# generated using pymatgen
data_Dy4TmPb3S
_symmetry_space_group_name_H-M   'P 1'
_cell_length_a   9.13493300
_cell_length_b   9.13489753
_cell_length_c   6.70954300
_cell_angle_alpha   89.99989337
_cell_angle_beta   90.00006272
_cell_angle_gamma   119.99987858
_symmetry_Int_Tables_number   1
_chemical_formula_structural   Dy4TmPb3S
_chemical_formula_sum   'Dy8 Tm2 Pb6 S2'
_cell_volume   484.87874838
_cell_formula_units_Z   2
loop_
 _symmetry_equiv_pos_site_id
 _symmetry_equiv_pos_as_xyz
  1  'x, y, z'
loop_
 _atom_site_type_symbol
 _atom_site_label
 _atom_site_symmetry_multiplicity
 _atom_site_fract_x
 _atom_site_fract_y
 _atom_site_fract_z
 _atom_site_occupancy
  Dy  Dy0  1  0.756916  0.756915  0.750276  1
  Dy  Dy1  1  0.243084  0.999999  0.750276  1
  Dy  Dy2  1  0.000000  0.243086  0.750272  1
  Dy  Dy3  1  0.243084  0.243085  0.249724  1
  Dy  Dy4  1  0.756916  0.000001  0.249724  1
  Dy  Dy5  1  0.000000  0.756914  0.249728  1
  Dy  Dy6  1  0.333317  0.666660  0.500000  1
  Dy  Dy7  1  0.666683  0.333340  0.500000  1
  Tm  Tm8  1  0.666684  0.333342  0.000000  1
  Tm  Tm9  1  0.333316  0.666658  0.000000  1
  Pb  Pb10  1  0.397591  0.397558  0.751391  1
  Pb  Pb11  1  0.602409  0.999967  0.751391  1
  Pb  Pb12  1  0.000000  0.602429  0.751382  1
  Pb  Pb13  1  0.602409  0.602442  0.248609  1
  Pb  Pb14  1  0.397591  0.000033  0.248609  1
  Pb  Pb15  1  0.000000  0.397571  0.248618  1
  S  S16  1  0.000000  0.000000  0.000000  1
  S  S17  1  0.000000  0.000000  0.500000  1
