# generated using pymatgen
data_HoAl3ZnNi
_symmetry_space_group_name_H-M   'P 1'
_cell_length_a   7.97733009
_cell_length_b   7.97733041
_cell_length_c   6.53384600
_cell_angle_alpha   90.00000000
_cell_angle_beta   90.00000000
_cell_angle_gamma   150.65106640
_symmetry_Int_Tables_number   1
_chemical_formula_structural   HoAl3ZnNi
_chemical_formula_sum   'Ho2 Al6 Zn2 Ni2'
_cell_volume   203.79462414
_cell_formula_units_Z   2
loop_
 _symmetry_equiv_pos_site_id
 _symmetry_equiv_pos_as_xyz
  1  'x, y, z'
loop_
 _atom_site_type_symbol
 _atom_site_label
 _atom_site_symmetry_multiplicity
 _atom_site_fract_x
 _atom_site_fract_y
 _atom_site_fract_z
 _atom_site_occupancy
  Ho  Ho0  1  0.878892  0.121108  0.250000  1
  Ho  Ho1  1  0.121108  0.878892  0.750000  1
  Al  Al2  1  0.925946  0.074054  0.750000  1
  Al  Al3  1  0.074054  0.925946  0.250000  1
  Al  Al4  1  0.312329  0.687671  0.948570  1
  Al  Al5  1  0.687671  0.312329  0.051430  1
  Al  Al6  1  0.687671  0.312329  0.448570  1
  Al  Al7  1  0.312329  0.687671  0.551430  1
  Zn  Zn8  1  0.500000  0.500000  0.000000  1
  Zn  Zn9  1  0.500000  0.500000  0.500000  1
  Ni  Ni10  1  0.224239  0.775761  0.250000  1
  Ni  Ni11  1  0.775761  0.224239  0.750000  1
