# generated using pymatgen
data_Ac6TcO12
_symmetry_space_group_name_H-M   'P 1'
_cell_length_a   7.06994707
_cell_length_b   7.06994614
_cell_length_c   7.06994600
_cell_angle_alpha   98.50217493
_cell_angle_beta   98.50218200
_cell_angle_gamma   98.50218091
_symmetry_Int_Tables_number   1
_chemical_formula_structural   Ac6TcO12
_chemical_formula_sum   'Ac6 Tc1 O12'
_cell_volume   340.41842239
_cell_formula_units_Z   1
loop_
 _symmetry_equiv_pos_site_id
 _symmetry_equiv_pos_as_xyz
  1  'x, y, z'
loop_
 _atom_site_type_symbol
 _atom_site_label
 _atom_site_symmetry_multiplicity
 _atom_site_fract_x
 _atom_site_fract_y
 _atom_site_fract_z
 _atom_site_occupancy
  Ac  Ac0  1  0.142247  0.300960  0.604804  1
  Ac  Ac1  1  0.395196  0.857753  0.699040  1
  Ac  Ac2  1  0.699040  0.395196  0.857753  1
  Ac  Ac3  1  0.300960  0.604804  0.142247  1
  Ac  Ac4  1  0.604804  0.142247  0.300960  1
  Ac  Ac5  1  0.857753  0.699040  0.395196  1
  Tc  Tc6  1  0.000000  0.000000  0.000000  1
  O  O7  1  0.066121  0.275729  0.970397  1
  O  O8  1  0.029603  0.933879  0.724271  1
  O  O9  1  0.405895  0.555964  0.822626  1
  O  O10  1  0.177374  0.594105  0.444036  1
  O  O11  1  0.724271  0.029603  0.933879  1
  O  O12  1  0.444036  0.177374  0.594105  1
  O  O13  1  0.555964  0.822626  0.405895  1
  O  O14  1  0.275729  0.970397  0.066121  1
  O  O15  1  0.822626  0.405895  0.555964  1
  O  O16  1  0.594105  0.444036  0.177374  1
  O  O17  1  0.970397  0.066121  0.275729  1
  O  O18  1  0.933879  0.724271  0.029603  1
