# generated using pymatgen
data_Ho2Er2ReTcB12
_symmetry_space_group_name_H-M   'P 1'
_cell_length_a   3.66259500
_cell_length_b   9.13121889
_cell_length_c   11.50890400
_cell_angle_alpha   90.05224497
_cell_angle_beta   90.00000000
_cell_angle_gamma   90.00000000
_symmetry_Int_Tables_number   1
_chemical_formula_structural   Ho2Er2ReTcB12
_chemical_formula_sum   'Ho4 Er4 Re2 Tc2 B24'
_cell_volume   384.90312657
_cell_formula_units_Z   2
loop_
 _symmetry_equiv_pos_site_id
 _symmetry_equiv_pos_as_xyz
  1  'x, y, z'
loop_
 _atom_site_type_symbol
 _atom_site_label
 _atom_site_symmetry_multiplicity
 _atom_site_fract_x
 _atom_site_fract_y
 _atom_site_fract_z
 _atom_site_occupancy
  Ho  Ho0  1  0.000000  0.323893  0.414029  1
  Ho  Ho1  1  0.000000  0.676107  0.585971  1
  Ho  Ho2  1  0.000000  0.823350  0.086091  1
  Ho  Ho3  1  0.000000  0.176650  0.913909  1
  Er  Er4  1  0.000000  0.942376  0.370020  1
  Er  Er5  1  0.000000  0.057624  0.629980  1
  Er  Er6  1  0.000000  0.443944  0.130394  1
  Er  Er7  1  0.000000  0.556056  0.869606  1
  Re  Re8  1  0.000000  0.138931  0.179395  1
  Re  Re9  1  0.000000  0.861069  0.820605  1
  Tc  Tc10  1  0.000000  0.639016  0.320673  1
  Tc  Tc11  1  0.000000  0.360984  0.679327  1
  B  B12  1  0.500000  0.553455  0.433052  1
  B  B13  1  0.500000  0.446545  0.566948  1
  B  B14  1  0.500000  0.053363  0.066834  1
  B  B15  1  0.500000  0.946637  0.933166  1
  B  B16  1  0.500000  0.749386  0.418916  1
  B  B17  1  0.500000  0.250614  0.581084  1
  B  B18  1  0.500000  0.249887  0.081002  1
  B  B19  1  0.500000  0.750113  0.918998  1
  B  B20  1  0.500000  0.792420  0.265480  1
  B  B21  1  0.500000  0.207580  0.734520  1
  B  B22  1  0.500000  0.292814  0.234659  1
  B  B23  1  0.500000  0.707186  0.765341  1
  B  B24  1  0.500000  0.631081  0.185536  1
  B  B25  1  0.500000  0.368919  0.814464  1
  B  B26  1  0.500000  0.130816  0.314791  1
  B  B27  1  0.500000  0.869184  0.685209  1
  B  B28  1  0.500000  0.981923  0.212000  1
  B  B29  1  0.500000  0.018077  0.788000  1
  B  B30  1  0.500000  0.482368  0.288113  1
  B  B31  1  0.500000  0.517632  0.711887  1
  B  B32  1  0.500000  0.600070  0.027886  1
  B  B33  1  0.500000  0.399930  0.972114  1
  B  B34  1  0.500000  0.099863  0.471985  1
  B  B35  1  0.500000  0.900137  0.528015  1
