# generated using pymatgen
data_Nb6TcMo3Ru2
_symmetry_space_group_name_H-M   'P 1'
_cell_length_a   4.52226100
_cell_length_b   6.41731900
_cell_length_c   13.69039100
_cell_angle_alpha   90.00000000
_cell_angle_beta   90.00000000
_cell_angle_gamma   90.00000000
_symmetry_Int_Tables_number   1
_chemical_formula_structural   Nb6TcMo3Ru2
_chemical_formula_sum   'Nb12 Tc2 Mo6 Ru4'
_cell_volume   397.30598192
_cell_formula_units_Z   2
loop_
 _symmetry_equiv_pos_site_id
 _symmetry_equiv_pos_as_xyz
  1  'x, y, z'
loop_
 _atom_site_type_symbol
 _atom_site_label
 _atom_site_symmetry_multiplicity
 _atom_site_fract_x
 _atom_site_fract_y
 _atom_site_fract_z
 _atom_site_occupancy
  Nb  Nb0  1  0.500000  0.249180  0.999084  1
  Nb  Nb1  1  0.500000  0.750820  0.999084  1
  Nb  Nb2  1  0.000000  0.249982  0.166588  1
  Nb  Nb3  1  0.000000  0.750018  0.166588  1
  Nb  Nb4  1  0.500005  0.250019  0.333411  1
  Nb  Nb5  1  0.500005  0.749981  0.333411  1
  Nb  Nb6  1  0.000000  0.250819  0.500916  1
  Nb  Nb7  1  0.000000  0.749181  0.500916  1
  Nb  Nb8  1  0.499996  0.250758  0.667434  1
  Nb  Nb9  1  0.499996  0.749242  0.667434  1
  Nb  Nb10  1  0.000000  0.249243  0.832567  1
  Nb  Nb11  1  0.000000  0.750757  0.832567  1
  Tc  Tc12  1  0.000000  0.499999  0.666275  1
  Tc  Tc13  1  0.499996  0.000000  0.833724  1
  Mo  Mo14  1  0.000000  0.000000  0.001187  1
  Mo  Mo15  1  0.500005  0.499999  0.167030  1
  Mo  Mo16  1  0.000000  0.000000  0.332970  1
  Mo  Mo17  1  0.500000  0.499999  0.498813  1
  Mo  Mo18  1  0.000000  0.000000  0.665896  1
  Mo  Mo19  1  0.499993  0.499999  0.834104  1
  Ru  Ru20  1  0.000000  0.499999  0.000743  1
  Ru  Ru21  1  0.500005  0.000000  0.167010  1
  Ru  Ru22  1  0.000000  0.499999  0.332991  1
  Ru  Ru23  1  0.500000  0.000000  0.499257  1
