# generated using pymatgen
data_Ba10Si17Pb
_symmetry_space_group_name_H-M   'P 1'
_cell_length_a   6.66370647
_cell_length_b   6.66370492
_cell_length_c   17.90334100
_cell_angle_alpha   81.62503221
_cell_angle_beta   81.62502548
_cell_angle_gamma   100.72622107
_symmetry_Int_Tables_number   1
_chemical_formula_structural   Ba10Si17Pb
_chemical_formula_sum   'Ba10 Si17 Pb1'
_cell_volume   760.47464102
_cell_formula_units_Z   1
loop_
 _symmetry_equiv_pos_site_id
 _symmetry_equiv_pos_as_xyz
  1  'x, y, z'
loop_
 _atom_site_type_symbol
 _atom_site_label
 _atom_site_symmetry_multiplicity
 _atom_site_fract_x
 _atom_site_fract_y
 _atom_site_fract_z
 _atom_site_occupancy
  Ba  Ba0  1  0.747106  0.250943  0.002512  1
  Ba  Ba1  1  0.108946  0.578490  0.788428  1
  Ba  Ba2  1  0.290373  0.710165  0.499791  1
  Ba  Ba3  1  0.761548  0.761548  0.641726  1
  Ba  Ba4  1  0.243918  0.243918  0.351995  1
  Ba  Ba5  1  0.578490  0.108946  0.788428  1
  Ba  Ba6  1  0.250943  0.747106  0.002512  1
  Ba  Ba7  1  0.710165  0.290373  0.499791  1
  Ba  Ba8  1  0.418680  0.890042  0.209761  1
  Ba  Ba9  1  0.890042  0.418680  0.209761  1
  Si  Si10  1  0.218771  0.218771  0.071422  1
  Si  Si11  1  0.926772  0.926772  0.264213  1
  Si  Si12  1  0.071307  0.071307  0.736276  1
  Si  Si13  1  0.790877  0.790877  0.937459  1
  Si  Si14  1  0.348924  0.348924  0.647732  1
  Si  Si15  1  0.273098  0.273098  0.936108  1
  Si  Si16  1  0.938428  0.938428  0.132085  1
  Si  Si17  1  0.651062  0.651062  0.352228  1
  Si  Si18  1  0.426746  0.426746  0.142492  1
  Si  Si19  1  0.060579  0.060579  0.869751  1
  Si  Si20  1  0.817049  0.817049  0.449418  1
  Si  Si21  1  0.330393  0.972178  0.643131  1
  Si  Si22  1  0.670660  0.027869  0.356416  1
  Si  Si23  1  0.182974  0.182974  0.550213  1
  Si  Si24  1  0.972178  0.330393  0.643131  1
  Si  Si25  1  0.027869  0.670660  0.356416  1
  Si  Si26  1  0.709501  0.709501  0.071688  1
  Pb  Pb27  1  0.582604  0.582604  0.845118  1
