# generated using pymatgen
data_Ho8AlSi16Tc11
_symmetry_space_group_name_H-M   'P 1'
_cell_length_a   6.77816032
_cell_length_b   6.77815985
_cell_length_c   12.71020800
_cell_angle_alpha   89.93533454
_cell_angle_beta   90.06466545
_cell_angle_gamma   90.34034180
_symmetry_Int_Tables_number   1
_chemical_formula_structural   Ho8AlSi16Tc11
_chemical_formula_sum   'Ho8 Al1 Si16 Tc11'
_cell_volume   583.93981626
_cell_formula_units_Z   1
loop_
 _symmetry_equiv_pos_site_id
 _symmetry_equiv_pos_as_xyz
  1  'x, y, z'
loop_
 _atom_site_type_symbol
 _atom_site_label
 _atom_site_symmetry_multiplicity
 _atom_site_fract_x
 _atom_site_fract_y
 _atom_site_fract_z
 _atom_site_occupancy
  Ho  Ho0  1  0.336555  0.989597  0.467261  1
  Ho  Ho1  1  0.508800  0.839883  0.717182  1
  Ho  Ho2  1  0.496590  0.162883  0.221621  1
  Ho  Ho3  1  0.839883  0.508800  0.282818  1
  Ho  Ho4  1  0.162883  0.496590  0.778379  1
  Ho  Ho5  1  0.665560  0.010832  0.966362  1
  Ho  Ho6  1  0.989597  0.336555  0.532739  1
  Ho  Ho7  1  0.010832  0.665560  0.033638  1
  Al  Al8  1  0.336453  0.336453  0.000000  1
  Si  Si9  1  0.193565  0.111175  0.685636  1
  Si  Si10  1  0.381903  0.706036  0.931266  1
  Si  Si11  1  0.612636  0.303616  0.432428  1
  Si  Si12  1  0.706036  0.381903  0.068734  1
  Si  Si13  1  0.303616  0.612636  0.567572  1
  Si  Si14  1  0.806575  0.885948  0.183942  1
  Si  Si15  1  0.111175  0.193565  0.314364  1
  Si  Si16  1  0.885948  0.806575  0.816058  1
  Si  Si17  1  0.289107  0.967607  0.066144  1
  Si  Si18  1  0.513089  0.760761  0.309204  1
  Si  Si19  1  0.488788  0.234544  0.802647  1
  Si  Si20  1  0.760761  0.513089  0.690796  1
  Si  Si21  1  0.234544  0.488788  0.197353  1
  Si  Si22  1  0.728622  0.012849  0.557334  1
  Si  Si23  1  0.967607  0.289107  0.933856  1
  Si  Si24  1  0.012849  0.728622  0.442666  1
  Tc  Tc25  1  0.166360  0.836941  0.249082  1
  Tc  Tc26  1  0.836941  0.166360  0.750918  1
  Tc  Tc27  1  0.661855  0.661855  0.500000  1
  Tc  Tc28  1  0.180565  0.000260  0.876936  1
  Tc  Tc29  1  0.520087  0.681406  0.115198  1
  Tc  Tc30  1  0.475434  0.305907  0.613031  1
  Tc  Tc31  1  0.681406  0.520087  0.884802  1
  Tc  Tc32  1  0.305907  0.475434  0.386969  1
  Tc  Tc33  1  0.811994  0.015217  0.366278  1
  Tc  Tc34  1  0.000260  0.180565  0.123064  1
  Tc  Tc35  1  0.015217  0.811994  0.633722  1
