# generated using pymatgen
data_NdLuTh2(Al3Ir)6
_symmetry_space_group_name_H-M   'P 1'
_cell_length_a   7.62418705
_cell_length_b   7.63689537
_cell_length_c   9.50559600
_cell_angle_alpha   90.00000000
_cell_angle_beta   90.00000000
_cell_angle_gamma   119.51153864
_symmetry_Int_Tables_number   1
_chemical_formula_structural   NdLuTh2(Al3Ir)6
_chemical_formula_sum   'Nd1 Lu1 Th2 Al18 Ir6'
_cell_volume   481.65604621
_cell_formula_units_Z   1
loop_
 _symmetry_equiv_pos_site_id
 _symmetry_equiv_pos_as_xyz
  1  'x, y, z'
loop_
 _atom_site_type_symbol
 _atom_site_label
 _atom_site_symmetry_multiplicity
 _atom_site_fract_x
 _atom_site_fract_y
 _atom_site_fract_z
 _atom_site_occupancy
  Nd  Nd0  1  0.004399  0.328818  0.750000  1
  Lu  Lu1  1  0.327659  0.005475  0.750000  1
  Th  Th2  1  0.995449  0.671357  0.250000  1
  Th  Th3  1  0.670972  0.994465  0.250000  1
  Al  Al4  1  0.135894  0.133818  0.250000  1
  Al  Al5  1  0.873192  0.872339  0.750000  1
  Al  Al6  1  0.006017  0.335481  0.071698  1
  Al  Al7  1  0.001108  0.667423  0.918991  1
  Al  Al8  1  0.001108  0.667423  0.581009  1
  Al  Al9  1  0.335495  0.005127  0.432107  1
  Al  Al10  1  0.006017  0.335481  0.428302  1
  Al  Al11  1  0.661565  0.998656  0.580911  1
  Al  Al12  1  0.661565  0.998656  0.919089  1
  Al  Al13  1  0.335495  0.005127  0.067893  1
  Al  Al14  1  0.333621  0.331778  0.556560  1
  Al  Al15  1  0.663007  0.662774  0.456964  1
  Al  Al16  1  0.663007  0.662774  0.043036  1
  Al  Al17  1  0.333621  0.331778  0.943440  1
  Al  Al18  1  0.341377  0.543130  0.250000  1
  Al  Al19  1  0.656506  0.447854  0.750000  1
  Al  Al20  1  0.543357  0.338523  0.250000  1
  Al  Al21  1  0.449612  0.661582  0.750000  1
  Ir  Ir22  1  0.672578  0.328473  0.001608  1
  Ir  Ir23  1  0.328951  0.673838  0.001971  1
  Ir  Ir24  1  0.328951  0.673838  0.498029  1
  Ir  Ir25  1  0.672578  0.328473  0.498392  1
  Ir  Ir26  1  0.998451  0.997771  0.002281  1
  Ir  Ir27  1  0.998451  0.997771  0.497719  1
