# generated using pymatgen
data_Ca2Tb2Sb6Rh7
_symmetry_space_group_name_H-M   'P 1'
_cell_length_a   7.61989613
_cell_length_b   7.63146177
_cell_length_c   7.63146083
_cell_angle_alpha   109.52477647
_cell_angle_beta   109.47515593
_cell_angle_gamma   109.47515503
_symmetry_Int_Tables_number   1
_chemical_formula_structural   Ca2Tb2Sb6Rh7
_chemical_formula_sum   'Ca2 Tb2 Sb6 Rh7'
_cell_volume   341.36015531
_cell_formula_units_Z   1
loop_
 _symmetry_equiv_pos_site_id
 _symmetry_equiv_pos_as_xyz
  1  'x, y, z'
loop_
 _atom_site_type_symbol
 _atom_site_label
 _atom_site_symmetry_multiplicity
 _atom_site_fract_x
 _atom_site_fract_y
 _atom_site_fract_z
 _atom_site_occupancy
  Ca  Ca0  1  0.500000  0.000000  0.000000  1
  Ca  Ca1  1  0.500000  0.500000  0.500000  1
  Tb  Tb2  1  0.000000  0.500000  0.000000  1
  Tb  Tb3  1  0.000000  0.000000  0.500000  1
  Sb  Sb4  1  0.000000  0.318935  0.318935  1
  Sb  Sb5  1  0.678690  0.997206  0.681484  1
  Sb  Sb6  1  0.678690  0.681484  0.997206  1
  Sb  Sb7  1  0.000000  0.681065  0.681065  1
  Sb  Sb8  1  0.321310  0.002794  0.318516  1
  Sb  Sb9  1  0.321310  0.318516  0.002794  1
  Rh  Rh10  1  0.000000  0.000000  0.000000  1
  Rh  Rh11  1  0.500000  0.750000  0.250000  1
  Rh  Rh12  1  0.754841  0.505150  0.249691  1
  Rh  Rh13  1  0.245159  0.750309  0.494850  1
  Rh  Rh14  1  0.245159  0.494850  0.750309  1
  Rh  Rh15  1  0.500000  0.250000  0.750000  1
  Rh  Rh16  1  0.754841  0.249691  0.505150  1
