# generated using pymatgen
data_Cd3Bi5(Os2O11)2
_symmetry_space_group_name_H-M   'P 1'
_cell_length_a   6.66030371
_cell_length_b   7.49497299
_cell_length_c   9.86751488
_cell_angle_alpha   100.85739671
_cell_angle_beta   92.43331036
_cell_angle_gamma   89.91631784
_symmetry_Int_Tables_number   1
_chemical_formula_structural   Cd3Bi5(Os2O11)2
_chemical_formula_sum   'Cd3 Bi5 Os4 O22'
_cell_volume   483.30999253
_cell_formula_units_Z   1
loop_
 _symmetry_equiv_pos_site_id
 _symmetry_equiv_pos_as_xyz
  1  'x, y, z'
loop_
 _atom_site_type_symbol
 _atom_site_label
 _atom_site_symmetry_multiplicity
 _atom_site_fract_x
 _atom_site_fract_y
 _atom_site_fract_z
 _atom_site_occupancy
  Cd  Cd0  1  0.733585  0.374182  0.489237  1
  Cd  Cd1  1  0.268970  0.630242  0.512161  1
  Cd  Cd2  1  0.753864  0.865394  0.479962  1
  Bi  Bi3  1  0.259991  0.124985  0.515878  1
  Bi  Bi4  1  0.452462  0.949911  0.817076  1
  Bi  Bi5  1  0.550652  0.043346  0.180028  1
  Bi  Bi6  1  0.408079  0.461360  0.826074  1
  Bi  Bi7  1  0.589661  0.545849  0.182968  1
  Os  Os8  1  0.933811  0.702750  0.806497  1
  Os  Os9  1  0.067549  0.298393  0.192260  1
  Os  Os10  1  0.928716  0.202555  0.808435  1
  Os  Os11  1  0.066221  0.796498  0.190458  1
  O  O12  1  0.231557  0.715164  0.766599  1
  O  O13  1  0.774372  0.280246  0.226412  1
  O  O14  1  0.640591  0.683697  0.832091  1
  O  O15  1  0.353481  0.314504  0.161007  1
  O  O16  1  0.645295  0.238197  0.843741  1
  O  O17  1  0.358187  0.766358  0.164927  1
  O  O18  1  0.883667  0.165585  0.613121  1
  O  O19  1  0.102018  0.828665  0.390127  1
  O  O20  1  0.222196  0.166900  0.769411  1
  O  O21  1  0.772197  0.832941  0.232591  1
  O  O22  1  0.898348  0.643436  0.612347  1
  O  O23  1  0.106113  0.362289  0.385159  1
  O  O24  1  0.028428  0.545838  0.180883  1
  O  O25  1  0.972302  0.454647  0.814692  1
  O  O26  1  0.000076  0.763708  0.998868  1
  O  O27  1  0.000873  0.236129  0.999715  1
  O  O28  1  0.571965  0.595069  0.397729  1
  O  O29  1  0.422599  0.391224  0.608547  1
  O  O30  1  0.107282  0.048590  0.201713  1
  O  O31  1  0.896276  0.950584  0.802075  1
  O  O32  1  0.537322  0.106212  0.396082  1
  O  O33  1  0.461296  0.914552  0.601128  1
