# generated using pymatgen
data_Tb5Ti3(P3Ir4)4
_symmetry_space_group_name_H-M   'P 1'
_cell_length_a   12.77572700
_cell_length_b   12.77572800
_cell_length_c   3.96255800
_cell_angle_alpha   90.00000000
_cell_angle_beta   90.00000000
_cell_angle_gamma   120.00000000
_symmetry_Int_Tables_number   1
_chemical_formula_structural   Tb5Ti3(P3Ir4)4
_chemical_formula_sum   'Tb5 Ti3 P12 Ir16'
_cell_volume   560.11543890
_cell_formula_units_Z   1
loop_
 _symmetry_equiv_pos_site_id
 _symmetry_equiv_pos_as_xyz
  1  'x, y, z'
loop_
 _atom_site_type_symbol
 _atom_site_label
 _atom_site_symmetry_multiplicity
 _atom_site_fract_x
 _atom_site_fract_y
 _atom_site_fract_z
 _atom_site_occupancy
  Tb  Tb0  1  0.333333  0.666667  0.500000  1
  Tb  Tb1  1  0.666667  0.333333  0.500000  1
  Tb  Tb2  1  0.000000  0.812371  0.000000  1
  Tb  Tb3  1  0.187629  0.187629  0.000000  1
  Tb  Tb4  1  0.812371  0.000000  0.000000  1
  Ti  Ti5  1  0.000000  0.447798  0.500000  1
  Ti  Ti6  1  0.552202  0.552202  0.500000  1
  Ti  Ti7  1  0.447798  0.000000  0.500000  1
  P  P8  1  0.000000  0.640208  0.500000  1
  P  P9  1  0.359792  0.359792  0.500000  1
  P  P10  1  0.640208  0.000000  0.500000  1
  P  P11  1  0.517201  0.684417  0.000000  1
  P  P12  1  0.315583  0.832785  0.000000  1
  P  P13  1  0.167215  0.482799  0.000000  1
  P  P14  1  0.482799  0.167215  0.000000  1
  P  P15  1  0.684417  0.517201  0.000000  1
  P  P16  1  0.832785  0.315583  0.000000  1
  P  P17  1  0.000000  0.176787  0.500000  1
  P  P18  1  0.823213  0.823213  0.500000  1
  P  P19  1  0.176787  0.000000  0.500000  1
  Ir  Ir20  1  0.509246  0.866718  0.000000  1
  Ir  Ir21  1  0.133282  0.642528  0.000000  1
  Ir  Ir22  1  0.357472  0.490754  0.000000  1
  Ir  Ir23  1  0.490754  0.357472  0.000000  1
  Ir  Ir24  1  0.866718  0.509246  0.000000  1
  Ir  Ir25  1  0.642528  0.133282  0.000000  1
  Ir  Ir26  1  0.000000  0.283246  0.000000  1
  Ir  Ir27  1  0.716754  0.716754  0.000000  1
  Ir  Ir28  1  0.283246  0.000000  0.000000  1
  Ir  Ir29  1  0.626554  0.804886  0.500000  1
  Ir  Ir30  1  0.195114  0.821668  0.500000  1
  Ir  Ir31  1  0.178332  0.373446  0.500000  1
  Ir  Ir32  1  0.373446  0.178332  0.500000  1
  Ir  Ir33  1  0.804886  0.626554  0.500000  1
  Ir  Ir34  1  0.821668  0.195114  0.500000  1
  Ir  Ir35  1  0.000000  0.000000  0.500000  1
