# generated using pymatgen
data_Tb10TcIrRh2
_symmetry_space_group_name_H-M   'P 1'
_cell_length_a   6.46163875
_cell_length_b   7.28842088
_cell_length_c   8.57867041
_cell_angle_alpha   96.64646127
_cell_angle_beta   111.34665850
_cell_angle_gamma   90.18678363
_symmetry_Int_Tables_number   1
_chemical_formula_structural   Tb10TcIrRh2
_chemical_formula_sum   'Tb10 Tc1 Ir1 Rh2'
_cell_volume   373.31722773
_cell_formula_units_Z   1
loop_
 _symmetry_equiv_pos_site_id
 _symmetry_equiv_pos_as_xyz
  1  'x, y, z'
loop_
 _atom_site_type_symbol
 _atom_site_label
 _atom_site_symmetry_multiplicity
 _atom_site_fract_x
 _atom_site_fract_y
 _atom_site_fract_z
 _atom_site_occupancy
  Tb  Tb0  1  0.982138  0.916028  0.187590  1
  Tb  Tb1  1  0.789414  0.582658  0.810690  1
  Tb  Tb2  1  0.022549  0.083030  0.812107  1
  Tb  Tb3  1  0.203846  0.415817  0.178158  1
  Tb  Tb4  1  0.648196  0.815894  0.436042  1
  Tb  Tb5  1  0.211150  0.683834  0.565445  1
  Tb  Tb6  1  0.348843  0.186922  0.563201  1
  Tb  Tb7  1  0.792113  0.313645  0.439656  1
  Tb  Tb8  1  0.424515  0.750210  0.999614  1
  Tb  Tb9  1  0.575509  0.248291  0.999982  1
  Tc  Tc10  1  0.176914  0.428826  0.786285  1
  Ir  Ir11  1  0.401209  0.073368  0.223848  1
  Rh  Rh12  1  0.822547  0.575389  0.222198  1
  Rh  Rh13  1  0.601058  0.926089  0.775184  1
