# generated using pymatgen
data_Lu8Ti3V2Si16Mo7
_symmetry_space_group_name_H-M   'P 1'
_cell_length_a   6.66421293
_cell_length_b   6.87999648
_cell_length_c   12.95216873
_cell_angle_alpha   90.02270920
_cell_angle_beta   89.95545618
_cell_angle_gamma   90.05555661
_symmetry_Int_Tables_number   1
_chemical_formula_structural   Lu8Ti3V2Si16Mo7
_chemical_formula_sum   'Lu8 Ti3 V2 Si16 Mo7'
_cell_volume   593.85334149
_cell_formula_units_Z   1
loop_
 _symmetry_equiv_pos_site_id
 _symmetry_equiv_pos_as_xyz
  1  'x, y, z'
loop_
 _atom_site_type_symbol
 _atom_site_label
 _atom_site_symmetry_multiplicity
 _atom_site_fract_x
 _atom_site_fract_y
 _atom_site_fract_z
 _atom_site_occupancy
  Lu  Lu0  1  0.500231  0.327208  0.096464  1
  Lu  Lu1  1  0.999068  0.171185  0.406161  1
  Lu  Lu2  1  0.501135  0.672949  0.593466  1
  Lu  Lu3  1  0.999619  0.826971  0.905452  1
  Lu  Lu4  1  0.501174  0.667692  0.905645  1
  Lu  Lu5  1  0.002646  0.831419  0.593659  1
  Lu  Lu6  1  0.498915  0.330268  0.406369  1
  Lu  Lu7  1  0.999094  0.168343  0.095607  1
  Ti  Ti8  1  0.836903  0.331236  0.624541  1
  Ti  Ti9  1  0.336378  0.169634  0.873885  1
  Ti  Ti10  1  0.163571  0.670899  0.127259  1
  V  V11  1  0.664710  0.833533  0.373060  1
  V  V12  1  0.166153  0.667895  0.374308  1
  Si  Si13  1  0.663121  0.039165  0.540616  1
  Si  Si14  1  0.161580  0.460349  0.956961  1
  Si  Si15  1  0.338638  0.960680  0.043340  1
  Si  Si16  1  0.836957  0.546446  0.454686  1
  Si  Si17  1  0.336851  0.953213  0.455083  1
  Si  Si18  1  0.834327  0.540070  0.042948  1
  Si  Si19  1  0.665381  0.040909  0.957947  1
  Si  Si20  1  0.166040  0.462148  0.540376  1
  Si  Si21  1  0.536076  0.373767  0.747393  1
  Si  Si22  1  0.036101  0.125609  0.750845  1
  Si  Si23  1  0.464627  0.628809  0.252691  1
  Si  Si24  1  0.961120  0.872242  0.254395  1
  Si  Si25  1  0.799377  0.630556  0.748360  1
  Si  Si26  1  0.300026  0.869014  0.750415  1
  Si  Si27  1  0.200795  0.372259  0.251301  1
  Si  Si28  1  0.698888  0.127885  0.251982  1
  Mo  Mo29  1  0.669971  0.831685  0.124975  1
  Mo  Mo30  1  0.829744  0.332256  0.876118  1
  Mo  Mo31  1  0.330615  0.165975  0.622464  1
  Mo  Mo32  1  0.664459  0.004955  0.749393  1
  Mo  Mo33  1  0.164296  0.494526  0.749292  1
  Mo  Mo34  1  0.334229  0.991626  0.251272  1
  Mo  Mo35  1  0.837187  0.506617  0.251269  1
