# generated using pymatgen
data_Th5Sn2GeTe
_symmetry_space_group_name_H-M   'P 1'
_cell_length_a   9.58132800
_cell_length_b   9.58132644
_cell_length_c   6.52681300
_cell_angle_alpha   90.00000000
_cell_angle_beta   90.00000000
_cell_angle_gamma   119.95798330
_symmetry_Int_Tables_number   1
_chemical_formula_structural   Th5Sn2GeTe
_chemical_formula_sum   'Th10 Sn4 Ge2 Te2'
_cell_volume   519.11892956
_cell_formula_units_Z   2
loop_
 _symmetry_equiv_pos_site_id
 _symmetry_equiv_pos_as_xyz
  1  'x, y, z'
loop_
 _atom_site_type_symbol
 _atom_site_label
 _atom_site_symmetry_multiplicity
 _atom_site_fract_x
 _atom_site_fract_y
 _atom_site_fract_z
 _atom_site_occupancy
  Th  Th0  1  0.666976  0.333244  0.996215  1
  Th  Th1  1  0.333244  0.666976  0.996215  1
  Th  Th2  1  0.333244  0.666976  0.503785  1
  Th  Th3  1  0.666976  0.333244  0.503785  1
  Th  Th4  1  0.735887  0.735887  0.750000  1
  Th  Th5  1  0.264296  0.999902  0.750000  1
  Th  Th6  1  0.999902  0.264296  0.750000  1
  Th  Th7  1  0.263318  0.263318  0.250000  1
  Th  Th8  1  0.735509  0.999818  0.250000  1
  Th  Th9  1  0.999818  0.735509  0.250000  1
  Sn  Sn10  1  0.387523  0.387523  0.750000  1
  Sn  Sn11  1  0.613469  0.998786  0.750000  1
  Sn  Sn12  1  0.998786  0.613469  0.750000  1
  Sn  Sn13  1  0.611817  0.611817  0.250000  1
  Ge  Ge14  1  0.000308  0.000308  0.001287  1
  Ge  Ge15  1  0.000308  0.000308  0.498713  1
  Te  Te16  1  0.388527  0.000091  0.250000  1
  Te  Te17  1  0.000091  0.388527  0.250000  1
