# generated using pymatgen
data_Pr4Nd6Sn20Ir3Rh5
_symmetry_space_group_name_H-M   'P 1'
_cell_length_a   14.23871500
_cell_length_b   14.22485900
_cell_length_c   4.64762100
_cell_angle_alpha   90.00000000
_cell_angle_beta   90.00000000
_cell_angle_gamma   89.99983894
_symmetry_Int_Tables_number   1
_chemical_formula_structural   Pr4Nd6Sn20Ir3Rh5
_chemical_formula_sum   'Pr4 Nd6 Sn20 Ir3 Rh5'
_cell_volume   941.34641496
_cell_formula_units_Z   1
loop_
 _symmetry_equiv_pos_site_id
 _symmetry_equiv_pos_as_xyz
  1  'x, y, z'
loop_
 _atom_site_type_symbol
 _atom_site_label
 _atom_site_symmetry_multiplicity
 _atom_site_fract_x
 _atom_site_fract_y
 _atom_site_fract_z
 _atom_site_occupancy
  Pr  Pr0  1  0.887389  0.389044  0.500000  1
  Pr  Pr1  1  0.112825  0.611142  0.500000  1
  Pr  Pr2  1  0.387173  0.110776  0.500000  1
  Pr  Pr3  1  0.611632  0.888357  0.500000  1
  Nd  Nd4  1  0.500006  0.499679  0.000000  1
  Nd  Nd5  1  0.000565  0.999829  0.000000  1
  Nd  Nd6  1  0.678079  0.178959  0.500000  1
  Nd  Nd7  1  0.320346  0.822757  0.500000  1
  Nd  Nd8  1  0.179626  0.322554  0.500000  1
  Nd  Nd9  1  0.820629  0.677621  0.500000  1
  Sn  Sn10  1  0.570010  0.069619  0.000000  1
  Sn  Sn11  1  0.431288  0.929141  0.000000  1
  Sn  Sn12  1  0.069087  0.429405  0.000000  1
  Sn  Sn13  1  0.931165  0.570528  0.000000  1
  Sn  Sn14  1  0.652858  0.699509  0.000000  1
  Sn  Sn15  1  0.347328  0.301010  0.000000  1
  Sn  Sn16  1  0.152720  0.800678  0.000000  1
  Sn  Sn17  1  0.847168  0.198488  0.000000  1
  Sn  Sn18  1  0.300707  0.653606  0.000000  1
  Sn  Sn19  1  0.699607  0.346462  0.000000  1
  Sn  Sn20  1  0.199153  0.153794  0.000000  1
  Sn  Sn21  1  0.801114  0.847244  0.000000  1
  Sn  Sn22  1  0.662080  0.504884  0.500000  1
  Sn  Sn23  1  0.338095  0.495130  0.500000  1
  Sn  Sn24  1  0.161904  0.995278  0.500000  1
  Sn  Sn25  1  0.836522  0.004881  0.500000  1
  Sn  Sn26  1  0.495248  0.663834  0.500000  1
  Sn  Sn27  1  0.504481  0.336555  0.500000  1
  Sn  Sn28  1  0.004720  0.163774  0.500000  1
  Sn  Sn29  1  0.995308  0.836287  0.500000  1
  Ir  Ir30  1  0.746548  0.530129  0.000000  1
  Ir  Ir31  1  0.253562  0.470043  0.000000  1
  Ir  Ir32  1  0.246700  0.970139  0.000000  1
  Rh  Rh33  1  0.754915  0.029833  0.000000  1
  Rh  Rh34  1  0.470150  0.744565  0.000000  1
  Rh  Rh35  1  0.529476  0.254611  0.000000  1
  Rh  Rh36  1  0.029347  0.245030  0.000000  1
  Rh  Rh37  1  0.970467  0.754829  0.000000  1
