# generated using pymatgen
data_CeMg2P4Pd7
_symmetry_space_group_name_H-M   'P 1'
_cell_length_a   7.71900826
_cell_length_b   7.71900702
_cell_length_c   9.24318547
_cell_angle_alpha   56.67899473
_cell_angle_beta   56.67899119
_cell_angle_gamma   30.22795922
_symmetry_Int_Tables_number   1
_chemical_formula_structural   CeMg2P4Pd7
_chemical_formula_sum   'Ce1 Mg2 P4 Pd7'
_cell_volume   228.00244346
_cell_formula_units_Z   1
loop_
 _symmetry_equiv_pos_site_id
 _symmetry_equiv_pos_as_xyz
  1  'x, y, z'
loop_
 _atom_site_type_symbol
 _atom_site_label
 _atom_site_symmetry_multiplicity
 _atom_site_fract_x
 _atom_site_fract_y
 _atom_site_fract_z
 _atom_site_occupancy
  Ce  Ce0  1  0.000000  0.000000  0.000000  1
  Mg  Mg1  1  0.670878  0.670878  0.334810  1
  Mg  Mg2  1  0.329122  0.329122  0.665190  1
  P  P3  1  0.339524  0.339524  0.258990  1
  P  P4  1  0.660476  0.660476  0.741010  1
  P  P5  1  0.893480  0.893480  0.816569  1
  P  P6  1  0.106520  0.106520  0.183431  1
  Pd  Pd7  1  0.299481  0.299481  0.043122  1
  Pd  Pd8  1  0.700519  0.700519  0.956878  1
  Pd  Pd9  1  0.507558  0.507558  0.710298  1
  Pd  Pd10  1  0.824716  0.824716  0.419466  1
  Pd  Pd11  1  0.492442  0.492442  0.289702  1
  Pd  Pd12  1  0.175284  0.175284  0.580534  1
  Pd  Pd13  1  0.000000  0.000000  0.500000  1
