# generated using pymatgen
data_PrZr3(Al8Pt3)3
_symmetry_space_group_name_H-M   'P 1'
_cell_length_a   7.50623697
_cell_length_b   7.51456680
_cell_length_c   13.06075659
_cell_angle_alpha   84.53613764
_cell_angle_beta   78.98404646
_cell_angle_gamma   59.92762207
_symmetry_Int_Tables_number   1
_chemical_formula_structural   PrZr3(Al8Pt3)3
_chemical_formula_sum   'Pr1 Zr3 Al24 Pt9'
_cell_volume   625.79335989
_cell_formula_units_Z   1
loop_
 _symmetry_equiv_pos_site_id
 _symmetry_equiv_pos_as_xyz
  1  'x, y, z'
loop_
 _atom_site_type_symbol
 _atom_site_label
 _atom_site_symmetry_multiplicity
 _atom_site_fract_x
 _atom_site_fract_y
 _atom_site_fract_z
 _atom_site_occupancy
  Pr  Pr0  1  0.267059  0.502248  0.188352  1
  Zr  Zr1  1  0.392812  0.167304  0.810406  1
  Zr  Zr2  1  0.606636  0.831970  0.188532  1
  Zr  Zr3  1  0.734145  0.499012  0.810208  1
  Al  Al4  1  0.682241  0.833468  0.939589  1
  Al  Al5  1  0.319231  0.161706  0.052529  1
  Al  Al6  1  0.145809  0.832963  0.564190  1
  Al  Al7  1  0.853708  0.167233  0.438061  1
  Al  Al8  1  0.480136  0.166495  0.561920  1
  Al  Al9  1  0.519569  0.833200  0.439937  1
  Al  Al10  1  0.219593  0.163044  0.330336  1
  Al  Al11  1  0.778058  0.834720  0.677461  1
  Al  Al12  1  0.437411  0.504187  0.677535  1
  Al  Al13  1  0.562384  0.495779  0.330395  1
  Al  Al14  1  0.107833  0.162183  0.675312  1
  Al  Al15  1  0.886953  0.840038  0.332075  1
  Al  Al16  1  0.359119  0.495725  0.936239  1
  Al  Al17  1  0.651177  0.502802  0.052312  1
  Al  Al18  1  0.017608  0.170365  0.946654  1
  Al  Al19  1  0.980999  0.835109  0.043655  1
  Al  Al20  1  0.186290  0.499523  0.441486  1
  Al  Al21  1  0.812141  0.500203  0.561910  1
  Al  Al22  1  0.737795  0.154119  0.183681  1
  Al  Al23  1  0.272475  0.836461  0.815735  1
  Al  Al24  1  0.060938  0.625957  0.814702  1
  Al  Al25  1  0.928742  0.374646  0.185010  1
  Al  Al26  1  0.849336  0.047671  0.815501  1
  Al  Al27  1  0.150167  0.963310  0.184683  1
  Pt  Pt28  1  0.120312  0.490100  0.639671  1
  Pt  Pt29  1  0.877510  0.508036  0.363095  1
  Pt  Pt30  1  0.657658  0.172081  0.997914  1
  Pt  Pt31  1  0.342868  0.828599  0.998435  1
  Pt  Pt32  1  0.538333  0.165356  0.363067  1
  Pt  Pt33  1  0.463604  0.833229  0.639184  1
  Pt  Pt34  1  0.777632  0.176403  0.638233  1
  Pt  Pt35  1  0.219993  0.826106  0.364375  1
  Pt  Pt36  1  0.001725  0.498649  0.997620  1
