# generated using pymatgen
data_CeErSi2(Ru2C)2
_symmetry_space_group_name_H-M   'P 1'
_cell_length_a   5.89902042
_cell_length_b   5.89902139
_cell_length_c   7.13320000
_cell_angle_alpha   90.00000000
_cell_angle_beta   90.00000000
_cell_angle_gamma   141.89999385
_symmetry_Int_Tables_number   1
_chemical_formula_structural   CeErSi2(Ru2C)2
_chemical_formula_sum   'Ce1 Er1 Si2 Ru4 C2'
_cell_volume   153.16331097
_cell_formula_units_Z   1
loop_
 _symmetry_equiv_pos_site_id
 _symmetry_equiv_pos_as_xyz
  1  'x, y, z'
loop_
 _atom_site_type_symbol
 _atom_site_label
 _atom_site_symmetry_multiplicity
 _atom_site_fract_x
 _atom_site_fract_y
 _atom_site_fract_z
 _atom_site_occupancy
  Ce  Ce0  1  0.448032  0.551968  0.750000  1
  Er  Er1  1  0.548873  0.451127  0.250000  1
  Si  Si2  1  0.269744  0.730256  0.250000  1
  Si  Si3  1  0.727396  0.272604  0.750000  1
  Ru  Ru4  1  0.836426  0.163574  0.057934  1
  Ru  Ru5  1  0.164905  0.835095  0.945403  1
  Ru  Ru6  1  0.164905  0.835095  0.554597  1
  Ru  Ru7  1  0.836426  0.163574  0.442066  1
  C  C8  1  0.001648  0.998352  0.006367  1
  C  C9  1  0.001648  0.998352  0.493633  1
