# generated using pymatgen
data_Er3NiPd2Pb3
_symmetry_space_group_name_H-M   'P 1'
_cell_length_a   7.78980100
_cell_length_b   7.78980113
_cell_length_c   3.76211200
_cell_angle_alpha   90.00000000
_cell_angle_beta   90.00000000
_cell_angle_gamma   119.99999518
_symmetry_Int_Tables_number   1
_chemical_formula_structural   Er3NiPd2Pb3
_chemical_formula_sum   'Er3 Ni1 Pd2 Pb3'
_cell_volume   197.70384118
_cell_formula_units_Z   1
loop_
 _symmetry_equiv_pos_site_id
 _symmetry_equiv_pos_as_xyz
  1  'x, y, z'
loop_
 _atom_site_type_symbol
 _atom_site_label
 _atom_site_symmetry_multiplicity
 _atom_site_fract_x
 _atom_site_fract_y
 _atom_site_fract_z
 _atom_site_occupancy
  Er  Er0  1  0.397960  0.397960  0.500000  1
  Er  Er1  1  0.602040  0.000000  0.500000  1
  Er  Er2  1  0.000000  0.602040  0.500000  1
  Ni  Ni3  1  0.000000  0.000000  0.500000  1
  Pd  Pd4  1  0.666667  0.333333  0.000000  1
  Pd  Pd5  1  0.333333  0.666667  0.000000  1
  Pb  Pb6  1  0.742382  0.742382  0.000000  1
  Pb  Pb7  1  0.257618  0.000000  0.000000  1
  Pb  Pb8  1  0.000000  0.257618  0.000000  1
