# generated using pymatgen
data_Dy2Ho10In2FeTc2
_symmetry_space_group_name_H-M   'P 1'
_cell_length_a   8.38726991
_cell_length_b   8.38727218
_cell_length_c   8.40127812
_cell_angle_alpha   108.76652944
_cell_angle_beta   108.76653015
_cell_angle_gamma   110.82409195
_symmetry_Int_Tables_number   1
_chemical_formula_structural   Dy2Ho10In2FeTc2
_chemical_formula_sum   'Dy2 Ho10 In2 Fe1 Tc2'
_cell_volume   455.12057933
_cell_formula_units_Z   1
loop_
 _symmetry_equiv_pos_site_id
 _symmetry_equiv_pos_as_xyz
  1  'x, y, z'
loop_
 _atom_site_type_symbol
 _atom_site_label
 _atom_site_symmetry_multiplicity
 _atom_site_fract_x
 _atom_site_fract_y
 _atom_site_fract_z
 _atom_site_occupancy
  Dy  Dy0  1  0.303618  0.303618  0.610104  1
  Dy  Dy1  1  0.693514  0.693514  0.389896  1
  Ho  Ho2  1  0.693063  0.304257  0.000000  1
  Ho  Ho3  1  0.304257  0.693063  0.000000  1
  Ho  Ho4  1  0.189753  0.431011  0.240103  1
  Ho  Ho5  1  0.807507  0.569487  0.762986  1
  Ho  Ho6  1  0.190909  0.949649  0.759897  1
  Ho  Ho7  1  0.949649  0.190909  0.759897  1
  Ho  Ho8  1  0.806501  0.044522  0.237014  1
  Ho  Ho9  1  0.044522  0.806501  0.237014  1
  Ho  Ho10  1  0.431011  0.189753  0.240103  1
  Ho  Ho11  1  0.569487  0.807507  0.762986  1
  In  In12  1  0.998307  0.498307  0.500000  1
  In  In13  1  0.498307  0.998307  0.500000  1
  Fe  Fe14  1  0.630109  0.630109  0.000000  1
  Tc  Tc15  1  0.388863  0.388863  0.000000  1
  Tc  Tc16  1  0.000624  0.000624  0.000000  1
