# generated using pymatgen
data_Er4B16IrPt3
_symmetry_space_group_name_H-M   'P 1'
_cell_length_a   7.01995650
_cell_length_b   7.01995609
_cell_length_c   7.01995669
_cell_angle_alpha   111.76746918
_cell_angle_beta   111.70594612
_cell_angle_gamma   105.02949371
_symmetry_Int_Tables_number   1
_chemical_formula_structural   Er4B16IrPt3
_chemical_formula_sum   'Er4 B16 Ir1 Pt3'
_cell_volume   265.11806558
_cell_formula_units_Z   1
loop_
 _symmetry_equiv_pos_site_id
 _symmetry_equiv_pos_as_xyz
  1  'x, y, z'
loop_
 _atom_site_type_symbol
 _atom_site_label
 _atom_site_symmetry_multiplicity
 _atom_site_fract_x
 _atom_site_fract_y
 _atom_site_fract_z
 _atom_site_occupancy
  Er  Er0  1  0.253598  0.748930  0.495333  1
  Er  Er1  1  0.746402  0.241735  0.495333  1
  Er  Er2  1  0.791407  0.797221  0.005814  1
  Er  Er3  1  0.208593  0.214407  0.005814  1
  B  B4  1  0.105982  0.106391  0.518570  1
  B  B5  1  0.584618  0.586889  0.477562  1
  B  B6  1  0.890673  0.892944  0.477562  1
  B  B7  1  0.587820  0.106391  0.000408  1
  B  B8  1  0.109327  0.586889  0.002271  1
  B  B9  1  0.894018  0.412588  0.000408  1
  B  B10  1  0.415382  0.892944  0.002271  1
  B  B11  1  0.412180  0.412588  0.518570  1
  B  B12  1  0.106034  0.261387  0.367421  1
  B  B13  1  0.266050  0.892917  0.158966  1
  B  B14  1  0.736026  0.106496  0.842522  1
  B  B15  1  0.106638  0.738874  0.845512  1
  B  B16  1  0.893966  0.261387  0.155353  1
  B  B17  1  0.893362  0.738874  0.632237  1
  B  B18  1  0.733950  0.892917  0.626867  1
  B  B19  1  0.263974  0.106496  0.370470  1
  Ir  Ir20  1  0.500000  0.740449  0.240449  1
  Pt  Pt21  1  0.744046  0.500445  0.244492  1
  Pt  Pt22  1  0.255954  0.500445  0.756399  1
  Pt  Pt23  1  0.500000  0.259397  0.759397  1
