# generated using pymatgen
data_Y3GaSiRh2
_symmetry_space_group_name_H-M   'P 1'
_cell_length_a   5.54799700
_cell_length_b   7.98968500
_cell_length_c   13.22156500
_cell_angle_alpha   90.00000000
_cell_angle_beta   90.00000000
_cell_angle_gamma   90.00000000
_symmetry_Int_Tables_number   1
_chemical_formula_structural   Y3GaSiRh2
_chemical_formula_sum   'Y12 Ga4 Si4 Rh8'
_cell_volume   586.06898535
_cell_formula_units_Z   4
loop_
 _symmetry_equiv_pos_site_id
 _symmetry_equiv_pos_as_xyz
  1  'x, y, z'
loop_
 _atom_site_type_symbol
 _atom_site_label
 _atom_site_symmetry_multiplicity
 _atom_site_fract_x
 _atom_site_fract_y
 _atom_site_fract_z
 _atom_site_occupancy
  Y  Y0  1  0.147671  0.602235  0.102701  1
  Y  Y1  1  0.147671  0.897765  0.897299  1
  Y  Y2  1  0.852329  0.102235  0.397299  1
  Y  Y3  1  0.852329  0.397765  0.602701  1
  Y  Y4  1  0.852329  0.397765  0.897299  1
  Y  Y5  1  0.852329  0.102235  0.102701  1
  Y  Y6  1  0.147671  0.897765  0.602701  1
  Y  Y7  1  0.147671  0.602235  0.397299  1
  Y  Y8  1  0.364678  0.243806  0.250000  1
  Y  Y9  1  0.364678  0.256194  0.750000  1
  Y  Y10  1  0.635322  0.743806  0.250000  1
  Y  Y11  1  0.635322  0.756194  0.750000  1
  Ga  Ga12  1  0.366225  0.250000  0.000000  1
  Ga  Ga13  1  0.633775  0.750000  0.500000  1
  Ga  Ga14  1  0.633775  0.750000  0.000000  1
  Ga  Ga15  1  0.366225  0.250000  0.500000  1
  Si  Si16  1  0.862458  0.389364  0.250000  1
  Si  Si17  1  0.862458  0.110636  0.750000  1
  Si  Si18  1  0.137542  0.889364  0.250000  1
  Si  Si19  1  0.137542  0.610636  0.750000  1
  Rh  Rh20  1  0.644484  0.469744  0.094993  1
  Rh  Rh21  1  0.644484  0.030256  0.905007  1
  Rh  Rh22  1  0.355516  0.969744  0.405007  1
  Rh  Rh23  1  0.355516  0.530256  0.594993  1
  Rh  Rh24  1  0.355516  0.530256  0.905007  1
  Rh  Rh25  1  0.355516  0.969744  0.094993  1
  Rh  Rh26  1  0.644484  0.030256  0.594993  1
  Rh  Rh27  1  0.644484  0.469744  0.405007  1
