# generated using pymatgen
data_La8Cd2Pd23
_symmetry_space_group_name_H-M   'P 1'
_cell_length_a   8.51009000
_cell_length_b   8.63710900
_cell_length_c   8.63710900
_cell_angle_alpha   90.00000000
_cell_angle_beta   90.00000000
_cell_angle_gamma   90.00000000
_symmetry_Int_Tables_number   1
_chemical_formula_structural   La8Cd2Pd23
_chemical_formula_sum   'La8 Cd2 Pd23'
_cell_volume   634.84975145
_cell_formula_units_Z   1
loop_
 _symmetry_equiv_pos_site_id
 _symmetry_equiv_pos_as_xyz
  1  'x, y, z'
loop_
 _atom_site_type_symbol
 _atom_site_label
 _atom_site_symmetry_multiplicity
 _atom_site_fract_x
 _atom_site_fract_y
 _atom_site_fract_z
 _atom_site_occupancy
  La  La0  1  0.248858  0.239352  0.239352  1
  La  La1  1  0.749509  0.748409  0.748409  1
  La  La2  1  0.749509  0.748409  0.251591  1
  La  La3  1  0.749509  0.251591  0.748409  1
  La  La4  1  0.248858  0.239352  0.760648  1
  La  La5  1  0.248858  0.760648  0.239352  1
  La  La6  1  0.248858  0.760648  0.760648  1
  La  La7  1  0.749509  0.251591  0.251591  1
  Cd  Cd8  1  0.997902  0.000000  0.000000  1
  Cd  Cd9  1  0.260143  0.500000  0.500000  1
  Pd  Pd10  1  0.266309  0.500000  0.000000  1
  Pd  Pd11  1  0.731947  0.500000  0.000000  1
  Pd  Pd12  1  0.005394  0.266468  0.500000  1
  Pd  Pd13  1  0.501891  0.269476  0.000000  1
  Pd  Pd14  1  0.005394  0.733532  0.500000  1
  Pd  Pd15  1  0.501891  0.730524  0.000000  1
  Pd  Pd16  1  0.501891  0.000000  0.269476  1
  Pd  Pd17  1  0.266309  0.000000  0.500000  1
  Pd  Pd18  1  0.501891  0.000000  0.730524  1
  Pd  Pd19  1  0.731947  0.000000  0.500000  1
  Pd  Pd20  1  0.005394  0.500000  0.266468  1
  Pd  Pd21  1  0.005394  0.500000  0.733532  1
  Pd  Pd22  1  0.744999  0.500000  0.500000  1
  Pd  Pd23  1  0.495551  0.253263  0.500000  1
  Pd  Pd24  1  0.495551  0.746737  0.500000  1
  Pd  Pd25  1  0.495551  0.500000  0.253263  1
  Pd  Pd26  1  0.495551  0.500000  0.746737  1
  Pd  Pd27  1  0.322425  0.000000  0.000000  1
  Pd  Pd28  1  0.681093  0.000000  0.000000  1
  Pd  Pd29  1  0.998029  0.316249  0.000000  1
  Pd  Pd30  1  0.998029  0.683751  0.000000  1
  Pd  Pd31  1  0.998029  0.000000  0.316249  1
  Pd  Pd32  1  0.998029  0.000000  0.683751  1
