# generated using pymatgen
data_HoErRh2F14
_symmetry_space_group_name_H-M   'P 1'
_cell_length_a   5.49763500
_cell_length_b   8.81801580
_cell_length_c   11.87894504
_cell_angle_alpha   62.72332573
_cell_angle_beta   90.00000000
_cell_angle_gamma   90.00000000
_symmetry_Int_Tables_number   1
_chemical_formula_structural   HoErRh2F14
_chemical_formula_sum   'Ho2 Er2 Rh4 F28'
_cell_volume   511.83571891
_cell_formula_units_Z   2
loop_
 _symmetry_equiv_pos_site_id
 _symmetry_equiv_pos_as_xyz
  1  'x, y, z'
loop_
 _atom_site_type_symbol
 _atom_site_label
 _atom_site_symmetry_multiplicity
 _atom_site_fract_x
 _atom_site_fract_y
 _atom_site_fract_z
 _atom_site_occupancy
  Ho  Ho0  1  0.760861  0.812822  0.765480  1
  Ho  Ho1  1  0.260861  0.187178  0.734520  1
  Er  Er2  1  0.238961  0.186317  0.234736  1
  Er  Er3  1  0.738961  0.813683  0.265264  1
  Rh  Rh4  1  0.758571  0.272626  0.956958  1
  Rh  Rh5  1  0.258571  0.727374  0.543042  1
  Rh  Rh6  1  0.241465  0.726377  0.044597  1
  Rh  Rh7  1  0.741465  0.273623  0.455403  1
  F  F8  1  0.437191  0.704359  0.916059  1
  F  F9  1  0.937191  0.295641  0.583941  1
  F  F10  1  0.561904  0.295116  0.084649  1
  F  F11  1  0.061904  0.704884  0.415351  1
  F  F12  1  0.440363  0.276539  0.543196  1
  F  F13  1  0.940363  0.723461  0.956804  1
  F  F14  1  0.560150  0.724197  0.455660  1
  F  F15  1  0.060150  0.275803  0.044340  1
  F  F16  1  0.776093  0.519228  0.860374  1
  F  F17  1  0.276093  0.480772  0.639626  1
  F  F18  1  0.224328  0.479481  0.140395  1
  F  F19  1  0.724328  0.520519  0.359605  1
  F  F20  1  0.754224  0.026837  0.050242  1
  F  F21  1  0.254224  0.973163  0.449758  1
  F  F22  1  0.245594  0.972264  0.950730  1
  F  F23  1  0.745594  0.027736  0.549270  1
  F  F24  1  0.965337  0.726448  0.636224  1
  F  F25  1  0.465337  0.273552  0.863776  1
  F  F26  1  0.034812  0.273426  0.362597  1
  F  F27  1  0.534812  0.726574  0.137403  1
  F  F28  1  0.048524  0.746956  0.175588  1
  F  F29  1  0.548524  0.253044  0.324412  1
  F  F30  1  0.949915  0.253080  0.825238  1
  F  F31  1  0.449915  0.746920  0.674762  1
  F  F32  1  0.416367  0.970976  0.231871  1
  F  F33  1  0.916367  0.029024  0.268129  1
  F  F34  1  0.585339  0.029918  0.768392  1
  F  F35  1  0.085339  0.970082  0.731608  1
