# generated using pymatgen
data_ErZn2P6IN12
_symmetry_space_group_name_H-M   'P 1'
_cell_length_a   7.35858582
_cell_length_b   7.33897435
_cell_length_c   7.35858595
_cell_angle_alpha   109.43878677
_cell_angle_beta   109.85522285
_cell_angle_gamma   109.43876027
_symmetry_Int_Tables_number   1
_chemical_formula_structural   ErZn2P6IN12
_chemical_formula_sum   'Er1 Zn2 P6 I1 N12'
_cell_volume   304.70126703
_cell_formula_units_Z   1
loop_
 _symmetry_equiv_pos_site_id
 _symmetry_equiv_pos_as_xyz
  1  'x, y, z'
loop_
 _atom_site_type_symbol
 _atom_site_label
 _atom_site_symmetry_multiplicity
 _atom_site_fract_x
 _atom_site_fract_y
 _atom_site_fract_z
 _atom_site_occupancy
  Er  Er0  1  0.019018  0.361918  0.019018  1
  Zn  Zn1  1  0.999047  0.004339  0.404344  1
  Zn  Zn2  1  0.404344  0.004339  0.999047  1
  P  P3  1  0.498909  0.259211  0.746530  1
  P  P4  1  0.248207  0.754484  0.496871  1
  P  P5  1  0.742217  0.504535  0.259434  1
  P  P6  1  0.746530  0.259211  0.498909  1
  P  P7  1  0.496871  0.754484  0.248207  1
  P  P8  1  0.259434  0.504535  0.742217  1
  I  I9  1  0.995546  0.941538  0.995546  1
  N  N10  1  0.388301  0.685154  0.388301  1
  N  N11  1  0.707488  0.432695  0.431475  1
  N  N12  1  0.431475  0.432695  0.707488  1
  N  N13  1  0.718251  0.281958  0.718251  1
  N  N14  1  0.990861  0.574122  0.288614  1
  N  N15  1  0.288614  0.574122  0.990861  1
  N  N16  1  0.279835  0.004776  0.565642  1
  N  N17  1  0.999718  0.283252  0.570749  1
  N  N18  1  0.718360  0.727298  0.290577  1
  N  N19  1  0.565642  0.004776  0.279835  1
  N  N20  1  0.290577  0.727298  0.718360  1
  N  N21  1  0.570749  0.283252  0.999718  1
