# generated using pymatgen
data_Tb6DyEr9(In3Co)2
_symmetry_space_group_name_H-M   'P 1'
_cell_length_a   10.32536000
_cell_length_b   10.32547202
_cell_length_c   7.01322100
_cell_angle_alpha   89.99843853
_cell_angle_beta   89.99992032
_cell_angle_gamma   120.00144352
_symmetry_Int_Tables_number   1
_chemical_formula_structural   Tb6DyEr9(In3Co)2
_chemical_formula_sum   'Tb6 Dy1 Er9 In6 Co2'
_cell_volume   647.52561837
_cell_formula_units_Z   1
loop_
 _symmetry_equiv_pos_site_id
 _symmetry_equiv_pos_as_xyz
  1  'x, y, z'
loop_
 _atom_site_type_symbol
 _atom_site_label
 _atom_site_symmetry_multiplicity
 _atom_site_fract_x
 _atom_site_fract_y
 _atom_site_fract_z
 _atom_site_occupancy
  Tb  Tb0  1  0.534770  0.069534  0.504231  1
  Tb  Tb1  1  0.930453  0.465226  0.504234  1
  Tb  Tb2  1  0.534769  0.465237  0.504232  1
  Tb  Tb3  1  0.465234  0.930476  0.004200  1
  Tb  Tb4  1  0.069541  0.534770  0.004201  1
  Tb  Tb5  1  0.465233  0.534759  0.004202  1
  Dy  Dy6  1  0.000001  0.000000  0.993822  1
  Er  Er7  1  0.178149  0.356301  0.711168  1
  Er  Er8  1  0.643705  0.821852  0.711172  1
  Er  Er9  1  0.178149  0.821846  0.711171  1
  Er  Er10  1  0.821783  0.643567  0.212042  1
  Er  Er11  1  0.356436  0.178218  0.212040  1
  Er  Er12  1  0.821783  0.178215  0.212037  1
  Er  Er13  1  0.666655  0.333329  0.897493  1
  Er  Er14  1  0.333334  0.666668  0.397497  1
  Er  Er15  1  0.000002  0.999999  0.493537  1
  In  In16  1  0.837234  0.674468  0.752986  1
  In  In17  1  0.325522  0.162761  0.752995  1
  In  In18  1  0.837235  0.162766  0.752987  1
  In  In19  1  0.162745  0.325491  0.254391  1
  In  In20  1  0.674520  0.837261  0.254395  1
  In  In21  1  0.162746  0.837257  0.254387  1
  Co  Co22  1  0.666667  0.333333  0.279004  1
  Co  Co23  1  0.333333  0.666667  0.779625  1
