# generated using pymatgen
data_Tb8AsPI12
_symmetry_space_group_name_H-M   'P 1'
_cell_length_a   4.17303000
_cell_length_b   13.97860833
_cell_length_c   14.73320800
_cell_angle_alpha   90.70803974
_cell_angle_beta   90.00000000
_cell_angle_gamma   90.00000000
_symmetry_Int_Tables_number   1
_chemical_formula_structural   Tb8AsPI12
_chemical_formula_sum   'Tb8 As1 P1 I12'
_cell_volume   859.36883881
_cell_formula_units_Z   1
loop_
 _symmetry_equiv_pos_site_id
 _symmetry_equiv_pos_as_xyz
  1  'x, y, z'
loop_
 _atom_site_type_symbol
 _atom_site_label
 _atom_site_symmetry_multiplicity
 _atom_site_fract_x
 _atom_site_fract_y
 _atom_site_fract_z
 _atom_site_occupancy
  Tb  Tb0  1  0.500000  0.111598  0.352563  1
  Tb  Tb1  1  0.500000  0.888402  0.647437  1
  Tb  Tb2  1  0.500000  0.617089  0.154913  1
  Tb  Tb3  1  0.500000  0.382911  0.845087  1
  Tb  Tb4  1  0.000000  0.105892  0.572597  1
  Tb  Tb5  1  0.000000  0.894108  0.427403  1
  Tb  Tb6  1  0.000000  0.611749  0.924287  1
  Tb  Tb7  1  0.000000  0.388251  0.075713  1
  As  As8  1  0.500000  0.500000  0.000000  1
  P  P9  1  0.500000  0.000000  0.500000  1
  I  I10  1  0.500000  0.247420  0.165186  1
  I  I11  1  0.500000  0.752580  0.834814  1
  I  I12  1  0.500000  0.749786  0.335036  1
  I  I13  1  0.500000  0.250214  0.664964  1
  I  I14  1  0.000000  0.258259  0.418908  1
  I  I15  1  0.000000  0.741741  0.581092  1
  I  I16  1  0.000000  0.760578  0.083919  1
  I  I17  1  0.000000  0.239422  0.916081  1
  I  I18  1  0.000000  0.998852  0.240776  1
  I  I19  1  0.000000  0.001148  0.759224  1
  I  I20  1  0.000000  0.499783  0.261410  1
  I  I21  1  0.000000  0.500217  0.738590  1
