# generated using pymatgen
data_Eu3Sc(BO3)3
_symmetry_space_group_name_H-M   'P 1'
_cell_length_a   7.68149655
_cell_length_b   7.68149630
_cell_length_c   7.68149734
_cell_angle_alpha   104.96733783
_cell_angle_beta   104.96734199
_cell_angle_gamma   104.96732989
_symmetry_Int_Tables_number   1
_chemical_formula_structural   Eu3Sc(BO3)3
_chemical_formula_sum   'Eu6 Sc2 B6 O18'
_cell_volume   396.54509460
_cell_formula_units_Z   2
loop_
 _symmetry_equiv_pos_site_id
 _symmetry_equiv_pos_as_xyz
  1  'x, y, z'
loop_
 _atom_site_type_symbol
 _atom_site_label
 _atom_site_symmetry_multiplicity
 _atom_site_fract_x
 _atom_site_fract_y
 _atom_site_fract_z
 _atom_site_occupancy
  Eu  Eu0  1  0.349133  0.736950  0.837117  1
  Eu  Eu1  1  0.837116  0.349134  0.736949  1
  Eu  Eu2  1  0.736949  0.837117  0.349134  1
  Eu  Eu3  1  0.650867  0.263050  0.162883  1
  Eu  Eu4  1  0.162884  0.650866  0.263051  1
  Eu  Eu5  1  0.263051  0.162883  0.650866  1
  Sc  Sc6  1  0.500001  0.500001  0.500001  1
  Sc  Sc7  1  0.000000  0.000000  0.000000  1
  B  B8  1  0.962955  0.709498  0.630476  1
  B  B9  1  0.630474  0.962955  0.709499  1
  B  B10  1  0.709498  0.630475  0.962955  1
  B  B11  1  0.037045  0.290502  0.369524  1
  B  B12  1  0.369526  0.037045  0.290501  1
  B  B13  1  0.290502  0.369525  0.037045  1
  O  O14  1  0.190812  0.442133  0.914796  1
  O  O15  1  0.914796  0.190813  0.442132  1
  O  O16  1  0.442133  0.914795  0.190812  1
  O  O17  1  0.809189  0.557868  0.085205  1
  O  O18  1  0.085206  0.809188  0.557869  1
  O  O19  1  0.557868  0.085206  0.809189  1
  O  O20  1  0.016946  0.738146  0.827129  1
  O  O21  1  0.827128  0.016947  0.738146  1
  O  O22  1  0.738146  0.827129  0.016946  1
  O  O23  1  0.983054  0.261854  0.172871  1
  O  O24  1  0.172872  0.983053  0.261854  1
  O  O25  1  0.261854  0.172871  0.983054  1
  O  O26  1  0.431265  0.493247  0.212679  1
  O  O27  1  0.212678  0.431266  0.493248  1
  O  O28  1  0.493247  0.212679  0.431266  1
  O  O29  1  0.568735  0.506753  0.787321  1
  O  O30  1  0.787321  0.568734  0.506753  1
  O  O31  1  0.506753  0.787321  0.568734  1
