# generated using pymatgen
data_TbEr3ReRuC4
_symmetry_space_group_name_H-M   'P 1'
_cell_length_a   5.06645500
_cell_length_b   6.51777600
_cell_length_c   9.77009400
_cell_angle_alpha   90.00000000
_cell_angle_beta   90.00000000
_cell_angle_gamma   90.00000000
_symmetry_Int_Tables_number   1
_chemical_formula_structural   TbEr3ReRuC4
_chemical_formula_sum   'Tb2 Er6 Re2 Ru2 C8'
_cell_volume   322.62822779
_cell_formula_units_Z   2
loop_
 _symmetry_equiv_pos_site_id
 _symmetry_equiv_pos_as_xyz
  1  'x, y, z'
loop_
 _atom_site_type_symbol
 _atom_site_label
 _atom_site_symmetry_multiplicity
 _atom_site_fract_x
 _atom_site_fract_y
 _atom_site_fract_z
 _atom_site_occupancy
  Tb  Tb0  1  0.750000  0.969472  0.713874  1
  Tb  Tb1  1  0.250000  0.530528  0.213874  1
  Er  Er2  1  0.750000  0.828177  0.055629  1
  Er  Er3  1  0.250000  0.671823  0.555629  1
  Er  Er4  1  0.750000  0.320916  0.442149  1
  Er  Er5  1  0.250000  0.179084  0.942149  1
  Er  Er6  1  0.750000  0.467208  0.785045  1
  Er  Er7  1  0.250000  0.032792  0.285045  1
  Re  Re8  1  0.750000  0.780220  0.366574  1
  Re  Re9  1  0.250000  0.719780  0.866574  1
  Ru  Ru10  1  0.750000  0.279611  0.133258  1
  Ru  Ru11  1  0.250000  0.220389  0.633258  1
  C  C12  1  0.750000  0.175237  0.947695  1
  C  C13  1  0.250000  0.828048  0.052616  1
  C  C14  1  0.750000  0.671952  0.552616  1
  C  C15  1  0.250000  0.324763  0.447695  1
  C  C16  1  0.750000  0.045801  0.260722  1
  C  C17  1  0.250000  0.454199  0.760722  1
  C  C18  1  0.750000  0.548112  0.242439  1
  C  C19  1  0.250000  0.951888  0.742439  1
