# generated using pymatgen
data_Zn5Cd9Ga4
_symmetry_space_group_name_H-M   'P 1'
_cell_length_a   18.37745505
_cell_length_b   18.37745523
_cell_length_c   5.71067429
_cell_angle_alpha   99.72166261
_cell_angle_beta   99.72166348
_cell_angle_gamma   10.95862600
_symmetry_Int_Tables_number   1
_chemical_formula_structural   Zn5Cd9Ga4
_chemical_formula_sum   'Zn5 Cd9 Ga4'
_cell_volume   361.32666366
_cell_formula_units_Z   1
loop_
 _symmetry_equiv_pos_site_id
 _symmetry_equiv_pos_as_xyz
  1  'x, y, z'
loop_
 _atom_site_type_symbol
 _atom_site_label
 _atom_site_symmetry_multiplicity
 _atom_site_fract_x
 _atom_site_fract_y
 _atom_site_fract_z
 _atom_site_occupancy
  Zn  Zn0  1  0.000985  0.000985  0.993729  1
  Zn  Zn1  1  0.667933  0.667933  0.309679  1
  Zn  Zn2  1  0.892296  0.892296  0.409591  1
  Zn  Zn3  1  0.107144  0.107144  0.588672  1
  Zn  Zn4  1  0.329521  0.329521  0.692343  1
  Cd  Cd5  1  0.556412  0.556412  0.297451  1
  Cd  Cd6  1  0.779985  0.779985  0.399796  1
  Cd  Cd7  1  0.999481  0.999481  0.487723  1
  Cd  Cd8  1  0.218705  0.218705  0.597046  1
  Cd  Cd9  1  0.444996  0.444996  0.703929  1
  Cd  Cd10  1  0.556464  0.556464  0.804566  1
  Cd  Cd11  1  0.662665  0.662665  0.807474  1
  Cd  Cd12  1  0.779532  0.779532  0.902864  1
  Cd  Cd13  1  0.886042  0.886042  0.898085  1
  Ga  Ga14  1  0.114458  0.114458  0.103961  1
  Ga  Ga15  1  0.221417  0.221417  0.103770  1
  Ga  Ga16  1  0.338734  0.338734  0.202329  1
  Ga  Ga17  1  0.443229  0.443229  0.196992  1
