# generated using pymatgen
data_TbHoPa2(Ni2Sn)2
_symmetry_space_group_name_H-M   'P 1'
_cell_length_a   7.38744035
_cell_length_b   7.38744033
_cell_length_c   3.63301600
_cell_angle_alpha   90.00000000
_cell_angle_beta   90.00000000
_cell_angle_gamma   93.59782638
_symmetry_Int_Tables_number   1
_chemical_formula_structural   TbHoPa2(Ni2Sn)2
_chemical_formula_sum   'Tb1 Ho1 Pa2 Ni4 Sn2'
_cell_volume   197.87844637
_cell_formula_units_Z   1
loop_
 _symmetry_equiv_pos_site_id
 _symmetry_equiv_pos_as_xyz
  1  'x, y, z'
loop_
 _atom_site_type_symbol
 _atom_site_label
 _atom_site_symmetry_multiplicity
 _atom_site_fract_x
 _atom_site_fract_y
 _atom_site_fract_z
 _atom_site_occupancy
  Tb  Tb0  1  0.173938  0.326062  0.500000  1
  Ho  Ho1  1  0.826293  0.673707  0.500000  1
  Pa  Pa2  1  0.675259  0.175105  0.500000  1
  Pa  Pa3  1  0.324895  0.824741  0.500000  1
  Ni  Ni4  1  0.866467  0.368535  0.000000  1
  Ni  Ni5  1  0.131465  0.633533  0.000000  1
  Ni  Ni6  1  0.383877  0.116123  0.000000  1
  Ni  Ni7  1  0.617272  0.882728  0.000000  1
  Sn  Sn8  1  0.501362  0.500827  0.000000  1
  Sn  Sn9  1  0.999173  0.998638  0.000000  1
