# generated using pymatgen
data_PrNdTh2(CoB10)2
_symmetry_space_group_name_H-M   'P 1'
_cell_length_a   4.18786100
_cell_length_b   5.62605129
_cell_length_c   11.22591620
_cell_angle_alpha   90.17404537
_cell_angle_beta   90.00000000
_cell_angle_gamma   90.00000000
_symmetry_Int_Tables_number   1
_chemical_formula_structural   PrNdTh2(CoB10)2
_chemical_formula_sum   'Pr1 Nd1 Th2 Co2 B20'
_cell_volume   264.49394700
_cell_formula_units_Z   1
loop_
 _symmetry_equiv_pos_site_id
 _symmetry_equiv_pos_as_xyz
  1  'x, y, z'
loop_
 _atom_site_type_symbol
 _atom_site_label
 _atom_site_symmetry_multiplicity
 _atom_site_fract_x
 _atom_site_fract_y
 _atom_site_fract_z
 _atom_site_occupancy
  Pr  Pr0  1  0.500000  0.301666  0.866144  1
  Nd  Nd1  1  0.500000  0.698714  0.133786  1
  Th  Th2  1  0.500000  0.801783  0.634770  1
  Th  Th3  1  0.500000  0.198198  0.365074  1
  Co  Co4  1  0.000000  0.500020  0.499902  1
  Co  Co5  1  0.000000  0.999666  0.000259  1
  B  B6  1  0.000000  0.126920  0.539995  1
  B  B7  1  0.000000  0.872989  0.459833  1
  B  B8  1  0.000000  0.627629  0.959813  1
  B  B9  1  0.000000  0.372713  0.040660  1
  B  B10  1  0.000000  0.152597  0.696669  1
  B  B11  1  0.000000  0.847185  0.303166  1
  B  B12  1  0.298999  0.200912  0.113436  1
  B  B13  1  0.298962  0.799223  0.886817  1
  B  B14  1  0.700322  0.701181  0.386665  1
  B  B15  1  0.700383  0.298829  0.613059  1
  B  B16  1  0.701038  0.799223  0.886817  1
  B  B17  1  0.701001  0.200912  0.113436  1
  B  B18  1  0.299617  0.298829  0.613059  1
  B  B19  1  0.299678  0.701181  0.386665  1
  B  B20  1  0.000000  0.034945  0.187304  1
  B  B21  1  0.000000  0.964716  0.812641  1
  B  B22  1  0.000000  0.534423  0.313373  1
  B  B23  1  0.000000  0.465614  0.686518  1
  B  B24  1  0.000000  0.345032  0.197447  1
  B  B25  1  0.000000  0.654899  0.802692  1
