# generated using pymatgen
data_Sb12Ru2RhAu
_symmetry_space_group_name_H-M   'P 1'
_cell_length_a   8.19404723
_cell_length_b   8.18434894
_cell_length_c   9.46131654
_cell_angle_alpha   54.62601181
_cell_angle_beta   54.78506700
_cell_angle_gamma   70.50594440
_symmetry_Int_Tables_number   1
_chemical_formula_structural   Sb12Ru2RhAu
_chemical_formula_sum   'Sb12 Ru2 Rh1 Au1'
_cell_volume   422.68722734
_cell_formula_units_Z   1
loop_
 _symmetry_equiv_pos_site_id
 _symmetry_equiv_pos_as_xyz
  1  'x, y, z'
loop_
 _atom_site_type_symbol
 _atom_site_label
 _atom_site_symmetry_multiplicity
 _atom_site_fract_x
 _atom_site_fract_y
 _atom_site_fract_z
 _atom_site_occupancy
  Sb  Sb0  1  0.156387  0.156461  0.176409  1
  Sb  Sb1  1  0.843613  0.843539  0.823591  1
  Sb  Sb2  1  0.839971  0.856501  0.500313  1
  Sb  Sb3  1  0.160029  0.143499  0.499687  1
  Sb  Sb4  1  0.805926  0.502623  0.335811  1
  Sb  Sb5  1  0.194074  0.497377  0.664189  1
  Sb  Sb6  1  0.506698  0.820174  0.334694  1
  Sb  Sb7  1  0.493302  0.179826  0.665306  1
  Sb  Sb8  1  0.644551  0.336479  0.858160  1
  Sb  Sb9  1  0.355449  0.663521  0.141840  1
  Sb  Sb10  1  0.665084  0.337843  0.154867  1
  Sb  Sb11  1  0.334916  0.662157  0.845133  1
  Ru  Ru12  1  0.000000  0.500000  0.000000  1
  Ru  Ru13  1  0.500000  0.000000  0.000000  1
  Rh  Rh14  1  0.500000  0.000000  0.500000  1
  Au  Au15  1  0.000000  0.500000  0.500000  1
