# generated using pymatgen
data_K16Si15Sn
_symmetry_space_group_name_H-M   'P 1'
_cell_length_a   11.52713640
_cell_length_b   11.60702498
_cell_length_c   11.55679325
_cell_angle_alpha   125.04390303
_cell_angle_beta   124.51120960
_cell_angle_gamma   82.09674927
_symmetry_Int_Tables_number   1
_chemical_formula_structural   K16Si15Sn
_chemical_formula_sum   'K16 Si15 Sn1'
_cell_volume   1001.90507665
_cell_formula_units_Z   1
loop_
 _symmetry_equiv_pos_site_id
 _symmetry_equiv_pos_as_xyz
  1  'x, y, z'
loop_
 _atom_site_type_symbol
 _atom_site_label
 _atom_site_symmetry_multiplicity
 _atom_site_fract_x
 _atom_site_fract_y
 _atom_site_fract_z
 _atom_site_occupancy
  K  K0  1  0.771106  0.376182  0.891771  1
  K  K1  1  0.267385  0.375091  0.391740  1
  K  K2  1  0.627294  0.520303  0.399750  1
  K  K3  1  0.123945  0.733019  0.107691  1
  K  K4  1  0.983016  0.875256  0.607880  1
  K  K5  1  0.482987  0.878903  0.109318  1
  K  K6  1  0.628479  0.009211  0.891801  1
  K  K7  1  0.118826  0.231945  0.602055  1
  K  K8  1  0.873546  0.873690  0.245903  1
  K  K9  1  0.367846  0.119619  0.002391  1
  K  K10  1  0.120592  0.623473  0.744034  1
  K  K11  1  0.622809  0.879428  0.502518  1
  K  K12  1  0.887009  0.377801  0.262148  1
  K  K13  1  0.375335  0.118835  0.491296  1
  K  K14  1  0.627897  0.627687  0.754978  1
  K  K15  1  0.128962  0.372815  0.000110  1
  Si  Si16  1  0.012009  0.048054  0.158190  1
  Si  Si17  1  0.603904  0.261956  0.463785  1
  Si  Si18  1  0.103546  0.638885  0.341327  1
  Si  Si19  1  0.238765  0.895580  0.536368  1
  Si  Si20  1  0.738117  0.201620  0.341711  1
  Si  Si21  1  0.146132  0.987344  0.036186  1
  Si  Si22  1  0.645561  0.619455  0.159979  1
  Si  Si23  1  0.889947  0.853632  0.841670  1
  Si  Si24  1  0.389261  0.560425  0.039312  1
  Si  Si25  1  0.297429  0.761913  0.657482  1
  Si  Si26  1  0.797341  0.140895  0.536288  1
  Si  Si27  1  0.860328  0.396441  0.658212  1
  Si  Si28  1  0.359768  0.701348  0.463055  1
  Si  Si29  1  0.450652  0.498566  0.843333  1
  Si  Si30  1  0.953454  0.109368  0.964623  1
  Sn  Sn31  1  0.506752  0.331259  0.953098  1
