# generated using pymatgen
data_Nd3Gd5Y4(CCl3)4
_symmetry_space_group_name_H-M   'P 1'
_cell_length_a   9.43662220
_cell_length_b   9.41772687
_cell_length_c   9.41907134
_cell_angle_alpha   109.22242093
_cell_angle_beta   109.64744694
_cell_angle_gamma   109.61894948
_symmetry_Int_Tables_number   1
_chemical_formula_structural   Nd3Gd5Y4(CCl3)4
_chemical_formula_sum   'Nd3 Gd5 Y4 C4 Cl12'
_cell_volume   643.78342401
_cell_formula_units_Z   1
loop_
 _symmetry_equiv_pos_site_id
 _symmetry_equiv_pos_as_xyz
  1  'x, y, z'
loop_
 _atom_site_type_symbol
 _atom_site_label
 _atom_site_symmetry_multiplicity
 _atom_site_fract_x
 _atom_site_fract_y
 _atom_site_fract_z
 _atom_site_occupancy
  Nd  Nd0  1  0.266378  0.014191  0.030888  1
  Nd  Nd1  1  0.234801  0.468916  0.485057  1
  Nd  Nd2  1  0.017209  0.031222  0.264994  1
  Gd  Gd3  1  0.020448  0.484527  0.752620  1
  Gd  Gd4  1  0.480731  0.232200  0.463519  1
  Gd  Gd5  1  0.750558  0.017941  0.482419  1
  Gd  Gd6  1  0.036752  0.268233  0.019045  1
  Gd  Gd7  1  0.268494  0.751236  0.231966  1
  Y  Y8  1  0.479758  0.748952  0.018828  1
  Y  Y9  1  0.752097  0.230081  0.269865  1
  Y  Y10  1  0.230423  0.270209  0.748534  1
  Y  Y11  1  0.461389  0.480735  0.229517  1
  C  C12  1  0.255351  0.255211  0.249367  1
  C  C13  1  0.995050  0.250425  0.505196  1
  C  C14  1  0.251252  0.500343  0.000577  1
  C  C15  1  0.506519  0.000460  0.254559  1
  Cl  Cl16  1  0.993409  0.990008  0.739424  1
  Cl  Cl17  1  0.747105  0.737380  0.246829  1
  Cl  Cl18  1  0.980954  0.733463  0.988288  1
  Cl  Cl19  1  0.255885  0.996584  0.515647  1
  Cl  Cl20  1  0.735026  0.993470  0.984195  1
  Cl  Cl21  1  0.512174  0.259177  0.997706  1
  Cl  Cl22  1  0.744821  0.250392  0.756284  1
  Cl  Cl23  1  0.512336  0.757331  0.509809  1
  Cl  Cl24  1  0.754428  0.509374  0.499503  1
  Cl  Cl25  1  0.254541  0.757885  0.745711  1
  Cl  Cl26  1  0.516102  0.506576  0.765455  1
  Cl  Cl27  1  0.986008  0.503478  0.244197  1
