# generated using pymatgen
data_Li2PrCrN3
_symmetry_space_group_name_H-M   'P 1'
_cell_length_a   9.04621400
_cell_length_b   7.30158200
_cell_length_c   10.41124100
_cell_angle_alpha   90.00000000
_cell_angle_beta   90.00000000
_cell_angle_gamma   90.00000000
_symmetry_Int_Tables_number   1
_chemical_formula_structural   Li2PrCrN3
_chemical_formula_sum   'Li16 Pr8 Cr8 N24'
_cell_volume   687.67988929
_cell_formula_units_Z   8
loop_
 _symmetry_equiv_pos_site_id
 _symmetry_equiv_pos_as_xyz
  1  'x, y, z'
loop_
 _atom_site_type_symbol
 _atom_site_label
 _atom_site_symmetry_multiplicity
 _atom_site_fract_x
 _atom_site_fract_y
 _atom_site_fract_z
 _atom_site_occupancy
  Li  Li0  1  0.883801  0.087891  0.778545  1
  Li  Li1  1  0.616261  0.911857  0.278531  1
  Li  Li2  1  0.383687  0.411680  0.221355  1
  Li  Li3  1  0.116296  0.588315  0.721363  1
  Li  Li4  1  0.116217  0.911879  0.221430  1
  Li  Li5  1  0.383863  0.087896  0.721403  1
  Li  Li6  1  0.616268  0.588426  0.778642  1
  Li  Li7  1  0.883804  0.411906  0.278655  1
  Li  Li8  1  0.122006  0.290189  0.195439  1
  Li  Li9  1  0.378018  0.709874  0.695532  1
  Li  Li10  1  0.622002  0.209675  0.804576  1
  Li  Li11  1  0.878009  0.790238  0.304583  1
  Li  Li12  1  0.877872  0.709958  0.804472  1
  Li  Li13  1  0.622119  0.290079  0.304500  1
  Li  Li14  1  0.377931  0.790307  0.195332  1
  Li  Li15  1  0.122101  0.209797  0.695339  1
  Pr  Pr16  1  0.317878  0.081060  0.424573  1
  Pr  Pr17  1  0.182121  0.919110  0.924624  1
  Pr  Pr18  1  0.818056  0.418902  0.575414  1
  Pr  Pr19  1  0.681890  0.580897  0.075308  1
  Pr  Pr20  1  0.682169  0.919166  0.575375  1
  Pr  Pr21  1  0.817894  0.081053  0.075379  1
  Pr  Pr22  1  0.181917  0.580833  0.424665  1
  Pr  Pr23  1  0.318089  0.418937  0.924647  1
  Cr  Cr24  1  0.951502  0.102814  0.415098  1
  Cr  Cr25  1  0.548464  0.897033  0.915122  1
  Cr  Cr26  1  0.451395  0.396816  0.585103  1
  Cr  Cr27  1  0.048482  0.603260  0.084894  1
  Cr  Cr28  1  0.048523  0.896814  0.585095  1
  Cr  Cr29  1  0.451485  0.103033  0.085009  1
  Cr  Cr30  1  0.548481  0.603183  0.415070  1
  Cr  Cr31  1  0.951459  0.396968  0.914997  1
  N  N32  1  0.918214  0.097832  0.594494  1
  N  N33  1  0.581883  0.902170  0.094485  1
  N  N34  1  0.418260  0.402292  0.405560  1
  N  N35  1  0.081808  0.597696  0.905615  1
  N  N36  1  0.081818  0.902130  0.405569  1
  N  N37  1  0.418183  0.097838  0.905438  1
  N  N38  1  0.581776  0.597766  0.594405  1
  N  N39  1  0.918214  0.402456  0.094368  1
  N  N40  1  0.785302  0.065476  0.330444  1
  N  N41  1  0.714747  0.934407  0.830357  1
  N  N42  1  0.285175  0.434553  0.669563  1
  N  N43  1  0.214590  0.565540  0.169488  1
  N  N44  1  0.214829  0.934372  0.669650  1
  N  N45  1  0.285176  0.065565  0.169552  1
  N  N46  1  0.714729  0.565585  0.330479  1
  N  N47  1  0.785244  0.434583  0.830458  1
  N  N48  1  0.039441  0.316650  0.389982  1
  N  N49  1  0.460588  0.683251  0.890030  1
  N  N50  1  0.539503  0.183265  0.610124  1
  N  N51  1  0.960625  0.816622  0.109995  1
  N  N52  1  0.960522  0.683223  0.610142  1
  N  N53  1  0.539394  0.316894  0.109979  1
  N  N54  1  0.460520  0.816605  0.389868  1
  N  N55  1  0.039395  0.183367  0.889883  1
