# generated using pymatgen
data_CaGe(S2O7)3
_symmetry_space_group_name_H-M   'P 1'
_cell_length_a   9.05512481
_cell_length_b   9.31525306
_cell_length_c   10.70951000
_cell_angle_alpha   89.26417187
_cell_angle_beta   93.27868919
_cell_angle_gamma   118.29425285
_symmetry_Int_Tables_number   1
_chemical_formula_structural   CaGe(S2O7)3
_chemical_formula_sum   'Ca2 Ge2 S12 O42'
_cell_volume   794.02044494
_cell_formula_units_Z   2
loop_
 _symmetry_equiv_pos_site_id
 _symmetry_equiv_pos_as_xyz
  1  'x, y, z'
loop_
 _atom_site_type_symbol
 _atom_site_label
 _atom_site_symmetry_multiplicity
 _atom_site_fract_x
 _atom_site_fract_y
 _atom_site_fract_z
 _atom_site_occupancy
  Ca  Ca0  1  0.312693  0.616369  0.626970  1
  Ca  Ca1  1  0.687307  0.383631  0.373030  1
  Ge  Ge2  1  0.019606  0.010020  0.742530  1
  Ge  Ge3  1  0.980394  0.989980  0.257470  1
  S  S4  1  0.799029  0.641405  0.674720  1
  S  S5  1  0.200971  0.358595  0.325280  1
  S  S6  1  0.365491  0.234422  0.646149  1
  S  S7  1  0.634509  0.765578  0.353851  1
  S  S8  1  0.304202  0.337683  0.876639  1
  S  S9  1  0.695798  0.662317  0.123361  1
  S  S10  1  0.077480  0.735353  0.860655  1
  S  S11  1  0.922520  0.264647  0.139345  1
  S  S12  1  0.892508  0.238268  0.617910  1
  S  S13  1  0.107492  0.761732  0.382090  1
  S  S14  1  0.673209  0.991783  0.788302  1
  S  S15  1  0.326791  0.008217  0.211698  1
  O  O16  1  0.085806  0.903743  0.868662  1
  O  O17  1  0.914194  0.096257  0.131338  1
  O  O18  1  0.918412  0.816776  0.640800  1
  O  O19  1  0.081588  0.183224  0.359200  1
  O  O20  1  0.215345  0.064951  0.652014  1
  O  O21  1  0.784655  0.935049  0.347986  1
  O  O22  1  0.421656  0.281216  0.793690  1
  O  O23  1  0.578344  0.718784  0.206310  1
  O  O24  1  0.772008  0.183436  0.735171  1
  O  O25  1  0.227992  0.816564  0.264829  1
  O  O26  1  0.877159  0.617597  0.810419  1
  O  O27  1  0.122841  0.382403  0.189581  1
  O  O28  1  0.820230  0.959252  0.825917  1
  O  O29  1  0.179770  0.040748  0.174083  1
  O  O30  1  0.945412  0.106877  0.609582  1
  O  O31  1  0.054588  0.893123  0.390418  1
  O  O32  1  0.318383  0.352103  0.594981  1
  O  O33  1  0.681617  0.647897  0.405019  1
  O  O34  1  0.125245  0.205062  0.841458  1
  O  O35  1  0.874755  0.794938  0.158542  1
  O  O36  1  0.182069  0.730691  0.765793  1
  O  O37  1  0.817931  0.269309  0.234207  1
  O  O38  1  0.326160  0.491548  0.828836  1
  O  O39  1  0.673840  0.508452  0.171164  1
  O  O40  1  0.794476  0.230643  0.505308  1
  O  O41  1  0.205524  0.769357  0.494692  1
  O  O42  1  0.814353  0.534234  0.587077  1
  O  O43  1  0.185647  0.465766  0.412923  1
  O  O44  1  0.356088  0.327903  0.002410  1
  O  O45  1  0.643912  0.672097  0.997590  1
  O  O46  1  0.086115  0.677681  0.982480  1
  O  O47  1  0.913885  0.322319  0.017520  1
  O  O48  1  0.569531  0.888510  0.684418  1
  O  O49  1  0.430469  0.111490  0.315582  1
  O  O50  1  0.596937  0.008257  0.895323  1
  O  O51  1  0.403063  0.991743  0.104677  1
  O  O52  1  0.500152  0.222881  0.592228  1
  O  O53  1  0.499848  0.777119  0.407772  1
  O  O54  1  0.027907  0.394942  0.656678  1
  O  O55  1  0.972093  0.605058  0.343322  1
  O  O56  1  0.634453  0.615632  0.698289  1
  O  O57  1  0.365547  0.384368  0.301711  1
