# generated using pymatgen
data_ErTh(Be11Cu2)2
_symmetry_space_group_name_H-M   'P 1'
_cell_length_a   7.38918149
_cell_length_b   7.40268215
_cell_length_c   7.35296903
_cell_angle_alpha   60.10073205
_cell_angle_beta   60.28331209
_cell_angle_gamma   59.61595194
_symmetry_Int_Tables_number   1
_chemical_formula_structural   ErTh(Be11Cu2)2
_chemical_formula_sum   'Er1 Th1 Be22 Cu4'
_cell_volume   284.38178404
_cell_formula_units_Z   1
loop_
 _symmetry_equiv_pos_site_id
 _symmetry_equiv_pos_as_xyz
  1  'x, y, z'
loop_
 _atom_site_type_symbol
 _atom_site_label
 _atom_site_symmetry_multiplicity
 _atom_site_fract_x
 _atom_site_fract_y
 _atom_site_fract_z
 _atom_site_occupancy
  Er  Er0  1  0.750000  0.750000  0.750000  1
  Th  Th1  1  0.250000  0.250000  0.250000  1
  Be  Be2  1  0.500000  0.500000  0.500000  1
  Be  Be3  1  0.000000  0.000000  0.000000  1
  Be  Be4  1  0.279562  0.931174  0.721359  1
  Be  Be5  1  0.721359  0.067905  0.279562  1
  Be  Be6  1  0.931174  0.279562  0.067905  1
  Be  Be7  1  0.067905  0.721359  0.931174  1
  Be  Be8  1  0.200623  0.797702  0.560927  1
  Be  Be9  1  0.797702  0.200623  0.440748  1
  Be  Be10  1  0.440748  0.560927  0.797702  1
  Be  Be11  1  0.560927  0.440748  0.200623  1
  Be  Be12  1  0.713924  0.286252  0.934135  1
  Be  Be13  1  0.286252  0.713924  0.065689  1
  Be  Be14  1  0.065689  0.934135  0.286252  1
  Be  Be15  1  0.934135  0.065689  0.713924  1
  Be  Be16  1  0.567449  0.205570  0.793124  1
  Be  Be17  1  0.433857  0.793124  0.205570  1
  Be  Be18  1  0.793124  0.433857  0.567449  1
  Be  Be19  1  0.205570  0.567449  0.433857  1
  Be  Be20  1  0.939886  0.713283  0.287853  1
  Be  Be21  1  0.058978  0.287853  0.713283  1
  Be  Be22  1  0.287853  0.058978  0.939886  1
  Be  Be23  1  0.713283  0.939886  0.058978  1
  Cu  Cu24  1  0.802586  0.559081  0.194407  1
  Cu  Cu25  1  0.194407  0.443926  0.802586  1
  Cu  Cu26  1  0.559081  0.802586  0.443926  1
  Cu  Cu27  1  0.443926  0.194407  0.559081  1
