# generated using pymatgen
data_Ho2Er2ReB12Rh
_symmetry_space_group_name_H-M   'P 1'
_cell_length_a   3.66235400
_cell_length_b   9.11878764
_cell_length_c   11.50953303
_cell_angle_alpha   90.42159543
_cell_angle_beta   90.00000000
_cell_angle_gamma   90.00000000
_symmetry_Int_Tables_number   1
_chemical_formula_structural   Ho2Er2ReB12Rh
_chemical_formula_sum   'Ho4 Er4 Re2 B24 Rh2'
_cell_volume   384.36458804
_cell_formula_units_Z   2
loop_
 _symmetry_equiv_pos_site_id
 _symmetry_equiv_pos_as_xyz
  1  'x, y, z'
loop_
 _atom_site_type_symbol
 _atom_site_label
 _atom_site_symmetry_multiplicity
 _atom_site_fract_x
 _atom_site_fract_y
 _atom_site_fract_z
 _atom_site_occupancy
  Ho  Ho0  1  0.000000  0.318192  0.410892  1
  Ho  Ho1  1  0.000000  0.681808  0.589108  1
  Ho  Ho2  1  0.000000  0.825974  0.082791  1
  Ho  Ho3  1  0.000000  0.174026  0.917209  1
  Er  Er4  1  0.000000  0.945245  0.371833  1
  Er  Er5  1  0.000000  0.054755  0.628167  1
  Er  Er6  1  0.000000  0.442367  0.126684  1
  Er  Er7  1  0.000000  0.557633  0.873316  1
  Re  Re8  1  0.000000  0.138859  0.179762  1
  Re  Re9  1  0.000000  0.861141  0.820238  1
  B  B10  1  0.500000  0.554387  0.434248  1
  B  B11  1  0.500000  0.445613  0.565752  1
  B  B12  1  0.500000  0.052972  0.067391  1
  B  B13  1  0.500000  0.947028  0.932609  1
  B  B14  1  0.500000  0.749217  0.421340  1
  B  B15  1  0.500000  0.250783  0.578660  1
  B  B16  1  0.500000  0.248776  0.081298  1
  B  B17  1  0.500000  0.751224  0.918702  1
  B  B18  1  0.500000  0.791354  0.265196  1
  B  B19  1  0.500000  0.208646  0.734804  1
  B  B20  1  0.500000  0.292994  0.234867  1
  B  B21  1  0.500000  0.707006  0.765133  1
  B  B22  1  0.500000  0.632185  0.183378  1
  B  B23  1  0.500000  0.367815  0.816622  1
  B  B24  1  0.500000  0.131697  0.315022  1
  B  B25  1  0.500000  0.868303  0.684978  1
  B  B26  1  0.500000  0.982711  0.213166  1
  B  B27  1  0.500000  0.017289  0.786834  1
  B  B28  1  0.500000  0.483275  0.287692  1
  B  B29  1  0.500000  0.516725  0.712308  1
  B  B30  1  0.500000  0.605410  0.029284  1
  B  B31  1  0.500000  0.394590  0.970716  1
  B  B32  1  0.500000  0.106867  0.471166  1
  B  B33  1  0.500000  0.893133  0.528834  1
  Rh  Rh34  1  0.000000  0.637957  0.321186  1
  Rh  Rh35  1  0.000000  0.362043  0.678814  1
