# generated using pymatgen
data_Er4LuSn3Se
_symmetry_space_group_name_H-M   'P 1'
_cell_length_a   8.98903600
_cell_length_b   8.98903727
_cell_length_c   6.60337200
_cell_angle_alpha   90.00000000
_cell_angle_beta   90.00000000
_cell_angle_gamma   119.99999532
_symmetry_Int_Tables_number   1
_chemical_formula_structural   Er4LuSn3Se
_chemical_formula_sum   'Er8 Lu2 Sn6 Se2'
_cell_volume   462.08590022
_cell_formula_units_Z   2
loop_
 _symmetry_equiv_pos_site_id
 _symmetry_equiv_pos_as_xyz
  1  'x, y, z'
loop_
 _atom_site_type_symbol
 _atom_site_label
 _atom_site_symmetry_multiplicity
 _atom_site_fract_x
 _atom_site_fract_y
 _atom_site_fract_z
 _atom_site_occupancy
  Er  Er0  1  0.666667  0.333333  0.000000  1
  Er  Er1  1  0.333333  0.666667  0.000000  1
  Er  Er2  1  0.746433  0.746433  0.750122  1
  Er  Er3  1  0.253567  0.000000  0.750122  1
  Er  Er4  1  0.000000  0.253567  0.750122  1
  Er  Er5  1  0.253567  0.253567  0.249878  1
  Er  Er6  1  0.746433  0.000000  0.249878  1
  Er  Er7  1  0.000000  0.746433  0.249878  1
  Lu  Lu8  1  0.333333  0.666667  0.500000  1
  Lu  Lu9  1  0.666667  0.333333  0.500000  1
  Sn  Sn10  1  0.396877  0.396877  0.748363  1
  Sn  Sn11  1  0.603123  0.000000  0.748363  1
  Sn  Sn12  1  0.000000  0.603123  0.748363  1
  Sn  Sn13  1  0.603123  0.603123  0.251637  1
  Sn  Sn14  1  0.396877  0.000000  0.251637  1
  Sn  Sn15  1  0.000000  0.396877  0.251637  1
  Se  Se16  1  0.000000  0.000000  0.000000  1
  Se  Se17  1  0.000000  0.000000  0.500000  1
