# generated using pymatgen
data_Pa3(SiOs)2
_symmetry_space_group_name_H-M   'P 1'
_cell_length_a   5.61222039
_cell_length_b   5.61222039
_cell_length_c   13.09828600
_cell_angle_alpha   90.00000000
_cell_angle_beta   90.00000000
_cell_angle_gamma   138.14738832
_symmetry_Int_Tables_number   1
_chemical_formula_structural   Pa3(SiOs)2
_chemical_formula_sum   'Pa6 Si4 Os4'
_cell_volume   275.26489241
_cell_formula_units_Z   2
loop_
 _symmetry_equiv_pos_site_id
 _symmetry_equiv_pos_as_xyz
  1  'x, y, z'
loop_
 _atom_site_type_symbol
 _atom_site_label
 _atom_site_symmetry_multiplicity
 _atom_site_fract_x
 _atom_site_fract_y
 _atom_site_fract_z
 _atom_site_occupancy
  Pa  Pa0  1  0.773168  0.226832  0.596018  1
  Pa  Pa1  1  0.514220  0.485780  0.250000  1
  Pa  Pa2  1  0.226832  0.773168  0.403982  1
  Pa  Pa3  1  0.773168  0.226832  0.903982  1
  Pa  Pa4  1  0.485780  0.514220  0.750000  1
  Pa  Pa5  1  0.226832  0.773168  0.096018  1
  Si  Si6  1  0.060058  0.939942  0.596066  1
  Si  Si7  1  0.060058  0.939942  0.903934  1
  Si  Si8  1  0.939942  0.060058  0.403934  1
  Si  Si9  1  0.939942  0.060058  0.096066  1
  Os  Os10  1  0.788267  0.211733  0.250000  1
  Os  Os11  1  0.211733  0.788267  0.750000  1
  Os  Os12  1  0.500000  0.500000  0.000000  1
  Os  Os13  1  0.500000  0.500000  0.500000  1
