# generated using pymatgen
data_La4HoP12Pd3Ru16
_symmetry_space_group_name_H-M   'P 1'
_cell_length_a   12.73414500
_cell_length_b   12.73414519
_cell_length_c   4.02726100
_cell_angle_alpha   90.00000000
_cell_angle_beta   90.00000000
_cell_angle_gamma   120.00000210
_symmetry_Int_Tables_number   1
_chemical_formula_structural   La4HoP12Pd3Ru16
_chemical_formula_sum   'La4 Ho1 P12 Pd3 Ru16'
_cell_volume   565.56169450
_cell_formula_units_Z   1
loop_
 _symmetry_equiv_pos_site_id
 _symmetry_equiv_pos_as_xyz
  1  'x, y, z'
loop_
 _atom_site_type_symbol
 _atom_site_label
 _atom_site_symmetry_multiplicity
 _atom_site_fract_x
 _atom_site_fract_y
 _atom_site_fract_z
 _atom_site_occupancy
  La  La0  1  0.000036  0.180790  0.500000  1
  La  La1  1  0.819210  0.819246  0.500000  1
  La  La2  1  0.180754  0.999964  0.500000  1
  La  La3  1  0.666667  0.333333  0.000000  1
  Ho  Ho4  1  0.333333  0.666667  0.000000  1
  P  P5  1  0.001798  0.809911  0.000000  1
  P  P6  1  0.190089  0.191887  0.000000  1
  P  P7  1  0.808113  0.998202  0.000000  1
  P  P8  1  0.701185  0.177676  0.500000  1
  P  P9  1  0.822324  0.523508  0.500000  1
  P  P10  1  0.476492  0.298815  0.500000  1
  P  P11  1  0.182555  0.700426  0.500000  1
  P  P12  1  0.517870  0.817445  0.500000  1
  P  P13  1  0.299574  0.482130  0.500000  1
  P  P14  1  0.999638  0.369731  0.000000  1
  P  P15  1  0.630269  0.629907  0.000000  1
  P  P16  1  0.370093  0.000362  0.000000  1
  Pd  Pd17  1  0.999882  0.553323  0.000000  1
  Pd  Pd18  1  0.446677  0.446559  0.000000  1
  Pd  Pd19  1  0.553441  0.000118  0.000000  1
  Ru  Ru20  1  0.001966  0.709489  0.500000  1
  Ru  Ru21  1  0.290511  0.292477  0.500000  1
  Ru  Ru22  1  0.707523  0.998034  0.500000  1
  Ru  Ru23  1  0.805072  0.184726  0.000000  1
  Ru  Ru24  1  0.815274  0.620347  0.000000  1
  Ru  Ru25  1  0.379653  0.194928  0.000000  1
  Ru  Ru26  1  0.187947  0.803897  0.000000  1
  Ru  Ru27  1  0.615951  0.812053  0.000000  1
  Ru  Ru28  1  0.196103  0.384049  0.000000  1
  Ru  Ru29  1  0.878825  0.369212  0.500000  1
  Ru  Ru30  1  0.630788  0.509613  0.500000  1
  Ru  Ru31  1  0.490387  0.121175  0.500000  1
  Ru  Ru32  1  0.370881  0.874754  0.500000  1
  Ru  Ru33  1  0.503873  0.629119  0.500000  1
  Ru  Ru34  1  0.125246  0.496127  0.500000  1
  Ru  Ru35  1  0.000000  0.000000  0.000000  1
