# generated using pymatgen
data_YbY2(Al3Ni2)3
_symmetry_space_group_name_H-M   'P 1'
_cell_length_a   9.11101500
_cell_length_b   9.11101400
_cell_length_c   4.03549200
_cell_angle_alpha   90.00000000
_cell_angle_beta   90.00000000
_cell_angle_gamma   120.00000726
_symmetry_Int_Tables_number   1
_chemical_formula_structural   YbY2(Al3Ni2)3
_chemical_formula_sum   'Yb1 Y2 Al9 Ni6'
_cell_volume   290.10857524
_cell_formula_units_Z   1
loop_
 _symmetry_equiv_pos_site_id
 _symmetry_equiv_pos_as_xyz
  1  'x, y, z'
loop_
 _atom_site_type_symbol
 _atom_site_label
 _atom_site_symmetry_multiplicity
 _atom_site_fract_x
 _atom_site_fract_y
 _atom_site_fract_z
 _atom_site_occupancy
  Yb  Yb0  1  0.000000  0.000000  0.000000  1
  Y  Y1  1  0.333333  0.666667  0.500000  1
  Y  Y2  1  0.666667  0.333333  0.500000  1
  Al  Al3  1  0.000000  0.298677  0.500000  1
  Al  Al4  1  0.000000  0.500000  0.000000  1
  Al  Al5  1  0.500000  0.500000  0.000000  1
  Al  Al6  1  0.500000  0.000000  0.000000  1
  Al  Al7  1  0.701323  0.000000  0.500000  1
  Al  Al8  1  0.701323  0.701323  0.500000  1
  Al  Al9  1  0.298677  0.000000  0.500000  1
  Al  Al10  1  0.000000  0.701323  0.500000  1
  Al  Al11  1  0.298677  0.298677  0.500000  1
  Ni  Ni12  1  0.819336  0.180664  0.000000  1
  Ni  Ni13  1  0.819336  0.638673  0.000000  1
  Ni  Ni14  1  0.180664  0.819336  0.000000  1
  Ni  Ni15  1  0.638673  0.819336  0.000000  1
  Ni  Ni16  1  0.361327  0.180664  0.000000  1
  Ni  Ni17  1  0.180664  0.361327  0.000000  1
