# generated using pymatgen
data_PrMnGaO5
_symmetry_space_group_name_H-M   'P 1'
_cell_length_a   5.81138700
_cell_length_b   7.62154000
_cell_length_c   8.72587800
_cell_angle_alpha   90.00000000
_cell_angle_beta   90.00000000
_cell_angle_gamma   90.00000000
_symmetry_Int_Tables_number   1
_chemical_formula_structural   PrMnGaO5
_chemical_formula_sum   'Pr4 Mn4 Ga4 O20'
_cell_volume   386.48413183
_cell_formula_units_Z   4
loop_
 _symmetry_equiv_pos_site_id
 _symmetry_equiv_pos_as_xyz
  1  'x, y, z'
loop_
 _atom_site_type_symbol
 _atom_site_label
 _atom_site_symmetry_multiplicity
 _atom_site_fract_x
 _atom_site_fract_y
 _atom_site_fract_z
 _atom_site_occupancy
  Pr  Pr0  1  0.500000  0.362466  0.329507  1
  Pr  Pr1  1  0.500000  0.637534  0.670493  1
  Pr  Pr2  1  0.500000  0.137534  0.829507  1
  Pr  Pr3  1  0.500000  0.862466  0.170493  1
  Mn  Mn4  1  0.245397  0.000000  0.500000  1
  Mn  Mn5  1  0.754603  0.000000  0.500000  1
  Mn  Mn6  1  0.754603  0.500000  0.000000  1
  Mn  Mn7  1  0.245397  0.500000  0.000000  1
  Ga  Ga8  1  0.000000  0.109871  0.143764  1
  Ga  Ga9  1  0.000000  0.890129  0.856236  1
  Ga  Ga10  1  0.000000  0.390129  0.643764  1
  Ga  Ga11  1  0.000000  0.609871  0.356236  1
  O  O12  1  0.500000  0.345580  0.052446  1
  O  O13  1  0.500000  0.654420  0.947554  1
  O  O14  1  0.500000  0.154420  0.552446  1
  O  O15  1  0.500000  0.845580  0.447554  1
  O  O16  1  0.221385  0.000000  0.000000  1
  O  O17  1  0.778615  0.000000  0.000000  1
  O  O18  1  0.778615  0.500000  0.500000  1
  O  O19  1  0.221385  0.500000  0.500000  1
  O  O20  1  0.250139  0.099707  0.294226  1
  O  O21  1  0.749861  0.900293  0.705774  1
  O  O22  1  0.250139  0.900293  0.705774  1
  O  O23  1  0.749861  0.400293  0.794226  1
  O  O24  1  0.749861  0.099707  0.294226  1
  O  O25  1  0.250139  0.599707  0.205774  1
  O  O26  1  0.749861  0.599707  0.205774  1
  O  O27  1  0.250139  0.400293  0.794226  1
  O  O28  1  0.000000  0.347607  0.067417  1
  O  O29  1  0.000000  0.652393  0.932583  1
  O  O30  1  0.000000  0.152393  0.567417  1
  O  O31  1  0.000000  0.847607  0.432583  1
