# generated using pymatgen
data_Tm7Sc(Si4Mo3)4
_symmetry_space_group_name_H-M   'P 1'
_cell_length_a   6.70209709
_cell_length_b   6.90851346
_cell_length_c   12.86754185
_cell_angle_alpha   89.96041235
_cell_angle_beta   89.98680388
_cell_angle_gamma   90.01298948
_symmetry_Int_Tables_number   1
_chemical_formula_structural   Tm7Sc(Si4Mo3)4
_chemical_formula_sum   'Tm7 Sc1 Si16 Mo12'
_cell_volume   595.78667500
_cell_formula_units_Z   1
loop_
 _symmetry_equiv_pos_site_id
 _symmetry_equiv_pos_as_xyz
  1  'x, y, z'
loop_
 _atom_site_type_symbol
 _atom_site_label
 _atom_site_symmetry_multiplicity
 _atom_site_fract_x
 _atom_site_fract_y
 _atom_site_fract_z
 _atom_site_occupancy
  Tm  Tm0  1  0.496501  0.331640  0.093195  1
  Tm  Tm1  1  0.996630  0.168070  0.406822  1
  Tm  Tm2  1  0.503251  0.667757  0.593364  1
  Tm  Tm3  1  0.003169  0.832497  0.908183  1
  Tm  Tm4  1  0.502932  0.668526  0.907549  1
  Tm  Tm5  1  0.003432  0.831999  0.593421  1
  Tm  Tm6  1  0.496649  0.331559  0.405464  1
  Sc  Sc7  1  0.995237  0.169622  0.094767  1
  Si  Si8  1  0.660413  0.040739  0.547013  1
  Si  Si9  1  0.159829  0.456734  0.954337  1
  Si  Si10  1  0.334302  0.962231  0.047561  1
  Si  Si11  1  0.839423  0.541209  0.452783  1
  Si  Si12  1  0.340055  0.959074  0.452587  1
  Si  Si13  1  0.841294  0.537112  0.047757  1
  Si  Si14  1  0.661535  0.041014  0.954332  1
  Si  Si15  1  0.160344  0.459259  0.546971  1
  Si  Si16  1  0.534080  0.369086  0.750262  1
  Si  Si17  1  0.033732  0.130791  0.750042  1
  Si  Si18  1  0.466382  0.630988  0.249650  1
  Si  Si19  1  0.967049  0.871746  0.248069  1
  Si  Si20  1  0.801960  0.632785  0.750645  1
  Si  Si21  1  0.301448  0.867092  0.750401  1
  Si  Si22  1  0.195894  0.364677  0.248156  1
  Si  Si23  1  0.701778  0.133180  0.248335  1
  Mo  Mo24  1  0.829545  0.335430  0.625022  1
  Mo  Mo25  1  0.329810  0.165259  0.875303  1
  Mo  Mo26  1  0.170972  0.664303  0.124655  1
  Mo  Mo27  1  0.671146  0.835485  0.374586  1
  Mo  Mo28  1  0.170096  0.665529  0.374179  1
  Mo  Mo29  1  0.670192  0.835894  0.124520  1
  Mo  Mo30  1  0.830223  0.333850  0.876081  1
  Mo  Mo31  1  0.330264  0.164559  0.624948  1
  Mo  Mo32  1  0.666102  0.997491  0.750602  1
  Mo  Mo33  1  0.166232  0.502118  0.750207  1
  Mo  Mo34  1  0.333933  0.003528  0.248884  1
  Mo  Mo35  1  0.834165  0.497165  0.249348  1
