# generated using pymatgen
data_PaCo4NiH6
_symmetry_space_group_name_H-M   'P 1'
_cell_length_a   5.09802900
_cell_length_b   5.09802958
_cell_length_c   4.25659600
_cell_angle_alpha   90.00000000
_cell_angle_beta   90.00000000
_cell_angle_gamma   120.00000275
_symmetry_Int_Tables_number   1
_chemical_formula_structural   PaCo4NiH6
_chemical_formula_sum   'Pa1 Co4 Ni1 H6'
_cell_volume   95.80710219
_cell_formula_units_Z   1
loop_
 _symmetry_equiv_pos_site_id
 _symmetry_equiv_pos_as_xyz
  1  'x, y, z'
loop_
 _atom_site_type_symbol
 _atom_site_label
 _atom_site_symmetry_multiplicity
 _atom_site_fract_x
 _atom_site_fract_y
 _atom_site_fract_z
 _atom_site_occupancy
  Pa  Pa0  1  0.666667  0.333333  0.967125  1
  Co  Co1  1  0.657890  0.828945  0.458318  1
  Co  Co2  1  0.171055  0.828945  0.458318  1
  Co  Co3  1  0.171055  0.342110  0.458318  1
  Co  Co4  1  0.000000  0.000000  0.997260  1
  Ni  Ni5  1  0.333333  0.666667  0.991501  1
  H  H6  1  0.668734  0.834368  0.839229  1
  H  H7  1  0.165632  0.834368  0.839229  1
  H  H8  1  0.165632  0.331266  0.839229  1
  H  H9  1  0.397154  0.198578  0.452404  1
  H  H10  1  0.801422  0.198578  0.452404  1
  H  H11  1  0.801422  0.602846  0.452404  1
