# generated using pymatgen
data_Tb2SbRhO7
_symmetry_space_group_name_H-M   'P 1'
_cell_length_a   7.32717731
_cell_length_b   7.29578802
_cell_length_c   7.32717718
_cell_angle_alpha   60.14162024
_cell_angle_beta   60.70535970
_cell_angle_gamma   60.14161461
_symmetry_Int_Tables_number   1
_chemical_formula_structural   Tb2SbRhO7
_chemical_formula_sum   'Tb4 Sb2 Rh2 O14'
_cell_volume   279.01571903
_cell_formula_units_Z   2
loop_
 _symmetry_equiv_pos_site_id
 _symmetry_equiv_pos_as_xyz
  1  'x, y, z'
loop_
 _atom_site_type_symbol
 _atom_site_label
 _atom_site_symmetry_multiplicity
 _atom_site_fract_x
 _atom_site_fract_y
 _atom_site_fract_z
 _atom_site_occupancy
  Tb  Tb0  1  0.125000  0.625000  0.125000  1
  Tb  Tb1  1  0.125000  0.125000  0.625000  1
  Tb  Tb2  1  0.625000  0.125000  0.125000  1
  Tb  Tb3  1  0.125000  0.125000  0.125000  1
  Sb  Sb4  1  0.125000  0.625000  0.625000  1
  Sb  Sb5  1  0.625000  0.625000  0.125000  1
  Rh  Rh6  1  0.625000  0.625000  0.625000  1
  Rh  Rh7  1  0.625000  0.125000  0.625000  1
  O  O8  1  0.284008  0.706409  0.717523  1
  O  O9  1  0.532477  0.957940  0.965992  1
  O  O10  1  0.723793  0.276207  0.723793  1
  O  O11  1  0.284008  0.292060  0.717523  1
  O  O12  1  0.717523  0.706409  0.284008  1
  O  O13  1  0.003176  0.996824  0.003176  1
  O  O14  1  0.295595  0.704405  0.295595  1
  O  O15  1  0.954405  0.545595  0.954405  1
  O  O16  1  0.965992  0.957940  0.532477  1
  O  O17  1  0.532477  0.543591  0.965992  1
  O  O18  1  0.246824  0.253176  0.246824  1
  O  O19  1  0.526207  0.973793  0.526207  1
  O  O20  1  0.717523  0.292060  0.284008  1
  O  O21  1  0.965992  0.543591  0.532477  1
