# generated using pymatgen
data_La3PrNd2(OsI3)2
_symmetry_space_group_name_H-M   'P 1'
_cell_length_a   4.36581600
_cell_length_b   9.43775131
_cell_length_c   12.74785621
_cell_angle_alpha   86.86375693
_cell_angle_beta   90.00000000
_cell_angle_gamma   90.00000000
_symmetry_Int_Tables_number   1
_chemical_formula_structural   La3PrNd2(OsI3)2
_chemical_formula_sum   'La3 Pr1 Nd2 Os2 I6'
_cell_volume   524.46941471
_cell_formula_units_Z   1
loop_
 _symmetry_equiv_pos_site_id
 _symmetry_equiv_pos_as_xyz
  1  'x, y, z'
loop_
 _atom_site_type_symbol
 _atom_site_label
 _atom_site_symmetry_multiplicity
 _atom_site_fract_x
 _atom_site_fract_y
 _atom_site_fract_z
 _atom_site_occupancy
  La  La0  1  0.750000  0.688662  0.118388  1
  La  La1  1  0.250000  0.885941  0.330354  1
  La  La2  1  0.250000  0.309112  0.880647  1
  Pr  Pr3  1  0.250000  0.906354  0.891770  1
  Nd  Nd4  1  0.750000  0.115202  0.668418  1
  Nd  Nd5  1  0.750000  0.094987  0.107917  1
  Os  Os6  1  0.250000  0.886028  0.124687  1
  Os  Os7  1  0.750000  0.113024  0.879972  1
  I  I8  1  0.250000  0.392925  0.135123  1
  I  I9  1  0.750000  0.136377  0.380633  1
  I  I10  1  0.750000  0.606642  0.864711  1
  I  I11  1  0.250000  0.359227  0.621159  1
  I  I12  1  0.750000  0.633285  0.376881  1
  I  I13  1  0.250000  0.872233  0.619338  1
