# generated using pymatgen
data_Tb5CeDy4(SiB4)4
_symmetry_space_group_name_H-M   'P 1'
_cell_length_a   7.24752368
_cell_length_b   7.24752381
_cell_length_c   8.16846903
_cell_angle_alpha   90.00709426
_cell_angle_beta   89.99291193
_cell_angle_gamma   89.95519144
_symmetry_Int_Tables_number   1
_chemical_formula_structural   Tb5CeDy4(SiB4)4
_chemical_formula_sum   'Tb5 Ce1 Dy4 Si4 B16'
_cell_volume   429.06177105
_cell_formula_units_Z   1
loop_
 _symmetry_equiv_pos_site_id
 _symmetry_equiv_pos_as_xyz
  1  'x, y, z'
loop_
 _atom_site_type_symbol
 _atom_site_label
 _atom_site_symmetry_multiplicity
 _atom_site_fract_x
 _atom_site_fract_y
 _atom_site_fract_z
 _atom_site_occupancy
  Tb  Tb0  1  0.680361  0.180835  0.222645  1
  Tb  Tb1  1  0.319325  0.819264  0.777555  1
  Tb  Tb2  1  0.319165  0.819639  0.222645  1
  Tb  Tb3  1  0.819372  0.680628  0.223166  1
  Tb  Tb4  1  0.680736  0.180675  0.777555  1
  Ce  Ce5  1  0.817809  0.682191  0.769405  1
  Dy  Dy6  1  0.180491  0.319509  0.778612  1
  Dy  Dy7  1  0.181246  0.318754  0.221547  1
  Dy  Dy8  1  0.001264  0.001258  0.499527  1
  Dy  Dy9  1  0.498742  0.498736  0.499527  1
  Si  Si10  1  0.115223  0.613981  0.501054  1
  Si  Si11  1  0.886019  0.384777  0.501054  1
  Si  Si12  1  0.384113  0.115887  0.498217  1
  Si  Si13  1  0.613792  0.886208  0.500759  1
  B  B14  1  0.172721  0.039910  0.000756  1
  B  B15  1  0.828297  0.960620  0.000413  1
  B  B16  1  0.961238  0.172646  0.000835  1
  B  B17  1  0.327354  0.538762  0.000835  1
  B  B18  1  0.039186  0.827713  0.000022  1
  B  B19  1  0.672287  0.460814  0.000022  1
  B  B20  1  0.539380  0.671703  0.000413  1
  B  B21  1  0.460090  0.327279  0.000756  1
  B  B22  1  0.090243  0.589676  0.000244  1
  B  B23  1  0.910324  0.409757  0.000244  1
  B  B24  1  0.409788  0.090212  0.000557  1
  B  B25  1  0.590447  0.909553  0.999018  1
  B  B26  1  0.000344  0.000415  0.161413  1
  B  B27  1  0.000795  0.999737  0.839896  1
  B  B28  1  0.500263  0.499205  0.839896  1
  B  B29  1  0.499585  0.499656  0.161413  1
