# generated using pymatgen
data_YbSmNi8BC
_symmetry_space_group_name_H-M   'P 1'
_cell_length_a   4.98989900
_cell_length_b   4.98989849
_cell_length_c   6.79563600
_cell_angle_alpha   90.00000000
_cell_angle_beta   90.00000000
_cell_angle_gamma   119.99999673
_symmetry_Int_Tables_number   1
_chemical_formula_structural   YbSmNi8BC
_chemical_formula_sum   'Yb1 Sm1 Ni8 B1 C1'
_cell_volume   146.53596230
_cell_formula_units_Z   1
loop_
 _symmetry_equiv_pos_site_id
 _symmetry_equiv_pos_as_xyz
  1  'x, y, z'
loop_
 _atom_site_type_symbol
 _atom_site_label
 _atom_site_symmetry_multiplicity
 _atom_site_fract_x
 _atom_site_fract_y
 _atom_site_fract_z
 _atom_site_occupancy
  Yb  Yb0  1  0.000000  0.000000  0.000000  1
  Sm  Sm1  1  0.000000  0.000000  0.500000  1
  Ni  Ni2  1  0.666667  0.333333  0.500000  1
  Ni  Ni3  1  0.333333  0.666667  0.500000  1
  Ni  Ni4  1  0.501552  0.498448  0.801912  1
  Ni  Ni5  1  0.501552  0.003104  0.801912  1
  Ni  Ni6  1  0.996896  0.498448  0.801912  1
  Ni  Ni7  1  0.501552  0.498448  0.198088  1
  Ni  Ni8  1  0.501552  0.003104  0.198088  1
  Ni  Ni9  1  0.996896  0.498448  0.198088  1
  B  B10  1  0.333333  0.666667  0.000000  1
  C  C11  1  0.666667  0.333333  0.000000  1
