# generated using pymatgen
data_ErTh2(SnRh)3
_symmetry_space_group_name_H-M   'P 1'
_cell_length_a   7.56965177
_cell_length_b   7.56965120
_cell_length_c   4.04920500
_cell_angle_alpha   90.00000000
_cell_angle_beta   90.00000000
_cell_angle_gamma   120.24828851
_symmetry_Int_Tables_number   1
_chemical_formula_structural   ErTh2(SnRh)3
_chemical_formula_sum   'Er1 Th2 Sn3 Rh3'
_cell_volume   200.42881053
_cell_formula_units_Z   1
loop_
 _symmetry_equiv_pos_site_id
 _symmetry_equiv_pos_as_xyz
  1  'x, y, z'
loop_
 _atom_site_type_symbol
 _atom_site_label
 _atom_site_symmetry_multiplicity
 _atom_site_fract_x
 _atom_site_fract_y
 _atom_site_fract_z
 _atom_site_occupancy
  Er  Er0  1  0.406834  0.406834  0.500000  1
  Th  Th1  1  0.586431  0.999149  0.500000  1
  Th  Th2  1  0.999149  0.586431  0.500000  1
  Sn  Sn3  1  0.737887  0.737887  0.000000  1
  Sn  Sn4  1  0.254151  0.010981  0.000000  1
  Sn  Sn5  1  0.010981  0.254151  0.000000  1
  Rh  Rh6  1  0.675158  0.332584  0.000000  1
  Rh  Rh7  1  0.332584  0.675158  0.000000  1
  Rh  Rh8  1  0.996825  0.996825  0.500000  1
