# generated using pymatgen
data_LaNd3Y2IrI10
_symmetry_space_group_name_H-M   'P 1'
_cell_length_a   7.91917714
_cell_length_b   10.05192128
_cell_length_c   9.92413558
_cell_angle_alpha   107.21776663
_cell_angle_beta   95.87003376
_cell_angle_gamma   104.94358705
_symmetry_Int_Tables_number   1
_chemical_formula_structural   LaNd3Y2IrI10
_chemical_formula_sum   'La1 Nd3 Y2 Ir1 I10'
_cell_volume   715.28523689
_cell_formula_units_Z   1
loop_
 _symmetry_equiv_pos_site_id
 _symmetry_equiv_pos_as_xyz
  1  'x, y, z'
loop_
 _atom_site_type_symbol
 _atom_site_label
 _atom_site_symmetry_multiplicity
 _atom_site_fract_x
 _atom_site_fract_y
 _atom_site_fract_z
 _atom_site_occupancy
  La  La0  1  0.116308  0.041941  0.759814  1
  Nd  Nd1  1  0.884516  0.958327  0.236815  1
  Nd  Nd2  1  0.969013  0.290912  0.090202  1
  Nd  Nd3  1  0.031289  0.709917  0.911993  1
  Y  Y4  1  0.347501  0.124371  0.164621  1
  Y  Y5  1  0.652192  0.875072  0.835315  1
  Ir  Ir6  1  0.000883  0.000763  0.997956  1
  I  I7  1  0.356155  0.443834  0.270737  1
  I  I8  1  0.644849  0.556028  0.729576  1
  I  I9  1  0.262056  0.087319  0.453286  1
  I  I10  1  0.731869  0.910638  0.543196  1
  I  I11  1  0.085485  0.373983  0.820065  1
  I  I12  1  0.913107  0.630439  0.182993  1
  I  I13  1  0.455047  0.822949  0.090413  1
  I  I14  1  0.548711  0.178392  0.912338  1
  I  I15  1  0.765236  0.252558  0.345464  1
  I  I16  1  0.235785  0.742557  0.655216  1
