# generated using pymatgen
data_Tb2In(Ga2Ni3)3
_symmetry_space_group_name_H-M   'P 1'
_cell_length_a   3.88385300
_cell_length_b   8.97504587
_cell_length_c   8.96485420
_cell_angle_alpha   120.03761385
_cell_angle_beta   90.00000000
_cell_angle_gamma   90.00000000
_symmetry_Int_Tables_number   1
_chemical_formula_structural   Tb2In(Ga2Ni3)3
_chemical_formula_sum   'Tb2 In1 Ga6 Ni9'
_cell_volume   270.52573844
_cell_formula_units_Z   1
loop_
 _symmetry_equiv_pos_site_id
 _symmetry_equiv_pos_as_xyz
  1  'x, y, z'
loop_
 _atom_site_type_symbol
 _atom_site_label
 _atom_site_symmetry_multiplicity
 _atom_site_fract_x
 _atom_site_fract_y
 _atom_site_fract_z
 _atom_site_occupancy
  Tb  Tb0  1  0.500000  0.833346  0.666691  1
  Tb  Tb1  1  0.500000  0.166654  0.333309  1
  In  In2  1  0.000000  0.500000  0.000000  1
  Ga  Ga3  1  0.500000  0.179462  0.000000  1
  Ga  Ga4  1  0.500000  0.500208  0.679569  1
  Ga  Ga5  1  0.500000  0.820639  0.320431  1
  Ga  Ga6  1  0.500000  0.820538  0.000000  1
  Ga  Ga7  1  0.500000  0.499792  0.320431  1
  Ga  Ga8  1  0.500000  0.179361  0.679569  1
  Ni  Ni9  1  0.000000  0.000000  0.000000  1
  Ni  Ni10  1  0.000000  0.500000  0.500000  1
  Ni  Ni11  1  0.000000  0.000000  0.500000  1
  Ni  Ni12  1  0.000000  0.673996  0.347991  1
  Ni  Ni13  1  0.000000  0.152763  0.826267  1
  Ni  Ni14  1  0.000000  0.673504  0.826267  1
  Ni  Ni15  1  0.000000  0.326004  0.652009  1
  Ni  Ni16  1  0.000000  0.326496  0.173733  1
  Ni  Ni17  1  0.000000  0.847237  0.173733  1
