# generated using pymatgen
data_Rb5As6
_symmetry_space_group_name_H-M   'P 1'
_cell_length_a   16.58379916
_cell_length_b   16.58380053
_cell_length_c   5.44353300
_cell_angle_alpha   90.00000000
_cell_angle_beta   90.00000000
_cell_angle_gamma   164.54496785
_symmetry_Int_Tables_number   1
_chemical_formula_structural   Rb5As6
_chemical_formula_sum   'Rb5 As6'
_cell_volume   398.94849948
_cell_formula_units_Z   1
loop_
 _symmetry_equiv_pos_site_id
 _symmetry_equiv_pos_as_xyz
  1  'x, y, z'
loop_
 _atom_site_type_symbol
 _atom_site_label
 _atom_site_symmetry_multiplicity
 _atom_site_fract_x
 _atom_site_fract_y
 _atom_site_fract_z
 _atom_site_occupancy
  Rb  Rb0  1  0.999507  0.000493  0.000000  1
  Rb  Rb1  1  0.617135  0.382863  0.000000  1
  Rb  Rb2  1  0.382199  0.617799  0.000000  1
  Rb  Rb3  1  0.195441  0.804557  0.500001  1
  Rb  Rb4  1  0.806022  0.193976  0.500001  1
  As  As5  1  0.734403  0.265595  0.000000  1
  As  As6  1  0.266692  0.733306  0.000000  1
  As  As7  1  0.920012  0.079987  0.500001  1
  As  As8  1  0.549173  0.450825  0.500001  1
  As  As9  1  0.450128  0.549870  0.500001  1
  As  As10  1  0.079279  0.920720  0.500001  1
