# generated using pymatgen
data_Tb5Tm5(Bi3C)2
_symmetry_space_group_name_H-M   'P 1'
_cell_length_a   9.15504526
_cell_length_b   9.13374148
_cell_length_c   6.44891500
_cell_angle_alpha   90.00000000
_cell_angle_beta   90.00000000
_cell_angle_gamma   119.92304879
_symmetry_Int_Tables_number   1
_chemical_formula_structural   Tb5Tm5(Bi3C)2
_chemical_formula_sum   'Tb5 Tm5 Bi6 C2'
_cell_volume   467.37204253
_cell_formula_units_Z   1
loop_
 _symmetry_equiv_pos_site_id
 _symmetry_equiv_pos_as_xyz
  1  'x, y, z'
loop_
 _atom_site_type_symbol
 _atom_site_label
 _atom_site_symmetry_multiplicity
 _atom_site_fract_x
 _atom_site_fract_y
 _atom_site_fract_z
 _atom_site_occupancy
  Tb  Tb0  1  0.666834  0.333690  0.000319  1
  Tb  Tb1  1  0.333166  0.666858  0.000319  1
  Tb  Tb2  1  0.333166  0.666858  0.499681  1
  Tb  Tb3  1  0.666834  0.333690  0.499681  1
  Tb  Tb4  1  0.000000  0.787943  0.250000  1
  Tm  Tm5  1  0.796884  0.798259  0.750000  1
  Tm  Tm6  1  0.203116  0.001375  0.750000  1
  Tm  Tm7  1  0.000000  0.204417  0.750000  1
  Tm  Tm8  1  0.202667  0.201988  0.250000  1
  Tm  Tm9  1  0.797333  0.999322  0.250000  1
  Bi  Bi10  1  0.398090  0.398246  0.750000  1
  Bi  Bi11  1  0.601910  0.000157  0.750000  1
  Bi  Bi12  1  0.000000  0.603379  0.750000  1
  Bi  Bi13  1  0.600607  0.602072  0.250000  1
  Bi  Bi14  1  0.399393  0.001466  0.250000  1
  Bi  Bi15  1  0.000000  0.396468  0.250000  1
  C  C16  1  0.000000  0.001906  0.998593  1
  C  C17  1  0.000000  0.001906  0.501407  1
