# generated using pymatgen
data_MoPO4F
_symmetry_space_group_name_H-M   'P 1'
_cell_length_a   6.51195600
_cell_length_b   7.44741900
_cell_length_c   7.87875300
_cell_angle_alpha   90.00000000
_cell_angle_beta   90.00000000
_cell_angle_gamma   90.00000000
_symmetry_Int_Tables_number   1
_chemical_formula_structural   MoPO4F
_chemical_formula_sum   'Mo4 P4 O16 F4'
_cell_volume   382.09797086
_cell_formula_units_Z   4
loop_
 _symmetry_equiv_pos_site_id
 _symmetry_equiv_pos_as_xyz
  1  'x, y, z'
loop_
 _atom_site_type_symbol
 _atom_site_label
 _atom_site_symmetry_multiplicity
 _atom_site_fract_x
 _atom_site_fract_y
 _atom_site_fract_z
 _atom_site_occupancy
  Mo  Mo0  1  0.750000  0.251075  0.871745  1
  Mo  Mo1  1  0.750000  0.248925  0.371745  1
  Mo  Mo2  1  0.250000  0.748925  0.128255  1
  Mo  Mo3  1  0.250000  0.751075  0.628255  1
  P  P4  1  0.750000  0.878328  0.123159  1
  P  P5  1  0.750000  0.621672  0.623159  1
  P  P6  1  0.250000  0.121672  0.876841  1
  P  P7  1  0.250000  0.378328  0.376841  1
  O  O8  1  0.750000  0.995439  0.960838  1
  O  O9  1  0.750000  0.504561  0.460838  1
  O  O10  1  0.250000  0.004561  0.039162  1
  O  O11  1  0.250000  0.495439  0.539162  1
  O  O12  1  0.940064  0.756166  0.122060  1
  O  O13  1  0.559936  0.743834  0.622060  1
  O  O14  1  0.440064  0.243834  0.877940  1
  O  O15  1  0.059936  0.256166  0.377940  1
  O  O16  1  0.059936  0.243834  0.877940  1
  O  O17  1  0.440064  0.256166  0.377940  1
  O  O18  1  0.559936  0.756166  0.122060  1
  O  O19  1  0.940064  0.743834  0.622060  1
  O  O20  1  0.750000  0.996060  0.286162  1
  O  O21  1  0.750000  0.503940  0.786162  1
  O  O22  1  0.250000  0.003940  0.713838  1
  O  O23  1  0.250000  0.496060  0.213838  1
  F  F24  1  0.750000  0.343954  0.122723  1
  F  F25  1  0.750000  0.156046  0.622723  1
  F  F26  1  0.250000  0.656046  0.877277  1
  F  F27  1  0.250000  0.843954  0.377277  1
