# generated using pymatgen
data_VMo(PO4)2
_symmetry_space_group_name_H-M   'P 1'
_cell_length_a   4.80213508
_cell_length_b   4.80216377
_cell_length_c   6.68365388
_cell_angle_alpha   90.86246973
_cell_angle_beta   90.86212580
_cell_angle_gamma   67.02707782
_symmetry_Int_Tables_number   1
_chemical_formula_structural   VMo(PO4)2
_chemical_formula_sum   'V1 Mo1 P2 O8'
_cell_volume   141.88212298
_cell_formula_units_Z   1
loop_
 _symmetry_equiv_pos_site_id
 _symmetry_equiv_pos_as_xyz
  1  'x, y, z'
loop_
 _atom_site_type_symbol
 _atom_site_label
 _atom_site_symmetry_multiplicity
 _atom_site_fract_x
 _atom_site_fract_y
 _atom_site_fract_z
 _atom_site_occupancy
  V  V0  1  0.000000  0.000000  0.499999  1
  Mo  Mo1  1  0.000000  0.000000  0.000000  1
  P  P2  1  0.647738  0.647736  0.254959  1
  P  P3  1  0.352263  0.352265  0.745040  1
  O  O4  1  0.740117  0.740112  0.058205  1
  O  O5  1  0.776747  0.289721  0.259819  1
  O  O6  1  0.289720  0.776754  0.259818  1
  O  O7  1  0.758353  0.758351  0.443970  1
  O  O8  1  0.241647  0.241649  0.556030  1
  O  O9  1  0.710280  0.223246  0.740182  1
  O  O10  1  0.223253  0.710279  0.740181  1
  O  O11  1  0.259883  0.259888  0.941795  1
