# generated using pymatgen
data_Sm4Al3Cr(WO6)4
_symmetry_space_group_name_H-M   'P 1'
_cell_length_a   5.29742782
_cell_length_b   7.41483350
_cell_length_c   10.88861255
_cell_angle_alpha   90.09182068
_cell_angle_beta   89.84483689
_cell_angle_gamma   89.99813213
_symmetry_Int_Tables_number   1
_chemical_formula_structural   Sm4Al3Cr(WO6)4
_chemical_formula_sum   'Sm4 Al3 Cr1 W4 O24'
_cell_volume   427.69763143
_cell_formula_units_Z   1
loop_
 _symmetry_equiv_pos_site_id
 _symmetry_equiv_pos_as_xyz
  1  'x, y, z'
loop_
 _atom_site_type_symbol
 _atom_site_label
 _atom_site_symmetry_multiplicity
 _atom_site_fract_x
 _atom_site_fract_y
 _atom_site_fract_z
 _atom_site_occupancy
  Sm  Sm0  1  0.546110  0.249257  0.048679  1
  Sm  Sm1  1  0.046622  0.752014  0.454770  1
  Sm  Sm2  1  0.954415  0.251410  0.541887  1
  Sm  Sm3  1  0.455068  0.753599  0.956646  1
  Al  Al4  1  0.044951  0.997157  0.136504  1
  Al  Al5  1  0.546332  0.497932  0.363517  1
  Al  Al6  1  0.456456  0.997597  0.636576  1
  Cr  Cr7  1  0.950585  0.499120  0.864840  1
  W  W8  1  0.054825  0.505463  0.146333  1
  W  W9  1  0.552254  0.005443  0.355705  1
  W  W10  1  0.445922  0.505727  0.641468  1
  W  W11  1  0.949250  0.006570  0.855041  1
  O  O12  1  0.768353  0.963045  0.024256  1
  O  O13  1  0.767812  0.540824  0.028290  1
  O  O14  1  0.154498  0.753862  0.123507  1
  O  O15  1  0.955499  0.251996  0.144123  1
  O  O16  1  0.373157  0.445686  0.216929  1
  O  O17  1  0.363547  0.056997  0.214077  1
  O  O18  1  0.865490  0.557995  0.287680  1
  O  O19  1  0.872923  0.945942  0.285123  1
  O  O20  1  0.454807  0.752181  0.355952  1
  O  O21  1  0.654216  0.253820  0.375892  1
  O  O22  1  0.271186  0.039544  0.476910  1
  O  O23  1  0.267809  0.465116  0.473532  1
  O  O24  1  0.733268  0.964771  0.523152  1
  O  O25  1  0.729468  0.539890  0.521806  1
  O  O26  1  0.343655  0.754948  0.620937  1
  O  O27  1  0.550072  0.252522  0.642562  1
  O  O28  1  0.124059  0.441042  0.705676  1
  O  O29  1  0.138353  0.061241  0.714228  1
  O  O30  1  0.617869  0.562894  0.786278  1
  O  O31  1  0.631190  0.943180  0.784210  1
  O  O32  1  0.056937  0.757502  0.855368  1
  O  O33  1  0.832575  0.248838  0.878991  1
  O  O34  1  0.229483  0.041574  0.977597  1
  O  O35  1  0.240986  0.463701  0.980956  1
