# generated using pymatgen
data_Ca2Al20FeIr3
_symmetry_space_group_name_H-M   'P 1'
_cell_length_a   6.85938518
_cell_length_b   6.86673404
_cell_length_c   9.13180714
_cell_angle_alpha   90.13035693
_cell_angle_beta   89.87639172
_cell_angle_gamma   96.64189754
_symmetry_Int_Tables_number   1
_chemical_formula_structural   Ca2Al20FeIr3
_chemical_formula_sum   'Ca2 Al20 Fe1 Ir3'
_cell_volume   427.23381664
_cell_formula_units_Z   1
loop_
 _symmetry_equiv_pos_site_id
 _symmetry_equiv_pos_as_xyz
  1  'x, y, z'
loop_
 _atom_site_type_symbol
 _atom_site_label
 _atom_site_symmetry_multiplicity
 _atom_site_fract_x
 _atom_site_fract_y
 _atom_site_fract_z
 _atom_site_occupancy
  Ca  Ca0  1  0.874559  0.125342  0.248873  1
  Ca  Ca1  1  0.125441  0.874658  0.751127  1
  Al  Al2  1  0.224230  0.223005  0.497837  1
  Al  Al3  1  0.770991  0.780793  0.003163  1
  Al  Al4  1  0.775770  0.776995  0.502163  1
  Al  Al5  1  0.229009  0.219207  0.996837  1
  Al  Al6  1  0.379328  0.622287  0.553323  1
  Al  Al7  1  0.619370  0.372508  0.050553  1
  Al  Al8  1  0.583028  0.860357  0.755541  1
  Al  Al9  1  0.416972  0.139643  0.244459  1
  Al  Al10  1  0.856491  0.587217  0.249273  1
  Al  Al11  1  0.143509  0.412783  0.750727  1
  Al  Al12  1  0.479936  0.222014  0.755513  1
  Al  Al13  1  0.520064  0.777986  0.244487  1
  Al  Al14  1  0.225666  0.478878  0.248935  1
  Al  Al15  1  0.774334  0.521122  0.751065  1
  Al  Al16  1  0.157099  0.842490  0.397485  1
  Al  Al17  1  0.836958  0.153587  0.901458  1
  Al  Al18  1  0.842901  0.157510  0.602515  1
  Al  Al19  1  0.163042  0.846413  0.098542  1
  Al  Al20  1  0.380630  0.627492  0.949447  1
  Al  Al21  1  0.620672  0.377713  0.446677  1
  Fe  Fe22  1  0.500000  0.000000  0.000000  1
  Ir  Ir23  1  0.000000  0.500000  0.500000  1
  Ir  Ir24  1  0.000000  0.500000  0.000000  1
  Ir  Ir25  1  0.500000  0.000000  0.500000  1
