# generated using pymatgen
data_BaGaH3O
_symmetry_space_group_name_H-M   'P 1'
_cell_length_a   5.71137000
_cell_length_b   4.60683276
_cell_length_c   7.48866521
_cell_angle_alpha   91.20077337
_cell_angle_beta   90.00000000
_cell_angle_gamma   90.00000000
_symmetry_Int_Tables_number   1
_chemical_formula_structural   BaGaH3O
_chemical_formula_sum   'Ba2 Ga2 H6 O2'
_cell_volume   196.99344556
_cell_formula_units_Z   2
loop_
 _symmetry_equiv_pos_site_id
 _symmetry_equiv_pos_as_xyz
  1  'x, y, z'
loop_
 _atom_site_type_symbol
 _atom_site_label
 _atom_site_symmetry_multiplicity
 _atom_site_fract_x
 _atom_site_fract_y
 _atom_site_fract_z
 _atom_site_occupancy
  Ba  Ba0  1  0.317208  0.756340  0.333992  1
  Ba  Ba1  1  0.817208  0.243660  0.666008  1
  Ga  Ga2  1  0.852020  0.316493  0.208604  1
  Ga  Ga3  1  0.352020  0.683507  0.791396  1
  H  H4  1  0.606028  0.226985  0.303374  1
  H  H5  1  0.106028  0.773015  0.696626  1
  H  H6  1  0.837066  0.665133  0.186088  1
  H  H7  1  0.337066  0.334867  0.813912  1
  H  H8  1  0.892513  0.150568  0.022929  1
  H  H9  1  0.392513  0.849432  0.977071  1
  O  O10  1  0.085776  0.249305  0.378019  1
  O  O11  1  0.585776  0.750695  0.621981  1
