# generated using pymatgen
data_Na2MnCu3S4
_symmetry_space_group_name_H-M   'P 1'
_cell_length_a   7.89816796
_cell_length_b   7.89816797
_cell_length_c   6.72259492
_cell_angle_alpha   65.03197376
_cell_angle_beta   65.03197332
_cell_angle_gamma   28.07864165
_symmetry_Int_Tables_number   1
_chemical_formula_structural   Na2MnCu3S4
_chemical_formula_sum   'Na2 Mn1 Cu3 S4'
_cell_volume   177.72269204
_cell_formula_units_Z   1
loop_
 _symmetry_equiv_pos_site_id
 _symmetry_equiv_pos_as_xyz
  1  'x, y, z'
loop_
 _atom_site_type_symbol
 _atom_site_label
 _atom_site_symmetry_multiplicity
 _atom_site_fract_x
 _atom_site_fract_y
 _atom_site_fract_z
 _atom_site_occupancy
  Na  Na0  1  0.495937  0.495937  0.499579  1
  Na  Na1  1  0.995978  0.995978  0.007511  1
  Mn  Mn2  1  0.188955  0.188955  0.469835  1
  Cu  Cu3  1  0.692910  0.692910  0.980034  1
  Cu  Cu4  1  0.815035  0.815035  0.526381  1
  Cu  Cu5  1  0.313975  0.313975  0.012939  1
  S  S6  1  0.134164  0.134164  0.196643  1
  S  S7  1  0.635430  0.635430  0.702406  1
  S  S8  1  0.867114  0.867114  0.799785  1
  S  S9  1  0.359755  0.359755  0.304887  1
