# generated using pymatgen
data_LaY11Tc3Rh
_symmetry_space_group_name_H-M   'P 1'
_cell_length_a   6.38448802
_cell_length_b   7.42721514
_cell_length_c   9.28127700
_cell_angle_alpha   90.00000000
_cell_angle_beta   90.00000000
_cell_angle_gamma   90.03619824
_symmetry_Int_Tables_number   1
_chemical_formula_structural   LaY11Tc3Rh
_chemical_formula_sum   'La1 Y11 Tc3 Rh1'
_cell_volume   440.10847153
_cell_formula_units_Z   1
loop_
 _symmetry_equiv_pos_site_id
 _symmetry_equiv_pos_as_xyz
  1  'x, y, z'
loop_
 _atom_site_type_symbol
 _atom_site_label
 _atom_site_symmetry_multiplicity
 _atom_site_fract_x
 _atom_site_fract_y
 _atom_site_fract_z
 _atom_site_occupancy
  La  La0  1  0.626515  0.054281  0.250000  1
  Y  Y1  1  0.371125  0.957192  0.750000  1
  Y  Y2  1  0.127494  0.459688  0.750000  1
  Y  Y3  1  0.873197  0.541767  0.250000  1
  Y  Y4  1  0.159937  0.179240  0.058221  1
  Y  Y5  1  0.833894  0.821619  0.932566  1
  Y  Y6  1  0.662945  0.325801  0.933573  1
  Y  Y7  1  0.833894  0.821619  0.567434  1
  Y  Y8  1  0.337410  0.673951  0.061638  1
  Y  Y9  1  0.159937  0.179240  0.441779  1
  Y  Y10  1  0.337410  0.673951  0.438362  1
  Y  Y11  1  0.662945  0.325801  0.566427  1
  Tc  Tc12  1  0.469466  0.372714  0.250000  1
  Tc  Tc13  1  0.536379  0.616107  0.750000  1
  Tc  Tc14  1  0.963593  0.113232  0.750000  1
  Rh  Rh15  1  0.043857  0.883799  0.250000  1
