# generated using pymatgen
data_ScAl2Pd4Pt
_symmetry_space_group_name_H-M   'P 1'
_cell_length_a   4.05235851
_cell_length_b   4.05001649
_cell_length_c   7.86010200
_cell_angle_alpha   104.92957262
_cell_angle_beta   104.93840548
_cell_angle_gamma   89.99999292
_symmetry_Int_Tables_number   1
_chemical_formula_structural   ScAl2Pd4Pt
_chemical_formula_sum   'Sc1 Al2 Pd4 Pt1'
_cell_volume   120.12855762
_cell_formula_units_Z   1
loop_
 _symmetry_equiv_pos_site_id
 _symmetry_equiv_pos_as_xyz
  1  'x, y, z'
loop_
 _atom_site_type_symbol
 _atom_site_label
 _atom_site_symmetry_multiplicity
 _atom_site_fract_x
 _atom_site_fract_y
 _atom_site_fract_z
 _atom_site_occupancy
  Sc  Sc0  1  0.000352  0.000352  0.000705  1
  Al  Al1  1  0.747226  0.747226  0.494452  1
  Al  Al2  1  0.253051  0.253051  0.506102  1
  Pd  Pd3  1  0.499707  0.499707  0.999415  1
  Pd  Pd4  1  0.138640  0.638639  0.277280  1
  Pd  Pd5  1  0.860985  0.360985  0.721969  1
  Pd  Pd6  1  0.359689  0.859689  0.719377  1
  Pt  Pt7  1  0.640348  0.140349  0.280698  1
