# generated using pymatgen
data_La5Zr3(Ni4As3)4
_symmetry_space_group_name_H-M   'P 1'
_cell_length_a   12.91556100
_cell_length_b   12.91556131
_cell_length_c   4.04802800
_cell_angle_alpha   90.00000000
_cell_angle_beta   90.00000000
_cell_angle_gamma   120.00000177
_symmetry_Int_Tables_number   1
_chemical_formula_structural   La5Zr3(Ni4As3)4
_chemical_formula_sum   'La5 Zr3 Ni16 As12'
_cell_volume   584.79101607
_cell_formula_units_Z   1
loop_
 _symmetry_equiv_pos_site_id
 _symmetry_equiv_pos_as_xyz
  1  'x, y, z'
loop_
 _atom_site_type_symbol
 _atom_site_label
 _atom_site_symmetry_multiplicity
 _atom_site_fract_x
 _atom_site_fract_y
 _atom_site_fract_z
 _atom_site_occupancy
  La  La0  1  0.190898  0.190898  0.500000  1
  La  La1  1  0.809102  0.000000  0.500000  1
  La  La2  1  0.000000  0.809102  0.500000  1
  La  La3  1  0.333333  0.666667  0.000000  1
  La  La4  1  0.666667  0.333333  0.000000  1
  Zr  Zr5  1  0.574344  0.574344  0.000000  1
  Zr  Zr6  1  0.425656  0.000000  0.000000  1
  Zr  Zr7  1  0.000000  0.425656  0.000000  1
  Ni  Ni8  1  0.725038  0.725038  0.500000  1
  Ni  Ni9  1  0.274962  0.000000  0.500000  1
  Ni  Ni10  1  0.000000  0.274962  0.500000  1
  Ni  Ni11  1  0.188348  0.379925  0.000000  1
  Ni  Ni12  1  0.620075  0.808423  0.000000  1
  Ni  Ni13  1  0.191577  0.811652  0.000000  1
  Ni  Ni14  1  0.808423  0.620075  0.000000  1
  Ni  Ni15  1  0.811652  0.191577  0.000000  1
  Ni  Ni16  1  0.379925  0.188348  0.000000  1
  Ni  Ni17  1  0.369747  0.487698  0.500000  1
  Ni  Ni18  1  0.512302  0.882050  0.500000  1
  Ni  Ni19  1  0.117950  0.630253  0.500000  1
  Ni  Ni20  1  0.882050  0.512302  0.500000  1
  Ni  Ni21  1  0.630253  0.117950  0.500000  1
  Ni  Ni22  1  0.487698  0.369747  0.500000  1
  Ni  Ni23  1  0.000000  0.000000  0.000000  1
  As  As24  1  0.819155  0.819155  0.000000  1
  As  As25  1  0.180845  0.000000  0.000000  1
  As  As26  1  0.000000  0.180845  0.000000  1
  As  As27  1  0.172327  0.472323  0.500000  1
  As  As28  1  0.527677  0.700004  0.500000  1
  As  As29  1  0.299996  0.827673  0.500000  1
  As  As30  1  0.700004  0.527677  0.500000  1
  As  As31  1  0.827673  0.299996  0.500000  1
  As  As32  1  0.472323  0.172327  0.500000  1
  As  As33  1  0.368059  0.368059  0.000000  1
  As  As34  1  0.631941  0.000000  0.000000  1
  As  As35  1  0.000000  0.631941  0.000000  1
