# generated using pymatgen
data_Y4CrNiC8
_symmetry_space_group_name_H-M   'P 1'
_cell_length_a   6.63706095
_cell_length_b   6.63706195
_cell_length_c   6.63706054
_cell_angle_alpha   134.79581996
_cell_angle_beta   110.25849470
_cell_angle_gamma   87.08591406
_symmetry_Int_Tables_number   1
_chemical_formula_structural   Y4CrNiC8
_chemical_formula_sum   'Y4 Cr1 Ni1 C8'
_cell_volume   186.26548877
_cell_formula_units_Z   1
loop_
 _symmetry_equiv_pos_site_id
 _symmetry_equiv_pos_as_xyz
  1  'x, y, z'
loop_
 _atom_site_type_symbol
 _atom_site_label
 _atom_site_symmetry_multiplicity
 _atom_site_fract_x
 _atom_site_fract_y
 _atom_site_fract_z
 _atom_site_occupancy
  Y  Y0  1  0.511264  0.357236  0.158271  1
  Y  Y1  1  0.488736  0.647007  0.845972  1
  Y  Y2  1  0.198965  0.852993  0.341729  1
  Y  Y3  1  0.801035  0.142764  0.654028  1
  Cr  Cr4  1  0.000000  0.750000  0.750000  1
  Ni  Ni5  1  0.000000  0.250000  0.250000  1
  C  C6  1  0.254521  0.050609  0.141637  1
  C  C7  1  0.745479  0.887115  0.796086  1
  C  C8  1  0.908972  0.612885  0.358363  1
  C  C9  1  0.091028  0.449391  0.703914  1
  C  C10  1  0.468409  0.137250  0.349142  1
  C  C11  1  0.531591  0.880734  0.668842  1
  C  C12  1  0.788108  0.619266  0.150858  1
  C  C13  1  0.211892  0.362750  0.831158  1
