# generated using pymatgen
data_Pr2Be4Ir5Pd
_symmetry_space_group_name_H-M   'P 1'
_cell_length_a   6.50717174
_cell_length_b   6.50717111
_cell_length_c   6.49902963
_cell_angle_alpha   129.92670270
_cell_angle_beta   114.63712818
_cell_angle_gamma   86.71215370
_symmetry_Int_Tables_number   1
_chemical_formula_structural   Pr2Be4Ir5Pd
_chemical_formula_sum   'Pr2 Be4 Ir5 Pd1'
_cell_volume   182.89347591
_cell_formula_units_Z   1
loop_
 _symmetry_equiv_pos_site_id
 _symmetry_equiv_pos_as_xyz
  1  'x, y, z'
loop_
 _atom_site_type_symbol
 _atom_site_label
 _atom_site_symmetry_multiplicity
 _atom_site_fract_x
 _atom_site_fract_y
 _atom_site_fract_z
 _atom_site_occupancy
  Pr  Pr0  1  0.248713  0.993878  0.742592  1
  Pr  Pr1  1  0.751287  0.006122  0.257408  1
  Be  Be2  1  0.077834  0.307407  0.234210  1
  Be  Be3  1  0.922166  0.692593  0.765790  1
  Be  Be4  1  0.426802  0.656375  0.234210  1
  Be  Be5  1  0.573198  0.343625  0.765790  1
  Ir  Ir6  1  0.500000  0.500000  0.500000  1
  Ir  Ir7  1  0.264308  0.999508  0.254301  1
  Ir  Ir8  1  0.735692  0.000492  0.745699  1
  Ir  Ir9  1  0.245207  0.510007  0.745699  1
  Ir  Ir10  1  0.754793  0.489993  0.254301  1
  Pd  Pd11  1  0.000000  0.500000  0.000000  1
