# generated using pymatgen
data_TbPu2(GaNi)3
_symmetry_space_group_name_H-M   'P 1'
_cell_length_a   6.75240000
_cell_length_b   6.93356406
_cell_length_c   3.90622200
_cell_angle_alpha   90.00000000
_cell_angle_beta   90.00000000
_cell_angle_gamma   119.13937346
_symmetry_Int_Tables_number   1
_chemical_formula_structural   TbPu2(GaNi)3
_chemical_formula_sum   'Tb1 Pu2 Ga3 Ni3'
_cell_volume   159.73629343
_cell_formula_units_Z   1
loop_
 _symmetry_equiv_pos_site_id
 _symmetry_equiv_pos_as_xyz
  1  'x, y, z'
loop_
 _atom_site_type_symbol
 _atom_site_label
 _atom_site_symmetry_multiplicity
 _atom_site_fract_x
 _atom_site_fract_y
 _atom_site_fract_z
 _atom_site_occupancy
  Tb  Tb0  1  0.416984  0.000000  0.500000  1
  Pu  Pu1  1  0.001897  0.421860  0.500000  1
  Pu  Pu2  1  0.580037  0.578140  0.500000  1
  Ga  Ga3  1  0.758211  0.000000  0.000000  1
  Ga  Ga4  1  0.001752  0.762114  0.000000  1
  Ga  Ga5  1  0.239639  0.237886  0.000000  1
  Ni  Ni6  1  0.332194  0.657968  0.000000  1
  Ni  Ni7  1  0.674226  0.342032  0.000000  1
  Ni  Ni8  1  0.995059  0.000000  0.500000  1
