# generated using pymatgen
data_MnSb3IF24
_symmetry_space_group_name_H-M   'P 1'
_cell_length_a   10.32557011
_cell_length_b   10.32556982
_cell_length_c   9.58327300
_cell_angle_alpha   88.47752964
_cell_angle_beta   88.47752968
_cell_angle_gamma   119.43878506
_symmetry_Int_Tables_number   1
_chemical_formula_structural   MnSb3IF24
_chemical_formula_sum   'Mn2 Sb6 I2 F48'
_cell_volume   888.58129636
_cell_formula_units_Z   2
loop_
 _symmetry_equiv_pos_site_id
 _symmetry_equiv_pos_as_xyz
  1  'x, y, z'
loop_
 _atom_site_type_symbol
 _atom_site_label
 _atom_site_symmetry_multiplicity
 _atom_site_fract_x
 _atom_site_fract_y
 _atom_site_fract_z
 _atom_site_occupancy
  Mn  Mn0  1  0.000000  0.000000  0.500000  1
  Mn  Mn1  1  0.000000  0.000000  0.000000  1
  Sb  Sb2  1  0.342333  0.170616  0.745443  1
  Sb  Sb3  1  0.829384  0.657667  0.754557  1
  Sb  Sb4  1  0.827673  0.172327  0.750000  1
  Sb  Sb5  1  0.170616  0.342333  0.245443  1
  Sb  Sb6  1  0.172327  0.827673  0.250000  1
  Sb  Sb7  1  0.657667  0.829384  0.254557  1
  I  I8  1  0.333304  0.666696  0.750000  1
  I  I9  1  0.666696  0.333304  0.250000  1
  F  F10  1  0.319912  0.315459  0.846196  1
  F  F11  1  0.989511  0.664330  0.854030  1
  F  F12  1  0.676014  0.005111  0.855127  1
  F  F13  1  0.315459  0.319912  0.346196  1
  F  F14  1  0.005111  0.676014  0.355127  1
  F  F15  1  0.664330  0.989511  0.354030  1
  F  F16  1  0.680088  0.684541  0.153804  1
  F  F17  1  0.010489  0.335670  0.145970  1
  F  F18  1  0.323986  0.994889  0.144873  1
  F  F19  1  0.684541  0.680088  0.653804  1
  F  F20  1  0.994889  0.323986  0.644873  1
  F  F21  1  0.335670  0.010489  0.645970  1
  F  F22  1  0.485041  0.318269  0.617943  1
  F  F23  1  0.831744  0.519925  0.629246  1
  F  F24  1  0.689657  0.174945  0.625194  1
  F  F25  1  0.318269  0.485041  0.117943  1
  F  F26  1  0.174945  0.689657  0.125194  1
  F  F27  1  0.519925  0.831744  0.129246  1
  F  F28  1  0.514959  0.681731  0.382057  1
  F  F29  1  0.168256  0.480075  0.370754  1
  F  F30  1  0.310343  0.825055  0.374806  1
  F  F31  1  0.681731  0.514959  0.882057  1
  F  F32  1  0.825055  0.310343  0.874806  1
  F  F33  1  0.480075  0.168256  0.870754  1
  F  F34  1  0.185581  0.519930  0.862174  1
  F  F35  1  0.329420  0.806549  0.859805  1
  F  F36  1  0.472094  0.661244  0.860171  1
  F  F37  1  0.519930  0.185581  0.362174  1
  F  F38  1  0.661244  0.472094  0.360171  1
  F  F39  1  0.806549  0.329420  0.359805  1
  F  F40  1  0.814419  0.480070  0.137826  1
  F  F41  1  0.670580  0.193451  0.140195  1
  F  F42  1  0.527906  0.338756  0.139829  1
  F  F43  1  0.480070  0.814419  0.637826  1
  F  F44  1  0.338756  0.527906  0.639829  1
  F  F45  1  0.193451  0.670580  0.640195  1
  F  F46  1  0.179594  0.151356  0.627418  1
  F  F47  1  0.980549  0.821725  0.629988  1
  F  F48  1  0.847432  0.027522  0.631940  1
  F  F49  1  0.151356  0.179594  0.127418  1
  F  F50  1  0.027522  0.847432  0.131940  1
  F  F51  1  0.821725  0.980549  0.129988  1
  F  F52  1  0.820406  0.848644  0.372582  1
  F  F53  1  0.019451  0.178275  0.370012  1
  F  F54  1  0.152568  0.972478  0.368060  1
  F  F55  1  0.848644  0.820406  0.872582  1
  F  F56  1  0.972478  0.152568  0.868060  1
  F  F57  1  0.178275  0.019451  0.870012  1
