# generated using pymatgen
data_Ta2Nb2Si4PtRh3
_symmetry_space_group_name_H-M   'P 1'
_cell_length_a   3.78702500
_cell_length_b   6.45138314
_cell_length_c   7.38429253
_cell_angle_alpha   89.90218192
_cell_angle_beta   90.00000000
_cell_angle_gamma   90.00000000
_symmetry_Int_Tables_number   1
_chemical_formula_structural   Ta2Nb2Si4PtRh3
_chemical_formula_sum   'Ta2 Nb2 Si4 Pt1 Rh3'
_cell_volume   180.40944356
_cell_formula_units_Z   1
loop_
 _symmetry_equiv_pos_site_id
 _symmetry_equiv_pos_as_xyz
  1  'x, y, z'
loop_
 _atom_site_type_symbol
 _atom_site_label
 _atom_site_symmetry_multiplicity
 _atom_site_fract_x
 _atom_site_fract_y
 _atom_site_fract_z
 _atom_site_occupancy
  Ta  Ta0  1  0.250000  0.028673  0.830233  1
  Ta  Ta1  1  0.750000  0.975362  0.169395  1
  Nb  Nb2  1  0.250000  0.525294  0.673209  1
  Nb  Nb3  1  0.750000  0.472687  0.326824  1
  Si  Si4  1  0.250000  0.269571  0.125885  1
  Si  Si5  1  0.750000  0.729613  0.878857  1
  Si  Si6  1  0.250000  0.765071  0.369608  1
  Si  Si7  1  0.750000  0.237838  0.625213  1
  Pt  Pt8  1  0.750000  0.853948  0.564692  1
  Rh  Rh9  1  0.250000  0.143247  0.437205  1
  Rh  Rh10  1  0.750000  0.351453  0.937839  1
  Rh  Rh11  1  0.250000  0.647243  0.061041  1
