# generated using pymatgen
data_Ho5TmAl24(Ir3Ru)2
_symmetry_space_group_name_H-M   'P 1'
_cell_length_a   8.81987500
_cell_length_b   8.81888210
_cell_length_c   9.48379700
_cell_angle_alpha   90.00000000
_cell_angle_beta   90.00000000
_cell_angle_gamma   120.00372819
_symmetry_Int_Tables_number   1
_chemical_formula_structural   Ho5TmAl24(Ir3Ru)2
_chemical_formula_sum   'Ho5 Tm1 Al24 Ir6 Ru2'
_cell_volume   638.81121383
_cell_formula_units_Z   1
loop_
 _symmetry_equiv_pos_site_id
 _symmetry_equiv_pos_as_xyz
  1  'x, y, z'
loop_
 _atom_site_type_symbol
 _atom_site_label
 _atom_site_symmetry_multiplicity
 _atom_site_fract_x
 _atom_site_fract_y
 _atom_site_fract_z
 _atom_site_occupancy
  Ho  Ho0  1  0.806594  0.193086  0.750000  1
  Ho  Ho1  1  0.193393  0.806588  0.250000  1
  Ho  Ho2  1  0.386491  0.193086  0.750000  1
  Ho  Ho3  1  0.613195  0.806588  0.250000  1
  Ho  Ho4  1  0.806583  0.613167  0.750000  1
  Tm  Tm5  1  0.194410  0.388818  0.250000  1
  Al  Al6  1  0.666626  0.333250  0.970600  1
  Al  Al7  1  0.333219  0.666439  0.029526  1
  Al  Al8  1  0.333219  0.666439  0.470474  1
  Al  Al9  1  0.666626  0.333250  0.529400  1
  Al  Al10  1  0.837408  0.162994  0.423529  1
  Al  Al11  1  0.162895  0.837062  0.576157  1
  Al  Al12  1  0.325586  0.162994  0.423529  1
  Al  Al13  1  0.162895  0.837062  0.923843  1
  Al  Al14  1  0.674167  0.837062  0.576157  1
  Al  Al15  1  0.837408  0.162994  0.076471  1
  Al  Al16  1  0.837065  0.674129  0.423695  1
  Al  Al17  1  0.674167  0.837062  0.923843  1
  Al  Al18  1  0.162884  0.325768  0.575719  1
  Al  Al19  1  0.325586  0.162994  0.076471  1
  Al  Al20  1  0.162884  0.325768  0.924281  1
  Al  Al21  1  0.837065  0.674129  0.076305  1
  Al  Al22  1  0.437413  0.562268  0.750000  1
  Al  Al23  1  0.562082  0.437341  0.250000  1
  Al  Al24  1  0.124854  0.562268  0.750000  1
  Al  Al25  1  0.875260  0.437341  0.250000  1
  Al  Al26  1  0.437498  0.874997  0.750000  1
  Al  Al27  1  0.562518  0.125036  0.250000  1
  Al  Al28  1  0.999938  0.999876  0.750000  1
  Al  Al29  1  0.000693  0.001386  0.250000  1
  Ir  Ir30  1  0.499668  0.499841  0.000258  1
  Ir  Ir31  1  0.000173  0.499841  0.000258  1
  Ir  Ir32  1  0.499668  0.499841  0.499742  1
  Ir  Ir33  1  0.499910  0.999820  0.000046  1
  Ir  Ir34  1  0.000173  0.499841  0.499742  1
  Ir  Ir35  1  0.499910  0.999820  0.499954  1
  Ru  Ru36  1  0.999937  0.999874  0.999908  1
  Ru  Ru37  1  0.999937  0.999874  0.500092  1
