# generated using pymatgen
data_B(Rh3Pb2)2
_symmetry_space_group_name_H-M   'P 1'
_cell_length_a   5.77310900
_cell_length_b   5.77310870
_cell_length_c   14.29846100
_cell_angle_alpha   90.00000000
_cell_angle_beta   90.00000000
_cell_angle_gamma   119.99999596
_symmetry_Int_Tables_number   1
_chemical_formula_structural   B(Rh3Pb2)2
_chemical_formula_sum   'B2 Rh12 Pb8'
_cell_volume   412.70472104
_cell_formula_units_Z   2
loop_
 _symmetry_equiv_pos_site_id
 _symmetry_equiv_pos_as_xyz
  1  'x, y, z'
loop_
 _atom_site_type_symbol
 _atom_site_label
 _atom_site_symmetry_multiplicity
 _atom_site_fract_x
 _atom_site_fract_y
 _atom_site_fract_z
 _atom_site_occupancy
  B  B0  1  0.000000  0.000000  0.500000  1
  B  B1  1  0.000000  0.000000  0.000000  1
  Rh  Rh2  1  0.332831  0.166416  0.409175  1
  Rh  Rh3  1  0.833584  0.166416  0.409175  1
  Rh  Rh4  1  0.833584  0.667169  0.409175  1
  Rh  Rh5  1  0.166416  0.332831  0.909175  1
  Rh  Rh6  1  0.667169  0.833584  0.590825  1
  Rh  Rh7  1  0.667169  0.833584  0.909175  1
  Rh  Rh8  1  0.332831  0.166416  0.090825  1
  Rh  Rh9  1  0.166416  0.332831  0.590825  1
  Rh  Rh10  1  0.166416  0.833584  0.590825  1
  Rh  Rh11  1  0.833584  0.166416  0.090825  1
  Rh  Rh12  1  0.833584  0.667169  0.090825  1
  Rh  Rh13  1  0.166416  0.833584  0.909175  1
  Pb  Pb14  1  0.000000  0.000000  0.750000  1
  Pb  Pb15  1  0.000000  0.000000  0.250000  1
  Pb  Pb16  1  0.333333  0.666667  0.750000  1
  Pb  Pb17  1  0.666667  0.333333  0.250000  1
  Pb  Pb18  1  0.333333  0.666667  0.421726  1
  Pb  Pb19  1  0.666667  0.333333  0.921726  1
  Pb  Pb20  1  0.666667  0.333333  0.578274  1
  Pb  Pb21  1  0.333333  0.666667  0.078274  1
