# generated using pymatgen
data_Ta4Si4IrOsRh2
_symmetry_space_group_name_H-M   'P 1'
_cell_length_a   3.81367400
_cell_length_b   6.40949853
_cell_length_c   7.32388292
_cell_angle_alpha   90.51815141
_cell_angle_beta   90.00000000
_cell_angle_gamma   90.00000000
_symmetry_Int_Tables_number   1
_chemical_formula_structural   Ta4Si4IrOsRh2
_chemical_formula_sum   'Ta4 Si4 Ir1 Os1 Rh2'
_cell_volume   179.01575394
_cell_formula_units_Z   1
loop_
 _symmetry_equiv_pos_site_id
 _symmetry_equiv_pos_as_xyz
  1  'x, y, z'
loop_
 _atom_site_type_symbol
 _atom_site_label
 _atom_site_symmetry_multiplicity
 _atom_site_fract_x
 _atom_site_fract_y
 _atom_site_fract_z
 _atom_site_occupancy
  Ta  Ta0  1  0.250000  0.528822  0.669088  1
  Ta  Ta1  1  0.750000  0.475448  0.330382  1
  Ta  Ta2  1  0.250000  0.020097  0.822681  1
  Ta  Ta3  1  0.750000  0.975673  0.177204  1
  Si  Si4  1  0.250000  0.269574  0.121676  1
  Si  Si5  1  0.750000  0.729144  0.877222  1
  Si  Si6  1  0.250000  0.769023  0.374579  1
  Si  Si7  1  0.750000  0.231323  0.627088  1
  Ir  Ir8  1  0.250000  0.149444  0.436486  1
  Os  Os9  1  0.750000  0.852607  0.562236  1
  Rh  Rh10  1  0.750000  0.352341  0.936616  1
  Rh  Rh11  1  0.250000  0.646504  0.064740  1
