# generated using pymatgen
data_Dy5Cr3Co16(As5P)2
_symmetry_space_group_name_H-M   'P 1'
_cell_length_a   12.43611536
_cell_length_b   12.43611593
_cell_length_c   3.77240500
_cell_angle_alpha   90.00000000
_cell_angle_beta   90.00000000
_cell_angle_gamma   119.94640106
_symmetry_Int_Tables_number   1
_chemical_formula_structural   Dy5Cr3Co16(As5P)2
_chemical_formula_sum   'Dy5 Cr3 Co16 As10 P2'
_cell_volume   505.53677781
_cell_formula_units_Z   1
loop_
 _symmetry_equiv_pos_site_id
 _symmetry_equiv_pos_as_xyz
  1  'x, y, z'
loop_
 _atom_site_type_symbol
 _atom_site_label
 _atom_site_symmetry_multiplicity
 _atom_site_fract_x
 _atom_site_fract_y
 _atom_site_fract_z
 _atom_site_occupancy
  Dy  Dy0  1  0.666880  0.331601  0.000000  1
  Dy  Dy1  1  0.331601  0.666880  0.000000  1
  Dy  Dy2  1  0.181328  0.181328  0.500000  1
  Dy  Dy3  1  0.820194  0.004847  0.500000  1
  Dy  Dy4  1  0.004847  0.820194  0.500000  1
  Cr  Cr5  1  0.559566  0.559566  0.000000  1
  Cr  Cr6  1  0.439442  0.999566  0.000000  1
  Cr  Cr7  1  0.999566  0.439442  0.000000  1
  Co  Co8  1  0.829205  0.197159  0.000000  1
  Co  Co9  1  0.801462  0.624975  0.000000  1
  Co  Co10  1  0.369844  0.171926  0.000000  1
  Co  Co11  1  0.197159  0.829205  0.000000  1
  Co  Co12  1  0.624975  0.801462  0.000000  1
  Co  Co13  1  0.171926  0.369844  0.000000  1
  Co  Co14  1  0.645512  0.124735  0.500000  1
  Co  Co15  1  0.875923  0.519513  0.500000  1
  Co  Co16  1  0.478667  0.353367  0.500000  1
  Co  Co17  1  0.124735  0.645512  0.500000  1
  Co  Co18  1  0.519513  0.875923  0.500000  1
  Co  Co19  1  0.353367  0.478667  0.500000  1
  Co  Co20  1  0.716834  0.716834  0.500000  1
  Co  Co21  1  0.276602  0.000825  0.500000  1
  Co  Co22  1  0.000825  0.276602  0.500000  1
  Co  Co23  1  0.007915  0.007915  0.000000  1
  As  As24  1  0.359954  0.359954  0.000000  1
  As  As25  1  0.639115  0.000232  0.000000  1
  As  As26  1  0.000232  0.639115  0.000000  1
  As  As27  1  0.836206  0.315410  0.500000  1
  As  As28  1  0.683153  0.516728  0.500000  1
  As  As29  1  0.480369  0.163774  0.500000  1
  As  As30  1  0.315410  0.836206  0.500000  1
  As  As31  1  0.516728  0.683153  0.500000  1
  As  As32  1  0.163774  0.480369  0.500000  1
  As  As33  1  0.825161  0.825161  0.000000  1
  P  P34  1  0.180158  0.001850  0.000000  1
  P  P35  1  0.001850  0.180158  0.000000  1
