# generated using pymatgen
data_Tb2Si2(Ni5H)3
_symmetry_space_group_name_H-M   'P 1'
_cell_length_a   6.23865559
_cell_length_b   6.26641018
_cell_length_c   6.26641137
_cell_angle_alpha   83.97780465
_cell_angle_beta   83.45760530
_cell_angle_gamma   83.45760094
_symmetry_Int_Tables_number   1
_chemical_formula_structural   Tb2Si2(Ni5H)3
_chemical_formula_sum   'Tb2 Si2 Ni15 H3'
_cell_volume   240.74750908
_cell_formula_units_Z   1
loop_
 _symmetry_equiv_pos_site_id
 _symmetry_equiv_pos_as_xyz
  1  'x, y, z'
loop_
 _atom_site_type_symbol
 _atom_site_label
 _atom_site_symmetry_multiplicity
 _atom_site_fract_x
 _atom_site_fract_y
 _atom_site_fract_z
 _atom_site_occupancy
  Tb  Tb0  1  0.648902  0.657542  0.657542  1
  Tb  Tb1  1  0.351098  0.342458  0.342458  1
  Si  Si2  1  0.000000  0.000000  0.500000  1
  Si  Si3  1  0.000000  0.500000  0.000000  1
  Ni  Ni4  1  0.500000  0.000000  0.000000  1
  Ni  Ni5  1  0.286446  0.709029  0.000202  1
  Ni  Ni6  1  0.713554  0.999798  0.290971  1
  Ni  Ni7  1  0.000000  0.290943  0.709057  1
  Ni  Ni8  1  0.286446  0.000202  0.709029  1
  Ni  Ni9  1  0.000000  0.709057  0.290943  1
  Ni  Ni10  1  0.713554  0.290971  0.999798  1
  Ni  Ni11  1  0.344025  0.344732  0.856482  1
  Ni  Ni12  1  0.344025  0.856482  0.344732  1
  Ni  Ni13  1  0.862657  0.344235  0.344235  1
  Ni  Ni14  1  0.655975  0.655268  0.143518  1
  Ni  Ni15  1  0.655975  0.143518  0.655268  1
  Ni  Ni16  1  0.137343  0.655765  0.655765  1
  Ni  Ni17  1  0.898549  0.900189  0.900189  1
  Ni  Ni18  1  0.101451  0.099811  0.099811  1
  H  H19  1  0.500000  0.500000  0.000000  1
  H  H20  1  0.500000  0.000000  0.500000  1
  H  H21  1  0.000000  0.500000  0.500000  1
