# generated using pymatgen
data_Zr3Ta3Fe2(BRu2)4
_symmetry_space_group_name_H-M   'P 1'
_cell_length_a   9.34888202
_cell_length_b   9.34888140
_cell_length_c   3.10224600
_cell_angle_alpha   90.00000000
_cell_angle_beta   90.00000000
_cell_angle_gamma   90.10074237
_symmetry_Int_Tables_number   1
_chemical_formula_structural   Zr3Ta3Fe2(BRu2)4
_chemical_formula_sum   'Zr3 Ta3 Fe2 B4 Ru8'
_cell_volume   271.14081136
_cell_formula_units_Z   1
loop_
 _symmetry_equiv_pos_site_id
 _symmetry_equiv_pos_as_xyz
  1  'x, y, z'
loop_
 _atom_site_type_symbol
 _atom_site_label
 _atom_site_symmetry_multiplicity
 _atom_site_fract_x
 _atom_site_fract_y
 _atom_site_fract_z
 _atom_site_occupancy
  Zr  Zr0  1  0.825886  0.673090  0.000000  1
  Zr  Zr1  1  0.173090  0.325886  0.000000  1
  Zr  Zr2  1  0.326092  0.826092  0.000000  1
  Ta  Ta3  1  0.671737  0.171737  0.000000  1
  Ta  Ta4  1  0.500003  0.501116  0.000000  1
  Ta  Ta5  1  0.001116  0.000003  0.000000  1
  Fe  Fe6  1  0.505628  0.005628  0.500000  1
  Fe  Fe7  1  0.998053  0.498053  0.500000  1
  B  B8  1  0.613920  0.889393  0.000000  1
  B  B9  1  0.389393  0.113920  0.000000  1
  B  B10  1  0.111803  0.611803  0.000000  1
  B  B11  1  0.886484  0.386484  0.000000  1
  Ru  Ru12  1  0.566560  0.725080  0.500000  1
  Ru  Ru13  1  0.439409  0.276627  0.500000  1
  Ru  Ru14  1  0.065349  0.776521  0.500000  1
  Ru  Ru15  1  0.927180  0.220071  0.500000  1
  Ru  Ru16  1  0.276521  0.565349  0.500000  1
  Ru  Ru17  1  0.720071  0.427180  0.500000  1
  Ru  Ru18  1  0.225080  0.066560  0.500000  1
  Ru  Ru19  1  0.776627  0.939409  0.500000  1
