# generated using pymatgen
data_HoSc7Ti3Si16Mo9
_symmetry_space_group_name_H-M   'P 1'
_cell_length_a   6.77870465
_cell_length_b   6.77834330
_cell_length_c   12.51313849
_cell_angle_alpha   89.94587983
_cell_angle_beta   89.97552307
_cell_angle_gamma   89.63779935
_symmetry_Int_Tables_number   1
_chemical_formula_structural   HoSc7Ti3Si16Mo9
_chemical_formula_sum   'Ho1 Sc7 Ti3 Si16 Mo9'
_cell_volume   574.94673694
_cell_formula_units_Z   1
loop_
 _symmetry_equiv_pos_site_id
 _symmetry_equiv_pos_as_xyz
  1  'x, y, z'
loop_
 _atom_site_type_symbol
 _atom_site_label
 _atom_site_symmetry_multiplicity
 _atom_site_fract_x
 _atom_site_fract_y
 _atom_site_fract_z
 _atom_site_occupancy
  Ho  Ho0  1  0.997363  0.661272  0.030624  1
  Sc  Sc1  1  0.339826  0.000284  0.469605  1
  Sc  Sc2  1  0.498571  0.839212  0.719096  1
  Sc  Sc3  1  0.496497  0.161486  0.219293  1
  Sc  Sc4  1  0.839429  0.499067  0.280711  1
  Sc  Sc5  1  0.161593  0.496909  0.781719  1
  Sc  Sc6  1  0.656397  0.003574  0.968141  1
  Sc  Sc7  1  0.000364  0.340055  0.530596  1
  Ti  Ti8  1  0.169469  0.832652  0.249897  1
  Ti  Ti9  1  0.831894  0.169453  0.750200  1
  Ti  Ti10  1  0.668075  0.668113  0.500295  1
  Si  Si11  1  0.203243  0.135016  0.678773  1
  Si  Si12  1  0.372936  0.699356  0.929149  1
  Si  Si13  1  0.634578  0.296784  0.429736  1
  Si  Si14  1  0.696570  0.364576  0.069710  1
  Si  Si15  1  0.296311  0.634314  0.570589  1
  Si  Si16  1  0.791668  0.871479  0.183550  1
  Si  Si17  1  0.134618  0.203441  0.321577  1
  Si  Si18  1  0.864833  0.796667  0.817142  1
  Si  Si19  1  0.296145  0.965462  0.062107  1
  Si  Si20  1  0.537996  0.798607  0.315200  1
  Si  Si21  1  0.458073  0.204469  0.814310  1
  Si  Si22  1  0.798953  0.538865  0.685076  1
  Si  Si23  1  0.207950  0.456852  0.186948  1
  Si  Si24  1  0.702241  0.040002  0.563855  1
  Si  Si25  1  0.963331  0.287363  0.937024  1
  Si  Si26  1  0.039890  0.702702  0.436184  1
  Mo  Mo27  1  0.332297  0.329767  0.999751  1
  Mo  Mo28  1  0.156177  0.998788  0.870301  1
  Mo  Mo29  1  0.498058  0.664916  0.124608  1
  Mo  Mo30  1  0.505175  0.344413  0.623766  1
  Mo  Mo31  1  0.664340  0.494440  0.874330  1
  Mo  Mo32  1  0.344953  0.504859  0.377047  1
  Mo  Mo33  1  0.844440  0.995550  0.374842  1
  Mo  Mo34  1  0.000955  0.154541  0.128851  1
  Mo  Mo35  1  0.994792  0.844697  0.625396  1
