# generated using pymatgen
data_Ac8Cu(Si4Pt)3
_symmetry_space_group_name_H-M   'P 1'
_cell_length_a   8.48894600
_cell_length_b   8.48894696
_cell_length_c   9.05533700
_cell_angle_alpha   90.00000000
_cell_angle_beta   90.00000000
_cell_angle_gamma   119.99999625
_symmetry_Int_Tables_number   1
_chemical_formula_structural   Ac8Cu(Si4Pt)3
_chemical_formula_sum   'Ac8 Cu1 Si12 Pt3'
_cell_volume   565.12283573
_cell_formula_units_Z   1
loop_
 _symmetry_equiv_pos_site_id
 _symmetry_equiv_pos_as_xyz
  1  'x, y, z'
loop_
 _atom_site_type_symbol
 _atom_site_label
 _atom_site_symmetry_multiplicity
 _atom_site_fract_x
 _atom_site_fract_y
 _atom_site_fract_z
 _atom_site_occupancy
  Ac  Ac0  1  0.000000  0.000000  0.251080  1
  Ac  Ac1  1  0.000000  0.000000  0.748976  1
  Ac  Ac2  1  0.501122  0.498878  0.249291  1
  Ac  Ac3  1  0.501122  0.002244  0.249291  1
  Ac  Ac4  1  0.997756  0.498878  0.249291  1
  Ac  Ac5  1  0.500095  0.499905  0.750788  1
  Ac  Ac6  1  0.500095  0.000188  0.750788  1
  Ac  Ac7  1  0.999812  0.499905  0.750788  1
  Cu  Cu8  1  0.333333  0.666667  0.497789  1
  Si  Si9  1  0.167681  0.832319  0.500164  1
  Si  Si10  1  0.167681  0.335363  0.500164  1
  Si  Si11  1  0.664637  0.832319  0.500164  1
  Si  Si12  1  0.833986  0.166014  0.500044  1
  Si  Si13  1  0.833986  0.667971  0.500044  1
  Si  Si14  1  0.332029  0.166014  0.500044  1
  Si  Si15  1  0.833561  0.166439  0.000673  1
  Si  Si16  1  0.833561  0.667122  0.000673  1
  Si  Si17  1  0.332878  0.166439  0.000673  1
  Si  Si18  1  0.166112  0.833888  0.999268  1
  Si  Si19  1  0.166112  0.332224  0.999268  1
  Si  Si20  1  0.667776  0.833888  0.999268  1
  Pt  Pt21  1  0.666667  0.333333  0.500895  1
  Pt  Pt22  1  0.666667  0.333333  0.998076  1
  Pt  Pt23  1  0.333333  0.666667  0.002498  1
