# generated using pymatgen
data_TbHo3(NbOs3)2
_symmetry_space_group_name_H-M   'P 1'
_cell_length_a   5.54784800
_cell_length_b   5.54784860
_cell_length_c   8.55592100
_cell_angle_alpha   90.00000000
_cell_angle_beta   90.00000000
_cell_angle_gamma   119.99999641
_symmetry_Int_Tables_number   1
_chemical_formula_structural   TbHo3(NbOs3)2
_chemical_formula_sum   'Tb1 Ho3 Nb2 Os6'
_cell_volume   228.05865989
_cell_formula_units_Z   1
loop_
 _symmetry_equiv_pos_site_id
 _symmetry_equiv_pos_as_xyz
  1  'x, y, z'
loop_
 _atom_site_type_symbol
 _atom_site_label
 _atom_site_symmetry_multiplicity
 _atom_site_fract_x
 _atom_site_fract_y
 _atom_site_fract_z
 _atom_site_occupancy
  Tb  Tb0  1  0.333333  0.666667  0.066366  1
  Ho  Ho1  1  0.333333  0.666667  0.434149  1
  Ho  Ho2  1  0.666667  0.333333  0.566016  1
  Ho  Ho3  1  0.666667  0.333333  0.933779  1
  Nb  Nb4  1  0.000000  0.000000  0.500107  1
  Nb  Nb5  1  0.000000  0.000000  0.000142  1
  Os  Os6  1  0.825829  0.174171  0.250403  1
  Os  Os7  1  0.825829  0.651660  0.250403  1
  Os  Os8  1  0.348340  0.174171  0.250403  1
  Os  Os9  1  0.173938  0.826062  0.749411  1
  Os  Os10  1  0.173938  0.347876  0.749411  1
  Os  Os11  1  0.652124  0.826062  0.749411  1
