# generated using pymatgen
data_Tm3LuTh6(Ge5Rh2)4
_symmetry_space_group_name_H-M   'P 1'
_cell_length_a   13.11026206
_cell_length_b   13.11026206
_cell_length_c   4.37362800
_cell_angle_alpha   90.00000000
_cell_angle_beta   90.00000000
_cell_angle_gamma   89.98873337
_symmetry_Int_Tables_number   1
_chemical_formula_structural   Tm3LuTh6(Ge5Rh2)4
_chemical_formula_sum   'Tm3 Lu1 Th6 Ge20 Rh8'
_cell_volume   751.73466726
_cell_formula_units_Z   1
loop_
 _symmetry_equiv_pos_site_id
 _symmetry_equiv_pos_as_xyz
  1  'x, y, z'
loop_
 _atom_site_type_symbol
 _atom_site_label
 _atom_site_symmetry_multiplicity
 _atom_site_fract_x
 _atom_site_fract_y
 _atom_site_fract_z
 _atom_site_occupancy
  Tm  Tm0  1  0.825361  0.674677  0.500000  1
  Tm  Tm1  1  0.174677  0.325361  0.500000  1
  Tm  Tm2  1  0.674631  0.174631  0.500000  1
  Lu  Lu3  1  0.325665  0.825665  0.500000  1
  Th  Th4  1  0.112659  0.612659  0.500000  1
  Th  Th5  1  0.612363  0.887428  0.500000  1
  Th  Th6  1  0.387428  0.112363  0.500000  1
  Th  Th7  1  0.887518  0.387518  0.500000  1
  Th  Th8  1  0.499975  0.500033  0.000000  1
  Th  Th9  1  0.000033  0.999975  0.000000  1
  Ge  Ge10  1  0.337437  0.495887  0.500000  1
  Ge  Ge11  1  0.662565  0.504054  0.500000  1
  Ge  Ge12  1  0.504043  0.337441  0.500000  1
  Ge  Ge13  1  0.495602  0.662740  0.500000  1
  Ge  Ge14  1  0.995887  0.837437  0.500000  1
  Ge  Ge15  1  0.837441  0.004043  0.500000  1
  Ge  Ge16  1  0.162740  0.995602  0.500000  1
  Ge  Ge17  1  0.004054  0.162565  0.500000  1
  Ge  Ge18  1  0.337307  0.300552  0.000000  1
  Ge  Ge19  1  0.662579  0.699478  0.000000  1
  Ge  Ge20  1  0.699418  0.337313  0.000000  1
  Ge  Ge21  1  0.300730  0.663044  0.000000  1
  Ge  Ge22  1  0.800552  0.837307  0.000000  1
  Ge  Ge23  1  0.837313  0.199418  0.000000  1
  Ge  Ge24  1  0.163044  0.800730  0.000000  1
  Ge  Ge25  1  0.199478  0.162579  0.000000  1
  Ge  Ge26  1  0.432686  0.932686  0.000000  1
  Ge  Ge27  1  0.933015  0.567008  0.000000  1
  Ge  Ge28  1  0.566891  0.066891  0.000000  1
  Ge  Ge29  1  0.067008  0.433015  0.000000  1
  Rh  Rh30  1  0.244847  0.976424  0.000000  1
  Rh  Rh31  1  0.755349  0.023084  0.000000  1
  Rh  Rh32  1  0.023072  0.244627  0.000000  1
  Rh  Rh33  1  0.977082  0.755415  0.000000  1
  Rh  Rh34  1  0.476424  0.744847  0.000000  1
  Rh  Rh35  1  0.744627  0.523072  0.000000  1
  Rh  Rh36  1  0.255415  0.477082  0.000000  1
  Rh  Rh37  1  0.523084  0.255349  0.000000  1
