# generated using pymatgen
data_Sn(S8Cl)3
_symmetry_space_group_name_H-M   'P 1'
_cell_length_a   14.97322328
_cell_length_b   14.97322376
_cell_length_c   14.97322223
_cell_angle_alpha   118.79905177
_cell_angle_beta   118.79905548
_cell_angle_gamma   118.79904876
_symmetry_Int_Tables_number   1
_chemical_formula_structural   Sn(S8Cl)3
_chemical_formula_sum   'Sn1 S24 Cl3'
_cell_volume   950.58913125
_cell_formula_units_Z   1
loop_
 _symmetry_equiv_pos_site_id
 _symmetry_equiv_pos_as_xyz
  1  'x, y, z'
loop_
 _atom_site_type_symbol
 _atom_site_label
 _atom_site_symmetry_multiplicity
 _atom_site_fract_x
 _atom_site_fract_y
 _atom_site_fract_z
 _atom_site_occupancy
  Sn  Sn0  1  0.786996  0.786996  0.786996  1
  S  S1  1  0.807783  0.526665  0.526665  1
  S  S2  1  0.526665  0.526665  0.807783  1
  S  S3  1  0.526665  0.807783  0.526665  1
  S  S4  1  0.240667  0.370980  0.629372  1
  S  S5  1  0.360869  0.960962  0.360869  1
  S  S6  1  0.360869  0.360869  0.960962  1
  S  S7  1  0.960962  0.360869  0.360869  1
  S  S8  1  0.124027  0.737972  0.253917  1
  S  S9  1  0.253917  0.124027  0.737972  1
  S  S10  1  0.737972  0.253917  0.124027  1
  S  S11  1  0.737972  0.124027  0.253917  1
  S  S12  1  0.253917  0.737972  0.124027  1
  S  S13  1  0.124027  0.253917  0.737972  1
  S  S14  1  0.350913  0.883250  0.534915  1
  S  S15  1  0.534915  0.350913  0.883250  1
  S  S16  1  0.883250  0.534915  0.350913  1
  S  S17  1  0.883250  0.350913  0.534915  1
  S  S18  1  0.534915  0.883250  0.350913  1
  S  S19  1  0.350913  0.534915  0.883250  1
  S  S20  1  0.240667  0.629372  0.370980  1
  S  S21  1  0.370980  0.240667  0.629372  1
  S  S22  1  0.629372  0.370980  0.240667  1
  S  S23  1  0.629372  0.240667  0.370980  1
  S  S24  1  0.370980  0.629372  0.240667  1
  Cl  Cl25  1  0.883006  0.029729  0.029729  1
  Cl  Cl26  1  0.029729  0.029729  0.883006  1
  Cl  Cl27  1  0.029729  0.883006  0.029729  1
