# generated using pymatgen
data_Tb11Y5MgIn3(PdPt)2
_symmetry_space_group_name_H-M   'P 1'
_cell_length_a   9.78182426
_cell_length_b   9.76961542
_cell_length_c   9.76961700
_cell_angle_alpha   59.90324043
_cell_angle_beta   60.04047223
_cell_angle_gamma   60.04046867
_symmetry_Int_Tables_number   1
_chemical_formula_structural   Tb11Y5MgIn3(PdPt)2
_chemical_formula_sum   'Tb11 Y5 Mg1 In3 Pd2 Pt2'
_cell_volume   660.09475254
_cell_formula_units_Z   1
loop_
 _symmetry_equiv_pos_site_id
 _symmetry_equiv_pos_as_xyz
  1  'x, y, z'
loop_
 _atom_site_type_symbol
 _atom_site_label
 _atom_site_symmetry_multiplicity
 _atom_site_fract_x
 _atom_site_fract_y
 _atom_site_fract_z
 _atom_site_occupancy
  Tb  Tb0  1  0.600719  0.600294  0.598341  1
  Tb  Tb1  1  0.601646  0.600942  0.198506  1
  Tb  Tb2  1  0.602488  0.197885  0.599858  1
  Tb  Tb3  1  0.194640  0.603197  0.601091  1
  Tb  Tb4  1  0.056934  0.441536  0.441285  1
  Tb  Tb5  1  0.438985  0.059914  0.062083  1
  Tb  Tb6  1  0.438761  0.060214  0.438935  1
  Tb  Tb7  1  0.057350  0.441719  0.060378  1
  Tb  Tb8  1  0.438832  0.439209  0.061209  1
  Tb  Tb9  1  0.058796  0.059028  0.441555  1
  Tb  Tb10  1  0.185552  0.815289  0.814508  1
  Y  Y11  1  0.814152  0.186908  0.186697  1
  Y  Y12  1  0.814876  0.186146  0.812607  1
  Y  Y13  1  0.185848  0.814208  0.186353  1
  Y  Y14  1  0.813998  0.812622  0.186527  1
  Y  Y15  1  0.185253  0.185919  0.814304  1
  Mg  Mg16  1  0.516777  0.827608  0.827659  1
  In  In17  1  0.832822  0.833375  0.833394  1
  In  In18  1  0.832397  0.833231  0.500970  1
  In  In19  1  0.832271  0.501024  0.833240  1
  Pd  Pd20  1  0.392350  0.393594  0.393879  1
  Pd  Pd21  1  0.391619  0.392851  0.820962  1
  Pt  Pt22  1  0.391564  0.820990  0.393009  1
  Pt  Pt23  1  0.821373  0.392297  0.392649  1
