# generated using pymatgen
data_Tb3Lu9Tc4
_symmetry_space_group_name_H-M   'P 1'
_cell_length_a   7.40786536
_cell_length_b   8.91334300
_cell_length_c   6.17513180
_cell_angle_alpha   90.00000000
_cell_angle_beta   89.84328262
_cell_angle_gamma   90.00000000
_symmetry_Int_Tables_number   1
_chemical_formula_structural   Tb3Lu9Tc4
_chemical_formula_sum   'Tb3 Lu9 Tc4'
_cell_volume   407.73529428
_cell_formula_units_Z   1
loop_
 _symmetry_equiv_pos_site_id
 _symmetry_equiv_pos_as_xyz
  1  'x, y, z'
loop_
 _atom_site_type_symbol
 _atom_site_label
 _atom_site_symmetry_multiplicity
 _atom_site_fract_x
 _atom_site_fract_y
 _atom_site_fract_z
 _atom_site_occupancy
  Tb  Tb0  1  0.538591  0.250000  0.876869  1
  Tb  Tb1  1  0.041386  0.250000  0.625855  1
  Tb  Tb2  1  0.459414  0.750000  0.125570  1
  Lu  Lu3  1  0.676499  0.062057  0.346025  1
  Lu  Lu4  1  0.172896  0.438148  0.154330  1
  Lu  Lu5  1  0.325521  0.563208  0.652830  1
  Lu  Lu6  1  0.825492  0.936393  0.844886  1
  Lu  Lu7  1  0.325521  0.936792  0.652830  1
  Lu  Lu8  1  0.825492  0.563607  0.844886  1
  Lu  Lu9  1  0.676499  0.437943  0.346025  1
  Lu  Lu10  1  0.172896  0.061852  0.154330  1
  Lu  Lu11  1  0.960025  0.750000  0.373187  1
  Tc  Tc12  1  0.881876  0.250000  0.046423  1
  Tc  Tc13  1  0.382850  0.250000  0.452618  1
  Tc  Tc14  1  0.116403  0.750000  0.956435  1
  Tc  Tc15  1  0.618641  0.750000  0.546903  1
