# generated using pymatgen
data_Sc6Al6Zn5Ni
_symmetry_space_group_name_H-M   'P 1'
_cell_length_a   6.71995100
_cell_length_b   6.71995138
_cell_length_c   8.07457300
_cell_angle_alpha   90.00000000
_cell_angle_beta   90.00000000
_cell_angle_gamma   119.99999323
_symmetry_Int_Tables_number   1
_chemical_formula_structural   Sc6Al6Zn5Ni
_chemical_formula_sum   'Sc6 Al6 Zn5 Ni1'
_cell_volume   315.77843163
_cell_formula_units_Z   1
loop_
 _symmetry_equiv_pos_site_id
 _symmetry_equiv_pos_as_xyz
  1  'x, y, z'
loop_
 _atom_site_type_symbol
 _atom_site_label
 _atom_site_symmetry_multiplicity
 _atom_site_fract_x
 _atom_site_fract_y
 _atom_site_fract_z
 _atom_site_occupancy
  Sc  Sc0  1  0.592312  0.999259  0.750000  1
  Sc  Sc1  1  0.000741  0.593052  0.750000  1
  Sc  Sc2  1  0.406948  0.407688  0.750000  1
  Sc  Sc3  1  0.999154  0.575061  0.250000  1
  Sc  Sc4  1  0.575907  0.000846  0.250000  1
  Sc  Sc5  1  0.424939  0.424093  0.250000  1
  Al  Al6  1  0.760605  0.760481  0.989044  1
  Al  Al7  1  0.239519  0.000125  0.989044  1
  Al  Al8  1  0.999875  0.239395  0.989044  1
  Al  Al9  1  0.760605  0.760481  0.510956  1
  Al  Al10  1  0.239519  0.000125  0.510956  1
  Al  Al11  1  0.999875  0.239395  0.510956  1
  Zn  Zn12  1  0.000000  0.000000  0.250000  1
  Zn  Zn13  1  0.666667  0.333333  0.999203  1
  Zn  Zn14  1  0.666667  0.333333  0.500797  1
  Zn  Zn15  1  0.333333  0.666667  0.499290  1
  Zn  Zn16  1  0.333333  0.666667  0.000710  1
  Ni  Ni17  1  0.000000  0.000000  0.750000  1
