# generated using pymatgen
data_Nb6Co16Si6P
_symmetry_space_group_name_H-M   'P 1'
_cell_length_a   7.91661997
_cell_length_b   7.89627822
_cell_length_c   7.89627853
_cell_angle_alpha   60.24930700
_cell_angle_beta   59.91474383
_cell_angle_gamma   59.91474794
_symmetry_Int_Tables_number   1
_chemical_formula_structural   Nb6Co16Si6P
_chemical_formula_sum   'Nb6 Co16 Si6 P1'
_cell_volume   349.23545373
_cell_formula_units_Z   1
loop_
 _symmetry_equiv_pos_site_id
 _symmetry_equiv_pos_as_xyz
  1  'x, y, z'
loop_
 _atom_site_type_symbol
 _atom_site_label
 _atom_site_symmetry_multiplicity
 _atom_site_fract_x
 _atom_site_fract_y
 _atom_site_fract_z
 _atom_site_occupancy
  Nb  Nb0  1  0.202426  0.795860  0.204140  1
  Nb  Nb1  1  0.202971  0.797029  0.797029  1
  Nb  Nb2  1  0.797029  0.202971  0.202971  1
  Nb  Nb3  1  0.797574  0.795860  0.204140  1
  Nb  Nb4  1  0.202426  0.204140  0.795860  1
  Nb  Nb5  1  0.797574  0.204140  0.795860  1
  Co  Co6  1  0.172317  0.163275  0.163275  1
  Co  Co7  1  0.498868  0.836725  0.836725  1
  Co  Co8  1  0.833666  0.498411  0.834257  1
  Co  Co9  1  0.833666  0.834257  0.498411  1
  Co  Co10  1  0.166334  0.501589  0.165743  1
  Co  Co11  1  0.166334  0.165743  0.501589  1
  Co  Co12  1  0.501132  0.163275  0.163275  1
  Co  Co13  1  0.827683  0.836725  0.836725  1
  Co  Co14  1  0.381793  0.380657  0.380657  1
  Co  Co15  1  0.143107  0.619343  0.619343  1
  Co  Co16  1  0.618191  0.144263  0.619355  1
  Co  Co17  1  0.618191  0.619355  0.144263  1
  Co  Co18  1  0.381809  0.855737  0.380645  1
  Co  Co19  1  0.381809  0.380645  0.855737  1
  Co  Co20  1  0.856893  0.380657  0.380657  1
  Co  Co21  1  0.618207  0.619343  0.619343  1
  Si  Si22  1  0.500000  0.500000  0.500000  1
  Si  Si23  1  0.000000  0.500000  0.000000  1
  Si  Si24  1  0.000000  0.500000  0.500000  1
  Si  Si25  1  0.500000  0.000000  0.500000  1
  Si  Si26  1  0.000000  0.000000  0.500000  1
  Si  Si27  1  0.500000  0.500000  0.000000  1
  P  P28  1  0.500000  0.000000  0.000000  1
