# generated using pymatgen
data_EuTh(CuSi)2
_symmetry_space_group_name_H-M   'P 1'
_cell_length_a   4.20859400
_cell_length_b   4.20859509
_cell_length_c   8.17645300
_cell_angle_alpha   90.00000000
_cell_angle_beta   90.00000000
_cell_angle_gamma   120.00000715
_symmetry_Int_Tables_number   1
_chemical_formula_structural   EuTh(CuSi)2
_chemical_formula_sum   'Eu1 Th1 Cu2 Si2'
_cell_volume   125.42084459
_cell_formula_units_Z   1
loop_
 _symmetry_equiv_pos_site_id
 _symmetry_equiv_pos_as_xyz
  1  'x, y, z'
loop_
 _atom_site_type_symbol
 _atom_site_label
 _atom_site_symmetry_multiplicity
 _atom_site_fract_x
 _atom_site_fract_y
 _atom_site_fract_z
 _atom_site_occupancy
  Eu  Eu0  1  0.000000  0.000000  0.500000  1
  Th  Th1  1  0.000000  0.000000  0.000000  1
  Cu  Cu2  1  0.333333  0.666667  0.239163  1
  Cu  Cu3  1  0.666667  0.333333  0.760837  1
  Si  Si4  1  0.666667  0.333333  0.237214  1
  Si  Si5  1  0.333333  0.666667  0.762786  1
