# generated using pymatgen
data_Lu3Mg(Ni4P3)2
_symmetry_space_group_name_H-M   'P 1'
_cell_length_a   3.75365900
_cell_length_b   10.61612500
_cell_length_c   12.29239400
_cell_angle_alpha   90.00000000
_cell_angle_beta   90.00000000
_cell_angle_gamma   90.00000000
_symmetry_Int_Tables_number   1
_chemical_formula_structural   Lu3Mg(Ni4P3)2
_chemical_formula_sum   'Lu6 Mg2 Ni16 P12'
_cell_volume   489.84345789
_cell_formula_units_Z   2
loop_
 _symmetry_equiv_pos_site_id
 _symmetry_equiv_pos_as_xyz
  1  'x, y, z'
loop_
 _atom_site_type_symbol
 _atom_site_label
 _atom_site_symmetry_multiplicity
 _atom_site_fract_x
 _atom_site_fract_y
 _atom_site_fract_z
 _atom_site_occupancy
  Lu  Lu0  1  0.000000  0.500000  0.527884  1
  Lu  Lu1  1  0.500000  0.000000  0.472116  1
  Lu  Lu2  1  0.500000  0.821968  0.205022  1
  Lu  Lu3  1  0.500000  0.178032  0.205022  1
  Lu  Lu4  1  0.000000  0.678032  0.794978  1
  Lu  Lu5  1  0.000000  0.321968  0.794978  1
  Mg  Mg6  1  0.500000  0.500000  0.157853  1
  Mg  Mg7  1  0.000000  0.000000  0.842147  1
  Ni  Ni8  1  0.500000  0.500000  0.702894  1
  Ni  Ni9  1  0.000000  0.000000  0.297106  1
  Ni  Ni10  1  0.000000  0.500000  0.988968  1
  Ni  Ni11  1  0.500000  0.000000  0.011032  1
  Ni  Ni12  1  0.500000  0.332828  0.995715  1
  Ni  Ni13  1  0.500000  0.667172  0.995715  1
  Ni  Ni14  1  0.000000  0.167172  0.004285  1
  Ni  Ni15  1  0.000000  0.832828  0.004285  1
  Ni  Ni16  1  0.500000  0.298963  0.432479  1
  Ni  Ni17  1  0.500000  0.701037  0.432479  1
  Ni  Ni18  1  0.000000  0.201037  0.567521  1
  Ni  Ni19  1  0.000000  0.798963  0.567521  1
  Ni  Ni20  1  0.500000  0.877832  0.706629  1
  Ni  Ni21  1  0.500000  0.122168  0.706629  1
  Ni  Ni22  1  0.000000  0.622168  0.293371  1
  Ni  Ni23  1  0.000000  0.377832  0.293371  1
  P  P24  1  0.500000  0.500000  0.880625  1
  P  P25  1  0.000000  0.000000  0.119375  1
  P  P26  1  0.500000  0.500000  0.362145  1
  P  P27  1  0.000000  0.000000  0.637855  1
  P  P28  1  0.500000  0.315519  0.616736  1
  P  P29  1  0.500000  0.684481  0.616736  1
  P  P30  1  0.000000  0.184481  0.383264  1
  P  P31  1  0.000000  0.815519  0.383264  1
  P  P32  1  0.500000  0.837320  0.891174  1
  P  P33  1  0.500000  0.162680  0.891174  1
  P  P34  1  0.000000  0.662680  0.108826  1
  P  P35  1  0.000000  0.337320  0.108826  1
