# generated using pymatgen
data_LiNd2Dy14Cd3Pt4
_symmetry_space_group_name_H-M   'P 1'
_cell_length_a   9.72715719
_cell_length_b   9.72715692
_cell_length_c   9.71488216
_cell_angle_alpha   60.10932216
_cell_angle_beta   60.10932254
_cell_angle_gamma   59.90417552
_symmetry_Int_Tables_number   1
_chemical_formula_structural   LiNd2Dy14Cd3Pt4
_chemical_formula_sum   'Li1 Nd2 Dy14 Cd3 Pt4'
_cell_volume   650.56923292
_cell_formula_units_Z   1
loop_
 _symmetry_equiv_pos_site_id
 _symmetry_equiv_pos_as_xyz
  1  'x, y, z'
loop_
 _atom_site_type_symbol
 _atom_site_label
 _atom_site_symmetry_multiplicity
 _atom_site_fract_x
 _atom_site_fract_y
 _atom_site_fract_z
 _atom_site_occupancy
  Li  Li0  1  0.572197  0.572197  0.570596  1
  Nd  Nd1  1  0.567745  0.567745  0.931179  1
  Nd  Nd2  1  0.933925  0.933925  0.564691  1
  Dy  Dy3  1  0.351487  0.351487  0.349824  1
  Dy  Dy4  1  0.350914  0.350914  0.947641  1
  Dy  Dy5  1  0.351839  0.945496  0.352056  1
  Dy  Dy6  1  0.945496  0.351839  0.352056  1
  Dy  Dy7  1  0.810295  0.192441  0.190940  1
  Dy  Dy8  1  0.186384  0.813341  0.812812  1
  Dy  Dy9  1  0.192441  0.810295  0.190940  1
  Dy  Dy10  1  0.813341  0.186384  0.812812  1
  Dy  Dy11  1  0.191236  0.191236  0.810700  1
  Dy  Dy12  1  0.812686  0.812686  0.186676  1
  Dy  Dy13  1  0.939456  0.562357  0.562125  1
  Dy  Dy14  1  0.561091  0.937659  0.938709  1
  Dy  Dy15  1  0.562357  0.939456  0.562125  1
  Dy  Dy16  1  0.937659  0.561091  0.938709  1
  Cd  Cd17  1  0.583062  0.583062  0.255372  1
  Cd  Cd18  1  0.579626  0.255787  0.583965  1
  Cd  Cd19  1  0.255787  0.579626  0.583965  1
  Pt  Pt20  1  0.144326  0.144326  0.143113  1
  Pt  Pt21  1  0.144421  0.144421  0.570931  1
  Pt  Pt22  1  0.140870  0.571361  0.144034  1
  Pt  Pt23  1  0.571361  0.140870  0.144034  1
