# generated using pymatgen
data_HoPaMn17C3
_symmetry_space_group_name_H-M   'P 1'
_cell_length_a   6.44143806
_cell_length_b   6.44143874
_cell_length_c   6.44143961
_cell_angle_alpha   83.00483573
_cell_angle_beta   83.00482924
_cell_angle_gamma   83.00482468
_symmetry_Int_Tables_number   1
_chemical_formula_structural   HoPaMn17C3
_chemical_formula_sum   'Ho1 Pa1 Mn17 C3'
_cell_volume   261.74869594
_cell_formula_units_Z   1
loop_
 _symmetry_equiv_pos_site_id
 _symmetry_equiv_pos_as_xyz
  1  'x, y, z'
loop_
 _atom_site_type_symbol
 _atom_site_label
 _atom_site_symmetry_multiplicity
 _atom_site_fract_x
 _atom_site_fract_y
 _atom_site_fract_z
 _atom_site_occupancy
  Ho  Ho0  1  0.653921  0.653921  0.653921  1
  Pa  Pa1  1  0.347784  0.347784  0.347784  1
  Mn  Mn2  1  0.002367  0.002367  0.495560  1
  Mn  Mn3  1  0.495560  0.002367  0.002367  1
  Mn  Mn4  1  0.002367  0.495560  0.002367  1
  Mn  Mn5  1  0.724424  0.276015  0.999809  1
  Mn  Mn6  1  0.999809  0.724424  0.276015  1
  Mn  Mn7  1  0.276015  0.999809  0.724424  1
  Mn  Mn8  1  0.999809  0.276015  0.724424  1
  Mn  Mn9  1  0.724424  0.999809  0.276015  1
  Mn  Mn10  1  0.276015  0.724424  0.999809  1
  Mn  Mn11  1  0.343682  0.343682  0.860213  1
  Mn  Mn12  1  0.860213  0.343682  0.343682  1
  Mn  Mn13  1  0.343682  0.860213  0.343682  1
  Mn  Mn14  1  0.652429  0.652429  0.146864  1
  Mn  Mn15  1  0.146864  0.652429  0.652429  1
  Mn  Mn16  1  0.652429  0.146864  0.652429  1
  Mn  Mn17  1  0.903055  0.903055  0.903055  1
  Mn  Mn18  1  0.095461  0.095461  0.095461  1
  C  C19  1  0.501552  0.501552  0.996585  1
  C  C20  1  0.996585  0.501552  0.501552  1
  C  C21  1  0.501552  0.996585  0.501552  1
