# generated using pymatgen
data_HoPa5(Al3Os)8
_symmetry_space_group_name_H-M   'P 1'
_cell_length_a   8.87274953
_cell_length_b   8.87275037
_cell_length_c   9.42792100
_cell_angle_alpha   90.00000000
_cell_angle_beta   90.00000000
_cell_angle_gamma   119.96042534
_symmetry_Int_Tables_number   1
_chemical_formula_structural   HoPa5(Al3Os)8
_chemical_formula_sum   'Ho1 Pa5 Al24 Os8'
_cell_volume   643.03720516
_cell_formula_units_Z   1
loop_
 _symmetry_equiv_pos_site_id
 _symmetry_equiv_pos_as_xyz
  1  'x, y, z'
loop_
 _atom_site_type_symbol
 _atom_site_label
 _atom_site_symmetry_multiplicity
 _atom_site_fract_x
 _atom_site_fract_y
 _atom_site_fract_z
 _atom_site_occupancy
  Ho  Ho0  1  0.803398  0.196602  0.750000  1
  Pa  Pa1  1  0.196697  0.394785  0.250000  1
  Pa  Pa2  1  0.801743  0.606914  0.750000  1
  Pa  Pa3  1  0.605215  0.803303  0.250000  1
  Pa  Pa4  1  0.393086  0.198257  0.750000  1
  Pa  Pa5  1  0.197879  0.802121  0.250000  1
  Al  Al6  1  0.334212  0.665788  0.016079  1
  Al  Al7  1  0.669032  0.330968  0.978552  1
  Al  Al8  1  0.669032  0.330968  0.521448  1
  Al  Al9  1  0.334212  0.665788  0.483921  1
  Al  Al10  1  0.160699  0.324162  0.578218  1
  Al  Al11  1  0.837701  0.675568  0.421560  1
  Al  Al12  1  0.675838  0.839301  0.578218  1
  Al  Al13  1  0.837701  0.675568  0.078440  1
  Al  Al14  1  0.324432  0.162299  0.421560  1
  Al  Al15  1  0.160699  0.324162  0.921782  1
  Al  Al16  1  0.161835  0.838165  0.580271  1
  Al  Al17  1  0.324432  0.162299  0.078440  1
  Al  Al18  1  0.837720  0.162280  0.423141  1
  Al  Al19  1  0.675838  0.839301  0.921782  1
  Al  Al20  1  0.837720  0.162280  0.076859  1
  Al  Al21  1  0.161835  0.838165  0.919729  1
  Al  Al22  1  0.564175  0.127449  0.250000  1
  Al  Al23  1  0.441067  0.878584  0.750000  1
  Al  Al24  1  0.872551  0.435825  0.250000  1
  Al  Al25  1  0.121416  0.558933  0.750000  1
  Al  Al26  1  0.562989  0.437011  0.250000  1
  Al  Al27  1  0.436228  0.563772  0.750000  1
  Al  Al28  1  0.999937  0.000063  0.250000  1
  Al  Al29  1  0.999568  0.000432  0.750000  1
  Os  Os30  1  0.496550  0.996521  0.003877  1
  Os  Os31  1  0.003479  0.503450  0.003877  1
  Os  Os32  1  0.496550  0.996521  0.496123  1
  Os  Os33  1  0.500722  0.499278  0.999656  1
  Os  Os34  1  0.003479  0.503450  0.496123  1
  Os  Os35  1  0.500722  0.499278  0.500344  1
  Os  Os36  1  0.999806  0.000194  0.000117  1
  Os  Os37  1  0.999806  0.000194  0.499883  1
