# generated using pymatgen
data_Pr(ErS2)2
_symmetry_space_group_name_H-M   'P 1'
_cell_length_a   3.87903600
_cell_length_b   12.98812700
_cell_length_c   13.05637700
_cell_angle_alpha   90.00000000
_cell_angle_beta   90.00000000
_cell_angle_gamma   90.00000000
_symmetry_Int_Tables_number   1
_chemical_formula_structural   Pr(ErS2)2
_chemical_formula_sum   'Pr4 Er8 S16'
_cell_volume   657.79871155
_cell_formula_units_Z   4
loop_
 _symmetry_equiv_pos_site_id
 _symmetry_equiv_pos_as_xyz
  1  'x, y, z'
loop_
 _atom_site_type_symbol
 _atom_site_label
 _atom_site_symmetry_multiplicity
 _atom_site_fract_x
 _atom_site_fract_y
 _atom_site_fract_z
 _atom_site_occupancy
  Pr  Pr0  1  0.750000  0.867421  0.413940  1
  Pr  Pr1  1  0.250000  0.632579  0.913940  1
  Pr  Pr2  1  0.750000  0.367421  0.086060  1
  Pr  Pr3  1  0.250000  0.132579  0.586060  1
  Er  Er4  1  0.750000  0.608470  0.579059  1
  Er  Er5  1  0.250000  0.891530  0.079059  1
  Er  Er6  1  0.750000  0.108470  0.920941  1
  Er  Er7  1  0.250000  0.391530  0.420941  1
  Er  Er8  1  0.750000  0.647322  0.203937  1
  Er  Er9  1  0.250000  0.852678  0.703937  1
  Er  Er10  1  0.750000  0.147322  0.296063  1
  Er  Er11  1  0.250000  0.352678  0.796063  1
  S  S12  1  0.750000  0.968060  0.617598  1
  S  S13  1  0.250000  0.531940  0.117598  1
  S  S14  1  0.750000  0.468060  0.882402  1
  S  S15  1  0.250000  0.031940  0.382402  1
  S  S16  1  0.750000  0.716435  0.763373  1
  S  S17  1  0.250000  0.783565  0.263373  1
  S  S18  1  0.750000  0.216435  0.736627  1
  S  S19  1  0.250000  0.283565  0.236627  1
  S  S20  1  0.750000  0.532441  0.379929  1
  S  S21  1  0.250000  0.967559  0.879929  1
  S  S22  1  0.750000  0.032441  0.120071  1
  S  S23  1  0.250000  0.467559  0.620071  1
  S  S24  1  0.750000  0.756645  0.026616  1
  S  S25  1  0.250000  0.743355  0.526616  1
  S  S26  1  0.750000  0.256645  0.473384  1
  S  S27  1  0.250000  0.243355  0.973384  1
