# generated using pymatgen
data_Ba6Sr2LaUSe12
_symmetry_space_group_name_H-M   'P 1'
_cell_length_a   9.04617561
_cell_length_b   9.04617487
_cell_length_c   9.04617620
_cell_angle_alpha   90.83080428
_cell_angle_beta   90.83080581
_cell_angle_gamma   90.83081435
_symmetry_Int_Tables_number   1
_chemical_formula_structural   Ba6Sr2LaUSe12
_chemical_formula_sum   'Ba6 Sr2 La1 U1 Se12'
_cell_volume   740.04257418
_cell_formula_units_Z   1
loop_
 _symmetry_equiv_pos_site_id
 _symmetry_equiv_pos_as_xyz
  1  'x, y, z'
loop_
 _atom_site_type_symbol
 _atom_site_label
 _atom_site_symmetry_multiplicity
 _atom_site_fract_x
 _atom_site_fract_y
 _atom_site_fract_z
 _atom_site_occupancy
  Ba  Ba0  1  0.870337  0.622679  0.254005  1
  Ba  Ba1  1  0.254005  0.870337  0.622679  1
  Ba  Ba2  1  0.622679  0.254005  0.870337  1
  Ba  Ba3  1  0.745995  0.129663  0.377321  1
  Ba  Ba4  1  0.377321  0.745995  0.129663  1
  Ba  Ba5  1  0.129663  0.377321  0.745995  1
  Sr  Sr6  1  0.253652  0.253652  0.253652  1
  Sr  Sr7  1  0.746348  0.746348  0.746348  1
  La  La8  1  0.500000  0.500000  0.500000  1
  U  U9  1  0.000000  0.000000  0.000000  1
  Se  Se10  1  0.189730  0.557880  0.409664  1
  Se  Se11  1  0.409664  0.189730  0.557880  1
  Se  Se12  1  0.557880  0.409664  0.189730  1
  Se  Se13  1  0.923759  0.050555  0.707235  1
  Se  Se14  1  0.707235  0.923759  0.050555  1
  Se  Se15  1  0.050555  0.707235  0.923759  1
  Se  Se16  1  0.810270  0.442120  0.590336  1
  Se  Se17  1  0.590336  0.810270  0.442120  1
  Se  Se18  1  0.442120  0.590336  0.810270  1
  Se  Se19  1  0.076241  0.949445  0.292765  1
  Se  Se20  1  0.292765  0.076241  0.949445  1
  Se  Se21  1  0.949445  0.292765  0.076241  1
