# generated using pymatgen
data_Dy2Tm3Co14P12Os5
_symmetry_space_group_name_H-M   'P 1'
_cell_length_a   12.05549393
_cell_length_b   12.06551596
_cell_length_c   3.74348200
_cell_angle_alpha   90.00000000
_cell_angle_beta   90.00000000
_cell_angle_gamma   119.75194708
_symmetry_Int_Tables_number   1
_chemical_formula_structural   Dy2Tm3Co14P12Os5
_chemical_formula_sum   'Dy2 Tm3 Co14 P12 Os5'
_cell_volume   472.73462117
_cell_formula_units_Z   1
loop_
 _symmetry_equiv_pos_site_id
 _symmetry_equiv_pos_as_xyz
  1  'x, y, z'
loop_
 _atom_site_type_symbol
 _atom_site_label
 _atom_site_symmetry_multiplicity
 _atom_site_fract_x
 _atom_site_fract_y
 _atom_site_fract_z
 _atom_site_occupancy
  Dy  Dy0  1  0.661530  0.333980  0.000000  1
  Dy  Dy1  1  0.333133  0.665906  0.000000  1
  Tm  Tm2  1  0.184639  0.183228  0.500000  1
  Tm  Tm3  1  0.819271  0.000741  0.500000  1
  Tm  Tm4  1  0.000514  0.820473  0.500000  1
  Co  Co5  1  0.828749  0.198474  0.000000  1
  Co  Co6  1  0.802310  0.631098  0.000000  1
  Co  Co7  1  0.373737  0.177624  0.000000  1
  Co  Co8  1  0.193293  0.819500  0.000000  1
  Co  Co9  1  0.625503  0.804502  0.000000  1
  Co  Co10  1  0.180983  0.373526  0.000000  1
  Co  Co11  1  0.479921  0.358754  0.500000  1
  Co  Co12  1  0.131172  0.643442  0.500000  1
  Co  Co13  1  0.512413  0.867925  0.500000  1
  Co  Co14  1  0.357343  0.483697  0.500000  1
  Co  Co15  1  0.716212  0.718260  0.500000  1
  Co  Co16  1  0.281415  0.997834  0.500000  1
  Co  Co17  1  0.002960  0.283707  0.500000  1
  Co  Co18  1  0.999789  0.999632  0.000000  1
  P  P19  1  0.360828  0.360050  0.000000  1
  P  P20  1  0.636649  0.995667  0.000000  1
  P  P21  1  0.003556  0.641570  0.000000  1
  P  P22  1  0.838257  0.313833  0.500000  1
  P  P23  1  0.680578  0.522126  0.500000  1
  P  P24  1  0.473294  0.166358  0.500000  1
  P  P25  1  0.312134  0.833743  0.500000  1
  P  P26  1  0.520443  0.685323  0.500000  1
  P  P27  1  0.167436  0.478193  0.500000  1
  P  P28  1  0.821685  0.824075  0.000000  1
  P  P29  1  0.178190  0.000163  0.000000  1
  P  P30  1  0.002985  0.178119  0.000000  1
  Os  Os31  1  0.550908  0.552719  0.000000  1
  Os  Os32  1  0.440522  0.989779  0.000000  1
  Os  Os33  1  0.010057  0.451430  0.000000  1
  Os  Os34  1  0.642118  0.123450  0.500000  1
  Os  Os35  1  0.875476  0.521100  0.500000  1
