# generated using pymatgen
data_Y2GaSi5PRh12
_symmetry_space_group_name_H-M   'P 1'
_cell_length_a   9.78823922
_cell_length_b   9.76986569
_cell_length_c   3.86642727
_cell_angle_alpha   89.99407253
_cell_angle_beta   90.08231533
_cell_angle_gamma   120.10649587
_symmetry_Int_Tables_number   1
_chemical_formula_structural   Y2GaSi5PRh12
_chemical_formula_sum   'Y2 Ga1 Si5 P1 Rh12'
_cell_volume   319.86449315
_cell_formula_units_Z   1
loop_
 _symmetry_equiv_pos_site_id
 _symmetry_equiv_pos_as_xyz
  1  'x, y, z'
loop_
 _atom_site_type_symbol
 _atom_site_label
 _atom_site_symmetry_multiplicity
 _atom_site_fract_x
 _atom_site_fract_y
 _atom_site_fract_z
 _atom_site_occupancy
  Y  Y0  1  0.332533  0.666296  0.749357  1
  Y  Y1  1  0.665491  0.332526  0.249847  1
  Ga  Ga2  1  0.000688  0.999959  0.509800  1
  Si  Si3  1  0.399139  0.288981  0.748183  1
  Si  Si4  1  0.709335  0.109196  0.749138  1
  Si  Si5  1  0.888090  0.598500  0.750114  1
  Si  Si6  1  0.601585  0.710860  0.250780  1
  Si  Si7  1  0.290733  0.890356  0.250312  1
  P  P8  1  0.111075  0.400358  0.247833  1
  Rh  Rh9  1  0.445022  0.063352  0.750301  1
  Rh  Rh10  1  0.933362  0.381137  0.750156  1
  Rh  Rh11  1  0.616092  0.554298  0.750391  1
  Rh  Rh12  1  0.556310  0.937428  0.249281  1
  Rh  Rh13  1  0.064992  0.613572  0.249246  1
  Rh  Rh14  1  0.379235  0.446548  0.248483  1
  Rh  Rh15  1  0.148212  0.277092  0.748108  1
  Rh  Rh16  1  0.729874  0.876483  0.750537  1
  Rh  Rh17  1  0.124842  0.850263  0.749238  1
  Rh  Rh18  1  0.854152  0.726995  0.251015  1
  Rh  Rh19  1  0.269356  0.124216  0.248121  1
  Rh  Rh20  1  0.879884  0.151586  0.249757  1
