# generated using pymatgen
data_Ca10ZnCd2Cu2Ru
_symmetry_space_group_name_H-M   'P 1'
_cell_length_a   9.26239393
_cell_length_b   9.26239370
_cell_length_c   9.28995513
_cell_angle_alpha   129.45362263
_cell_angle_beta   129.45361089
_cell_angle_gamma   74.05655103
_symmetry_Int_Tables_number   1
_chemical_formula_structural   Ca10ZnCd2Cu2Ru
_chemical_formula_sum   'Ca10 Zn1 Cd2 Cu2 Ru1'
_cell_volume   463.89647112
_cell_formula_units_Z   1
loop_
 _symmetry_equiv_pos_site_id
 _symmetry_equiv_pos_as_xyz
  1  'x, y, z'
loop_
 _atom_site_type_symbol
 _atom_site_label
 _atom_site_symmetry_multiplicity
 _atom_site_fract_x
 _atom_site_fract_y
 _atom_site_fract_z
 _atom_site_occupancy
  Ca  Ca0  1  0.535686  0.021441  0.833091  1
  Ca  Ca1  1  0.202595  0.688349  0.166909  1
  Ca  Ca2  1  0.025000  0.195932  0.500000  1
  Ca  Ca3  1  0.685793  0.542969  0.500000  1
  Ca  Ca4  1  0.478559  0.964314  0.166909  1
  Ca  Ca5  1  0.811651  0.297405  0.833091  1
  Ca  Ca6  1  0.957031  0.814207  0.500000  1
  Ca  Ca7  1  0.304068  0.475000  0.500000  1
  Ca  Ca8  1  0.502176  0.508714  0.010890  1
  Ca  Ca9  1  0.991286  0.997824  0.989110  1
  Zn  Zn10  1  0.386353  0.113647  0.500000  1
  Cd  Cd11  1  0.254459  0.245541  0.000000  1
  Cd  Cd12  1  0.754459  0.745541  0.000000  1
  Cu  Cu13  1  0.111111  0.613461  0.724572  1
  Cu  Cu14  1  0.886539  0.388889  0.275428  1
  Ru  Ru15  1  0.613232  0.886768  0.500000  1
