# generated using pymatgen
data_Zr8CuNi7Au4
_symmetry_space_group_name_H-M   'P 1'
_cell_length_a   7.05863422
_cell_length_b   7.05870631
_cell_length_c   6.75282321
_cell_angle_alpha   90.03552611
_cell_angle_beta   90.03718550
_cell_angle_gamma   89.85984115
_symmetry_Int_Tables_number   1
_chemical_formula_structural   Zr8CuNi7Au4
_chemical_formula_sum   'Zr8 Cu1 Ni7 Au4'
_cell_volume   336.45709878
_cell_formula_units_Z   1
loop_
 _symmetry_equiv_pos_site_id
 _symmetry_equiv_pos_as_xyz
  1  'x, y, z'
loop_
 _atom_site_type_symbol
 _atom_site_label
 _atom_site_symmetry_multiplicity
 _atom_site_fract_x
 _atom_site_fract_y
 _atom_site_fract_z
 _atom_site_occupancy
  Zr  Zr0  1  0.668169  0.336589  0.996967  1
  Zr  Zr1  1  0.336592  0.668159  0.996969  1
  Zr  Zr2  1  0.833648  0.833644  0.498008  1
  Zr  Zr3  1  0.159608  0.159605  0.505714  1
  Zr  Zr4  1  0.179666  0.179678  0.995539  1
  Zr  Zr5  1  0.817176  0.817189  0.000245  1
  Zr  Zr6  1  0.318585  0.688555  0.502430  1
  Zr  Zr7  1  0.688565  0.318586  0.502449  1
  Cu  Cu8  1  0.375757  0.375745  0.277308  1
  Ni  Ni9  1  0.621727  0.621714  0.270171  1
  Ni  Ni10  1  0.124218  0.875768  0.228187  1
  Ni  Ni11  1  0.875787  0.124180  0.228225  1
  Ni  Ni12  1  0.624272  0.624269  0.728004  1
  Ni  Ni13  1  0.376493  0.376494  0.727652  1
  Ni  Ni14  1  0.122530  0.875113  0.772063  1
  Ni  Ni15  1  0.875053  0.122544  0.772097  1
  Au  Au16  1  0.499729  0.001468  0.249215  1
  Au  Au17  1  0.001471  0.499730  0.249194  1
  Au  Au18  1  0.000987  0.500003  0.749785  1
  Au  Au19  1  0.499968  0.000967  0.749778  1
