# generated using pymatgen
data_Tb2Ce3Er3(ReB6)4
_symmetry_space_group_name_H-M   'P 1'
_cell_length_a   3.71387800
_cell_length_b   9.19113015
_cell_length_c   11.58321925
_cell_angle_alpha   90.09274986
_cell_angle_beta   90.00000000
_cell_angle_gamma   90.00000000
_symmetry_Int_Tables_number   1
_chemical_formula_structural   Tb2Ce3Er3(ReB6)4
_chemical_formula_sum   'Tb2 Ce3 Er3 Re4 B24'
_cell_volume   395.38961365
_cell_formula_units_Z   1
loop_
 _symmetry_equiv_pos_site_id
 _symmetry_equiv_pos_as_xyz
  1  'x, y, z'
loop_
 _atom_site_type_symbol
 _atom_site_label
 _atom_site_symmetry_multiplicity
 _atom_site_fract_x
 _atom_site_fract_y
 _atom_site_fract_z
 _atom_site_occupancy
  Tb  Tb0  1  0.000000  0.177522  0.913728  1
  Tb  Tb1  1  0.000000  0.944432  0.372731  1
  Ce  Ce2  1  0.000000  0.322038  0.414550  1
  Ce  Ce3  1  0.000000  0.677745  0.586554  1
  Ce  Ce4  1  0.000000  0.823374  0.085351  1
  Er  Er5  1  0.000000  0.056469  0.628919  1
  Er  Er6  1  0.000000  0.442957  0.127633  1
  Er  Er7  1  0.000000  0.556118  0.871658  1
  Re  Re8  1  0.000000  0.637511  0.320396  1
  Re  Re9  1  0.000000  0.362656  0.678654  1
  Re  Re10  1  0.000000  0.139386  0.179252  1
  Re  Re11  1  0.000000  0.860365  0.820837  1
  B  B12  1  0.500000  0.553987  0.431417  1
  B  B13  1  0.500000  0.445426  0.568770  1
  B  B14  1  0.500000  0.054343  0.067424  1
  B  B15  1  0.500000  0.945788  0.932088  1
  B  B16  1  0.500000  0.747985  0.418107  1
  B  B17  1  0.500000  0.250613  0.582474  1
  B  B18  1  0.500000  0.249404  0.081013  1
  B  B19  1  0.500000  0.751162  0.918183  1
  B  B20  1  0.500000  0.790523  0.265550  1
  B  B21  1  0.500000  0.207993  0.734531  1
  B  B22  1  0.500000  0.291934  0.233181  1
  B  B23  1  0.500000  0.708558  0.766244  1
  B  B24  1  0.500000  0.630434  0.185173  1
  B  B25  1  0.500000  0.368956  0.814860  1
  B  B26  1  0.500000  0.132150  0.313616  1
  B  B27  1  0.500000  0.869275  0.686291  1
  B  B28  1  0.500000  0.984317  0.211796  1
  B  B29  1  0.500000  0.017312  0.787273  1
  B  B30  1  0.500000  0.483054  0.286537  1
  B  B31  1  0.500000  0.516471  0.713514  1
  B  B32  1  0.500000  0.601547  0.028128  1
  B  B33  1  0.500000  0.397171  0.971106  1
  B  B34  1  0.500000  0.106249  0.471953  1
  B  B35  1  0.500000  0.894775  0.530507  1
