# generated using pymatgen
data_Sr4Hf(TcO4)3
_symmetry_space_group_name_H-M   'P 1'
_cell_length_a   5.69246482
_cell_length_b   5.69775650
_cell_length_c   8.03800864
_cell_angle_alpha   90.02755199
_cell_angle_beta   90.23907397
_cell_angle_gamma   90.04040629
_symmetry_Int_Tables_number   1
_chemical_formula_structural   Sr4Hf(TcO4)3
_chemical_formula_sum   'Sr4 Hf1 Tc3 O12'
_cell_volume   260.70464570
_cell_formula_units_Z   1
loop_
 _symmetry_equiv_pos_site_id
 _symmetry_equiv_pos_as_xyz
  1  'x, y, z'
loop_
 _atom_site_type_symbol
 _atom_site_label
 _atom_site_symmetry_multiplicity
 _atom_site_fract_x
 _atom_site_fract_y
 _atom_site_fract_z
 _atom_site_occupancy
  Sr  Sr0  1  0.479583  0.002280  0.753848  1
  Sr  Sr1  1  0.981765  0.496444  0.754884  1
  Sr  Sr2  1  0.520417  0.997720  0.246152  1
  Sr  Sr3  1  0.018235  0.503556  0.245116  1
  Hf  Hf4  1  0.500000  0.500000  0.500000  1
  Tc  Tc5  1  0.000000  0.000000  0.000000  1
  Tc  Tc6  1  0.500000  0.500000  0.000000  1
  Tc  Tc7  1  0.000000  0.000000  0.500000  1
  O  O8  1  0.006034  0.947495  0.749917  1
  O  O9  1  0.509629  0.558302  0.752281  1
  O  O10  1  0.993966  0.052505  0.250083  1
  O  O11  1  0.490371  0.441698  0.247719  1
  O  O12  1  0.716261  0.211304  0.528482  1
  O  O13  1  0.236379  0.264188  0.971158  1
  O  O14  1  0.263733  0.763317  0.027603  1
  O  O15  1  0.788485  0.715990  0.470203  1
  O  O16  1  0.283739  0.788696  0.471518  1
  O  O17  1  0.763621  0.735812  0.028842  1
  O  O18  1  0.736267  0.236683  0.972397  1
  O  O19  1  0.211515  0.284010  0.529797  1
