# generated using pymatgen
data_TlGaGeS4
_symmetry_space_group_name_H-M   'P 1'
_cell_length_a   16.17173600
_cell_length_b   6.84691090
_cell_length_c   7.48122700
_cell_angle_alpha   69.93932138
_cell_angle_beta   90.00000000
_cell_angle_gamma   90.00000000
_symmetry_Int_Tables_number   1
_chemical_formula_structural   TlGaGeS4
_chemical_formula_sum   'Tl4 Ga4 Ge4 S16'
_cell_volume   778.11231656
_cell_formula_units_Z   4
loop_
 _symmetry_equiv_pos_site_id
 _symmetry_equiv_pos_as_xyz
  1  'x, y, z'
loop_
 _atom_site_type_symbol
 _atom_site_label
 _atom_site_symmetry_multiplicity
 _atom_site_fract_x
 _atom_site_fract_y
 _atom_site_fract_z
 _atom_site_occupancy
  Tl  Tl0  1  0.396240  0.969294  0.184166  1
  Tl  Tl1  1  0.896240  0.030706  0.815834  1
  Tl  Tl2  1  0.603926  0.514353  0.809183  1
  Tl  Tl3  1  0.103926  0.485647  0.190817  1
  Ga  Ga4  1  0.584135  0.162477  0.478243  1
  Ga  Ga5  1  0.084135  0.837523  0.521757  1
  Ga  Ga6  1  0.273368  0.596125  0.709003  1
  Ga  Ga7  1  0.773368  0.403875  0.290997  1
  Ge  Ge8  1  0.420032  0.331474  0.532412  1
  Ge  Ge9  1  0.920032  0.668526  0.467588  1
  Ge  Ge10  1  0.724012  0.908353  0.271610  1
  Ge  Ge11  1  0.224012  0.091647  0.728390  1
  S  S12  1  0.594595  0.878545  0.382214  1
  S  S13  1  0.094595  0.121455  0.617786  1
  S  S14  1  0.410351  0.612785  0.617579  1
  S  S15  1  0.910351  0.387215  0.382421  1
  S  S16  1  0.799281  0.784659  0.543933  1
  S  S17  1  0.299281  0.215341  0.456067  1
  S  S18  1  0.201365  0.719410  0.434090  1
  S  S19  1  0.701365  0.280590  0.565910  1
  S  S20  1  0.760918  0.225295  0.082841  1
  S  S21  1  0.260918  0.774705  0.917159  1
  S  S22  1  0.239958  0.273066  0.921354  1
  S  S23  1  0.739958  0.726934  0.078646  1
  S  S24  1  0.997317  0.910022  0.255985  1
  S  S25  1  0.497317  0.089978  0.744015  1
  S  S26  1  0.994497  0.603639  0.733863  1
  S  S27  1  0.494497  0.396361  0.266137  1
