# generated using pymatgen
data_Ho2HgPtPb
_symmetry_space_group_name_H-M   'P 1'
_cell_length_a   8.14881700
_cell_length_b   8.11604800
_cell_length_c   3.73205200
_cell_angle_alpha   90.00000000
_cell_angle_beta   90.00000000
_cell_angle_gamma   90.00000000
_symmetry_Int_Tables_number   1
_chemical_formula_structural   Ho2HgPtPb
_chemical_formula_sum   'Ho4 Hg2 Pt2 Pb2'
_cell_volume   246.82369985
_cell_formula_units_Z   2
loop_
 _symmetry_equiv_pos_site_id
 _symmetry_equiv_pos_as_xyz
  1  'x, y, z'
loop_
 _atom_site_type_symbol
 _atom_site_label
 _atom_site_symmetry_multiplicity
 _atom_site_fract_x
 _atom_site_fract_y
 _atom_site_fract_z
 _atom_site_occupancy
  Ho  Ho0  1  0.633469  0.174897  0.500000  1
  Ho  Ho1  1  0.191955  0.336888  0.500000  1
  Ho  Ho2  1  0.866531  0.674897  0.500000  1
  Ho  Ho3  1  0.308045  0.836888  0.500000  1
  Hg  Hg4  1  0.626117  0.865666  0.000000  1
  Hg  Hg5  1  0.873883  0.365666  0.000000  1
  Pt  Pt6  1  0.369707  0.120501  0.000000  1
  Pt  Pt7  1  0.130293  0.620501  0.000000  1
  Pb  Pb8  1  0.002676  0.002048  0.000000  1
  Pb  Pb9  1  0.497324  0.502048  0.000000  1
