# generated using pymatgen
data_KBa4Sb2As
_symmetry_space_group_name_H-M   'P 1'
_cell_length_a   8.96270300
_cell_length_b   10.47899700
_cell_length_c   14.18700300
_cell_angle_alpha   90.00000000
_cell_angle_beta   90.00000000
_cell_angle_gamma   90.00000000
_symmetry_Int_Tables_number   1
_chemical_formula_structural   KBa4Sb2As
_chemical_formula_sum   'K4 Ba16 Sb8 As4'
_cell_volume   1332.44527742
_cell_formula_units_Z   4
loop_
 _symmetry_equiv_pos_site_id
 _symmetry_equiv_pos_as_xyz
  1  'x, y, z'
loop_
 _atom_site_type_symbol
 _atom_site_label
 _atom_site_symmetry_multiplicity
 _atom_site_fract_x
 _atom_site_fract_y
 _atom_site_fract_z
 _atom_site_occupancy
  K  K0  1  0.013562  0.750000  0.500130  1
  K  K1  1  0.986438  0.250000  0.499870  1
  K  K2  1  0.513562  0.250000  0.999870  1
  K  K3  1  0.486438  0.750000  0.000130  1
  Ba  Ba4  1  0.839606  0.750000  0.797970  1
  Ba  Ba5  1  0.160394  0.250000  0.202030  1
  Ba  Ba6  1  0.339606  0.250000  0.702030  1
  Ba  Ba7  1  0.660394  0.750000  0.297970  1
  Ba  Ba8  1  0.693082  0.504607  0.576160  1
  Ba  Ba9  1  0.306918  0.495393  0.423840  1
  Ba  Ba10  1  0.193082  0.495393  0.923840  1
  Ba  Ba11  1  0.306918  0.004607  0.423840  1
  Ba  Ba12  1  0.806918  0.504607  0.076160  1
  Ba  Ba13  1  0.693082  0.995393  0.576160  1
  Ba  Ba14  1  0.806918  0.995393  0.076160  1
  Ba  Ba15  1  0.193082  0.004607  0.923840  1
  Ba  Ba16  1  0.336062  0.750000  0.705052  1
  Ba  Ba17  1  0.663938  0.250000  0.294948  1
  Ba  Ba18  1  0.836062  0.250000  0.794948  1
  Ba  Ba19  1  0.163938  0.750000  0.205052  1
  Sb  Sb20  1  0.558433  0.500748  0.822726  1
  Sb  Sb21  1  0.441567  0.499252  0.177274  1
  Sb  Sb22  1  0.058433  0.499252  0.677274  1
  Sb  Sb23  1  0.441567  0.000748  0.177274  1
  Sb  Sb24  1  0.941567  0.500748  0.322726  1
  Sb  Sb25  1  0.558433  0.999252  0.822726  1
  Sb  Sb26  1  0.941567  0.999252  0.322726  1
  Sb  Sb27  1  0.058433  0.000748  0.677274  1
  As  As28  1  0.010309  0.750000  0.998439  1
  As  As29  1  0.989691  0.250000  0.001561  1
  As  As30  1  0.510309  0.250000  0.501561  1
  As  As31  1  0.489691  0.750000  0.498439  1
