# generated using pymatgen
data_Sc4VTc7
_symmetry_space_group_name_H-M   'P 1'
_cell_length_a   5.23282524
_cell_length_b   5.23282635
_cell_length_c   8.58443000
_cell_angle_alpha   90.00000000
_cell_angle_beta   90.00000000
_cell_angle_gamma   119.73265554
_symmetry_Int_Tables_number   1
_chemical_formula_structural   Sc4VTc7
_chemical_formula_sum   'Sc4 V1 Tc7'
_cell_volume   204.11659756
_cell_formula_units_Z   1
loop_
 _symmetry_equiv_pos_site_id
 _symmetry_equiv_pos_as_xyz
  1  'x, y, z'
loop_
 _atom_site_type_symbol
 _atom_site_label
 _atom_site_symmetry_multiplicity
 _atom_site_fract_x
 _atom_site_fract_y
 _atom_site_fract_z
 _atom_site_occupancy
  Sc  Sc0  1  0.333140  0.666860  0.441597  1
  Sc  Sc1  1  0.666965  0.333035  0.563677  1
  Sc  Sc2  1  0.666965  0.333035  0.936323  1
  Sc  Sc3  1  0.333140  0.666860  0.058403  1
  V  V4  1  0.829849  0.170151  0.250000  1
  Tc  Tc5  1  0.000102  0.999898  0.494387  1
  Tc  Tc6  1  0.000102  0.999898  0.005613  1
  Tc  Tc7  1  0.825016  0.652424  0.250000  1
  Tc  Tc8  1  0.347576  0.174984  0.250000  1
  Tc  Tc9  1  0.168877  0.831123  0.750000  1
  Tc  Tc10  1  0.170313  0.342046  0.750000  1
  Tc  Tc11  1  0.657954  0.829687  0.750000  1
