# generated using pymatgen
data_Ca2Mn3Fe3Ni6As7
_symmetry_space_group_name_H-M   'P 1'
_cell_length_a   9.52562200
_cell_length_b   9.52562195
_cell_length_c   3.79115300
_cell_angle_alpha   90.00000000
_cell_angle_beta   90.00000000
_cell_angle_gamma   120.00000713
_symmetry_Int_Tables_number   1
_chemical_formula_structural   Ca2Mn3Fe3Ni6As7
_chemical_formula_sum   'Ca2 Mn3 Fe3 Ni6 As7'
_cell_volume   297.91241152
_cell_formula_units_Z   1
loop_
 _symmetry_equiv_pos_site_id
 _symmetry_equiv_pos_as_xyz
  1  'x, y, z'
loop_
 _atom_site_type_symbol
 _atom_site_label
 _atom_site_symmetry_multiplicity
 _atom_site_fract_x
 _atom_site_fract_y
 _atom_site_fract_z
 _atom_site_occupancy
  Ca  Ca0  1  0.000000  0.000000  0.000000  1
  Ca  Ca1  1  0.666667  0.333333  0.500000  1
  Mn  Mn2  1  0.432553  0.546501  0.500000  1
  Mn  Mn3  1  0.113948  0.567447  0.500000  1
  Mn  Mn4  1  0.453499  0.886052  0.500000  1
  Fe  Fe5  1  0.759988  0.712388  0.500000  1
  Fe  Fe6  1  0.952401  0.240012  0.500000  1
  Fe  Fe7  1  0.287612  0.047599  0.500000  1
  Ni  Ni8  1  0.390786  0.296353  0.000000  1
  Ni  Ni9  1  0.905567  0.609214  0.000000  1
  Ni  Ni10  1  0.703647  0.094433  0.000000  1
  Ni  Ni11  1  0.611843  0.790027  0.000000  1
  Ni  Ni12  1  0.178184  0.388157  0.000000  1
  Ni  Ni13  1  0.209973  0.821816  0.000000  1
  As  As14  1  0.634531  0.554567  0.000000  1
  As  As15  1  0.920036  0.365469  0.000000  1
  As  As16  1  0.445433  0.079964  0.000000  1
  As  As17  1  0.751482  0.962123  0.500000  1
  As  As18  1  0.210641  0.248518  0.500000  1
  As  As19  1  0.037877  0.789359  0.500000  1
  As  As20  1  0.333333  0.666667  0.000000  1
