# generated using pymatgen
data_Tb8Dy2Ru3Rh
_symmetry_space_group_name_H-M   'P 1'
_cell_length_a   8.54655932
_cell_length_b   8.55484653
_cell_length_c   7.30654200
_cell_angle_alpha   83.41128405
_cell_angle_beta   83.38716577
_cell_angle_gamma   43.78192198
_symmetry_Int_Tables_number   1
_chemical_formula_structural   Tb8Dy2Ru3Rh
_chemical_formula_sum   'Tb8 Dy2 Ru3 Rh1'
_cell_volume   366.78363261
_cell_formula_units_Z   1
loop_
 _symmetry_equiv_pos_site_id
 _symmetry_equiv_pos_as_xyz
  1  'x, y, z'
loop_
 _atom_site_type_symbol
 _atom_site_label
 _atom_site_symmetry_multiplicity
 _atom_site_fract_x
 _atom_site_fract_y
 _atom_site_fract_z
 _atom_site_occupancy
  Tb  Tb0  1  0.207360  0.980837  0.585016  1
  Tb  Tb1  1  0.020721  0.794362  0.917527  1
  Tb  Tb2  1  0.207177  0.356316  0.313146  1
  Tb  Tb3  1  0.642687  0.792299  0.185633  1
  Tb  Tb4  1  0.789514  0.642922  0.685764  1
  Tb  Tb5  1  0.358994  0.204707  0.816263  1
  Tb  Tb6  1  0.978983  0.206811  0.084791  1
  Tb  Tb7  1  0.791348  0.023524  0.413593  1
  Dy  Dy8  1  0.579002  0.421556  0.750830  1
  Dy  Dy9  1  0.423621  0.577933  0.247680  1
  Ru  Ru10  1  0.396099  0.825062  0.923731  1
  Ru  Ru11  1  0.825593  0.396470  0.425450  1
  Ru  Ru12  1  0.602296  0.176141  0.075230  1
  Rh  Rh13  1  0.176605  0.601059  0.575345  1
