# generated using pymatgen
data_Cs2Te3IrO12
_symmetry_space_group_name_H-M   'P 1'
_cell_length_a   7.25330772
_cell_length_b   7.25330822
_cell_length_c   7.25330830
_cell_angle_alpha   61.35767083
_cell_angle_beta   61.35766838
_cell_angle_gamma   61.35766682
_symmetry_Int_Tables_number   1
_chemical_formula_structural   Cs2Te3IrO12
_chemical_formula_sum   'Cs2 Te3 Ir1 O12'
_cell_volume   278.06356510
_cell_formula_units_Z   1
loop_
 _symmetry_equiv_pos_site_id
 _symmetry_equiv_pos_as_xyz
  1  'x, y, z'
loop_
 _atom_site_type_symbol
 _atom_site_label
 _atom_site_symmetry_multiplicity
 _atom_site_fract_x
 _atom_site_fract_y
 _atom_site_fract_z
 _atom_site_occupancy
  Cs  Cs0  1  0.373470  0.373470  0.373470  1
  Cs  Cs1  1  0.626530  0.626530  0.626530  1
  Te  Te2  1  0.500000  0.000000  0.000000  1
  Te  Te3  1  0.000000  0.000000  0.500000  1
  Te  Te4  1  0.000000  0.500000  0.000000  1
  Ir  Ir5  1  0.000000  0.000000  0.000000  1
  O  O6  1  0.929568  0.320710  0.320710  1
  O  O7  1  0.326242  0.925077  0.925077  1
  O  O8  1  0.320710  0.320710  0.929568  1
  O  O9  1  0.925077  0.925077  0.326242  1
  O  O10  1  0.925077  0.326242  0.925077  1
  O  O11  1  0.320710  0.929568  0.320710  1
  O  O12  1  0.070432  0.679290  0.679290  1
  O  O13  1  0.673758  0.074923  0.074923  1
  O  O14  1  0.679290  0.679290  0.070432  1
  O  O15  1  0.074923  0.074923  0.673758  1
  O  O16  1  0.074923  0.673758  0.074923  1
  O  O17  1  0.679290  0.070432  0.679290  1
