# generated using pymatgen
data_Rb6InTe4F
_symmetry_space_group_name_H-M   'P 1'
_cell_length_a   11.81365000
_cell_length_b   11.81364999
_cell_length_c   8.22181500
_cell_angle_alpha   90.00000000
_cell_angle_beta   90.00000000
_cell_angle_gamma   120.00000003
_symmetry_Int_Tables_number   1
_chemical_formula_structural   Rb6InTe4F
_chemical_formula_sum   'Rb12 In2 Te8 F2'
_cell_volume   993.72572245
_cell_formula_units_Z   2
loop_
 _symmetry_equiv_pos_site_id
 _symmetry_equiv_pos_as_xyz
  1  'x, y, z'
loop_
 _atom_site_type_symbol
 _atom_site_label
 _atom_site_symmetry_multiplicity
 _atom_site_fract_x
 _atom_site_fract_y
 _atom_site_fract_z
 _atom_site_occupancy
  Rb  Rb0  1  0.110102  0.889898  0.509905  1
  Rb  Rb1  1  0.779795  0.889898  0.509905  1
  Rb  Rb2  1  0.958069  0.479035  0.317871  1
  Rb  Rb3  1  0.520965  0.479035  0.317871  1
  Rb  Rb4  1  0.889898  0.779795  0.009905  1
  Rb  Rb5  1  0.220205  0.110102  0.009905  1
  Rb  Rb6  1  0.520965  0.041931  0.317871  1
  Rb  Rb7  1  0.110102  0.220205  0.509905  1
  Rb  Rb8  1  0.889898  0.110102  0.009905  1
  Rb  Rb9  1  0.041931  0.520965  0.817871  1
  Rb  Rb10  1  0.479035  0.958069  0.817871  1
  Rb  Rb11  1  0.479035  0.520965  0.817871  1
  In  In12  1  0.666667  0.333333  0.709242  1
  In  In13  1  0.333333  0.666667  0.209242  1
  Te  Te14  1  0.401063  0.200532  0.602955  1
  Te  Te15  1  0.598937  0.799468  0.102955  1
  Te  Te16  1  0.666667  0.333333  0.049783  1
  Te  Te17  1  0.799468  0.598937  0.602955  1
  Te  Te18  1  0.200532  0.401063  0.102955  1
  Te  Te19  1  0.333333  0.666667  0.549783  1
  Te  Te20  1  0.200532  0.799468  0.102955  1
  Te  Te21  1  0.799468  0.200532  0.602955  1
  F  F22  1  0.000000  0.000000  0.289383  1
  F  F23  1  0.000000  0.000000  0.789383  1
