# generated using pymatgen
data_Sr7Th3Pt8
_symmetry_space_group_name_H-M   'P 1'
_cell_length_a   7.97343900
_cell_length_b   8.09247864
_cell_length_c   15.38037000
_cell_angle_alpha   89.95205337
_cell_angle_beta   90.00195455
_cell_angle_gamma   90.11677426
_symmetry_Int_Tables_number   1
_chemical_formula_structural   Sr7Th3Pt8
_chemical_formula_sum   'Sr14 Th6 Pt16'
_cell_volume   992.41419381
_cell_formula_units_Z   2
loop_
 _symmetry_equiv_pos_site_id
 _symmetry_equiv_pos_as_xyz
  1  'x, y, z'
loop_
 _atom_site_type_symbol
 _atom_site_label
 _atom_site_symmetry_multiplicity
 _atom_site_fract_x
 _atom_site_fract_y
 _atom_site_fract_z
 _atom_site_occupancy
  Sr  Sr0  1  0.838601  0.665957  0.880992  1
  Sr  Sr1  1  0.495431  0.321173  0.904382  1
  Sr  Sr2  1  0.991870  0.176188  0.595850  1
  Sr  Sr3  1  0.507247  0.675397  0.406092  1
  Sr  Sr4  1  0.005290  0.821778  0.093542  1
  Sr  Sr5  1  0.505257  0.678027  0.092434  1
  Sr  Sr6  1  0.007513  0.823678  0.406269  1
  Sr  Sr7  1  0.491014  0.322856  0.595957  1
  Sr  Sr8  1  0.994020  0.181270  0.907026  1
  Sr  Sr9  1  0.178848  0.482303  0.751472  1
  Sr  Sr10  1  0.681321  0.017258  0.751468  1
  Sr  Sr11  1  0.814235  0.526427  0.251311  1
  Sr  Sr12  1  0.313598  0.972467  0.251203  1
  Sr  Sr13  1  0.337219  0.836291  0.879690  1
  Th  Th14  1  0.839850  0.659897  0.618826  1
  Th  Th15  1  0.660942  0.160576  0.379215  1
  Th  Th16  1  0.160778  0.335098  0.125050  1
  Th  Th17  1  0.659331  0.164810  0.124538  1
  Th  Th18  1  0.160939  0.337855  0.379351  1
  Th  Th19  1  0.340265  0.839370  0.618946  1
  Pt  Pt20  1  0.331302  0.061483  0.048005  1
  Pt  Pt21  1  0.832663  0.444132  0.458619  1
  Pt  Pt22  1  0.669564  0.947744  0.537866  1
  Pt  Pt23  1  0.179909  0.524359  0.971083  1
  Pt  Pt24  1  0.672686  0.979687  0.969448  1
  Pt  Pt25  1  0.168772  0.550662  0.538103  1
  Pt  Pt26  1  0.332410  0.054599  0.458830  1
  Pt  Pt27  1  0.834843  0.439220  0.048876  1
  Pt  Pt28  1  0.544991  0.638938  0.731974  1
  Pt  Pt29  1  0.045681  0.861514  0.731494  1
  Pt  Pt30  1  0.455481  0.351439  0.254016  1
  Pt  Pt31  1  0.954868  0.147047  0.254344  1
  Pt  Pt32  1  0.297340  0.112510  0.740491  1
  Pt  Pt33  1  0.795397  0.389056  0.741217  1
  Pt  Pt34  1  0.699566  0.897581  0.250740  1
  Pt  Pt35  1  0.200956  0.601355  0.251282  1
