# generated using pymatgen
data_Pr3Sn4RuPb2
_symmetry_space_group_name_H-M   'P 1'
_cell_length_a   8.84801503
_cell_length_b   8.84801468
_cell_length_c   13.64191900
_cell_angle_alpha   90.00000000
_cell_angle_beta   90.00000000
_cell_angle_gamma   148.77940865
_symmetry_Int_Tables_number   1
_chemical_formula_structural   Pr3Sn4RuPb2
_chemical_formula_sum   'Pr6 Sn8 Ru2 Pb4'
_cell_volume   553.57589428
_cell_formula_units_Z   2
loop_
 _symmetry_equiv_pos_site_id
 _symmetry_equiv_pos_as_xyz
  1  'x, y, z'
loop_
 _atom_site_type_symbol
 _atom_site_label
 _atom_site_symmetry_multiplicity
 _atom_site_fract_x
 _atom_site_fract_y
 _atom_site_fract_z
 _atom_site_occupancy
  Pr  Pr0  1  0.602527  0.397473  0.250000  1
  Pr  Pr1  1  0.397473  0.602527  0.750000  1
  Pr  Pr2  1  0.396887  0.603113  0.401992  1
  Pr  Pr3  1  0.603113  0.396887  0.598008  1
  Pr  Pr4  1  0.396887  0.603113  0.098008  1
  Pr  Pr5  1  0.603113  0.396887  0.901992  1
  Sn  Sn6  1  0.957129  0.042871  0.250000  1
  Sn  Sn7  1  0.042871  0.957129  0.750000  1
  Sn  Sn8  1  0.745774  0.254227  0.432591  1
  Sn  Sn9  1  0.254227  0.745773  0.567409  1
  Sn  Sn10  1  0.745774  0.254227  0.067409  1
  Sn  Sn11  1  0.254227  0.745773  0.932591  1
  Sn  Sn12  1  0.234258  0.765742  0.250000  1
  Sn  Sn13  1  0.765742  0.234258  0.750000  1
  Ru  Ru14  1  0.800136  0.199864  0.250000  1
  Ru  Ru15  1  0.199864  0.800136  0.750000  1
  Pb  Pb16  1  0.925826  0.074174  0.924236  1
  Pb  Pb17  1  0.074174  0.925826  0.075764  1
  Pb  Pb18  1  0.925826  0.074174  0.575764  1
  Pb  Pb19  1  0.074174  0.925826  0.424236  1
