# generated using pymatgen
data_Ta12Al5Ga3(CuC)4
_symmetry_space_group_name_H-M   'P 1'
_cell_length_a   8.27736939
_cell_length_b   8.27737020
_cell_length_c   8.27794706
_cell_angle_alpha   60.00878816
_cell_angle_beta   60.00878366
_cell_angle_gamma   60.02560241
_symmetry_Int_Tables_number   1
_chemical_formula_structural   Ta12Al5Ga3(CuC)4
_chemical_formula_sum   'Ta12 Al5 Ga3 Cu4 C4'
_cell_volume   401.17513478
_cell_formula_units_Z   1
loop_
 _symmetry_equiv_pos_site_id
 _symmetry_equiv_pos_as_xyz
  1  'x, y, z'
loop_
 _atom_site_type_symbol
 _atom_site_label
 _atom_site_symmetry_multiplicity
 _atom_site_fract_x
 _atom_site_fract_y
 _atom_site_fract_z
 _atom_site_occupancy
  Ta  Ta0  1  0.566743  0.933399  0.567059  1
  Ta  Ta1  1  0.317424  0.682808  0.683001  1
  Ta  Ta2  1  0.682948  0.316770  0.316789  1
  Ta  Ta3  1  0.316770  0.682948  0.316789  1
  Ta  Ta4  1  0.682748  0.682748  0.317612  1
  Ta  Ta5  1  0.316780  0.316780  0.683036  1
  Ta  Ta6  1  0.566620  0.566620  0.933364  1
  Ta  Ta7  1  0.933399  0.566743  0.567059  1
  Ta  Ta8  1  0.566915  0.933304  0.932616  1
  Ta  Ta9  1  0.932825  0.932825  0.567197  1
  Ta  Ta10  1  0.682808  0.317424  0.683001  1
  Ta  Ta11  1  0.933304  0.566915  0.932616  1
  Al  Al12  1  0.333070  0.333070  0.999611  1
  Al  Al13  1  0.916135  0.250563  0.916343  1
  Al  Al14  1  0.916255  0.916255  0.250310  1
  Al  Al15  1  0.250563  0.916135  0.916343  1
  Al  Al16  1  0.333227  0.333227  0.334128  1
  Ga  Ga17  1  0.916028  0.916028  0.916270  1
  Ga  Ga18  1  0.996994  0.334574  0.334111  1
  Ga  Ga19  1  0.334574  0.996994  0.334111  1
  Cu  Cu20  1  0.124640  0.124640  0.123135  1
  Cu  Cu21  1  0.623826  0.127616  0.125159  1
  Cu  Cu22  1  0.127616  0.623826  0.125159  1
  Cu  Cu23  1  0.125915  0.125915  0.625835  1
  C  C24  1  0.625269  0.625269  0.624346  1
  C  C25  1  0.124908  0.626066  0.624984  1
  C  C26  1  0.626066  0.124908  0.624984  1
  C  C27  1  0.625632  0.625632  0.125029  1
