# generated using pymatgen
data_BaNp2F9
_symmetry_space_group_name_H-M   'P 1'
_cell_length_a   7.16035621
_cell_length_b   7.15271830
_cell_length_c   8.94525600
_cell_angle_alpha   78.90488468
_cell_angle_beta   79.04385526
_cell_angle_gamma   60.46938844
_symmetry_Int_Tables_number   1
_chemical_formula_structural   BaNp2F9
_chemical_formula_sum   'Ba2 Np4 F18'
_cell_volume   388.73435165
_cell_formula_units_Z   2
loop_
 _symmetry_equiv_pos_site_id
 _symmetry_equiv_pos_as_xyz
  1  'x, y, z'
loop_
 _atom_site_type_symbol
 _atom_site_label
 _atom_site_symmetry_multiplicity
 _atom_site_fract_x
 _atom_site_fract_y
 _atom_site_fract_z
 _atom_site_occupancy
  Ba  Ba0  1  0.588099  0.351101  0.402171  1
  Ba  Ba1  1  0.350717  0.588810  0.901796  1
  Np  Np2  1  0.896979  0.705186  0.313474  1
  Np  Np3  1  0.291913  0.092413  0.193458  1
  Np  Np4  1  0.092189  0.291962  0.693442  1
  Np  Np5  1  0.704770  0.896930  0.813866  1
  F  F6  1  0.087168  0.909885  0.250430  1
  F  F7  1  0.911252  0.085926  0.750263  1
  F  F8  1  0.934785  0.378909  0.235783  1
  F  F9  1  0.626723  0.057109  0.255042  1
  F  F10  1  0.056027  0.626250  0.755498  1
  F  F11  1  0.379003  0.935110  0.735222  1
  F  F12  1  0.164155  0.529336  0.479357  1
  F  F13  1  0.477907  0.819906  0.023957  1
  F  F14  1  0.820393  0.477535  0.523865  1
  F  F15  1  0.528776  0.164479  0.979526  1
  F  F16  1  0.906327  0.768829  0.037256  1
  F  F17  1  0.226914  0.138141  0.453422  1
  F  F18  1  0.137891  0.226282  0.953254  1
  F  F19  1  0.768720  0.906055  0.537120  1
  F  F20  1  0.540299  0.748070  0.316545  1
  F  F21  1  0.265874  0.452283  0.190409  1
  F  F22  1  0.451975  0.266756  0.690707  1
  F  F23  1  0.747744  0.539337  0.816532  1
