# generated using pymatgen
data_Ho4As6Ru3Rh4
_symmetry_space_group_name_H-M   'P 1'
_cell_length_a   7.24619913
_cell_length_b   7.25386631
_cell_length_c   7.24619935
_cell_angle_alpha   109.53761050
_cell_angle_beta   109.29555641
_cell_angle_gamma   109.53761724
_symmetry_Int_Tables_number   1
_chemical_formula_structural   Ho4As6Ru3Rh4
_chemical_formula_sum   'Ho4 As6 Ru3 Rh4'
_cell_volume   293.35660060
_cell_formula_units_Z   1
loop_
 _symmetry_equiv_pos_site_id
 _symmetry_equiv_pos_as_xyz
  1  'x, y, z'
loop_
 _atom_site_type_symbol
 _atom_site_label
 _atom_site_symmetry_multiplicity
 _atom_site_fract_x
 _atom_site_fract_y
 _atom_site_fract_z
 _atom_site_occupancy
  Ho  Ho0  1  0.500126  0.500000  0.499874  1
  Ho  Ho1  1  0.000126  0.500000  0.999874  1
  Ho  Ho2  1  0.500258  0.000000  0.000327  1
  Ho  Ho3  1  0.999673  0.000000  0.499742  1
  As  As4  1  0.684021  0.000000  0.679329  1
  As  As5  1  0.682924  0.685139  0.002214  1
  As  As6  1  0.317192  0.318976  0.001784  1
  As  As7  1  0.998216  0.681024  0.682808  1
  As  As8  1  0.997786  0.314861  0.317076  1
  As  As9  1  0.320671  0.000000  0.315979  1
  Ru  Ru10  1  0.500499  0.749687  0.249188  1
  Ru  Ru11  1  0.750812  0.250313  0.499501  1
  Ru  Ru12  1  0.000046  0.000000  0.999954  1
  Rh  Rh13  1  0.249090  0.748065  0.498975  1
  Rh  Rh14  1  0.248768  0.500000  0.751232  1
  Rh  Rh15  1  0.501025  0.251935  0.750910  1
  Rh  Rh16  1  0.748768  0.500000  0.251232  1
