# generated using pymatgen
data_Eu2CuSb4Pd3
_symmetry_space_group_name_H-M   'P 1'
_cell_length_a   4.60315100
_cell_length_b   4.60315100
_cell_length_c   10.91863000
_cell_angle_alpha   90.00000000
_cell_angle_beta   90.00000000
_cell_angle_gamma   90.00000000
_symmetry_Int_Tables_number   1
_chemical_formula_structural   Eu2CuSb4Pd3
_chemical_formula_sum   'Eu2 Cu1 Sb4 Pd3'
_cell_volume   231.35484156
_cell_formula_units_Z   1
loop_
 _symmetry_equiv_pos_site_id
 _symmetry_equiv_pos_as_xyz
  1  'x, y, z'
loop_
 _atom_site_type_symbol
 _atom_site_label
 _atom_site_symmetry_multiplicity
 _atom_site_fract_x
 _atom_site_fract_y
 _atom_site_fract_z
 _atom_site_occupancy
  Eu  Eu0  1  0.500000  0.000000  0.239397  1
  Eu  Eu1  1  0.000000  0.500000  0.760603  1
  Cu  Cu2  1  0.000000  0.000000  0.000000  1
  Sb  Sb3  1  0.000000  0.000000  0.500000  1
  Sb  Sb4  1  0.500000  0.500000  0.500000  1
  Sb  Sb5  1  0.500000  0.000000  0.872346  1
  Sb  Sb6  1  0.000000  0.500000  0.127654  1
  Pd  Pd7  1  0.500000  0.500000  0.000000  1
  Pd  Pd8  1  0.500000  0.000000  0.631635  1
  Pd  Pd9  1  0.000000  0.500000  0.368365  1
