# generated using pymatgen
data_CaEu2Ni7B2
_symmetry_space_group_name_H-M   'P 1'
_cell_length_a   7.77507112
_cell_length_b   7.77507182
_cell_length_c   7.77507219
_cell_angle_alpha   38.58658594
_cell_angle_beta   38.58659410
_cell_angle_gamma   38.58658677
_symmetry_Int_Tables_number   1
_chemical_formula_structural   CaEu2Ni7B2
_chemical_formula_sum   'Ca1 Eu2 Ni7 B2'
_cell_volume   164.29946005
_cell_formula_units_Z   1
loop_
 _symmetry_equiv_pos_site_id
 _symmetry_equiv_pos_as_xyz
  1  'x, y, z'
loop_
 _atom_site_type_symbol
 _atom_site_label
 _atom_site_symmetry_multiplicity
 _atom_site_fract_x
 _atom_site_fract_y
 _atom_site_fract_z
 _atom_site_occupancy
  Ca  Ca0  1  0.000000  0.000000  0.000000  1
  Eu  Eu1  1  0.856268  0.856268  0.856268  1
  Eu  Eu2  1  0.143732  0.143732  0.143732  1
  Ni  Ni3  1  0.438904  0.929808  0.438904  1
  Ni  Ni4  1  0.438904  0.438904  0.929808  1
  Ni  Ni5  1  0.929808  0.438904  0.438904  1
  Ni  Ni6  1  0.561096  0.070192  0.561096  1
  Ni  Ni7  1  0.561096  0.561096  0.070192  1
  Ni  Ni8  1  0.070192  0.561096  0.561096  1
  Ni  Ni9  1  0.500000  0.500000  0.500000  1
  B  B10  1  0.668743  0.668743  0.668743  1
  B  B11  1  0.331257  0.331257  0.331257  1
