# generated using pymatgen
data_SmDy2Ni2Rh7
_symmetry_space_group_name_H-M   'P 1'
_cell_length_a   5.29221060
_cell_length_b   5.29221052
_cell_length_c   8.96839836
_cell_angle_alpha   72.83960049
_cell_angle_beta   72.83960153
_cell_angle_gamma   60.00001036
_symmetry_Int_Tables_number   1
_chemical_formula_structural   SmDy2Ni2Rh7
_chemical_formula_sum   'Sm1 Dy2 Ni2 Rh7'
_cell_volume   204.51657727
_cell_formula_units_Z   1
loop_
 _symmetry_equiv_pos_site_id
 _symmetry_equiv_pos_as_xyz
  1  'x, y, z'
loop_
 _atom_site_type_symbol
 _atom_site_label
 _atom_site_symmetry_multiplicity
 _atom_site_fract_x
 _atom_site_fract_y
 _atom_site_fract_z
 _atom_site_occupancy
  Sm  Sm0  1  0.000000  0.000000  0.000000  1
  Dy  Dy1  1  0.139538  0.139538  0.581387  1
  Dy  Dy2  1  0.860462  0.860462  0.418613  1
  Ni  Ni3  1  0.333329  0.333329  0.000013  1
  Ni  Ni4  1  0.666671  0.666671  0.999987  1
  Rh  Rh5  1  0.078175  0.581159  0.759508  1
  Rh  Rh6  1  0.581159  0.581159  0.759508  1
  Rh  Rh7  1  0.581159  0.078175  0.759508  1
  Rh  Rh8  1  0.921825  0.418841  0.240492  1
  Rh  Rh9  1  0.418841  0.418841  0.240492  1
  Rh  Rh10  1  0.418841  0.921825  0.240492  1
  Rh  Rh11  1  0.500000  0.500000  0.500000  1
