# generated using pymatgen
data_Nd4Ho6BiPb7
_symmetry_space_group_name_H-M   'P 1'
_cell_length_a   8.32054300
_cell_length_b   8.40579831
_cell_length_c   15.81440600
_cell_angle_alpha   90.07022073
_cell_angle_beta   90.00000000
_cell_angle_gamma   90.00000000
_symmetry_Int_Tables_number   1
_chemical_formula_structural   Nd4Ho6BiPb7
_chemical_formula_sum   'Nd8 Ho12 Bi2 Pb14'
_cell_volume   1106.07147630
_cell_formula_units_Z   2
loop_
 _symmetry_equiv_pos_site_id
 _symmetry_equiv_pos_as_xyz
  1  'x, y, z'
loop_
 _atom_site_type_symbol
 _atom_site_label
 _atom_site_symmetry_multiplicity
 _atom_site_fract_x
 _atom_site_fract_y
 _atom_site_fract_z
 _atom_site_occupancy
  Nd  Nd0  1  0.473464  0.675893  0.598615  1
  Nd  Nd1  1  0.973464  0.824107  0.901385  1
  Nd  Nd2  1  0.528691  0.322275  0.098717  1
  Nd  Nd3  1  0.028691  0.177725  0.401283  1
  Nd  Nd4  1  0.525228  0.325085  0.401974  1
  Nd  Nd5  1  0.025228  0.174915  0.098026  1
  Nd  Nd6  1  0.476846  0.678416  0.901048  1
  Nd  Nd7  1  0.976846  0.821584  0.598952  1
  Ho  Ho8  1  0.633393  0.159331  0.623394  1
  Ho  Ho9  1  0.133393  0.340669  0.876606  1
  Ho  Ho10  1  0.367569  0.844502  0.123129  1
  Ho  Ho11  1  0.867569  0.655498  0.376871  1
  Ho  Ho12  1  0.362257  0.841252  0.377339  1
  Ho  Ho13  1  0.862257  0.658748  0.122661  1
  Ho  Ho14  1  0.634198  0.157815  0.877276  1
  Ho  Ho15  1  0.134198  0.342185  0.622724  1
  Ho  Ho16  1  0.800454  0.495774  0.750595  1
  Ho  Ho17  1  0.300454  0.004226  0.749405  1
  Ho  Ho18  1  0.200079  0.503780  0.251381  1
  Ho  Ho19  1  0.700079  0.996220  0.248619  1
  Bi  Bi20  1  0.707150  0.959962  0.455881  1
  Bi  Bi21  1  0.207150  0.540038  0.044119  1
  Pb  Pb22  1  0.292264  0.039544  0.956473  1
  Pb  Pb23  1  0.792264  0.460456  0.543527  1
  Pb  Pb24  1  0.290608  0.039642  0.543536  1
  Pb  Pb25  1  0.790608  0.460358  0.956464  1
  Pb  Pb26  1  0.706899  0.960851  0.043546  1
  Pb  Pb27  1  0.206899  0.539149  0.456454  1
  Pb  Pb28  1  0.438542  0.369826  0.750738  1
  Pb  Pb29  1  0.938542  0.130174  0.749262  1
  Pb  Pb30  1  0.560790  0.630518  0.250489  1
  Pb  Pb31  1  0.060790  0.869482  0.249511  1
  Pb  Pb32  1  0.663464  0.849544  0.749461  1
  Pb  Pb33  1  0.163464  0.650456  0.750539  1
  Pb  Pb34  1  0.338104  0.151076  0.250080  1
  Pb  Pb35  1  0.838104  0.348924  0.249920  1
