# generated using pymatgen
data_Tm8Lu7Sc5Bi12
_symmetry_space_group_name_H-M   'P 1'
_cell_length_a   8.01835373
_cell_length_b   9.29269451
_cell_length_c   11.79341193
_cell_angle_alpha   89.93913153
_cell_angle_beta   89.89184669
_cell_angle_gamma   90.02375935
_symmetry_Int_Tables_number   1
_chemical_formula_structural   Tm8Lu7Sc5Bi12
_chemical_formula_sum   'Tm8 Lu7 Sc5 Bi12'
_cell_volume   878.74988999
_cell_formula_units_Z   1
loop_
 _symmetry_equiv_pos_site_id
 _symmetry_equiv_pos_as_xyz
  1  'x, y, z'
loop_
 _atom_site_type_symbol
 _atom_site_label
 _atom_site_symmetry_multiplicity
 _atom_site_fract_x
 _atom_site_fract_y
 _atom_site_fract_z
 _atom_site_occupancy
  Tm  Tm0  1  0.354329  0.249213  0.283228  1
  Tm  Tm1  1  0.645820  0.749952  0.716551  1
  Tm  Tm2  1  0.147246  0.747567  0.781915  1
  Tm  Tm3  1  0.855582  0.249925  0.217706  1
  Tm  Tm4  1  0.184718  0.250821  0.782281  1
  Tm  Tm5  1  0.816048  0.749308  0.218906  1
  Tm  Tm6  1  0.315818  0.749544  0.281816  1
  Tm  Tm7  1  0.684964  0.249341  0.717693  1
  Lu  Lu8  1  0.193780  0.067874  0.059708  1
  Lu  Lu9  1  0.806606  0.932290  0.940848  1
  Lu  Lu10  1  0.306044  0.933607  0.559335  1
  Lu  Lu11  1  0.806846  0.567290  0.940528  1
  Lu  Lu12  1  0.692134  0.067956  0.441190  1
  Lu  Lu13  1  0.194379  0.432182  0.059310  1
  Lu  Lu14  1  0.693079  0.432462  0.440415  1
  Sc  Sc15  1  0.020814  0.250113  0.511418  1
  Sc  Sc16  1  0.978596  0.748890  0.488996  1
  Sc  Sc17  1  0.478337  0.749940  0.011614  1
  Sc  Sc18  1  0.521195  0.249786  0.987397  1
  Sc  Sc19  1  0.305182  0.569553  0.558404  1
  Bi  Bi20  1  0.396016  0.256172  0.544112  1
  Bi  Bi21  1  0.597158  0.748387  0.458147  1
  Bi  Bi22  1  0.101280  0.750123  0.042571  1
  Bi  Bi23  1  0.898003  0.249715  0.957206  1
  Bi  Bi24  1  0.066444  0.003294  0.331404  1
  Bi  Bi25  1  0.933950  0.995174  0.669880  1
  Bi  Bi26  1  0.433692  0.995914  0.829697  1
  Bi  Bi27  1  0.935682  0.504085  0.668681  1
  Bi  Bi28  1  0.566947  0.003510  0.169455  1
  Bi  Bi29  1  0.068388  0.496092  0.332260  1
  Bi  Bi30  1  0.566787  0.495749  0.169084  1
  Bi  Bi31  1  0.434135  0.504172  0.828245  1
