# generated using pymatgen
data_Y3Sc5Cr(FeB8)3
_symmetry_space_group_name_H-M   'P 1'
_cell_length_a   3.41863100
_cell_length_b   8.91536123
_cell_length_c   11.28739904
_cell_angle_alpha   89.88237794
_cell_angle_beta   90.00000000
_cell_angle_gamma   90.00000000
_symmetry_Int_Tables_number   1
_chemical_formula_structural   Y3Sc5Cr(FeB8)3
_chemical_formula_sum   'Y3 Sc5 Cr1 Fe3 B24'
_cell_volume   344.02035116
_cell_formula_units_Z   1
loop_
 _symmetry_equiv_pos_site_id
 _symmetry_equiv_pos_as_xyz
  1  'x, y, z'
loop_
 _atom_site_type_symbol
 _atom_site_label
 _atom_site_symmetry_multiplicity
 _atom_site_fract_x
 _atom_site_fract_y
 _atom_site_fract_z
 _atom_site_occupancy
  Y  Y0  1  0.000000  0.822217  0.084957  1
  Y  Y1  1  0.000000  0.178667  0.913522  1
  Y  Y2  1  0.000000  0.322179  0.415192  1
  Sc  Sc3  1  0.000000  0.677797  0.586418  1
  Sc  Sc4  1  0.000000  0.443713  0.130910  1
  Sc  Sc5  1  0.000000  0.557518  0.869984  1
  Sc  Sc6  1  0.000000  0.940951  0.371058  1
  Sc  Sc7  1  0.000000  0.054287  0.628693  1
  Cr  Cr8  1  0.000000  0.362247  0.680655  1
  Fe  Fe9  1  0.000000  0.140339  0.182377  1
  Fe  Fe10  1  0.000000  0.858590  0.817213  1
  Fe  Fe11  1  0.000000  0.641209  0.318928  1
  B  B12  1  0.500000  0.055862  0.068781  1
  B  B13  1  0.500000  0.944143  0.930291  1
  B  B14  1  0.500000  0.556653  0.433247  1
  B  B15  1  0.500000  0.449520  0.567124  1
  B  B16  1  0.500000  0.251289  0.083484  1
  B  B17  1  0.500000  0.749055  0.915900  1
  B  B18  1  0.500000  0.749620  0.419803  1
  B  B19  1  0.500000  0.247971  0.582001  1
  B  B20  1  0.500000  0.291697  0.235162  1
  B  B21  1  0.500000  0.707659  0.763752  1
  B  B22  1  0.500000  0.791598  0.266770  1
  B  B23  1  0.500000  0.206061  0.734330  1
  B  B24  1  0.500000  0.128423  0.315901  1
  B  B25  1  0.500000  0.868327  0.683061  1
  B  B26  1  0.500000  0.629649  0.184986  1
  B  B27  1  0.500000  0.372240  0.815622  1
  B  B28  1  0.500000  0.484891  0.287260  1
  B  B29  1  0.500000  0.521972  0.712084  1
  B  B30  1  0.500000  0.983790  0.213721  1
  B  B31  1  0.500000  0.014989  0.785448  1
  B  B32  1  0.500000  0.096767  0.472830  1
  B  B33  1  0.500000  0.896819  0.527444  1
  B  B34  1  0.500000  0.598617  0.026911  1
  B  B35  1  0.500000  0.402677  0.974181  1
