# generated using pymatgen
data_Zn5AsRh6
_symmetry_space_group_name_H-M   'P 1'
_cell_length_a   3.05433200
_cell_length_b   4.28532438
_cell_length_c   12.86544243
_cell_angle_alpha   90.06718295
_cell_angle_beta   90.00000000
_cell_angle_gamma   90.00000000
_symmetry_Int_Tables_number   1
_chemical_formula_structural   Zn5AsRh6
_chemical_formula_sum   'Zn5 As1 Rh6'
_cell_volume   168.39313073
_cell_formula_units_Z   1
loop_
 _symmetry_equiv_pos_site_id
 _symmetry_equiv_pos_as_xyz
  1  'x, y, z'
loop_
 _atom_site_type_symbol
 _atom_site_label
 _atom_site_symmetry_multiplicity
 _atom_site_fract_x
 _atom_site_fract_y
 _atom_site_fract_z
 _atom_site_occupancy
  Zn  Zn0  1  0.000000  0.248525  0.259180  1
  Zn  Zn1  1  0.000000  0.751262  0.750201  1
  Zn  Zn2  1  0.000000  0.255700  0.583266  1
  Zn  Zn3  1  0.000000  0.752970  0.416572  1
  Zn  Zn4  1  0.000000  0.245299  0.907388  1
  As  As5  1  0.000000  0.745679  0.083382  1
  Rh  Rh6  1  0.500000  0.748319  0.239519  1
  Rh  Rh7  1  0.500000  0.251582  0.748296  1
  Rh  Rh8  1  0.500000  0.755657  0.583366  1
  Rh  Rh9  1  0.500000  0.253083  0.418257  1
  Rh  Rh10  1  0.500000  0.745605  0.927230  1
  Rh  Rh11  1  0.500000  0.246319  0.083343  1
