# generated using pymatgen
data_Th3Mg3OsPt2
_symmetry_space_group_name_H-M   'P 1'
_cell_length_a   7.61152300
_cell_length_b   7.61152264
_cell_length_c   4.04443900
_cell_angle_alpha   90.00000000
_cell_angle_beta   90.00000000
_cell_angle_gamma   120.00001459
_symmetry_Int_Tables_number   1
_chemical_formula_structural   Th3Mg3OsPt2
_chemical_formula_sum   'Th3 Mg3 Os1 Pt2'
_cell_volume   202.92332277
_cell_formula_units_Z   1
loop_
 _symmetry_equiv_pos_site_id
 _symmetry_equiv_pos_as_xyz
  1  'x, y, z'
loop_
 _atom_site_type_symbol
 _atom_site_label
 _atom_site_symmetry_multiplicity
 _atom_site_fract_x
 _atom_site_fract_y
 _atom_site_fract_z
 _atom_site_occupancy
  Th  Th0  1  0.423758  0.412072  0.500000  1
  Th  Th1  1  0.587928  0.011686  0.500000  1
  Th  Th2  1  0.988314  0.576242  0.500000  1
  Mg  Mg3  1  0.760014  0.760686  0.000000  1
  Mg  Mg4  1  0.239314  0.999328  0.000000  1
  Mg  Mg5  1  0.000672  0.239986  0.000000  1
  Os  Os6  1  0.666667  0.333333  0.000000  1
  Pt  Pt7  1  0.333333  0.666667  0.000000  1
  Pt  Pt8  1  0.000000  0.000000  0.500000  1
