# generated using pymatgen
data_La10IrOs2Ru
_symmetry_space_group_name_H-M   'P 1'
_cell_length_a   9.17262833
_cell_length_b   9.13219496
_cell_length_c   7.45443367
_cell_angle_alpha   84.95912002
_cell_angle_beta   84.86475461
_cell_angle_gamma   43.19062165
_symmetry_Int_Tables_number   1
_chemical_formula_structural   La10IrOs2Ru
_chemical_formula_sum   'La10 Ir1 Os2 Ru1'
_cell_volume   425.42751955
_cell_formula_units_Z   1
loop_
 _symmetry_equiv_pos_site_id
 _symmetry_equiv_pos_as_xyz
  1  'x, y, z'
loop_
 _atom_site_type_symbol
 _atom_site_label
 _atom_site_symmetry_multiplicity
 _atom_site_fract_x
 _atom_site_fract_y
 _atom_site_fract_z
 _atom_site_occupancy
  La  La0  1  0.016323  0.800834  0.907863  1
  La  La1  1  0.196299  0.988884  0.592605  1
  La  La2  1  0.988789  0.197209  0.094339  1
  La  La3  1  0.808109  0.008643  0.412363  1
  La  La4  1  0.356262  0.211997  0.818949  1
  La  La5  1  0.785860  0.642904  0.679278  1
  La  La6  1  0.641096  0.785691  0.177743  1
  La  La7  1  0.210713  0.361487  0.321683  1
  La  La8  1  0.572271  0.429127  0.748991  1
  La  La9  1  0.428477  0.571910  0.249919  1
  Ir  Ir10  1  0.595322  0.179051  0.078894  1
  Os  Os11  1  0.176278  0.600318  0.579433  1
  Os  Os12  1  0.398072  0.825751  0.921351  1
  Ru  Ru13  1  0.826129  0.396193  0.416591  1
