# generated using pymatgen
data_Ba3Ga3Si2OsO14
_symmetry_space_group_name_H-M   'P 1'
_cell_length_a   8.57639600
_cell_length_b   8.57639017
_cell_length_c   5.28654200
_cell_angle_alpha   89.99999603
_cell_angle_beta   90.00005597
_cell_angle_gamma   119.99997002
_symmetry_Int_Tables_number   1
_chemical_formula_structural   Ba3Ga3Si2OsO14
_chemical_formula_sum   'Ba3 Ga3 Si2 Os1 O14'
_cell_volume   336.75325757
_cell_formula_units_Z   1
loop_
 _symmetry_equiv_pos_site_id
 _symmetry_equiv_pos_as_xyz
  1  'x, y, z'
loop_
 _atom_site_type_symbol
 _atom_site_label
 _atom_site_symmetry_multiplicity
 _atom_site_fract_x
 _atom_site_fract_y
 _atom_site_fract_z
 _atom_site_occupancy
  Ba  Ba0  1  0.429058  0.999999  0.000001  1
  Ba  Ba1  1  0.000000  0.429062  0.000000  1
  Ba  Ba2  1  0.570942  0.570940  0.999999  1
  Ga  Ga3  1  0.749104  0.000000  0.500000  1
  Ga  Ga4  1  0.000000  0.749102  0.500001  1
  Ga  Ga5  1  0.250897  0.250899  0.500001  1
  Si  Si6  1  0.333336  0.666667  0.481466  1
  Si  Si7  1  0.666664  0.333331  0.518535  1
  Os  Os8  1  0.000000  0.000001  0.000000  1
  O  O9  1  0.666663  0.333330  0.213998  1
  O  O10  1  0.888061  0.785826  0.225128  1
  O  O11  1  0.897768  0.111943  0.225130  1
  O  O12  1  0.214173  0.102234  0.225131  1
  O  O13  1  0.526794  0.823998  0.356055  1
  O  O14  1  0.297210  0.473209  0.356057  1
  O  O15  1  0.176004  0.702794  0.356061  1
  O  O16  1  0.823997  0.526789  0.643940  1
  O  O17  1  0.702791  0.176000  0.643943  1
  O  O18  1  0.473206  0.297204  0.643946  1
  O  O19  1  0.785828  0.888060  0.774870  1
  O  O20  1  0.102232  0.214174  0.774871  1
  O  O21  1  0.111939  0.897765  0.774873  1
  O  O22  1  0.333338  0.666668  0.786002  1
