# generated using pymatgen
data_Hf3TiNbGaGe2
_symmetry_space_group_name_H-M   'P 1'
_cell_length_a   7.89617106
_cell_length_b   7.89617222
_cell_length_c   5.38496014
_cell_angle_alpha   90.01298955
_cell_angle_beta   90.01299276
_cell_angle_gamma   120.05548292
_symmetry_Int_Tables_number   1
_chemical_formula_structural   Hf3TiNbGaGe2
_chemical_formula_sum   'Hf6 Ti2 Nb2 Ga2 Ge4'
_cell_volume   290.60505307
_cell_formula_units_Z   2
loop_
 _symmetry_equiv_pos_site_id
 _symmetry_equiv_pos_as_xyz
  1  'x, y, z'
loop_
 _atom_site_type_symbol
 _atom_site_label
 _atom_site_symmetry_multiplicity
 _atom_site_fract_x
 _atom_site_fract_y
 _atom_site_fract_z
 _atom_site_occupancy
  Hf  Hf0  1  0.252139  0.001406  0.246264  1
  Hf  Hf1  1  0.747861  0.998594  0.753736  1
  Hf  Hf2  1  0.001406  0.252139  0.246264  1
  Hf  Hf3  1  0.998594  0.747861  0.753736  1
  Hf  Hf4  1  0.751889  0.751889  0.245589  1
  Hf  Hf5  1  0.248111  0.248111  0.754411  1
  Ti  Ti6  1  0.668510  0.331490  0.500000  1
  Ti  Ti7  1  0.331490  0.668510  0.500000  1
  Nb  Nb8  1  0.331204  0.668796  0.000000  1
  Nb  Nb9  1  0.668796  0.331204  0.000000  1
  Ga  Ga10  1  0.399367  0.399367  0.255251  1
  Ga  Ga11  1  0.600633  0.600633  0.744749  1
  Ge  Ge12  1  0.606099  0.999141  0.255207  1
  Ge  Ge13  1  0.393901  0.000859  0.744793  1
  Ge  Ge14  1  0.999141  0.606099  0.255207  1
  Ge  Ge15  1  0.000859  0.393901  0.744793  1
