# generated using pymatgen
data_Mn3Fe2Si3W4
_symmetry_space_group_name_H-M   'P 1'
_cell_length_a   4.75456509
_cell_length_b   4.75456495
_cell_length_c   7.74607100
_cell_angle_alpha   90.00000000
_cell_angle_beta   90.00000000
_cell_angle_gamma   120.10969998
_symmetry_Int_Tables_number   1
_chemical_formula_structural   Mn3Fe2Si3W4
_chemical_formula_sum   'Mn3 Fe2 Si3 W4'
_cell_volume   151.47904252
_cell_formula_units_Z   1
loop_
 _symmetry_equiv_pos_site_id
 _symmetry_equiv_pos_as_xyz
  1  'x, y, z'
loop_
 _atom_site_type_symbol
 _atom_site_label
 _atom_site_symmetry_multiplicity
 _atom_site_fract_x
 _atom_site_fract_y
 _atom_site_fract_z
 _atom_site_occupancy
  Mn  Mn0  1  0.339817  0.169948  0.750000  1
  Mn  Mn1  1  0.830052  0.660183  0.750000  1
  Mn  Mn2  1  0.826798  0.173202  0.750000  1
  Fe  Fe3  1  0.173690  0.328030  0.250000  1
  Fe  Fe4  1  0.671970  0.826310  0.250000  1
  Si  Si5  1  0.991969  0.008031  0.998490  1
  Si  Si6  1  0.991969  0.008031  0.501510  1
  Si  Si7  1  0.181507  0.818493  0.250000  1
  W  W8  1  0.330949  0.669051  0.933739  1
  W  W9  1  0.665165  0.334835  0.438989  1
  W  W10  1  0.665165  0.334835  0.061011  1
  W  W11  1  0.330949  0.669051  0.566261  1
