# generated using pymatgen
data_CePr5Mg(SiSe7)2
_symmetry_space_group_name_H-M   'P 1'
_cell_length_a   10.79739146
_cell_length_b   10.77197558
_cell_length_c   6.05417373
_cell_angle_alpha   89.96674854
_cell_angle_beta   90.08587600
_cell_angle_gamma   119.98651235
_symmetry_Int_Tables_number   1
_chemical_formula_structural   CePr5Mg(SiSe7)2
_chemical_formula_sum   'Ce1 Pr5 Mg1 Si2 Se14'
_cell_volume   609.89943557
_cell_formula_units_Z   1
loop_
 _symmetry_equiv_pos_site_id
 _symmetry_equiv_pos_as_xyz
  1  'x, y, z'
loop_
 _atom_site_type_symbol
 _atom_site_label
 _atom_site_symmetry_multiplicity
 _atom_site_fract_x
 _atom_site_fract_y
 _atom_site_fract_z
 _atom_site_occupancy
  Ce  Ce0  1  0.977800  0.434258  0.752016  1
  Pr  Pr1  1  0.457152  0.023308  0.751945  1
  Pr  Pr2  1  0.566073  0.542719  0.751874  1
  Pr  Pr3  1  0.689475  0.899325  0.248930  1
  Pr  Pr4  1  0.209737  0.310528  0.248960  1
  Pr  Pr5  1  0.100676  0.790158  0.248842  1
  Mg  Mg6  1  0.333531  0.666812  0.513455  1
  Si  Si7  1  0.666714  0.333400  0.165085  1
  Si  Si8  1  0.000124  0.000090  0.659692  1
  Se  Se9  1  0.666514  0.333255  0.539177  1
  Se  Se10  1  0.000067  0.000021  0.034352  1
  Se  Se11  1  0.083684  0.504247  0.274066  1
  Se  Se12  1  0.420214  0.915751  0.274422  1
  Se  Se13  1  0.495346  0.579508  0.274215  1
  Se  Se14  1  0.582469  0.831288  0.755897  1
  Se  Se15  1  0.248705  0.417716  0.755704  1
  Se  Se16  1  0.168590  0.750728  0.755911  1
  Se  Se17  1  0.813020  0.557579  0.015434  1
  Se  Se18  1  0.744396  0.186771  0.015162  1
  Se  Se19  1  0.442553  0.255737  0.015092  1
  Se  Se20  1  0.853371  0.775613  0.510965  1
  Se  Se21  1  0.922357  0.146883  0.511465  1
  Se  Se22  1  0.224099  0.077635  0.511377  1
