# generated using pymatgen
data_La8Tb5Y7Sn16
_symmetry_space_group_name_H-M   'P 1'
_cell_length_a   8.01239725
_cell_length_b   8.43489200
_cell_length_c   15.93954600
_cell_angle_alpha   90.02261973
_cell_angle_beta   90.07157329
_cell_angle_gamma   90.08523381
_symmetry_Int_Tables_number   1
_chemical_formula_structural   La8Tb5Y7Sn16
_chemical_formula_sum   'La8 Tb5 Y7 Sn16'
_cell_volume   1077.25146467
_cell_formula_units_Z   1
loop_
 _symmetry_equiv_pos_site_id
 _symmetry_equiv_pos_as_xyz
  1  'x, y, z'
loop_
 _atom_site_type_symbol
 _atom_site_label
 _atom_site_symmetry_multiplicity
 _atom_site_fract_x
 _atom_site_fract_y
 _atom_site_fract_z
 _atom_site_occupancy
  La  La0  1  0.498732  0.322195  0.903700  1
  La  La1  1  0.998575  0.177557  0.596327  1
  La  La2  1  0.501370  0.677665  0.403430  1
  La  La3  1  0.001368  0.822384  0.096323  1
  La  La4  1  0.501542  0.677707  0.096172  1
  La  La5  1  0.001862  0.821990  0.403414  1
  La  La6  1  0.498055  0.321891  0.596292  1
  La  La7  1  0.998473  0.178038  0.904003  1
  Tb  Tb8  1  0.334839  0.832168  0.875440  1
  Tb  Tb9  1  0.834322  0.667892  0.624692  1
  Tb  Tb10  1  0.666128  0.167729  0.375319  1
  Tb  Tb11  1  0.165682  0.332228  0.124413  1
  Tb  Tb12  1  0.665835  0.167608  0.124478  1
  Y  Y13  1  0.166376  0.332610  0.375486  1
  Y  Y14  1  0.333283  0.832777  0.624550  1
  Y  Y15  1  0.833669  0.667241  0.875688  1
  Y  Y16  1  0.166547  0.500192  0.750470  1
  Y  Y17  1  0.666750  0.999794  0.750127  1
  Y  Y18  1  0.833267  0.500152  0.249894  1
  Y  Y19  1  0.333163  0.000326  0.249698  1
  Sn  Sn20  1  0.323682  0.039108  0.040988  1
  Sn  Sn21  1  0.824441  0.461117  0.459022  1
  Sn  Sn22  1  0.675665  0.960585  0.540773  1
  Sn  Sn23  1  0.176647  0.539331  0.959174  1
  Sn  Sn24  1  0.676437  0.960947  0.958956  1
  Sn  Sn25  1  0.175191  0.538701  0.541198  1
  Sn  Sn26  1  0.324826  0.038823  0.458787  1
  Sn  Sn27  1  0.823696  0.461112  0.041161  1
  Sn  Sn28  1  0.530177  0.623234  0.749647  1
  Sn  Sn29  1  0.030103  0.876824  0.750450  1
  Sn  Sn30  1  0.469616  0.376758  0.249944  1
  Sn  Sn31  1  0.969913  0.123315  0.250100  1
  Sn  Sn32  1  0.300167  0.141892  0.750078  1
  Sn  Sn33  1  0.800234  0.358031  0.749979  1
  Sn  Sn34  1  0.699565  0.858232  0.249955  1
  Sn  Sn35  1  0.199804  0.641844  0.249871  1
