# generated using pymatgen
data_Tb6Ce4AgSn5HgSb
_symmetry_space_group_name_H-M   'P 1'
_cell_length_a   6.41510900
_cell_length_b   9.46384682
_cell_length_c   9.46384600
_cell_angle_alpha   119.99999713
_cell_angle_beta   90.00000000
_cell_angle_gamma   90.00000000
_symmetry_Int_Tables_number   1
_chemical_formula_structural   Tb6Ce4AgSn5HgSb
_chemical_formula_sum   'Tb6 Ce4 Ag1 Sn5 Hg1 Sb1'
_cell_volume   497.58817512
_cell_formula_units_Z   1
loop_
 _symmetry_equiv_pos_site_id
 _symmetry_equiv_pos_as_xyz
  1  'x, y, z'
loop_
 _atom_site_type_symbol
 _atom_site_label
 _atom_site_symmetry_multiplicity
 _atom_site_fract_x
 _atom_site_fract_y
 _atom_site_fract_z
 _atom_site_occupancy
  Tb  Tb0  1  0.746134  0.714646  0.714646  1
  Tb  Tb1  1  0.253476  0.284105  0.284105  1
  Tb  Tb2  1  0.746246  0.000033  0.283779  1
  Tb  Tb3  1  0.253854  0.000580  0.715384  1
  Tb  Tb4  1  0.746246  0.283779  0.000033  1
  Tb  Tb5  1  0.253854  0.715384  0.000580  1
  Ce  Ce6  1  0.000489  0.667100  0.333670  1
  Ce  Ce7  1  0.000489  0.333670  0.667100  1
  Ce  Ce8  1  0.499484  0.333840  0.667142  1
  Ce  Ce9  1  0.499484  0.667142  0.333840  1
  Ag  Ag10  1  0.499171  0.998747  0.998747  1
  Sn  Sn11  1  0.250024  0.630481  0.630481  1
  Sn  Sn12  1  0.749811  0.000272  0.629980  1
  Sn  Sn13  1  0.250195  0.000562  0.370198  1
  Sn  Sn14  1  0.749811  0.629980  0.000272  1
  Sn  Sn15  1  0.250195  0.370198  0.000562  1
  Hg  Hg16  1  0.001201  0.998420  0.998420  1
  Sb  Sb17  1  0.749836  0.371062  0.371062  1
