# generated using pymatgen
data_Pr2Fe3P6Ir6Rh
_symmetry_space_group_name_H-M   'P 1'
_cell_length_a   3.94216700
_cell_length_b   10.72247200
_cell_length_c   12.43922400
_cell_angle_alpha   90.00000000
_cell_angle_beta   90.00000000
_cell_angle_gamma   90.00000000
_symmetry_Int_Tables_number   1
_chemical_formula_structural   Pr2Fe3P6Ir6Rh
_chemical_formula_sum   'Pr4 Fe6 P12 Ir12 Rh2'
_cell_volume   525.80320310
_cell_formula_units_Z   2
loop_
 _symmetry_equiv_pos_site_id
 _symmetry_equiv_pos_as_xyz
  1  'x, y, z'
loop_
 _atom_site_type_symbol
 _atom_site_label
 _atom_site_symmetry_multiplicity
 _atom_site_fract_x
 _atom_site_fract_y
 _atom_site_fract_z
 _atom_site_occupancy
  Pr  Pr0  1  0.250000  0.577081  0.712819  1
  Pr  Pr1  1  0.250000  0.922919  0.212819  1
  Pr  Pr2  1  0.750000  0.415591  0.289219  1
  Pr  Pr3  1  0.750000  0.084409  0.789219  1
  Fe  Fe4  1  0.750000  0.124992  0.303639  1
  Fe  Fe5  1  0.750000  0.375008  0.803639  1
  Fe  Fe6  1  0.250000  0.456372  0.934358  1
  Fe  Fe7  1  0.250000  0.043628  0.434358  1
  Fe  Fe8  1  0.750000  0.541324  0.064265  1
  Fe  Fe9  1  0.750000  0.958676  0.564265  1
  P  P10  1  0.250000  0.432920  0.103683  1
  P  P11  1  0.250000  0.067080  0.603683  1
  P  P12  1  0.750000  0.557219  0.891049  1
  P  P13  1  0.750000  0.942781  0.391049  1
  P  P14  1  0.250000  0.276398  0.863554  1
  P  P15  1  0.250000  0.223602  0.363554  1
  P  P16  1  0.750000  0.730256  0.130633  1
  P  P17  1  0.750000  0.769744  0.630633  1
  P  P18  1  0.250000  0.599521  0.388907  1
  P  P19  1  0.250000  0.900479  0.888907  1
  P  P20  1  0.750000  0.396279  0.622531  1
  P  P21  1  0.750000  0.103721  0.122531  1
  Ir  Ir22  1  0.750000  0.280301  0.011462  1
  Ir  Ir23  1  0.750000  0.219699  0.511462  1
  Ir  Ir24  1  0.250000  0.404528  0.477500  1
  Ir  Ir25  1  0.250000  0.095472  0.977500  1
  Ir  Ir26  1  0.750000  0.586658  0.519731  1
  Ir  Ir27  1  0.750000  0.913342  0.019731  1
  Ir  Ir28  1  0.250000  0.228900  0.172888  1
  Ir  Ir29  1  0.250000  0.271100  0.672888  1
  Ir  Ir30  1  0.750000  0.764095  0.825725  1
  Ir  Ir31  1  0.750000  0.735905  0.325725  1
  Ir  Ir32  1  0.250000  0.880049  0.700232  1
  Ir  Ir33  1  0.250000  0.619951  0.200232  1
  Rh  Rh34  1  0.250000  0.721430  0.987807  1
  Rh  Rh35  1  0.250000  0.778570  0.487807  1
