# generated using pymatgen
data_Na2Mn11FeO24
_symmetry_space_group_name_H-M   'P 1'
_cell_length_a   8.24626007
_cell_length_b   8.24626099
_cell_length_c   9.82699700
_cell_angle_alpha   54.08844097
_cell_angle_beta   54.08843632
_cell_angle_gamma   65.14978985
_symmetry_Int_Tables_number   1
_chemical_formula_structural   Na2Mn11FeO24
_chemical_formula_sum   'Na2 Mn11 Fe1 O24'
_cell_volume   435.38234778
_cell_formula_units_Z   1
loop_
 _symmetry_equiv_pos_site_id
 _symmetry_equiv_pos_as_xyz
  1  'x, y, z'
loop_
 _atom_site_type_symbol
 _atom_site_label
 _atom_site_symmetry_multiplicity
 _atom_site_fract_x
 _atom_site_fract_y
 _atom_site_fract_z
 _atom_site_occupancy
  Na  Na0  1  0.757922  0.240383  0.004833  1
  Na  Na1  1  0.240383  0.757922  0.004833  1
  Mn  Mn2  1  0.002097  0.668765  0.816985  1
  Mn  Mn3  1  0.668765  0.002097  0.816985  1
  Mn  Mn4  1  0.998807  0.331746  0.181414  1
  Mn  Mn5  1  0.666838  0.666838  0.182160  1
  Mn  Mn6  1  0.331746  0.998807  0.181414  1
  Mn  Mn7  1  0.148103  0.148103  0.519495  1
  Mn  Mn8  1  0.481641  0.818660  0.516941  1
  Mn  Mn9  1  0.818660  0.481641  0.516941  1
  Mn  Mn10  1  0.853054  0.853054  0.474647  1
  Mn  Mn11  1  0.186518  0.515612  0.478954  1
  Mn  Mn12  1  0.515612  0.186518  0.478954  1
  Fe  Fe13  1  0.336057  0.336057  0.814753  1
  O  O14  1  0.341201  0.341201  0.611786  1
  O  O15  1  0.011935  0.672408  0.614800  1
  O  O16  1  0.672408  0.011935  0.614800  1
  O  O17  1  0.990879  0.320869  0.387323  1
  O  O18  1  0.657400  0.657400  0.386283  1
  O  O19  1  0.320869  0.990879  0.387323  1
  O  O20  1  0.341426  0.341426  0.354699  1
  O  O21  1  0.019118  0.669526  0.350527  1
  O  O22  1  0.669526  0.019118  0.350527  1
  O  O23  1  0.989831  0.323326  0.643631  1
  O  O24  1  0.660122  0.660122  0.636627  1
  O  O25  1  0.323326  0.989831  0.643631  1
  O  O26  1  0.630789  0.289394  0.715787  1
  O  O27  1  0.289394  0.630789  0.715787  1
  O  O28  1  0.957740  0.957740  0.717116  1
  O  O29  1  0.708323  0.378908  0.283342  1
  O  O30  1  0.378908  0.708323  0.283342  1
  O  O31  1  0.044027  0.044027  0.277905  1
  O  O32  1  0.963000  0.627582  0.058052  1
  O  O33  1  0.627582  0.963000  0.058052  1
  O  O34  1  0.290064  0.290064  0.063239  1
  O  O35  1  0.376238  0.024721  0.953112  1
  O  O36  1  0.024721  0.376238  0.953112  1
  O  O37  1  0.704971  0.704971  0.949888  1
