# generated using pymatgen
data_Sr4CdSnPt4
_symmetry_space_group_name_H-M   'P 1'
_cell_length_a   6.00047405
_cell_length_b   6.00047374
_cell_length_c   8.46366685
_cell_angle_alpha   78.42090732
_cell_angle_beta   78.42090953
_cell_angle_gamma   59.88910361
_symmetry_Int_Tables_number   1
_chemical_formula_structural   Sr4CdSnPt4
_chemical_formula_sum   'Sr4 Cd1 Sn1 Pt4'
_cell_volume   256.44715159
_cell_formula_units_Z   1
loop_
 _symmetry_equiv_pos_site_id
 _symmetry_equiv_pos_as_xyz
  1  'x, y, z'
loop_
 _atom_site_type_symbol
 _atom_site_label
 _atom_site_symmetry_multiplicity
 _atom_site_fract_x
 _atom_site_fract_y
 _atom_site_fract_z
 _atom_site_occupancy
  Sr  Sr0  1  0.509288  0.786535  0.349924  1
  Sr  Sr1  1  0.213465  0.490712  0.150076  1
  Sr  Sr2  1  0.494966  0.206622  0.646069  1
  Sr  Sr3  1  0.793378  0.505034  0.853931  1
  Cd  Cd4  1  0.137786  0.862214  0.750000  1
  Sn  Sn5  1  0.863304  0.136696  0.250000  1
  Pt  Pt6  1  0.270492  0.001915  0.001537  1
  Pt  Pt7  1  0.998085  0.729508  0.498463  1
  Pt  Pt8  1  0.721168  0.001930  0.005067  1
  Pt  Pt9  1  0.998070  0.278832  0.494933  1
