# generated using pymatgen
data_LiNdAl3Ni
_symmetry_space_group_name_H-M   'P 1'
_cell_length_a   5.41493500
_cell_length_b   5.41493502
_cell_length_c   4.13275200
_cell_angle_alpha   90.00000000
_cell_angle_beta   90.00000000
_cell_angle_gamma   120.00000601
_symmetry_Int_Tables_number   1
_chemical_formula_structural   LiNdAl3Ni
_chemical_formula_sum   'Li1 Nd1 Al3 Ni1'
_cell_volume   104.94371812
_cell_formula_units_Z   1
loop_
 _symmetry_equiv_pos_site_id
 _symmetry_equiv_pos_as_xyz
  1  'x, y, z'
loop_
 _atom_site_type_symbol
 _atom_site_label
 _atom_site_symmetry_multiplicity
 _atom_site_fract_x
 _atom_site_fract_y
 _atom_site_fract_z
 _atom_site_occupancy
  Li  Li0  1  0.666667  0.333333  0.000000  1
  Nd  Nd1  1  0.000000  0.000000  0.000000  1
  Al  Al2  1  0.495750  0.991499  0.500000  1
  Al  Al3  1  0.495750  0.504250  0.500000  1
  Al  Al4  1  0.008501  0.504250  0.500000  1
  Ni  Ni5  1  0.333333  0.666667  0.000000  1
