# generated using pymatgen
data_Ce6Al24CoOs7
_symmetry_space_group_name_H-M   'P 1'
_cell_length_a   8.88120600
_cell_length_b   8.88120649
_cell_length_c   9.50714600
_cell_angle_alpha   90.00000000
_cell_angle_beta   90.00000000
_cell_angle_gamma   120.00000563
_symmetry_Int_Tables_number   1
_chemical_formula_structural   Ce6Al24CoOs7
_chemical_formula_sum   'Ce6 Al24 Co1 Os7'
_cell_volume   649.41853808
_cell_formula_units_Z   1
loop_
 _symmetry_equiv_pos_site_id
 _symmetry_equiv_pos_as_xyz
  1  'x, y, z'
loop_
 _atom_site_type_symbol
 _atom_site_label
 _atom_site_symmetry_multiplicity
 _atom_site_fract_x
 _atom_site_fract_y
 _atom_site_fract_z
 _atom_site_occupancy
  Ce  Ce0  1  0.194273  0.388546  0.249941  1
  Ce  Ce1  1  0.805727  0.611454  0.750059  1
  Ce  Ce2  1  0.611454  0.805727  0.249941  1
  Ce  Ce3  1  0.388546  0.194273  0.750059  1
  Ce  Ce4  1  0.194273  0.805727  0.249941  1
  Ce  Ce5  1  0.805727  0.194273  0.750059  1
  Al  Al6  1  0.333333  0.666667  0.011545  1
  Al  Al7  1  0.666667  0.333333  0.988455  1
  Al  Al8  1  0.666667  0.333333  0.511807  1
  Al  Al9  1  0.333333  0.666667  0.488193  1
  Al  Al10  1  0.161895  0.323789  0.577022  1
  Al  Al11  1  0.838105  0.676211  0.422978  1
  Al  Al12  1  0.676211  0.838105  0.577022  1
  Al  Al13  1  0.839248  0.678496  0.076442  1
  Al  Al14  1  0.323789  0.161895  0.422978  1
  Al  Al15  1  0.160752  0.321504  0.923558  1
  Al  Al16  1  0.161895  0.838105  0.577022  1
  Al  Al17  1  0.321504  0.160752  0.076442  1
  Al  Al18  1  0.838105  0.161895  0.422978  1
  Al  Al19  1  0.678496  0.839248  0.923558  1
  Al  Al20  1  0.839248  0.160752  0.076442  1
  Al  Al21  1  0.160752  0.839248  0.923558  1
  Al  Al22  1  0.562045  0.124089  0.249797  1
  Al  Al23  1  0.437955  0.875911  0.750203  1
  Al  Al24  1  0.875911  0.437955  0.249797  1
  Al  Al25  1  0.124089  0.562045  0.750203  1
  Al  Al26  1  0.562045  0.437955  0.249797  1
  Al  Al27  1  0.437955  0.562045  0.750203  1
  Al  Al28  1  0.000000  0.000000  0.242933  1
  Al  Al29  1  0.000000  0.000000  0.757067  1
  Co  Co30  1  0.000000  0.000000  0.000000  1
  Os  Os31  1  0.500000  0.000000  0.000000  1
  Os  Os32  1  0.000000  0.500000  0.000000  1
  Os  Os33  1  0.500000  0.000000  0.500000  1
  Os  Os34  1  0.500000  0.500000  0.000000  1
  Os  Os35  1  0.000000  0.500000  0.500000  1
  Os  Os36  1  0.500000  0.500000  0.500000  1
  Os  Os37  1  0.000000  0.000000  0.500000  1
