# generated using pymatgen
data_La4Pr5Y(Al2Ru3)2
_symmetry_space_group_name_H-M   'P 1'
_cell_length_a   8.50619243
_cell_length_b   8.60558477
_cell_length_c   8.67112006
_cell_angle_alpha   109.65325596
_cell_angle_beta   109.69577552
_cell_angle_gamma   109.08618419
_symmetry_Int_Tables_number   1
_chemical_formula_structural   La4Pr5Y(Al2Ru3)2
_chemical_formula_sum   'La4 Pr5 Y1 Al4 Ru6'
_cell_volume   488.47444533
_cell_formula_units_Z   1
loop_
 _symmetry_equiv_pos_site_id
 _symmetry_equiv_pos_as_xyz
  1  'x, y, z'
loop_
 _atom_site_type_symbol
 _atom_site_label
 _atom_site_symmetry_multiplicity
 _atom_site_fract_x
 _atom_site_fract_y
 _atom_site_fract_z
 _atom_site_occupancy
  La  La0  1  0.751346  0.812012  0.058714  1
  La  La1  1  0.440020  0.245107  0.686536  1
  La  La2  1  0.691968  0.439373  0.251594  1
  La  La3  1  0.062618  0.750863  0.807938  1
  Pr  Pr4  1  0.811344  0.062630  0.747489  1
  Pr  Pr5  1  0.214194  0.219299  0.214381  1
  Pr  Pr6  1  0.496401  0.995680  0.281225  1
  Pr  Pr7  1  0.284298  0.497266  0.999358  1
  Pr  Pr8  1  0.006033  0.288953  0.505797  1
  Y  Y9  1  0.252327  0.683964  0.433312  1
  Al  Al10  1  0.583799  0.587580  0.586792  1
  Al  Al11  1  0.501270  0.000381  0.908639  1
  Al  Al12  1  0.919893  0.503903  0.006351  1
  Al  Al13  1  0.997835  0.908613  0.496202  1
  Ru  Ru14  1  0.243898  0.112199  0.861349  1
  Ru  Ru15  1  0.749788  0.384592  0.640595  1
  Ru  Ru16  1  0.866500  0.261531  0.127475  1
  Ru  Ru17  1  0.108063  0.867594  0.248161  1
  Ru  Ru18  1  0.625201  0.736569  0.377660  1
  Ru  Ru19  1  0.393205  0.641891  0.760433  1
