# generated using pymatgen
data_La4Th4Al5Ga3Rh8
_symmetry_space_group_name_H-M   'P 1'
_cell_length_a   4.23874000
_cell_length_b   7.25143336
_cell_length_c   16.32498015
_cell_angle_alpha   89.86040515
_cell_angle_beta   90.00000000
_cell_angle_gamma   90.00000000
_symmetry_Int_Tables_number   1
_chemical_formula_structural   La4Th4Al5Ga3Rh8
_chemical_formula_sum   'La4 Th4 Al5 Ga3 Rh8'
_cell_volume   501.77845684
_cell_formula_units_Z   1
loop_
 _symmetry_equiv_pos_site_id
 _symmetry_equiv_pos_as_xyz
  1  'x, y, z'
loop_
 _atom_site_type_symbol
 _atom_site_label
 _atom_site_symmetry_multiplicity
 _atom_site_fract_x
 _atom_site_fract_y
 _atom_site_fract_z
 _atom_site_occupancy
  La  La0  1  0.250000  0.653302  0.559016  1
  La  La1  1  0.750000  0.346687  0.441154  1
  La  La2  1  0.750000  0.845536  0.058569  1
  La  La3  1  0.250000  0.153128  0.940299  1
  Th  Th4  1  0.250000  0.519937  0.778814  1
  Th  Th5  1  0.750000  0.480891  0.221887  1
  Th  Th6  1  0.750000  0.978506  0.279732  1
  Th  Th7  1  0.250000  0.019894  0.721330  1
  Al  Al8  1  0.250000  0.155631  0.149139  1
  Al  Al9  1  0.250000  0.507939  0.061106  1
  Al  Al10  1  0.750000  0.492327  0.938751  1
  Al  Al11  1  0.750000  0.991933  0.561103  1
  Al  Al12  1  0.250000  0.007854  0.439019  1
  Ga  Ga13  1  0.250000  0.652491  0.350788  1
  Ga  Ga14  1  0.750000  0.347525  0.649386  1
  Ga  Ga15  1  0.750000  0.847537  0.850572  1
  Rh  Rh16  1  0.250000  0.761116  0.185347  1
  Rh  Rh17  1  0.750000  0.242280  0.814242  1
  Rh  Rh18  1  0.750000  0.742164  0.685667  1
  Rh  Rh19  1  0.250000  0.257761  0.312758  1
  Rh  Rh20  1  0.250000  0.706141  0.925942  1
  Rh  Rh21  1  0.750000  0.289405  0.075382  1
  Rh  Rh22  1  0.750000  0.793500  0.426066  1
  Rh  Rh23  1  0.250000  0.206517  0.573931  1
