# generated using pymatgen
data_Tb5Y(Er2Pb3)2
_symmetry_space_group_name_H-M   'P 1'
_cell_length_a   9.05019032
_cell_length_b   9.05434544
_cell_length_c   6.62422500
_cell_angle_alpha   90.00000000
_cell_angle_beta   90.00000000
_cell_angle_gamma   120.01518987
_symmetry_Int_Tables_number   1
_chemical_formula_structural   Tb5Y(Er2Pb3)2
_chemical_formula_sum   'Tb5 Y1 Er4 Pb6'
_cell_volume   470.01745199
_cell_formula_units_Z   1
loop_
 _symmetry_equiv_pos_site_id
 _symmetry_equiv_pos_as_xyz
  1  'x, y, z'
loop_
 _atom_site_type_symbol
 _atom_site_label
 _atom_site_symmetry_multiplicity
 _atom_site_fract_x
 _atom_site_fract_y
 _atom_site_fract_z
 _atom_site_occupancy
  Tb  Tb0  1  0.760704  0.760756  0.750000  1
  Tb  Tb1  1  0.239296  0.000052  0.750000  1
  Tb  Tb2  1  0.000000  0.239361  0.750000  1
  Tb  Tb3  1  0.239333  0.239334  0.250000  1
  Tb  Tb4  1  0.760667  0.000001  0.250000  1
  Y  Y5  1  0.000000  0.760611  0.250000  1
  Er  Er6  1  0.666594  0.333278  0.999954  1
  Er  Er7  1  0.333406  0.666684  0.999954  1
  Er  Er8  1  0.333406  0.666684  0.500046  1
  Er  Er9  1  0.666594  0.333278  0.500046  1
  Pb  Pb10  1  0.394891  0.394866  0.750000  1
  Pb  Pb11  1  0.605109  0.999975  0.750000  1
  Pb  Pb12  1  0.000000  0.605058  0.750000  1
  Pb  Pb13  1  0.605379  0.605226  0.250000  1
  Pb  Pb14  1  0.394621  0.999847  0.250000  1
  Pb  Pb15  1  0.000000  0.394991  0.250000  1
