# generated using pymatgen
data_Hf9Zr7Ir5Pd3N4
_symmetry_space_group_name_H-M   'P 1'
_cell_length_a   8.78351620
_cell_length_b   8.76957954
_cell_length_c   8.76958044
_cell_angle_alpha   60.12935675
_cell_angle_beta   60.06728691
_cell_angle_gamma   60.06728659
_symmetry_Int_Tables_number   1
_chemical_formula_structural   Hf9Zr7Ir5Pd3N4
_chemical_formula_sum   'Hf9 Zr7 Ir5 Pd3 N4'
_cell_volume   478.60318081
_cell_formula_units_Z   1
loop_
 _symmetry_equiv_pos_site_id
 _symmetry_equiv_pos_as_xyz
  1  'x, y, z'
loop_
 _atom_site_type_symbol
 _atom_site_label
 _atom_site_symmetry_multiplicity
 _atom_site_fract_x
 _atom_site_fract_y
 _atom_site_fract_z
 _atom_site_occupancy
  Hf  Hf0  1  0.124507  0.624281  0.624281  1
  Hf  Hf1  1  0.624049  0.124094  0.624829  1
  Hf  Hf2  1  0.624049  0.624829  0.124094  1
  Hf  Hf3  1  0.628008  0.628422  0.628422  1
  Hf  Hf4  1  0.819517  0.819422  0.180486  1
  Hf  Hf5  1  0.181988  0.181824  0.817578  1
  Hf  Hf6  1  0.819517  0.180486  0.819422  1
  Hf  Hf7  1  0.181988  0.817578  0.181824  1
  Hf  Hf8  1  0.180498  0.819587  0.819587  1
  Zr  Zr9  1  0.817044  0.182514  0.182514  1
  Zr  Zr10  1  0.434122  0.434578  0.067419  1
  Zr  Zr11  1  0.065150  0.064625  0.434819  1
  Zr  Zr12  1  0.434122  0.067419  0.434578  1
  Zr  Zr13  1  0.065150  0.434819  0.064625  1
  Zr  Zr14  1  0.067389  0.434619  0.434619  1
  Zr  Zr15  1  0.434981  0.064589  0.064589  1
  Ir  Ir16  1  0.405540  0.406515  0.406515  1
  Ir  Ir17  1  0.477004  0.842681  0.842681  1
  Ir  Ir18  1  0.843061  0.478973  0.840254  1
  Ir  Ir19  1  0.843061  0.840254  0.478973  1
  Ir  Ir20  1  0.839842  0.839529  0.839529  1
  Pd  Pd21  1  0.764475  0.413221  0.413221  1
  Pd  Pd22  1  0.412882  0.764353  0.413159  1
  Pd  Pd23  1  0.412882  0.413159  0.764353  1
  N  N24  1  0.629522  0.121398  0.121398  1
  N  N25  1  0.121804  0.632165  0.121964  1
  N  N26  1  0.121804  0.121964  0.632165  1
  N  N27  1  0.126043  0.122103  0.122103  1
