# generated using pymatgen
data_CrFe4Mo2P4W
_symmetry_space_group_name_H-M   'P 1'
_cell_length_a   3.63020200
_cell_length_b   5.89442773
_cell_length_c   6.69841401
_cell_angle_alpha   90.07483871
_cell_angle_beta   90.00000000
_cell_angle_gamma   90.00000000
_symmetry_Int_Tables_number   1
_chemical_formula_structural   CrFe4Mo2P4W
_chemical_formula_sum   'Cr1 Fe4 Mo2 P4 W1'
_cell_volume   143.33229497
_cell_formula_units_Z   1
loop_
 _symmetry_equiv_pos_site_id
 _symmetry_equiv_pos_as_xyz
  1  'x, y, z'
loop_
 _atom_site_type_symbol
 _atom_site_label
 _atom_site_symmetry_multiplicity
 _atom_site_fract_x
 _atom_site_fract_y
 _atom_site_fract_z
 _atom_site_occupancy
  Cr  Cr0  1  0.250000  0.528430  0.674444  1
  Fe  Fe1  1  0.250000  0.641022  0.060447  1
  Fe  Fe2  1  0.750000  0.358696  0.932872  1
  Fe  Fe3  1  0.250000  0.142317  0.441131  1
  Fe  Fe4  1  0.750000  0.856280  0.564174  1
  Mo  Mo5  1  0.750000  0.971492  0.169260  1
  Mo  Mo6  1  0.750000  0.476319  0.329753  1
  P  P7  1  0.250000  0.272137  0.124251  1
  P  P8  1  0.750000  0.723214  0.872858  1
  P  P9  1  0.250000  0.770069  0.381852  1
  P  P10  1  0.750000  0.236033  0.620012  1
  W  W11  1  0.250000  0.023993  0.828946  1
