# generated using pymatgen
data_Nd12Os2PtAu
_symmetry_space_group_name_H-M   'P 1'
_cell_length_a   6.59379042
_cell_length_b   7.48957253
_cell_length_c   9.87389900
_cell_angle_alpha   90.00000000
_cell_angle_beta   90.00000000
_cell_angle_gamma   90.29215006
_symmetry_Int_Tables_number   1
_chemical_formula_structural   Nd12Os2PtAu
_chemical_formula_sum   'Nd12 Os2 Pt1 Au1'
_cell_volume   487.61292078
_cell_formula_units_Z   1
loop_
 _symmetry_equiv_pos_site_id
 _symmetry_equiv_pos_as_xyz
  1  'x, y, z'
loop_
 _atom_site_type_symbol
 _atom_site_label
 _atom_site_symmetry_multiplicity
 _atom_site_fract_x
 _atom_site_fract_y
 _atom_site_fract_z
 _atom_site_occupancy
  Nd  Nd0  1  0.339507  0.670029  0.060274  1
  Nd  Nd1  1  0.173959  0.188303  0.438981  1
  Nd  Nd2  1  0.668212  0.325062  0.563422  1
  Nd  Nd3  1  0.826827  0.819640  0.933217  1
  Nd  Nd4  1  0.668212  0.325062  0.936578  1
  Nd  Nd5  1  0.826827  0.819640  0.566783  1
  Nd  Nd6  1  0.339507  0.670029  0.439726  1
  Nd  Nd7  1  0.173959  0.188303  0.061019  1
  Nd  Nd8  1  0.855736  0.518779  0.250000  1
  Nd  Nd9  1  0.622608  0.042355  0.250000  1
  Nd  Nd10  1  0.140389  0.471626  0.750000  1
  Nd  Nd11  1  0.365607  0.957612  0.750000  1
  Os  Os12  1  0.436522  0.382941  0.250000  1
  Os  Os13  1  0.560363  0.616835  0.750000  1
  Pt  Pt14  1  0.941188  0.117762  0.750000  1
  Au  Au15  1  0.060579  0.886024  0.250000  1
