# generated using pymatgen
data_HoTmFeCo5P4
_symmetry_space_group_name_H-M   'P 1'
_cell_length_a   3.67987800
_cell_length_b   10.51974404
_cell_length_c   12.10201205
_cell_angle_alpha   90.01036379
_cell_angle_beta   90.00000000
_cell_angle_gamma   90.00000000
_symmetry_Int_Tables_number   1
_chemical_formula_structural   HoTmFeCo5P4
_chemical_formula_sum   'Ho3 Tm3 Fe3 Co15 P12'
_cell_volume   468.48551504
_cell_formula_units_Z   3
loop_
 _symmetry_equiv_pos_site_id
 _symmetry_equiv_pos_as_xyz
  1  'x, y, z'
loop_
 _atom_site_type_symbol
 _atom_site_label
 _atom_site_symmetry_multiplicity
 _atom_site_fract_x
 _atom_site_fract_y
 _atom_site_fract_z
 _atom_site_occupancy
  Ho  Ho0  1  0.000000  0.500064  0.522373  1
  Ho  Ho1  1  0.500000  0.999951  0.477193  1
  Ho  Ho2  1  0.000000  0.319377  0.795989  1
  Tm  Tm3  1  0.500000  0.817998  0.204923  1
  Tm  Tm4  1  0.500000  0.182058  0.204633  1
  Tm  Tm5  1  0.000000  0.680756  0.796014  1
  Fe  Fe6  1  0.000000  0.500248  0.988795  1
  Fe  Fe7  1  0.500000  0.500169  0.155858  1
  Fe  Fe8  1  0.000000  0.999843  0.842758  1
  Co  Co9  1  0.500000  0.999706  0.014101  1
  Co  Co10  1  0.500000  0.297046  0.429821  1
  Co  Co11  1  0.500000  0.703049  0.430289  1
  Co  Co12  1  0.000000  0.203373  0.569085  1
  Co  Co13  1  0.000000  0.796556  0.569687  1
  Co  Co14  1  0.500000  0.878343  0.709195  1
  Co  Co15  1  0.500000  0.120963  0.708739  1
  Co  Co16  1  0.000000  0.621588  0.290276  1
  Co  Co17  1  0.000000  0.378402  0.290061  1
  Co  Co18  1  0.500000  0.331073  0.994468  1
  Co  Co19  1  0.500000  0.669197  0.994161  1
  Co  Co20  1  0.000000  0.166187  0.006501  1
  Co  Co21  1  0.000000  0.833563  0.006222  1
  Co  Co22  1  0.500000  0.500605  0.701819  1
  Co  Co23  1  0.000000  0.999890  0.298037  1
  P  P24  1  0.500000  0.310884  0.616260  1
  P  P25  1  0.500000  0.689282  0.617120  1
  P  P26  1  0.000000  0.189371  0.382541  1
  P  P27  1  0.000000  0.810573  0.382880  1
  P  P28  1  0.500000  0.500570  0.884268  1
  P  P29  1  0.000000  0.999797  0.118526  1
  P  P30  1  0.500000  0.847203  0.892077  1
  P  P31  1  0.500000  0.152147  0.892512  1
  P  P32  1  0.000000  0.653246  0.107149  1
  P  P33  1  0.000000  0.346945  0.106920  1
  P  P34  1  0.500000  0.499978  0.341956  1
  P  P35  1  0.000000  0.999999  0.656795  1
