# generated using pymatgen
data_Hf3Zr7CuSn6Bi
_symmetry_space_group_name_H-M   'P 1'
_cell_length_a   8.75818100
_cell_length_b   8.75818104
_cell_length_c   5.95125200
_cell_angle_alpha   90.00000000
_cell_angle_beta   90.00000000
_cell_angle_gamma   120.00000361
_symmetry_Int_Tables_number   1
_chemical_formula_structural   Hf3Zr7CuSn6Bi
_chemical_formula_sum   'Hf3 Zr7 Cu1 Sn6 Bi1'
_cell_volume   395.33638896
_cell_formula_units_Z   1
loop_
 _symmetry_equiv_pos_site_id
 _symmetry_equiv_pos_as_xyz
  1  'x, y, z'
loop_
 _atom_site_type_symbol
 _atom_site_label
 _atom_site_symmetry_multiplicity
 _atom_site_fract_x
 _atom_site_fract_y
 _atom_site_fract_z
 _atom_site_occupancy
  Hf  Hf0  1  0.666667  0.333333  0.500000  1
  Hf  Hf1  1  0.333333  0.666667  0.500000  1
  Hf  Hf2  1  0.333333  0.666667  0.000000  1
  Zr  Zr3  1  0.666667  0.333333  0.000000  1
  Zr  Zr4  1  0.725657  0.725890  0.231808  1
  Zr  Zr5  1  0.274110  0.999767  0.231808  1
  Zr  Zr6  1  0.000233  0.274343  0.231808  1
  Zr  Zr7  1  0.274110  0.274343  0.768192  1
  Zr  Zr8  1  0.725657  0.999767  0.768192  1
  Zr  Zr9  1  0.000233  0.725890  0.768192  1
  Cu  Cu10  1  0.000000  0.000000  0.000000  1
  Sn  Sn11  1  0.385974  0.386462  0.254678  1
  Sn  Sn12  1  0.613538  0.999512  0.254678  1
  Sn  Sn13  1  0.000488  0.614026  0.254678  1
  Sn  Sn14  1  0.613538  0.614026  0.745322  1
  Sn  Sn15  1  0.385974  0.999512  0.745322  1
  Sn  Sn16  1  0.000488  0.386462  0.745322  1
  Bi  Bi17  1  0.000000  0.000000  0.500000  1
