# generated using pymatgen
data_Sr14Al8Si3
_symmetry_space_group_name_H-M   'P 1'
_cell_length_a   15.07449127
_cell_length_b   15.07449141
_cell_length_c   15.07449200
_cell_angle_alpha   46.93146752
_cell_angle_beta   46.93146703
_cell_angle_gamma   46.93146693
_symmetry_Int_Tables_number   1
_chemical_formula_structural   Sr14Al8Si3
_chemical_formula_sum   'Sr28 Al16 Si6'
_cell_volume   1670.88167753
_cell_formula_units_Z   2
loop_
 _symmetry_equiv_pos_site_id
 _symmetry_equiv_pos_as_xyz
  1  'x, y, z'
loop_
 _atom_site_type_symbol
 _atom_site_label
 _atom_site_symmetry_multiplicity
 _atom_site_fract_x
 _atom_site_fract_y
 _atom_site_fract_z
 _atom_site_occupancy
  Sr  Sr0  1  0.694198  0.191081  0.204774  1
  Sr  Sr1  1  0.926662  0.616933  0.586715  1
  Sr  Sr2  1  0.794187  0.415599  0.146207  1
  Sr  Sr3  1  0.191081  0.204774  0.694198  1
  Sr  Sr4  1  0.413285  0.073338  0.383067  1
  Sr  Sr5  1  0.146207  0.794187  0.415599  1
  Sr  Sr6  1  0.383067  0.413285  0.073338  1
  Sr  Sr7  1  0.795226  0.305802  0.808919  1
  Sr  Sr8  1  0.415599  0.146207  0.794187  1
  Sr  Sr9  1  0.507189  0.193505  0.946297  1
  Sr  Sr10  1  0.806495  0.053703  0.492811  1
  Sr  Sr11  1  0.909539  0.909539  0.909539  1
  Sr  Sr12  1  0.090461  0.090461  0.090461  1
  Sr  Sr13  1  0.853793  0.205813  0.584401  1
  Sr  Sr14  1  0.808919  0.795226  0.305802  1
  Sr  Sr15  1  0.205813  0.584401  0.853793  1
  Sr  Sr16  1  0.584401  0.853793  0.205813  1
  Sr  Sr17  1  0.053703  0.492811  0.806495  1
  Sr  Sr18  1  0.492811  0.806495  0.053703  1
  Sr  Sr19  1  0.193505  0.946297  0.507189  1
  Sr  Sr20  1  0.073338  0.383067  0.413285  1
  Sr  Sr21  1  0.500000  0.500000  0.500000  1
  Sr  Sr22  1  0.616933  0.586715  0.926662  1
  Sr  Sr23  1  0.586715  0.926662  0.616933  1
  Sr  Sr24  1  0.000000  0.000000  0.000000  1
  Sr  Sr25  1  0.946297  0.507189  0.193505  1
  Sr  Sr26  1  0.305802  0.808919  0.795226  1
  Sr  Sr27  1  0.204774  0.694198  0.191081  1
  Al  Al28  1  0.528446  0.491765  0.733275  1
  Al  Al29  1  0.030620  0.182825  0.289797  1
  Al  Al30  1  0.508235  0.266725  0.471554  1
  Al  Al31  1  0.289797  0.030620  0.182825  1
  Al  Al32  1  0.266725  0.471554  0.508235  1
  Al  Al33  1  0.640510  0.640510  0.640510  1
  Al  Al34  1  0.733275  0.528446  0.491765  1
  Al  Al35  1  0.182825  0.289797  0.030620  1
  Al  Al36  1  0.359490  0.359490  0.359490  1
  Al  Al37  1  0.776390  0.776390  0.776390  1
  Al  Al38  1  0.471554  0.508235  0.266725  1
  Al  Al39  1  0.817175  0.710203  0.969380  1
  Al  Al40  1  0.969380  0.817175  0.710203  1
  Al  Al41  1  0.491765  0.733275  0.528446  1
  Al  Al42  1  0.710203  0.969380  0.817175  1
  Al  Al43  1  0.223610  0.223610  0.223610  1
  Si  Si44  1  0.670461  0.081979  0.095979  1
  Si  Si45  1  0.081979  0.095979  0.670461  1
  Si  Si46  1  0.329539  0.918021  0.904021  1
  Si  Si47  1  0.904021  0.329539  0.918021  1
  Si  Si48  1  0.918021  0.904021  0.329539  1
  Si  Si49  1  0.095979  0.670461  0.081979  1
