# generated using pymatgen
data_Dy3Y(ZnOs3)2
_symmetry_space_group_name_H-M   'P 1'
_cell_length_a   5.36280428
_cell_length_b   5.36280495
_cell_length_c   8.81802660
_cell_angle_alpha   90.03670752
_cell_angle_beta   89.96328967
_cell_angle_gamma   120.08167038
_symmetry_Int_Tables_number   1
_chemical_formula_structural   Dy3Y(ZnOs3)2
_chemical_formula_sum   'Dy3 Y1 Zn2 Os6'
_cell_volume   219.44610092
_cell_formula_units_Z   1
loop_
 _symmetry_equiv_pos_site_id
 _symmetry_equiv_pos_as_xyz
  1  'x, y, z'
loop_
 _atom_site_type_symbol
 _atom_site_label
 _atom_site_symmetry_multiplicity
 _atom_site_fract_x
 _atom_site_fract_y
 _atom_site_fract_z
 _atom_site_occupancy
  Dy  Dy0  1  0.338609  0.661391  0.431342  1
  Dy  Dy1  1  0.672617  0.327383  0.556553  1
  Dy  Dy2  1  0.672694  0.327306  0.943390  1
  Y  Y3  1  0.338788  0.661212  0.068603  1
  Zn  Zn4  1  0.159572  0.352441  0.749867  1
  Zn  Zn5  1  0.647559  0.840428  0.749867  1
  Os  Os6  1  0.011313  0.988687  0.502352  1
  Os  Os7  1  0.011329  0.988671  0.997566  1
  Os  Os8  1  0.823739  0.176261  0.250214  1
  Os  Os9  1  0.836704  0.666151  0.250202  1
  Os  Os10  1  0.333849  0.163296  0.250202  1
  Os  Os11  1  0.153226  0.846774  0.749842  1
