# generated using pymatgen
data_ErTm5LuCoI12
_symmetry_space_group_name_H-M   'P 1'
_cell_length_a   9.65164460
_cell_length_b   9.65789757
_cell_length_c   9.65973167
_cell_angle_alpha   106.83525533
_cell_angle_beta   106.81200109
_cell_angle_gamma   106.83365232
_symmetry_Int_Tables_number   1
_chemical_formula_structural   ErTm5LuCoI12
_chemical_formula_sum   'Er1 Tm5 Lu1 Co1 I12'
_cell_volume   753.39649590
_cell_formula_units_Z   1
loop_
 _symmetry_equiv_pos_site_id
 _symmetry_equiv_pos_as_xyz
  1  'x, y, z'
loop_
 _atom_site_type_symbol
 _atom_site_label
 _atom_site_symmetry_multiplicity
 _atom_site_fract_x
 _atom_site_fract_y
 _atom_site_fract_z
 _atom_site_occupancy
  Er  Er0  1  0.500007  0.499930  0.499908  1
  Tm  Tm1  1  0.021623  0.284375  0.090352  1
  Tm  Tm2  1  0.090644  0.021400  0.284300  1
  Tm  Tm3  1  0.715562  0.909609  0.978698  1
  Tm  Tm4  1  0.979059  0.715859  0.909689  1
  Tm  Tm5  1  0.910091  0.978827  0.715834  1
  Lu  Lu6  1  0.282347  0.089478  0.021027  1
  Co  Co7  1  0.000362  0.000116  0.000028  1
  I  I8  1  0.463155  0.160724  0.386287  1
  I  I9  1  0.386637  0.462793  0.160607  1
  I  I10  1  0.160652  0.386562  0.463122  1
  I  I11  1  0.536927  0.839402  0.613536  1
  I  I12  1  0.613479  0.536955  0.839403  1
  I  I13  1  0.839389  0.613473  0.536897  1
  I  I14  1  0.323841  0.776684  0.929645  1
  I  I15  1  0.929476  0.323688  0.776092  1
  I  I16  1  0.776070  0.929458  0.323576  1
  I  I17  1  0.676015  0.223755  0.070441  1
  I  I18  1  0.070537  0.676331  0.223903  1
  I  I19  1  0.224125  0.070583  0.676654  1
