# generated using pymatgen
data_Ta4Nb6Si5Pt
_symmetry_space_group_name_H-M   'P 1'
_cell_length_a   7.56991839
_cell_length_b   7.56991806
_cell_length_c   7.57793823
_cell_angle_alpha   127.80137891
_cell_angle_beta   127.76911017
_cell_angle_gamma   76.89683391
_symmetry_Int_Tables_number   1
_chemical_formula_structural   Ta4Nb6Si5Pt
_chemical_formula_sum   'Ta4 Nb6 Si5 Pt1'
_cell_volume   263.42743907
_cell_formula_units_Z   1
loop_
 _symmetry_equiv_pos_site_id
 _symmetry_equiv_pos_as_xyz
  1  'x, y, z'
loop_
 _atom_site_type_symbol
 _atom_site_label
 _atom_site_symmetry_multiplicity
 _atom_site_fract_x
 _atom_site_fract_y
 _atom_site_fract_z
 _atom_site_occupancy
  Ta  Ta0  1  0.481104  0.988004  0.170912  1
  Ta  Ta1  1  0.817093  0.310193  0.829088  1
  Ta  Ta2  1  0.998419  0.998419  0.000000  1
  Ta  Ta3  1  0.501550  0.501550  0.000000  1
  Nb  Nb4  1  0.020384  0.190838  0.509261  1
  Nb  Nb5  1  0.681576  0.511122  0.490739  1
  Nb  Nb6  1  0.512348  0.021368  0.829778  1
  Nb  Nb7  1  0.191589  0.682570  0.170222  1
  Nb  Nb8  1  0.988018  0.818107  0.509372  1
  Nb  Nb9  1  0.308734  0.478646  0.490628  1
  Si  Si10  1  0.249757  0.249757  0.000000  1
  Si  Si11  1  0.370096  0.129657  0.499826  1
  Si  Si12  1  0.629831  0.870270  0.500174  1
  Si  Si13  1  0.870268  0.370292  0.240596  1
  Si  Si14  1  0.129695  0.629671  0.759404  1
  Pt  Pt15  1  0.749538  0.749538  0.000000  1
