# generated using pymatgen
data_VGaCl14
_symmetry_space_group_name_H-M   'P 1'
_cell_length_a   9.96535641
_cell_length_b   10.61025047
_cell_length_c   11.34573319
_cell_angle_alpha   80.78209599
_cell_angle_beta   89.94696694
_cell_angle_gamma   89.96734480
_symmetry_Int_Tables_number   1
_chemical_formula_structural   VGaCl14
_chemical_formula_sum   'V2 Ga2 Cl28'
_cell_volume   1184.14781512
_cell_formula_units_Z   2
loop_
 _symmetry_equiv_pos_site_id
 _symmetry_equiv_pos_as_xyz
  1  'x, y, z'
loop_
 _atom_site_type_symbol
 _atom_site_label
 _atom_site_symmetry_multiplicity
 _atom_site_fract_x
 _atom_site_fract_y
 _atom_site_fract_z
 _atom_site_occupancy
  V  V0  1  0.760873  0.672310  0.921524  1
  V  V1  1  0.261170  0.327623  0.578569  1
  Ga  Ga2  1  0.242759  0.328530  0.084148  1
  Ga  Ga3  1  0.742731  0.671438  0.415872  1
  Cl  Cl4  1  0.232539  0.758382  0.365720  1
  Cl  Cl5  1  0.732560  0.241567  0.134306  1
  Cl  Cl6  1  0.744580  0.251517  0.636210  1
  Cl  Cl7  1  0.244580  0.748519  0.863692  1
  Cl  Cl8  1  0.571780  0.051816  0.035564  1
  Cl  Cl9  1  0.071864  0.948200  0.464499  1
  Cl  Cl10  1  0.439580  0.936754  0.966336  1
  Cl  Cl11  1  0.939609  0.063506  0.533723  1
  Cl  Cl12  1  0.810924  0.171354  0.293620  1
  Cl  Cl13  1  0.310921  0.828646  0.206360  1
  Cl  Cl14  1  0.185880  0.830702  0.698949  1
  Cl  Cl15  1  0.685825  0.169363  0.800999  1
  Cl  Cl16  1  0.349213  0.226045  0.239415  1
  Cl  Cl17  1  0.849098  0.773681  0.260265  1
  Cl  Cl18  1  0.649541  0.727669  0.765480  1
  Cl  Cl19  1  0.149938  0.272451  0.734703  1
  Cl  Cl20  1  0.387752  0.405565  0.942994  1
  Cl  Cl21  1  0.887578  0.594374  0.556993  1
  Cl  Cl22  1  0.632839  0.620303  0.066322  1
  Cl  Cl23  1  0.133377  0.379675  0.433878  1
  Cl  Cl24  1  0.882283  0.516292  0.900460  1
  Cl  Cl25  1  0.382461  0.483741  0.599340  1
  Cl  Cl26  1  0.125152  0.487706  0.136238  1
  Cl  Cl27  1  0.625434  0.512327  0.363636  1
  Cl  Cl28  1  0.103838  0.195655  0.013680  1
  Cl  Cl29  1  0.603859  0.804311  0.486697  1
  Cl  Cl30  1  0.879412  0.825454  0.955729  1
  Cl  Cl31  1  0.380049  0.174526  0.544080  1
