# generated using pymatgen
data_Li2YHoB28
_symmetry_space_group_name_H-M   'P 1'
_cell_length_a   7.25520916
_cell_length_b   7.25520644
_cell_length_c   7.25520832
_cell_angle_alpha   132.22938781
_cell_angle_beta   110.91485967
_cell_angle_gamma   88.33356115
_symmetry_Int_Tables_number   1
_chemical_formula_structural   Li2YHoB28
_chemical_formula_sum   'Li2 Y1 Ho1 B28'
_cell_volume   251.57754072
_cell_formula_units_Z   1
loop_
 _symmetry_equiv_pos_site_id
 _symmetry_equiv_pos_as_xyz
  1  'x, y, z'
loop_
 _atom_site_type_symbol
 _atom_site_label
 _atom_site_symmetry_multiplicity
 _atom_site_fract_x
 _atom_site_fract_y
 _atom_site_fract_z
 _atom_site_occupancy
  Li  Li0  1  0.000023  0.500016  0.000040  1
  Li  Li1  1  0.000023  0.999984  0.500007  1
  Y  Y2  1  0.379640  0.750000  0.629640  1
  Ho  Ho3  1  0.621212  0.250000  0.371212  1
  B  B4  1  0.978586  0.350449  0.628138  1
  B  B5  1  0.626697  0.330095  0.796443  1
  B  B6  1  0.807003  0.834093  0.972909  1
  B  B7  1  0.638815  0.665907  0.972909  1
  B  B8  1  0.192999  0.165886  0.027114  1
  B  B9  1  0.780929  0.782535  0.681342  1
  B  B10  1  0.966348  0.669745  0.796443  1
  B  B11  1  0.020892  0.649259  0.371632  1
  B  B12  1  0.966348  0.169905  0.296603  1
  B  B13  1  0.033372  0.830155  0.703437  1
  B  B14  1  0.361229  0.334114  0.027114  1
  B  B15  1  0.084337  0.910982  0.173355  1
  B  B16  1  0.626697  0.830255  0.296603  1
  B  B17  1  0.398806  0.717465  0.998394  1
  B  B18  1  0.237466  0.411041  0.826425  1
  B  B19  1  0.219176  0.216996  0.318363  1
  B  B20  1  0.222372  0.850741  0.371632  1
  B  B21  1  0.915383  0.088959  0.826425  1
  B  B22  1  0.398806  0.400412  0.681342  1
  B  B23  1  0.219176  0.900813  0.002180  1
  B  B24  1  0.780929  0.099588  0.998394  1
  B  B25  1  0.601367  0.283004  0.002180  1
  B  B26  1  0.601367  0.599187  0.318363  1
  B  B27  1  0.033372  0.329934  0.203217  1
  B  B28  1  0.762373  0.589018  0.173355  1
  B  B29  1  0.777690  0.149551  0.628138  1
  B  B30  1  0.373284  0.170066  0.703437  1
  B  B31  1  0.373284  0.669845  0.203217  1
