# generated using pymatgen
data_Tb9Y(Bi2Sb)2
_symmetry_space_group_name_H-M   'P 1'
_cell_length_a   8.22561200
_cell_length_b   9.51211300
_cell_length_c   12.07341200
_cell_angle_alpha   90.00000000
_cell_angle_beta   90.00000000
_cell_angle_gamma   90.00000000
_symmetry_Int_Tables_number   1
_chemical_formula_structural   Tb9Y(Bi2Sb)2
_chemical_formula_sum   'Tb18 Y2 Bi8 Sb4'
_cell_volume   944.65938156
_cell_formula_units_Z   2
loop_
 _symmetry_equiv_pos_site_id
 _symmetry_equiv_pos_as_xyz
  1  'x, y, z'
loop_
 _atom_site_type_symbol
 _atom_site_label
 _atom_site_symmetry_multiplicity
 _atom_site_fract_x
 _atom_site_fract_y
 _atom_site_fract_z
 _atom_site_occupancy
  Tb  Tb0  1  0.029436  0.750000  0.988194  1
  Tb  Tb1  1  0.529436  0.750000  0.511806  1
  Tb  Tb2  1  0.970576  0.250000  0.011746  1
  Tb  Tb3  1  0.470576  0.250000  0.488254  1
  Tb  Tb4  1  0.183354  0.750000  0.718480  1
  Tb  Tb5  1  0.683354  0.750000  0.781520  1
  Tb  Tb6  1  0.816653  0.250000  0.281551  1
  Tb  Tb7  1  0.316653  0.250000  0.218449  1
  Tb  Tb8  1  0.309761  0.438888  0.941281  1
  Tb  Tb9  1  0.809761  0.061112  0.558719  1
  Tb  Tb10  1  0.690209  0.938812  0.058723  1
  Tb  Tb11  1  0.190209  0.561188  0.441277  1
  Tb  Tb12  1  0.690209  0.561188  0.058723  1
  Tb  Tb13  1  0.190209  0.938812  0.441277  1
  Tb  Tb14  1  0.309761  0.061112  0.941281  1
  Tb  Tb15  1  0.809761  0.438888  0.558719  1
  Tb  Tb16  1  0.354112  0.750000  0.212890  1
  Tb  Tb17  1  0.854112  0.750000  0.287110  1
  Y  Y18  1  0.645906  0.250000  0.787307  1
  Y  Y19  1  0.145906  0.250000  0.712693  1
  Bi  Bi20  1  0.433530  0.003917  0.674001  1
  Bi  Bi21  1  0.933530  0.496083  0.825999  1
  Bi  Bi22  1  0.566504  0.503838  0.326060  1
  Bi  Bi23  1  0.066504  0.996162  0.173940  1
  Bi  Bi24  1  0.566504  0.996162  0.326060  1
  Bi  Bi25  1  0.066504  0.503838  0.173940  1
  Bi  Bi26  1  0.433530  0.496083  0.674001  1
  Bi  Bi27  1  0.933530  0.003917  0.825999  1
  Sb  Sb28  1  0.410235  0.750000  0.959013  1
  Sb  Sb29  1  0.910235  0.750000  0.540987  1
  Sb  Sb30  1  0.589717  0.250000  0.040753  1
  Sb  Sb31  1  0.089717  0.250000  0.459247  1
