# generated using pymatgen
data_Y2Ti2Co9As7Ru
_symmetry_space_group_name_H-M   'P 1'
_cell_length_a   3.79154900
_cell_length_b   9.47087855
_cell_length_c   9.50901047
_cell_angle_alpha   120.30420412
_cell_angle_beta   90.00000000
_cell_angle_gamma   90.00000000
_symmetry_Int_Tables_number   1
_chemical_formula_structural   Y2Ti2Co9As7Ru
_chemical_formula_sum   'Y2 Ti2 Co9 As7 Ru1'
_cell_volume   294.80405281
_cell_formula_units_Z   1
loop_
 _symmetry_equiv_pos_site_id
 _symmetry_equiv_pos_as_xyz
  1  'x, y, z'
loop_
 _atom_site_type_symbol
 _atom_site_label
 _atom_site_symmetry_multiplicity
 _atom_site_fract_x
 _atom_site_fract_y
 _atom_site_fract_z
 _atom_site_occupancy
  Y  Y0  1  0.000000  0.662401  0.329453  1
  Y  Y1  1  0.500000  0.337274  0.669119  1
  Ti  Ti2  1  0.500000  0.109268  0.219878  1
  Ti  Ti3  1  0.500000  0.103467  0.880410  1
  Co  Co4  1  0.000000  0.575231  0.940766  1
  Co  Co5  1  0.000000  0.370543  0.429939  1
  Co  Co6  1  0.000000  0.060666  0.631462  1
  Co  Co7  1  0.000000  0.876899  0.158372  1
  Co  Co8  1  0.000000  0.277646  0.117899  1
  Co  Co9  1  0.000000  0.843473  0.718181  1
  Co  Co10  1  0.500000  0.948769  0.382706  1
  Co  Co11  1  0.500000  0.435059  0.050726  1
  Co  Co12  1  0.500000  0.614258  0.564290  1
  As  As13  1  0.000000  0.995981  0.997523  1
  As  As14  1  0.500000  0.708929  0.120675  1
  As  As15  1  0.500000  0.408987  0.291419  1
  As  As16  1  0.500000  0.873225  0.581259  1
  As  As17  1  0.000000  0.590320  0.699875  1
  As  As18  1  0.000000  0.115208  0.418584  1
  As  As19  1  0.000000  0.304962  0.886228  1
  Ru  Ru20  1  0.500000  0.787434  0.911236  1
