# generated using pymatgen
data_PrDy2TaO7
_symmetry_space_group_name_H-M   'P 1'
_cell_length_a   6.52062283
_cell_length_b   6.52062330
_cell_length_c   7.61232000
_cell_angle_alpha   90.00000000
_cell_angle_beta   90.00000000
_cell_angle_gamma   110.14007920
_symmetry_Int_Tables_number   1
_chemical_formula_structural   PrDy2TaO7
_chemical_formula_sum   'Pr2 Dy4 Ta2 O14'
_cell_volume   303.87370238
_cell_formula_units_Z   2
loop_
 _symmetry_equiv_pos_site_id
 _symmetry_equiv_pos_as_xyz
  1  'x, y, z'
loop_
 _atom_site_type_symbol
 _atom_site_label
 _atom_site_symmetry_multiplicity
 _atom_site_fract_x
 _atom_site_fract_y
 _atom_site_fract_z
 _atom_site_occupancy
  Pr  Pr0  1  0.000000  0.000000  0.000000  1
  Pr  Pr1  1  0.000000  0.000000  0.500000  1
  Dy  Dy2  1  0.515493  0.053955  0.250000  1
  Dy  Dy3  1  0.946045  0.484507  0.750000  1
  Dy  Dy4  1  0.053955  0.515493  0.250000  1
  Dy  Dy5  1  0.484507  0.946045  0.750000  1
  Ta  Ta6  1  0.500000  0.500000  0.000000  1
  Ta  Ta7  1  0.500000  0.500000  0.500000  1
  O  O8  1  0.880250  0.160109  0.250000  1
  O  O9  1  0.839891  0.119750  0.750000  1
  O  O10  1  0.819810  0.560555  0.034001  1
  O  O11  1  0.819810  0.560555  0.465999  1
  O  O12  1  0.439445  0.180190  0.965999  1
  O  O13  1  0.439445  0.180190  0.534001  1
  O  O14  1  0.574877  0.574877  0.750000  1
  O  O15  1  0.425123  0.425123  0.250000  1
  O  O16  1  0.560555  0.819810  0.034001  1
  O  O17  1  0.180190  0.439445  0.534001  1
  O  O18  1  0.560555  0.819810  0.465999  1
  O  O19  1  0.180190  0.439445  0.965999  1
  O  O20  1  0.119750  0.839891  0.750000  1
  O  O21  1  0.160109  0.880250  0.250000  1
