# generated using pymatgen
data_YbGePRu2
_symmetry_space_group_name_H-M   'P 1'
_cell_length_a   5.70502646
_cell_length_b   5.70502634
_cell_length_c   5.70502606
_cell_angle_alpha   137.24169811
_cell_angle_beta   137.24170018
_cell_angle_gamma   62.06637733
_symmetry_Int_Tables_number   1
_chemical_formula_structural   YbGePRu2
_chemical_formula_sum   'Yb1 Ge1 P1 Ru2'
_cell_volume   84.57320451
_cell_formula_units_Z   1
loop_
 _symmetry_equiv_pos_site_id
 _symmetry_equiv_pos_as_xyz
  1  'x, y, z'
loop_
 _atom_site_type_symbol
 _atom_site_label
 _atom_site_symmetry_multiplicity
 _atom_site_fract_x
 _atom_site_fract_y
 _atom_site_fract_z
 _atom_site_occupancy
  Yb  Yb0  1  0.000288  0.000288  0.000000  1
  Ge  Ge1  1  0.376540  0.376540  0.000000  1
  P  P2  1  0.637579  0.637579  0.000000  1
  Ru  Ru3  1  0.242797  0.742797  0.500000  1
  Ru  Ru4  1  0.742797  0.242797  0.500000  1
