# generated using pymatgen
data_Pr2Y3Sn3Hg
_symmetry_space_group_name_H-M   'P 1'
_cell_length_a   7.96907300
_cell_length_b   8.46663000
_cell_length_c   15.66574300
_cell_angle_alpha   90.00000000
_cell_angle_beta   90.00000000
_cell_angle_gamma   90.00000000
_symmetry_Int_Tables_number   1
_chemical_formula_structural   Pr2Y3Sn3Hg
_chemical_formula_sum   'Pr8 Y12 Sn12 Hg4'
_cell_volume   1056.98636214
_cell_formula_units_Z   4
loop_
 _symmetry_equiv_pos_site_id
 _symmetry_equiv_pos_as_xyz
  1  'x, y, z'
loop_
 _atom_site_type_symbol
 _atom_site_label
 _atom_site_symmetry_multiplicity
 _atom_site_fract_x
 _atom_site_fract_y
 _atom_site_fract_z
 _atom_site_occupancy
  Pr  Pr0  1  0.502838  0.317200  0.907848  1
  Pr  Pr1  1  0.002838  0.182800  0.592152  1
  Pr  Pr2  1  0.497162  0.682800  0.407848  1
  Pr  Pr3  1  0.997162  0.817200  0.092152  1
  Pr  Pr4  1  0.497162  0.682800  0.092152  1
  Pr  Pr5  1  0.997162  0.817200  0.407848  1
  Pr  Pr6  1  0.502838  0.317200  0.592152  1
  Pr  Pr7  1  0.002838  0.182800  0.907848  1
  Y  Y8  1  0.337637  0.832592  0.874285  1
  Y  Y9  1  0.837637  0.667408  0.625715  1
  Y  Y10  1  0.662363  0.167408  0.374285  1
  Y  Y11  1  0.162363  0.332592  0.125715  1
  Y  Y12  1  0.662363  0.167408  0.125715  1
  Y  Y13  1  0.162363  0.332592  0.374285  1
  Y  Y14  1  0.337637  0.832592  0.625715  1
  Y  Y15  1  0.837637  0.667408  0.874285  1
  Y  Y16  1  0.180249  0.495055  0.750000  1
  Y  Y17  1  0.680249  0.004945  0.750000  1
  Y  Y18  1  0.819751  0.504945  0.250000  1
  Y  Y19  1  0.319751  0.995055  0.250000  1
  Sn  Sn20  1  0.318171  0.037593  0.041463  1
  Sn  Sn21  1  0.818171  0.462407  0.458537  1
  Sn  Sn22  1  0.681829  0.962407  0.541463  1
  Sn  Sn23  1  0.181829  0.537593  0.958537  1
  Sn  Sn24  1  0.681829  0.962407  0.958537  1
  Sn  Sn25  1  0.181829  0.537593  0.541463  1
  Sn  Sn26  1  0.318171  0.037593  0.458537  1
  Sn  Sn27  1  0.818171  0.462407  0.041463  1
  Sn  Sn28  1  0.301628  0.136125  0.750000  1
  Sn  Sn29  1  0.801628  0.363875  0.750000  1
  Sn  Sn30  1  0.698372  0.863875  0.250000  1
  Sn  Sn31  1  0.198372  0.636125  0.250000  1
  Hg  Hg32  1  0.537999  0.620317  0.750000  1
  Hg  Hg33  1  0.037999  0.879683  0.750000  1
  Hg  Hg34  1  0.462001  0.379683  0.250000  1
  Hg  Hg35  1  0.962001  0.120317  0.250000  1
