# generated using pymatgen
data_Sc2U(GaPt)3
_symmetry_space_group_name_H-M   'P 1'
_cell_length_a   7.23275597
_cell_length_b   7.23275775
_cell_length_c   3.71036500
_cell_angle_alpha   90.00000000
_cell_angle_beta   90.00000000
_cell_angle_gamma   120.68165315
_symmetry_Int_Tables_number   1
_chemical_formula_structural   Sc2U(GaPt)3
_chemical_formula_sum   'Sc2 U1 Ga3 Pt3'
_cell_volume   166.92859996
_cell_formula_units_Z   1
loop_
 _symmetry_equiv_pos_site_id
 _symmetry_equiv_pos_as_xyz
  1  'x, y, z'
loop_
 _atom_site_type_symbol
 _atom_site_label
 _atom_site_symmetry_multiplicity
 _atom_site_fract_x
 _atom_site_fract_y
 _atom_site_fract_z
 _atom_site_occupancy
  Sc  Sc0  1  0.403113  0.001193  0.500000  1
  Sc  Sc1  1  0.001193  0.403113  0.500000  1
  U  U2  1  0.588942  0.588942  0.500000  1
  Ga  Ga3  1  0.741556  0.015227  0.000000  1
  Ga  Ga4  1  0.015227  0.741556  0.000000  1
  Ga  Ga5  1  0.247351  0.247351  0.000000  1
  Pt  Pt6  1  0.340933  0.667984  0.000000  1
  Pt  Pt7  1  0.667984  0.340933  0.000000  1
  Pt  Pt8  1  0.993700  0.993700  0.500000  1
