# generated using pymatgen
data_Ta4MnBe4Rh
_symmetry_space_group_name_H-M   'P 1'
_cell_length_a   6.18918300
_cell_length_b   6.18918300
_cell_length_c   3.33868700
_cell_angle_alpha   90.00000000
_cell_angle_beta   90.00000000
_cell_angle_gamma   90.00000000
_symmetry_Int_Tables_number   1
_chemical_formula_structural   Ta4MnBe4Rh
_chemical_formula_sum   'Ta4 Mn1 Be4 Rh1'
_cell_volume   127.89169817
_cell_formula_units_Z   1
loop_
 _symmetry_equiv_pos_site_id
 _symmetry_equiv_pos_as_xyz
  1  'x, y, z'
loop_
 _atom_site_type_symbol
 _atom_site_label
 _atom_site_symmetry_multiplicity
 _atom_site_fract_x
 _atom_site_fract_y
 _atom_site_fract_z
 _atom_site_occupancy
  Ta  Ta0  1  0.683389  0.167615  0.500000  1
  Ta  Ta1  1  0.316611  0.832385  0.500000  1
  Ta  Ta2  1  0.167615  0.316611  0.500000  1
  Ta  Ta3  1  0.832385  0.683389  0.500000  1
  Mn  Mn4  1  0.000000  0.000000  0.000000  1
  Be  Be5  1  0.123986  0.619429  0.000000  1
  Be  Be6  1  0.876014  0.380571  0.000000  1
  Be  Be7  1  0.619429  0.876014  0.000000  1
  Be  Be8  1  0.380571  0.123986  0.000000  1
  Rh  Rh9  1  0.500000  0.500000  0.000000  1
