# generated using pymatgen
data_Tb3Ho3(TmAl2)2
_symmetry_space_group_name_H-M   'P 1'
_cell_length_a   5.08136200
_cell_length_b   6.55393273
_cell_length_c   9.41050100
_cell_angle_alpha   89.93116391
_cell_angle_beta   90.00000000
_cell_angle_gamma   90.00000000
_symmetry_Int_Tables_number   1
_chemical_formula_structural   Tb3Ho3(TmAl2)2
_chemical_formula_sum   'Tb3 Ho3 Tm2 Al4'
_cell_volume   313.39679204
_cell_formula_units_Z   1
loop_
 _symmetry_equiv_pos_site_id
 _symmetry_equiv_pos_as_xyz
  1  'x, y, z'
loop_
 _atom_site_type_symbol
 _atom_site_label
 _atom_site_symmetry_multiplicity
 _atom_site_fract_x
 _atom_site_fract_y
 _atom_site_fract_z
 _atom_site_occupancy
  Tb  Tb0  1  0.750000  0.687539  0.428189  1
  Tb  Tb1  1  0.250000  0.312483  0.573557  1
  Tb  Tb2  1  0.750000  0.186633  0.071580  1
  Ho  Ho3  1  0.250000  0.812922  0.926618  1
  Ho  Ho4  1  0.250000  0.471654  0.210236  1
  Ho  Ho5  1  0.250000  0.971180  0.288794  1
  Tm  Tm6  1  0.750000  0.529086  0.790051  1
  Tm  Tm7  1  0.750000  0.027998  0.710843  1
  Al  Al8  1  0.750000  0.208237  0.397434  1
  Al  Al9  1  0.250000  0.792059  0.603880  1
  Al  Al10  1  0.750000  0.708567  0.101849  1
  Al  Al11  1  0.250000  0.291643  0.896967  1
