# generated using pymatgen
data_Ho12Os2PdRh
_symmetry_space_group_name_H-M   'P 1'
_cell_length_a   6.38363948
_cell_length_b   7.28827436
_cell_length_c   9.13974900
_cell_angle_alpha   90.00000000
_cell_angle_beta   90.00000000
_cell_angle_gamma   90.47064247
_symmetry_Int_Tables_number   1
_chemical_formula_structural   Ho12Os2PdRh
_chemical_formula_sum   'Ho12 Os2 Pd1 Rh1'
_cell_volume   425.21901969
_cell_formula_units_Z   1
loop_
 _symmetry_equiv_pos_site_id
 _symmetry_equiv_pos_as_xyz
  1  'x, y, z'
loop_
 _atom_site_type_symbol
 _atom_site_label
 _atom_site_symmetry_multiplicity
 _atom_site_fract_x
 _atom_site_fract_y
 _atom_site_fract_z
 _atom_site_occupancy
  Ho  Ho0  1  0.337648  0.671359  0.057762  1
  Ho  Ho1  1  0.174938  0.185099  0.439050  1
  Ho  Ho2  1  0.668535  0.323715  0.560740  1
  Ho  Ho3  1  0.823013  0.820855  0.933840  1
  Ho  Ho4  1  0.668535  0.323715  0.939260  1
  Ho  Ho5  1  0.823013  0.820855  0.566160  1
  Ho  Ho6  1  0.337648  0.671359  0.442238  1
  Ho  Ho7  1  0.174938  0.185099  0.060950  1
  Ho  Ho8  1  0.872521  0.529834  0.250000  1
  Ho  Ho9  1  0.622102  0.038780  0.250000  1
  Ho  Ho10  1  0.123772  0.465602  0.750000  1
  Ho  Ho11  1  0.371031  0.962471  0.750000  1
  Os  Os12  1  0.460323  0.384132  0.250000  1
  Os  Os13  1  0.535247  0.614534  0.750000  1
  Pd  Pd14  1  0.047163  0.887828  0.250000  1
  Rh  Rh15  1  0.959572  0.114761  0.750000  1
