# generated using pymatgen
data_Dy17(HoBi4)3
_symmetry_space_group_name_H-M   'P 1'
_cell_length_a   8.27227407
_cell_length_b   9.53300600
_cell_length_c   12.05969410
_cell_angle_alpha   89.99845035
_cell_angle_beta   90.01434961
_cell_angle_gamma   89.99862923
_symmetry_Int_Tables_number   1
_chemical_formula_structural   Dy17(HoBi4)3
_chemical_formula_sum   'Dy17 Ho3 Bi12'
_cell_volume   951.02308410
_cell_formula_units_Z   1
loop_
 _symmetry_equiv_pos_site_id
 _symmetry_equiv_pos_as_xyz
  1  'x, y, z'
loop_
 _atom_site_type_symbol
 _atom_site_label
 _atom_site_symmetry_multiplicity
 _atom_site_fract_x
 _atom_site_fract_y
 _atom_site_fract_z
 _atom_site_occupancy
  Dy  Dy0  1  0.352552  0.749960  0.215237  1
  Dy  Dy1  1  0.852536  0.750011  0.284763  1
  Dy  Dy2  1  0.647289  0.249840  0.784791  1
  Dy  Dy3  1  0.147474  0.249954  0.715329  1
  Dy  Dy4  1  0.807451  0.436082  0.558485  1
  Dy  Dy5  1  0.307273  0.435998  0.941506  1
  Dy  Dy6  1  0.807339  0.063909  0.558508  1
  Dy  Dy7  1  0.692715  0.936006  0.058475  1
  Dy  Dy8  1  0.192641  0.564023  0.441543  1
  Dy  Dy9  1  0.475107  0.249966  0.488097  1
  Dy  Dy10  1  0.975247  0.250012  0.011846  1
  Dy  Dy11  1  0.524679  0.750007  0.511912  1
  Dy  Dy12  1  0.024746  0.749938  0.988134  1
  Dy  Dy13  1  0.312635  0.249952  0.218599  1
  Dy  Dy14  1  0.812624  0.249983  0.281344  1
  Dy  Dy15  1  0.687381  0.749955  0.781372  1
  Dy  Dy16  1  0.187361  0.750048  0.718625  1
  Ho  Ho17  1  0.692587  0.564232  0.058547  1
  Ho  Ho18  1  0.192620  0.935791  0.441441  1
  Ho  Ho19  1  0.307396  0.064178  0.941486  1
  Bi  Bi20  1  0.407380  0.750255  0.956822  1
  Bi  Bi21  1  0.907504  0.750137  0.543120  1
  Bi  Bi22  1  0.592645  0.250264  0.043209  1
  Bi  Bi23  1  0.092789  0.249621  0.456758  1
  Bi  Bi24  1  0.564739  0.995510  0.325198  1
  Bi  Bi25  1  0.064787  0.504451  0.174761  1
  Bi  Bi26  1  0.435169  0.495556  0.674840  1
  Bi  Bi27  1  0.935256  0.004427  0.825225  1
  Bi  Bi28  1  0.435133  0.004435  0.674820  1
  Bi  Bi29  1  0.935184  0.495542  0.825267  1
  Bi  Bi30  1  0.564873  0.504451  0.325146  1
  Bi  Bi31  1  0.064890  0.995505  0.174793  1
