# generated using pymatgen
data_Ho20CuRh11
_symmetry_space_group_name_H-M   'P 1'
_cell_length_a   10.89816477
_cell_length_b   10.89816442
_cell_length_c   6.33564502
_cell_angle_alpha   89.99611905
_cell_angle_beta   89.99612343
_cell_angle_gamma   89.78632417
_symmetry_Int_Tables_number   1
_chemical_formula_structural   Ho20CuRh11
_chemical_formula_sum   'Ho20 Cu1 Rh11'
_cell_volume   752.47926980
_cell_formula_units_Z   1
loop_
 _symmetry_equiv_pos_site_id
 _symmetry_equiv_pos_as_xyz
  1  'x, y, z'
loop_
 _atom_site_type_symbol
 _atom_site_label
 _atom_site_symmetry_multiplicity
 _atom_site_fract_x
 _atom_site_fract_y
 _atom_site_fract_z
 _atom_site_occupancy
  Ho  Ho0  1  0.291582  0.089483  0.378351  1
  Ho  Ho1  1  0.290961  0.914907  0.878477  1
  Ho  Ho2  1  0.708559  0.089011  0.877465  1
  Ho  Ho3  1  0.708447  0.911024  0.378716  1
  Ho  Ho4  1  0.592302  0.792630  0.879291  1
  Ho  Ho5  1  0.588700  0.208743  0.376310  1
  Ho  Ho6  1  0.413433  0.793641  0.372934  1
  Ho  Ho7  1  0.410826  0.209812  0.876899  1
  Ho  Ho8  1  0.207370  0.407698  0.620709  1
  Ho  Ho9  1  0.206359  0.586567  0.127066  1
  Ho  Ho10  1  0.791257  0.411300  0.123690  1
  Ho  Ho11  1  0.790188  0.589174  0.623101  1
  Ho  Ho12  1  0.910517  0.708418  0.121649  1
  Ho  Ho13  1  0.910989  0.291441  0.622535  1
  Ho  Ho14  1  0.085093  0.709039  0.621523  1
  Ho  Ho15  1  0.088976  0.291553  0.121284  1
  Ho  Ho16  1  0.000017  0.000454  0.499950  1
  Ho  Ho17  1  0.999546  0.999983  0.000050  1
  Ho  Ho18  1  0.501267  0.498730  0.999425  1
  Ho  Ho19  1  0.501270  0.498733  0.500575  1
  Cu  Cu20  1  0.345846  0.654154  0.750000  1
  Rh  Rh21  1  0.845654  0.154346  0.250000  1
  Rh  Rh22  1  0.846196  0.845617  0.749304  1
  Rh  Rh23  1  0.154383  0.153804  0.750696  1
  Rh  Rh24  1  0.155890  0.844110  0.250000  1
  Rh  Rh25  1  0.654681  0.345319  0.750000  1
  Rh  Rh26  1  0.652972  0.653770  0.249772  1
  Rh  Rh27  1  0.346230  0.347028  0.250228  1
  Rh  Rh28  1  0.499214  0.999194  0.122510  1
  Rh  Rh29  1  0.499603  0.999133  0.624682  1
  Rh  Rh30  1  0.000867  0.500397  0.875318  1
  Rh  Rh31  1  0.000806  0.500786  0.377490  1
