# generated using pymatgen
data_Dy3Y9Co4SnRh
_symmetry_space_group_name_H-M   'P 1'
_cell_length_a   8.33453484
_cell_length_b   8.33735968
_cell_length_c   8.33736021
_cell_angle_alpha   110.84091210
_cell_angle_beta   110.58256442
_cell_angle_gamma   107.03089379
_symmetry_Int_Tables_number   1
_chemical_formula_structural   Dy3Y9Co4SnRh
_chemical_formula_sum   'Dy3 Y9 Co4 Sn1 Rh1'
_cell_volume   445.30004514
_cell_formula_units_Z   1
loop_
 _symmetry_equiv_pos_site_id
 _symmetry_equiv_pos_as_xyz
  1  'x, y, z'
loop_
 _atom_site_type_symbol
 _atom_site_label
 _atom_site_symmetry_multiplicity
 _atom_site_fract_x
 _atom_site_fract_y
 _atom_site_fract_z
 _atom_site_occupancy
  Dy  Dy0  1  0.405069  0.209386  0.195683  1
  Dy  Dy1  1  0.594563  0.790471  0.804092  1
  Dy  Dy2  1  0.013912  0.209895  0.804016  1
  Y  Y3  1  0.984625  0.788922  0.195704  1
  Y  Y4  1  0.187319  0.292812  0.479833  1
  Y  Y5  1  0.812737  0.707428  0.520722  1
  Y  Y6  1  0.187319  0.707486  0.894507  1
  Y  Y7  1  0.812737  0.292015  0.105308  1
  Y  Y8  1  0.313028  0.617691  0.304750  1
  Y  Y9  1  0.686794  0.382088  0.694974  1
  Y  Y10  1  0.313028  0.008278  0.695337  1
  Y  Y11  1  0.686794  0.991821  0.304707  1
  Co  Co12  1  0.381099  0.000703  0.380396  1
  Co  Co13  1  0.620924  0.999990  0.620933  1
  Co  Co14  1  0.110748  0.610995  0.499753  1
  Co  Co15  1  0.889326  0.389205  0.500121  1
  Sn  Sn16  1  0.500083  0.500071  0.000013  1
  Rh  Rh17  1  0.999895  0.000744  0.999152  1
