# generated using pymatgen
data_Ho2CuP3Pd2
_symmetry_space_group_name_H-M   'P 1'
_cell_length_a   3.86603500
_cell_length_b   10.77728600
_cell_length_c   13.15811500
_cell_angle_alpha   90.00000000
_cell_angle_beta   90.00000000
_cell_angle_gamma   90.00000000
_symmetry_Int_Tables_number   1
_chemical_formula_structural   Ho2CuP3Pd2
_chemical_formula_sum   'Ho8 Cu4 P12 Pd8'
_cell_volume   548.23766262
_cell_formula_units_Z   4
loop_
 _symmetry_equiv_pos_site_id
 _symmetry_equiv_pos_as_xyz
  1  'x, y, z'
loop_
 _atom_site_type_symbol
 _atom_site_label
 _atom_site_symmetry_multiplicity
 _atom_site_fract_x
 _atom_site_fract_y
 _atom_site_fract_z
 _atom_site_occupancy
  Ho  Ho0  1  0.250000  0.926742  0.786590  1
  Ho  Ho1  1  0.750000  0.426742  0.713410  1
  Ho  Ho2  1  0.250000  0.573258  0.286590  1
  Ho  Ho3  1  0.750000  0.073258  0.213410  1
  Ho  Ho4  1  0.250000  0.840272  0.502428  1
  Ho  Ho5  1  0.750000  0.340272  0.997572  1
  Ho  Ho6  1  0.250000  0.659728  0.002428  1
  Ho  Ho7  1  0.750000  0.159728  0.497572  1
  Cu  Cu8  1  0.250000  0.869816  0.284426  1
  Cu  Cu9  1  0.750000  0.369816  0.215574  1
  Cu  Cu10  1  0.250000  0.630184  0.784426  1
  Cu  Cu11  1  0.750000  0.130184  0.715574  1
  P  P12  1  0.250000  0.235765  0.642163  1
  P  P13  1  0.750000  0.735765  0.857837  1
  P  P14  1  0.250000  0.264235  0.142163  1
  P  P15  1  0.750000  0.764235  0.357837  1
  P  P16  1  0.250000  0.601807  0.605845  1
  P  P17  1  0.750000  0.101807  0.894155  1
  P  P18  1  0.250000  0.898193  0.105845  1
  P  P19  1  0.750000  0.398193  0.394155  1
  P  P20  1  0.250000  0.053529  0.373950  1
  P  P21  1  0.750000  0.553529  0.126050  1
  P  P22  1  0.250000  0.446471  0.873950  1
  P  P23  1  0.750000  0.946471  0.626050  1
  Pd  Pd24  1  0.250000  0.404354  0.520040  1
  Pd  Pd25  1  0.750000  0.904354  0.979960  1
  Pd  Pd26  1  0.250000  0.095646  0.020040  1
  Pd  Pd27  1  0.750000  0.595646  0.479960  1
  Pd  Pd28  1  0.250000  0.274010  0.329149  1
  Pd  Pd29  1  0.750000  0.774010  0.170851  1
  Pd  Pd30  1  0.250000  0.225990  0.829149  1
  Pd  Pd31  1  0.750000  0.725990  0.670851  1
