# generated using pymatgen
data_Ba6MnFeN6
_symmetry_space_group_name_H-M   'P 1'
_cell_length_a   8.26469100
_cell_length_b   8.26469044
_cell_length_c   5.60186700
_cell_angle_alpha   90.00000000
_cell_angle_beta   90.00000000
_cell_angle_gamma   119.99999825
_symmetry_Int_Tables_number   1
_chemical_formula_structural   Ba6MnFeN6
_chemical_formula_sum   'Ba6 Mn1 Fe1 N6'
_cell_volume   331.37263792
_cell_formula_units_Z   1
loop_
 _symmetry_equiv_pos_site_id
 _symmetry_equiv_pos_as_xyz
  1  'x, y, z'
loop_
 _atom_site_type_symbol
 _atom_site_label
 _atom_site_symmetry_multiplicity
 _atom_site_fract_x
 _atom_site_fract_y
 _atom_site_fract_z
 _atom_site_occupancy
  Ba  Ba0  1  0.638574  0.720136  0.750000  1
  Ba  Ba1  1  0.920812  0.636098  0.250000  1
  Ba  Ba2  1  0.715286  0.079188  0.250000  1
  Ba  Ba3  1  0.279864  0.918439  0.750000  1
  Ba  Ba4  1  0.081561  0.361426  0.750000  1
  Ba  Ba5  1  0.363902  0.284714  0.250000  1
  Mn  Mn6  1  0.666667  0.333333  0.750000  1
  Fe  Fe7  1  0.333333  0.666667  0.250000  1
  N  N8  1  0.866063  0.549065  0.750000  1
  N  N9  1  0.319348  0.869683  0.250000  1
  N  N10  1  0.550334  0.680652  0.250000  1
  N  N11  1  0.450935  0.316999  0.750000  1
  N  N12  1  0.683001  0.133937  0.750000  1
  N  N13  1  0.130317  0.449666  0.250000  1
