# generated using pymatgen
data_Sr4CaU7Se20
_symmetry_space_group_name_H-M   'P 1'
_cell_length_a   7.72018530
_cell_length_b   8.59835864
_cell_length_c   12.06749900
_cell_angle_alpha   89.60510029
_cell_angle_beta   89.96674401
_cell_angle_gamma   90.12152764
_symmetry_Int_Tables_number   1
_chemical_formula_structural   Sr4CaU7Se20
_chemical_formula_sum   'Sr4 Ca1 U7 Se20'
_cell_volume   801.03073964
_cell_formula_units_Z   1
loop_
 _symmetry_equiv_pos_site_id
 _symmetry_equiv_pos_as_xyz
  1  'x, y, z'
loop_
 _atom_site_type_symbol
 _atom_site_label
 _atom_site_symmetry_multiplicity
 _atom_site_fract_x
 _atom_site_fract_y
 _atom_site_fract_z
 _atom_site_occupancy
  Sr  Sr0  1  0.049237  0.490062  0.327998  1
  Sr  Sr1  1  0.552724  0.504370  0.169856  1
  Sr  Sr2  1  0.948662  0.505469  0.672099  1
  Sr  Sr3  1  0.447456  0.493571  0.830150  1
  Ca  Ca4  1  0.033287  0.999990  0.320622  1
  U  U5  1  0.530331  0.997173  0.183549  1
  U  U6  1  0.973084  0.997757  0.677357  1
  U  U7  1  0.471185  0.000457  0.820280  1
  U  U8  1  0.069932  0.754855  0.012324  1
  U  U9  1  0.572684  0.252344  0.489866  1
  U  U10  1  0.927083  0.246377  0.991211  1
  U  U11  1  0.423528  0.752759  0.508770  1
  Se  Se12  1  0.660965  0.957500  0.409138  1
  Se  Se13  1  0.173450  0.047533  0.087802  1
  Se  Se14  1  0.331372  0.047211  0.595490  1
  Se  Se15  1  0.833179  0.953506  0.903299  1
  Se  Se16  1  0.457863  0.780433  0.999488  1
  Se  Se17  1  0.952184  0.225048  0.504428  1
  Se  Se18  1  0.543922  0.216808  0.997361  1
  Se  Se19  1  0.044104  0.773938  0.505920  1
  Se  Se20  1  0.829108  0.771297  0.185527  1
  Se  Se21  1  0.347899  0.235178  0.307539  1
  Se  Se22  1  0.159887  0.227018  0.808288  1
  Se  Se23  1  0.658961  0.773625  0.690984  1
  Se  Se24  1  0.317672  0.757265  0.280294  1
  Se  Se25  1  0.812256  0.236359  0.215827  1
  Se  Se26  1  0.685129  0.234586  0.719427  1
  Se  Se27  1  0.187648  0.765669  0.784425  1
  Se  Se28  1  0.181382  0.457598  0.073834  1
  Se  Se29  1  0.681422  0.546182  0.425312  1
  Se  Se30  1  0.820813  0.541686  0.922589  1
  Se  Se31  1  0.321593  0.456372  0.578948  1
