# generated using pymatgen
data_PrNd3Y2(Co3P2)6
_symmetry_space_group_name_H-M   'P 1'
_cell_length_a   3.74824600
_cell_length_b   10.60894600
_cell_length_c   12.29860500
_cell_angle_alpha   90.00000000
_cell_angle_beta   90.00000000
_cell_angle_gamma   90.00000000
_symmetry_Int_Tables_number   1
_chemical_formula_structural   PrNd3Y2(Co3P2)6
_chemical_formula_sum   'Pr1 Nd3 Y2 Co18 P12'
_cell_volume   489.05328264
_cell_formula_units_Z   1
loop_
 _symmetry_equiv_pos_site_id
 _symmetry_equiv_pos_as_xyz
  1  'x, y, z'
loop_
 _atom_site_type_symbol
 _atom_site_label
 _atom_site_symmetry_multiplicity
 _atom_site_fract_x
 _atom_site_fract_y
 _atom_site_fract_z
 _atom_site_occupancy
  Pr  Pr0  1  0.000000  0.500000  0.520477  1
  Nd  Nd1  1  0.500000  0.000000  0.477539  1
  Nd  Nd2  1  0.000000  0.683271  0.794635  1
  Nd  Nd3  1  0.000000  0.316729  0.794635  1
  Y  Y4  1  0.500000  0.817912  0.205614  1
  Y  Y5  1  0.500000  0.182088  0.205614  1
  Co  Co6  1  0.500000  0.500000  0.156498  1
  Co  Co7  1  0.000000  0.000000  0.843355  1
  Co  Co8  1  0.500000  0.500000  0.705975  1
  Co  Co9  1  0.000000  0.000000  0.294139  1
  Co  Co10  1  0.000000  0.500000  0.990634  1
  Co  Co11  1  0.500000  0.000000  0.016289  1
  Co  Co12  1  0.500000  0.331914  0.997930  1
  Co  Co13  1  0.500000  0.668086  0.997930  1
  Co  Co14  1  0.000000  0.165191  0.006644  1
  Co  Co15  1  0.000000  0.834809  0.006644  1
  Co  Co16  1  0.500000  0.296145  0.426823  1
  Co  Co17  1  0.500000  0.703855  0.426823  1
  Co  Co18  1  0.000000  0.201898  0.568188  1
  Co  Co19  1  0.000000  0.798102  0.568188  1
  Co  Co20  1  0.500000  0.881578  0.711141  1
  Co  Co21  1  0.500000  0.118422  0.711141  1
  Co  Co22  1  0.000000  0.620273  0.286707  1
  Co  Co23  1  0.000000  0.379727  0.286707  1
  P  P24  1  0.500000  0.500000  0.888637  1
  P  P25  1  0.000000  0.000000  0.117881  1
  P  P26  1  0.500000  0.500000  0.338024  1
  P  P27  1  0.000000  0.000000  0.660145  1
  P  P28  1  0.500000  0.304796  0.613173  1
  P  P29  1  0.500000  0.695204  0.613173  1
  P  P30  1  0.000000  0.192152  0.381710  1
  P  P31  1  0.000000  0.807848  0.381710  1
  P  P32  1  0.500000  0.849988  0.896367  1
  P  P33  1  0.500000  0.150012  0.896367  1
  P  P34  1  0.000000  0.655046  0.106271  1
  P  P35  1  0.000000  0.344954  0.106271  1
