# generated using pymatgen
data_Ho3CuAs2Rh3
_symmetry_space_group_name_H-M   'P 1'
_cell_length_a   6.83929200
_cell_length_b   6.83929147
_cell_length_c   4.00885300
_cell_angle_alpha   90.00000000
_cell_angle_beta   90.00000000
_cell_angle_gamma   120.00000258
_symmetry_Int_Tables_number   1
_chemical_formula_structural   Ho3CuAs2Rh3
_chemical_formula_sum   'Ho3 Cu1 As2 Rh3'
_cell_volume   162.39513336
_cell_formula_units_Z   1
loop_
 _symmetry_equiv_pos_site_id
 _symmetry_equiv_pos_as_xyz
  1  'x, y, z'
loop_
 _atom_site_type_symbol
 _atom_site_label
 _atom_site_symmetry_multiplicity
 _atom_site_fract_x
 _atom_site_fract_y
 _atom_site_fract_z
 _atom_site_occupancy
  Ho  Ho0  1  0.398003  0.000000  0.500000  1
  Ho  Ho1  1  0.000000  0.398003  0.500000  1
  Ho  Ho2  1  0.601997  0.601997  0.500000  1
  Cu  Cu3  1  0.000000  0.000000  0.500000  1
  As  As4  1  0.666667  0.333333  0.000000  1
  As  As5  1  0.333333  0.666667  0.000000  1
  Rh  Rh6  1  0.761047  0.000000  0.000000  1
  Rh  Rh7  1  0.238954  0.238953  0.000000  1
  Rh  Rh8  1  0.000000  0.761047  0.000000  1
