# generated using pymatgen
data_SrMn3PbO8
_symmetry_space_group_name_H-M   'P 1'
_cell_length_a   5.11553196
_cell_length_b   5.99159961
_cell_length_c   6.68069812
_cell_angle_alpha   116.64231090
_cell_angle_beta   107.35601152
_cell_angle_gamma   89.99804583
_symmetry_Int_Tables_number   1
_chemical_formula_structural   SrMn3PbO8
_chemical_formula_sum   'Sr1 Mn3 Pb1 O8'
_cell_volume   172.53083987
_cell_formula_units_Z   1
loop_
 _symmetry_equiv_pos_site_id
 _symmetry_equiv_pos_as_xyz
  1  'x, y, z'
loop_
 _atom_site_type_symbol
 _atom_site_label
 _atom_site_symmetry_multiplicity
 _atom_site_fract_x
 _atom_site_fract_y
 _atom_site_fract_z
 _atom_site_occupancy
  Sr  Sr0  1  0.669033  0.721058  0.442144  1
  Mn  Mn1  1  0.495040  0.998932  0.997848  1
  Mn  Mn2  1  0.001260  0.746139  0.001932  1
  Mn  Mn3  1  0.001256  0.255799  0.001936  1
  Pb  Pb4  1  0.337541  0.293580  0.587164  1
  O  O5  1  0.036124  0.402710  0.805461  1
  O  O6  1  0.967566  0.597533  0.195042  1
  O  O7  1  0.097376  0.908874  0.817687  1
  O  O8  1  0.893251  0.087951  0.175960  1
  O  O9  1  0.387017  0.311980  0.178335  1
  O  O10  1  0.387012  0.866364  0.178333  1
  O  O11  1  0.613761  0.125010  0.809076  1
  O  O12  1  0.613768  0.684068  0.809085  1
