# generated using pymatgen
data_DyTm7(Hf3Ge4)4
_symmetry_space_group_name_H-M   'P 1'
_cell_length_a   7.35596185
_cell_length_b   7.35520909
_cell_length_c   13.47702959
_cell_angle_alpha   89.98384762
_cell_angle_beta   89.97441407
_cell_angle_gamma   90.00117857
_symmetry_Int_Tables_number   1
_chemical_formula_structural   DyTm7(Hf3Ge4)4
_chemical_formula_sum   'Dy1 Tm7 Hf12 Ge16'
_cell_volume   729.16969895
_cell_formula_units_Z   1
loop_
 _symmetry_equiv_pos_site_id
 _symmetry_equiv_pos_as_xyz
  1  'x, y, z'
loop_
 _atom_site_type_symbol
 _atom_site_label
 _atom_site_symmetry_multiplicity
 _atom_site_fract_x
 _atom_site_fract_y
 _atom_site_fract_z
 _atom_site_occupancy
  Dy  Dy0  1  0.657557  0.004582  0.282327  1
  Tm  Tm1  1  0.996517  0.342849  0.217804  1
  Tm  Tm2  1  0.003871  0.657523  0.718024  1
  Tm  Tm3  1  0.157672  0.496463  0.468264  1
  Tm  Tm4  1  0.503504  0.842177  0.031680  1
  Tm  Tm5  1  0.842701  0.503603  0.967885  1
  Tm  Tm6  1  0.496362  0.157277  0.532222  1
  Tm  Tm7  1  0.342470  0.996042  0.781946  1
  Hf  Hf8  1  0.173465  0.173602  0.999691  1
  Hf  Hf9  1  0.826540  0.826464  0.500237  1
  Hf  Hf10  1  0.326378  0.673144  0.249971  1
  Hf  Hf11  1  0.673568  0.326578  0.749992  1
  Hf  Hf12  1  0.154181  0.997450  0.375191  1
  Hf  Hf13  1  0.846492  0.002538  0.875057  1
  Hf  Hf14  1  0.502604  0.653502  0.625731  1
  Hf  Hf15  1  0.346427  0.497421  0.874522  1
  Hf  Hf16  1  0.496532  0.346320  0.124658  1
  Hf  Hf17  1  0.653831  0.502922  0.375025  1
  Hf  Hf18  1  0.997542  0.153507  0.625191  1
  Hf  Hf19  1  0.002184  0.845932  0.124476  1
  Ge  Ge20  1  0.362201  0.301847  0.322723  1
  Ge  Ge21  1  0.637483  0.699312  0.823069  1
  Ge  Ge22  1  0.199418  0.862808  0.572995  1
  Ge  Ge23  1  0.137134  0.800561  0.926911  1
  Ge  Ge24  1  0.801039  0.137379  0.072551  1
  Ge  Ge25  1  0.864245  0.200274  0.427977  1
  Ge  Ge26  1  0.300849  0.362545  0.677074  1
  Ge  Ge27  1  0.699183  0.636225  0.176723  1
  Ge  Ge28  1  0.297426  0.038824  0.180915  1
  Ge  Ge29  1  0.701405  0.961057  0.681503  1
  Ge  Ge30  1  0.460119  0.797707  0.432057  1
  Ge  Ge31  1  0.201165  0.539112  0.068344  1
  Ge  Ge32  1  0.538868  0.201264  0.931253  1
  Ge  Ge33  1  0.798781  0.461257  0.568669  1
  Ge  Ge34  1  0.038811  0.298665  0.818651  1
  Ge  Ge35  1  0.961479  0.701267  0.318688  1
