# generated using pymatgen
data_Sr6LaPrBi6
_symmetry_space_group_name_H-M   'P 1'
_cell_length_a   8.73718896
_cell_length_b   8.82314946
_cell_length_c   8.74574556
_cell_angle_alpha   109.59515667
_cell_angle_beta   109.07688708
_cell_angle_gamma   109.56871298
_symmetry_Int_Tables_number   1
_chemical_formula_structural   Sr6LaPrBi6
_chemical_formula_sum   'Sr6 La1 Pr1 Bi6'
_cell_volume   520.09795753
_cell_formula_units_Z   1
loop_
 _symmetry_equiv_pos_site_id
 _symmetry_equiv_pos_as_xyz
  1  'x, y, z'
loop_
 _atom_site_type_symbol
 _atom_site_label
 _atom_site_symmetry_multiplicity
 _atom_site_fract_x
 _atom_site_fract_y
 _atom_site_fract_z
 _atom_site_occupancy
  Sr  Sr0  1  0.360506  0.357584  0.359521  1
  Sr  Sr1  1  0.000744  0.140096  0.498693  1
  Sr  Sr2  1  0.860133  0.857346  0.860713  1
  Sr  Sr3  1  0.998118  0.639551  0.500399  1
  Sr  Sr4  1  0.502701  0.002583  0.138665  1
  Sr  Sr5  1  0.638622  0.503126  0.002970  1
  La  La6  1  0.501270  0.000687  0.638817  1
  Pr  Pr7  1  0.137231  0.500734  0.001176  1
  Bi  Bi8  1  0.876083  0.251401  0.113379  1
  Bi  Bi9  1  0.132781  0.869356  0.252898  1
  Bi  Bi10  1  0.372491  0.628045  0.751574  1
  Bi  Bi11  1  0.251234  0.128482  0.872736  1
  Bi  Bi12  1  0.754884  0.370774  0.633741  1
  Bi  Bi13  1  0.613203  0.750235  0.374718  1
