# generated using pymatgen
data_BaHgGeSe4
_symmetry_space_group_name_H-M   'P 1'
_cell_length_a   6.83986000
_cell_length_b   11.26391900
_cell_length_c   11.53746600
_cell_angle_alpha   90.00000000
_cell_angle_beta   90.00000000
_cell_angle_gamma   90.00000000
_symmetry_Int_Tables_number   1
_chemical_formula_structural   BaHgGeSe4
_chemical_formula_sum   'Ba4 Hg4 Ge4 Se16'
_cell_volume   888.88825023
_cell_formula_units_Z   4
loop_
 _symmetry_equiv_pos_site_id
 _symmetry_equiv_pos_as_xyz
  1  'x, y, z'
loop_
 _atom_site_type_symbol
 _atom_site_label
 _atom_site_symmetry_multiplicity
 _atom_site_fract_x
 _atom_site_fract_y
 _atom_site_fract_z
 _atom_site_occupancy
  Ba  Ba0  1  0.054791  0.000000  0.500000  1
  Ba  Ba1  1  0.554791  0.500000  0.000000  1
  Ba  Ba2  1  0.060254  0.000000  0.000000  1
  Ba  Ba3  1  0.560254  0.500000  0.500000  1
  Hg  Hg4  1  0.492675  0.169283  0.254461  1
  Hg  Hg5  1  0.492675  0.830717  0.745539  1
  Hg  Hg6  1  0.992675  0.330717  0.754461  1
  Hg  Hg7  1  0.992675  0.669283  0.245539  1
  Ge  Ge8  1  0.039478  0.285760  0.249106  1
  Ge  Ge9  1  0.039478  0.714240  0.750894  1
  Ge  Ge10  1  0.539478  0.214240  0.749106  1
  Ge  Ge11  1  0.539478  0.785760  0.250894  1
  Se  Se12  1  0.255502  0.270037  0.085513  1
  Se  Se13  1  0.255502  0.729963  0.914487  1
  Se  Se14  1  0.755502  0.229963  0.585513  1
  Se  Se15  1  0.755502  0.770037  0.414487  1
  Se  Se16  1  0.251679  0.271927  0.415359  1
  Se  Se17  1  0.251679  0.728073  0.584641  1
  Se  Se18  1  0.751679  0.228073  0.915359  1
  Se  Se19  1  0.751679  0.771927  0.084641  1
  Se  Se20  1  0.855983  0.101506  0.249119  1
  Se  Se21  1  0.855983  0.898494  0.750881  1
  Se  Se22  1  0.355983  0.398494  0.749119  1
  Se  Se23  1  0.355983  0.601506  0.250881  1
  Se  Se24  1  0.806761  0.440897  0.248793  1
  Se  Se25  1  0.806761  0.559103  0.751207  1
  Se  Se26  1  0.306761  0.059103  0.748793  1
  Se  Se27  1  0.306761  0.940897  0.251207  1
