# generated using pymatgen
data_Tb2YTh(Al3Rh)6
_symmetry_space_group_name_H-M   'P 1'
_cell_length_a   7.58759700
_cell_length_b   7.59996162
_cell_length_c   9.50117100
_cell_angle_alpha   90.00000000
_cell_angle_beta   90.00000000
_cell_angle_gamma   119.37907033
_symmetry_Int_Tables_number   1
_chemical_formula_structural   Tb2YTh(Al3Rh)6
_chemical_formula_sum   'Tb2 Y1 Th1 Al18 Rh6'
_cell_volume   477.42691030
_cell_formula_units_Z   1
loop_
 _symmetry_equiv_pos_site_id
 _symmetry_equiv_pos_as_xyz
  1  'x, y, z'
loop_
 _atom_site_type_symbol
 _atom_site_label
 _atom_site_symmetry_multiplicity
 _atom_site_fract_x
 _atom_site_fract_y
 _atom_site_fract_z
 _atom_site_occupancy
  Tb  Tb0  1  0.004719  0.328378  0.750000  1
  Tb  Tb1  1  0.328285  0.005159  0.750000  1
  Y  Y2  1  0.671609  0.994562  0.250000  1
  Th  Th3  1  0.994883  0.671193  0.250000  1
  Al  Al4  1  0.131065  0.132421  0.250000  1
  Al  Al5  1  0.872021  0.874078  0.750000  1
  Al  Al6  1  0.001261  0.331155  0.072225  1
  Al  Al7  1  0.998826  0.664253  0.918663  1
  Al  Al8  1  0.998826  0.664253  0.581337  1
  Al  Al9  1  0.339935  0.005073  0.427560  1
  Al  Al10  1  0.001261  0.331155  0.427775  1
  Al  Al11  1  0.664586  0.000276  0.575942  1
  Al  Al12  1  0.664586  0.000276  0.924058  1
  Al  Al13  1  0.339935  0.005073  0.072440  1
  Al  Al14  1  0.332517  0.332553  0.552961  1
  Al  Al15  1  0.663482  0.666656  0.455321  1
  Al  Al16  1  0.663482  0.666656  0.044679  1
  Al  Al17  1  0.332517  0.332553  0.947039  1
  Al  Al18  1  0.343108  0.548548  0.250000  1
  Al  Al19  1  0.658150  0.448432  0.750000  1
  Al  Al20  1  0.545201  0.337125  0.250000  1
  Al  Al21  1  0.449586  0.660678  0.750000  1
  Rh  Rh22  1  0.672940  0.329460  0.000368  1
  Rh  Rh23  1  0.326825  0.671536  0.000576  1
  Rh  Rh24  1  0.326825  0.671536  0.499424  1
  Rh  Rh25  1  0.672940  0.329460  0.499632  1
  Rh  Rh26  1  0.000314  0.998748  0.000622  1
  Rh  Rh27  1  0.000314  0.998748  0.499378  1
