# generated using pymatgen
data_Ho3Ag2Hg3Ir
_symmetry_space_group_name_H-M   'P 1'
_cell_length_a   8.09123700
_cell_length_b   8.09123780
_cell_length_c   3.57705700
_cell_angle_alpha   90.00000000
_cell_angle_beta   90.00000000
_cell_angle_gamma   119.99998557
_symmetry_Int_Tables_number   1
_chemical_formula_structural   Ho3Ag2Hg3Ir
_chemical_formula_sum   'Ho3 Ag2 Hg3 Ir1'
_cell_volume   202.80863536
_cell_formula_units_Z   1
loop_
 _symmetry_equiv_pos_site_id
 _symmetry_equiv_pos_as_xyz
  1  'x, y, z'
loop_
 _atom_site_type_symbol
 _atom_site_label
 _atom_site_symmetry_multiplicity
 _atom_site_fract_x
 _atom_site_fract_y
 _atom_site_fract_z
 _atom_site_occupancy
  Ho  Ho0  1  0.585076  0.621354  0.000000  1
  Ho  Ho1  1  0.378646  0.963722  0.000000  1
  Ho  Ho2  1  0.036278  0.414924  0.000000  1
  Ag  Ag3  1  0.000000  0.000000  0.000000  1
  Ag  Ag4  1  0.666667  0.333333  0.500000  1
  Hg  Hg5  1  0.987227  0.712285  0.500000  1
  Hg  Hg6  1  0.287715  0.274941  0.500000  1
  Hg  Hg7  1  0.725059  0.012773  0.500000  1
  Ir  Ir8  1  0.333333  0.666667  0.500000  1
