# generated using pymatgen
data_Dy5Tc5P12IrRh13
_symmetry_space_group_name_H-M   'P 1'
_cell_length_a   12.65631108
_cell_length_b   12.74114046
_cell_length_c   3.93595900
_cell_angle_alpha   90.00000000
_cell_angle_beta   90.00000000
_cell_angle_gamma   120.16179327
_symmetry_Int_Tables_number   1
_chemical_formula_structural   Dy5Tc5P12IrRh13
_chemical_formula_sum   'Dy5 Tc5 P12 Ir1 Rh13'
_cell_volume   548.76484876
_cell_formula_units_Z   1
loop_
 _symmetry_equiv_pos_site_id
 _symmetry_equiv_pos_as_xyz
  1  'x, y, z'
loop_
 _atom_site_type_symbol
 _atom_site_label
 _atom_site_symmetry_multiplicity
 _atom_site_fract_x
 _atom_site_fract_y
 _atom_site_fract_z
 _atom_site_occupancy
  Dy  Dy0  1  0.332864  0.666569  0.500000  1
  Dy  Dy1  1  0.666566  0.333316  0.500000  1
  Dy  Dy2  1  0.999426  0.810901  0.000000  1
  Dy  Dy3  1  0.187319  0.185866  0.000000  1
  Dy  Dy4  1  0.810364  0.998881  0.000000  1
  Tc  Tc5  1  0.996987  0.448795  0.500000  1
  Tc  Tc6  1  0.552098  0.545278  0.500000  1
  Tc  Tc7  1  0.456744  0.012435  0.500000  1
  Tc  Tc8  1  0.619281  0.797620  0.500000  1
  Tc  Tc9  1  0.202300  0.822476  0.500000  1
  P  P10  1  0.005696  0.638396  0.500000  1
  P  P11  1  0.365308  0.366381  0.500000  1
  P  P12  1  0.632402  0.994853  0.500000  1
  P  P13  1  0.519523  0.691317  0.000000  1
  P  P14  1  0.310133  0.832039  0.000000  1
  P  P15  1  0.165626  0.481175  0.000000  1
  P  P16  1  0.483116  0.164876  0.000000  1
  P  P17  1  0.682425  0.517127  0.000000  1
  P  P18  1  0.837121  0.318591  0.000000  1
  P  P19  1  0.999234  0.176854  0.500000  1
  P  P20  1  0.816598  0.820475  0.500000  1
  P  P21  1  0.177067  0.993375  0.500000  1
  Ir  Ir22  1  0.999567  0.999188  0.500000  1
  Rh  Rh23  1  0.509498  0.876291  0.000000  1
  Rh  Rh24  1  0.126649  0.636654  0.000000  1
  Rh  Rh25  1  0.360502  0.490127  0.000000  1
  Rh  Rh26  1  0.487198  0.356410  0.000000  1
  Rh  Rh27  1  0.867055  0.510039  0.000000  1
  Rh  Rh28  1  0.646940  0.136035  0.000000  1
  Rh  Rh29  1  0.000429  0.282112  0.000000  1
  Rh  Rh30  1  0.718431  0.713405  0.000000  1
  Rh  Rh31  1  0.284944  0.005239  0.000000  1
  Rh  Rh32  1  0.179591  0.376515  0.500000  1
  Rh  Rh33  1  0.373834  0.182912  0.500000  1
  Rh  Rh34  1  0.806386  0.622645  0.500000  1
  Rh  Rh35  1  0.820777  0.194829  0.500000  1
