# generated using pymatgen
data_Tb3Lu13(CdNi)4
_symmetry_space_group_name_H-M   'P 1'
_cell_length_a   9.39022250
_cell_length_b   9.38957329
_cell_length_c   9.38957300
_cell_angle_alpha   60.00000454
_cell_angle_beta   60.00229154
_cell_angle_gamma   60.00229837
_symmetry_Int_Tables_number   1
_chemical_formula_structural   Tb3Lu13(CdNi)4
_chemical_formula_sum   'Tb3 Lu13 Cd4 Ni4'
_cell_volume   585.42014489
_cell_formula_units_Z   1
loop_
 _symmetry_equiv_pos_site_id
 _symmetry_equiv_pos_as_xyz
  1  'x, y, z'
loop_
 _atom_site_type_symbol
 _atom_site_label
 _atom_site_symmetry_multiplicity
 _atom_site_fract_x
 _atom_site_fract_y
 _atom_site_fract_z
 _atom_site_occupancy
  Tb  Tb0  1  0.349313  0.350339  0.350339  1
  Tb  Tb1  1  0.349313  0.350339  0.950008  1
  Tb  Tb2  1  0.349313  0.950008  0.350339  1
  Lu  Lu3  1  0.950176  0.349941  0.349941  1
  Lu  Lu4  1  0.813601  0.186831  0.186831  1
  Lu  Lu5  1  0.186132  0.813814  0.813814  1
  Lu  Lu6  1  0.186132  0.813814  0.186241  1
  Lu  Lu7  1  0.813601  0.186831  0.812737  1
  Lu  Lu8  1  0.186132  0.186241  0.813814  1
  Lu  Lu9  1  0.813601  0.812737  0.186831  1
  Lu  Lu10  1  0.935199  0.564532  0.564532  1
  Lu  Lu11  1  0.565349  0.934767  0.934767  1
  Lu  Lu12  1  0.565349  0.934767  0.565117  1
  Lu  Lu13  1  0.935199  0.564532  0.935738  1
  Lu  Lu14  1  0.565349  0.565117  0.934767  1
  Lu  Lu15  1  0.935199  0.935738  0.564532  1
  Cd  Cd16  1  0.582721  0.581914  0.581914  1
  Cd  Cd17  1  0.582721  0.581914  0.253451  1
  Cd  Cd18  1  0.582721  0.253451  0.581914  1
  Cd  Cd19  1  0.251615  0.582795  0.582795  1
  Ni  Ni20  1  0.141879  0.142656  0.142656  1
  Ni  Ni21  1  0.141879  0.142656  0.572811  1
  Ni  Ni22  1  0.141879  0.572811  0.142656  1
  Ni  Ni23  1  0.575626  0.141458  0.141458  1
