# generated using pymatgen
data_Rb4NaFeSe4
_symmetry_space_group_name_H-M   'P 1'
_cell_length_a   8.57254800
_cell_length_b   8.57254731
_cell_length_c   8.57250356
_cell_angle_alpha   131.60779565
_cell_angle_beta   129.52024639
_cell_angle_gamma   72.52004205
_symmetry_Int_Tables_number   1
_chemical_formula_structural   Rb4NaFeSe4
_chemical_formula_sum   'Rb4 Na1 Fe1 Se4'
_cell_volume   355.11513740
_cell_formula_units_Z   1
loop_
 _symmetry_equiv_pos_site_id
 _symmetry_equiv_pos_as_xyz
  1  'x, y, z'
loop_
 _atom_site_type_symbol
 _atom_site_label
 _atom_site_symmetry_multiplicity
 _atom_site_fract_x
 _atom_site_fract_y
 _atom_site_fract_z
 _atom_site_occupancy
  Rb  Rb0  1  0.815352  0.651600  0.175980  1
  Rb  Rb1  1  0.184649  0.360628  0.836246  1
  Rb  Rb2  1  0.524382  0.848402  0.663754  1
  Rb  Rb3  1  0.475620  0.139373  0.324020  1
  Na  Na4  1  0.000001  0.750001  0.750000  1
  Fe  Fe5  1  0.999982  0.249982  0.250000  1
  Se  Se6  1  0.289857  0.559960  0.644247  1
  Se  Se7  1  0.084291  0.940052  0.229899  1
  Se  Se8  1  0.915714  0.145610  0.855753  1
  Se  Se9  1  0.710153  0.354392  0.270101  1
