# generated using pymatgen
data_Zr5Co16Si10Mo3P2
_symmetry_space_group_name_H-M   'P 1'
_cell_length_a   12.09996300
_cell_length_b   12.12535538
_cell_length_c   3.66441300
_cell_angle_alpha   90.00000000
_cell_angle_beta   90.00000000
_cell_angle_gamma   119.93074731
_symmetry_Int_Tables_number   1
_chemical_formula_structural   Zr5Co16Si10Mo3P2
_chemical_formula_sum   'Zr5 Co16 Si10 Mo3 P2'
_cell_volume   465.92520922
_cell_formula_units_Z   1
loop_
 _symmetry_equiv_pos_site_id
 _symmetry_equiv_pos_as_xyz
  1  'x, y, z'
loop_
 _atom_site_type_symbol
 _atom_site_label
 _atom_site_symmetry_multiplicity
 _atom_site_fract_x
 _atom_site_fract_y
 _atom_site_fract_z
 _atom_site_occupancy
  Zr  Zr0  1  0.666923  0.333977  0.000000  1
  Zr  Zr1  1  0.332945  0.666023  0.000000  1
  Zr  Zr2  1  0.816341  0.816168  0.500000  1
  Zr  Zr3  1  0.183957  0.000000  0.500000  1
  Zr  Zr4  1  0.000174  0.183832  0.500000  1
  Co  Co5  1  0.195556  0.369719  0.000000  1
  Co  Co6  1  0.174475  0.804592  0.000000  1
  Co  Co7  1  0.825837  0.630281  0.000000  1
  Co  Co8  1  0.803968  0.177443  0.000000  1
  Co  Co9  1  0.369883  0.195408  0.000000  1
  Co  Co10  1  0.124516  0.478193  0.500000  1
  Co  Co11  1  0.353578  0.875747  0.500000  1
  Co  Co12  1  0.521428  0.645123  0.500000  1
  Co  Co13  1  0.646323  0.521807  0.500000  1
  Co  Co14  1  0.876305  0.354877  0.500000  1
  Co  Co15  1  0.477832  0.124253  0.500000  1
  Co  Co16  1  0.004785  0.000000  0.000000  1
  Co  Co17  1  0.720821  0.000000  0.500000  1
  Co  Co18  1  0.999992  0.725347  0.500000  1
  Co  Co19  1  0.626525  0.822557  0.000000  1
  Co  Co20  1  0.274646  0.274653  0.500000  1
  Si  Si21  1  0.643065  0.643221  0.000000  1
  Si  Si22  1  0.357059  0.000000  0.000000  1
  Si  Si23  1  0.999844  0.356779  0.000000  1
  Si  Si24  1  0.482191  0.313426  0.500000  1
  Si  Si25  1  0.686791  0.169672  0.500000  1
  Si  Si26  1  0.831743  0.518023  0.500000  1
  Si  Si27  1  0.517118  0.830328  0.500000  1
  Si  Si28  1  0.168765  0.686574  0.500000  1
  Si  Si29  1  0.823504  0.000000  0.000000  1
  Si  Si30  1  0.313720  0.481977  0.500000  1
  Mo  Mo31  1  0.440611  0.440271  0.000000  1
  Mo  Mo32  1  0.560888  0.000000  0.000000  1
  Mo  Mo33  1  0.000340  0.559729  0.000000  1
  P  P34  1  0.999883  0.822217  0.000000  1
  P  P35  1  0.177666  0.177783  0.000000  1
