# generated using pymatgen
data_Rb2Zr3(CuSe4)2
_symmetry_space_group_name_H-M   'P 1'
_cell_length_a   3.93578403
_cell_length_b   8.10350108
_cell_length_c   13.52089444
_cell_angle_alpha   93.67707387
_cell_angle_beta   98.36879308
_cell_angle_gamma   104.05448956
_symmetry_Int_Tables_number   1
_chemical_formula_structural   Rb2Zr3(CuSe4)2
_chemical_formula_sum   'Rb2 Zr3 Cu2 Se8'
_cell_volume   411.63802198
_cell_formula_units_Z   1
loop_
 _symmetry_equiv_pos_site_id
 _symmetry_equiv_pos_as_xyz
  1  'x, y, z'
loop_
 _atom_site_type_symbol
 _atom_site_label
 _atom_site_symmetry_multiplicity
 _atom_site_fract_x
 _atom_site_fract_y
 _atom_site_fract_z
 _atom_site_occupancy
  Rb  Rb0  1  0.868652  0.536909  0.200394  1
  Rb  Rb1  1  0.131348  0.463091  0.799605  1
  Zr  Zr2  1  0.500000  0.000000  0.000000  1
  Zr  Zr3  1  0.721033  0.063013  0.379052  1
  Zr  Zr4  1  0.278966  0.936987  0.620947  1
  Cu  Cu5  1  0.145832  0.094659  0.197007  1
  Cu  Cu6  1  0.854167  0.905342  0.802992  1
  Se  Se7  1  0.141147  0.238017  0.044276  1
  Se  Se8  1  0.545448  0.900989  0.189906  1
  Se  Se9  1  0.319910  0.289998  0.349823  1
  Se  Se10  1  0.128150  0.835255  0.421046  1
  Se  Se11  1  0.871850  0.164746  0.578953  1
  Se  Se12  1  0.680091  0.710003  0.650178  1
  Se  Se13  1  0.454552  0.099011  0.810094  1
  Se  Se14  1  0.858852  0.761982  0.955723  1
