# generated using pymatgen
data_Hf4Ti6Si5Ge
_symmetry_space_group_name_H-M   'P 1'
_cell_length_a   7.62675593
_cell_length_b   7.76664700
_cell_length_c   5.24223100
_cell_angle_alpha   90.00000000
_cell_angle_beta   90.00000000
_cell_angle_gamma   120.55664094
_symmetry_Int_Tables_number   1
_chemical_formula_structural   Hf4Ti6Si5Ge
_chemical_formula_sum   'Hf4 Ti6 Si5 Ge1'
_cell_volume   267.39715173
_cell_formula_units_Z   1
loop_
 _symmetry_equiv_pos_site_id
 _symmetry_equiv_pos_as_xyz
  1  'x, y, z'
loop_
 _atom_site_type_symbol
 _atom_site_label
 _atom_site_symmetry_multiplicity
 _atom_site_fract_x
 _atom_site_fract_y
 _atom_site_fract_z
 _atom_site_occupancy
  Hf  Hf0  1  0.755488  0.753755  0.250000  1
  Hf  Hf1  1  0.758599  0.001694  0.750000  1
  Hf  Hf2  1  0.243881  0.248563  0.750000  1
  Hf  Hf3  1  0.242840  0.998543  0.250000  1
  Ti  Ti4  1  0.996371  0.735528  0.750000  1
  Ti  Ti5  1  0.000079  0.261717  0.250000  1
  Ti  Ti6  1  0.335006  0.665680  0.498890  1
  Ti  Ti7  1  0.666148  0.334389  0.001069  1
  Ti  Ti8  1  0.666148  0.334389  0.498931  1
  Ti  Ti9  1  0.335006  0.665680  0.001110  1
  Si  Si10  1  0.391054  0.395000  0.250000  1
  Si  Si11  1  0.000718  0.599554  0.250000  1
  Si  Si12  1  0.999587  0.401433  0.750000  1
  Si  Si13  1  0.608437  0.604223  0.750000  1
  Si  Si14  1  0.609978  0.004699  0.250000  1
  Ge  Ge15  1  0.390660  0.995152  0.750000  1
