# generated using pymatgen
data_Y3Cd3Hg2Pb
_symmetry_space_group_name_H-M   'P 1'
_cell_length_a   7.73110000
_cell_length_b   7.73109913
_cell_length_c   4.42696000
_cell_angle_alpha   90.00000000
_cell_angle_beta   90.00000000
_cell_angle_gamma   120.00000370
_symmetry_Int_Tables_number   1
_chemical_formula_structural   Y3Cd3Hg2Pb
_chemical_formula_sum   'Y3 Cd3 Hg2 Pb1'
_cell_volume   229.14941159
_cell_formula_units_Z   1
loop_
 _symmetry_equiv_pos_site_id
 _symmetry_equiv_pos_as_xyz
  1  'x, y, z'
loop_
 _atom_site_type_symbol
 _atom_site_label
 _atom_site_symmetry_multiplicity
 _atom_site_fract_x
 _atom_site_fract_y
 _atom_site_fract_z
 _atom_site_occupancy
  Y  Y0  1  0.411569  0.990965  0.499999  1
  Y  Y1  1  0.009035  0.420603  0.499999  1
  Y  Y2  1  0.579397  0.588431  0.499999  1
  Cd  Cd3  1  0.744559  0.986551  0.000000  1
  Cd  Cd4  1  0.241991  0.255441  0.000000  1
  Cd  Cd5  1  0.013449  0.758010  0.000000  1
  Hg  Hg6  1  0.333333  0.666666  0.000000  1
  Hg  Hg7  1  0.000000  0.000000  0.499999  1
  Pb  Pb8  1  0.666667  0.333333  0.000000  1
