# generated using pymatgen
data_TbDy4Si6P6Ir19
_symmetry_space_group_name_H-M   'P 1'
_cell_length_a   12.80395500
_cell_length_b   12.80395449
_cell_length_c   3.95391100
_cell_angle_alpha   90.00000000
_cell_angle_beta   90.00000000
_cell_angle_gamma   119.99999873
_symmetry_Int_Tables_number   1
_chemical_formula_structural   TbDy4Si6P6Ir19
_chemical_formula_sum   'Tb1 Dy4 Si6 P6 Ir19'
_cell_volume   561.36558930
_cell_formula_units_Z   1
loop_
 _symmetry_equiv_pos_site_id
 _symmetry_equiv_pos_as_xyz
  1  'x, y, z'
loop_
 _atom_site_type_symbol
 _atom_site_label
 _atom_site_symmetry_multiplicity
 _atom_site_fract_x
 _atom_site_fract_y
 _atom_site_fract_z
 _atom_site_occupancy
  Tb  Tb0  1  0.333333  0.666667  0.500000  1
  Dy  Dy1  1  0.666667  0.333333  0.500000  1
  Dy  Dy2  1  0.001553  0.816086  0.000000  1
  Dy  Dy3  1  0.183914  0.185467  0.000000  1
  Dy  Dy4  1  0.814533  0.998447  0.000000  1
  Si  Si5  1  0.000750  0.635894  0.500000  1
  Si  Si6  1  0.364106  0.364858  0.500000  1
  Si  Si7  1  0.635142  0.999250  0.500000  1
  Si  Si8  1  0.519709  0.682206  0.000000  1
  Si  Si9  1  0.317794  0.837503  0.000000  1
  Si  Si10  1  0.162497  0.480291  0.000000  1
  P  P11  1  0.483711  0.177746  0.000000  1
  P  P12  1  0.694035  0.516289  0.000000  1
  P  P13  1  0.822254  0.305965  0.000000  1
  P  P14  1  0.996256  0.176390  0.500000  1
  P  P15  1  0.823610  0.819865  0.500000  1
  P  P16  1  0.180135  0.003744  0.500000  1
  Ir  Ir17  1  0.515686  0.869264  0.000000  1
  Ir  Ir18  1  0.130736  0.646423  0.000000  1
  Ir  Ir19  1  0.353577  0.484314  0.000000  1
  Ir  Ir20  1  0.494431  0.368434  0.000000  1
  Ir  Ir21  1  0.874003  0.505569  0.000000  1
  Ir  Ir22  1  0.631566  0.125997  0.000000  1
  Ir  Ir23  1  0.014822  0.457733  0.500000  1
  Ir  Ir24  1  0.542267  0.557089  0.500000  1
  Ir  Ir25  1  0.442911  0.985178  0.500000  1
  Ir  Ir26  1  0.993609  0.277798  0.000000  1
  Ir  Ir27  1  0.722202  0.715810  0.000000  1
  Ir  Ir28  1  0.284190  0.006391  0.000000  1
  Ir  Ir29  1  0.632814  0.808865  0.500000  1
  Ir  Ir30  1  0.191135  0.823949  0.500000  1
  Ir  Ir31  1  0.176051  0.367186  0.500000  1
  Ir  Ir32  1  0.381914  0.182697  0.500000  1
  Ir  Ir33  1  0.800783  0.618086  0.500000  1
  Ir  Ir34  1  0.817303  0.199217  0.500000  1
  Ir  Ir35  1  0.000000  0.000000  0.500000  1
