# generated using pymatgen
data_K4Ni(PS4)2
_symmetry_space_group_name_H-M   'P 1'
_cell_length_a   6.49522632
_cell_length_b   6.98932358
_cell_length_c   9.08065848
_cell_angle_alpha   86.05701942
_cell_angle_beta   81.75789190
_cell_angle_gamma   85.05686806
_symmetry_Int_Tables_number   1
_chemical_formula_structural   K4Ni(PS4)2
_chemical_formula_sum   'K4 Ni1 P2 S8'
_cell_volume   405.79571473
_cell_formula_units_Z   1
loop_
 _symmetry_equiv_pos_site_id
 _symmetry_equiv_pos_as_xyz
  1  'x, y, z'
loop_
 _atom_site_type_symbol
 _atom_site_label
 _atom_site_symmetry_multiplicity
 _atom_site_fract_x
 _atom_site_fract_y
 _atom_site_fract_z
 _atom_site_occupancy
  K  K0  1  0.284455  0.335821  0.140238  1
  K  K1  1  0.743992  0.219843  0.483563  1
  K  K2  1  0.256008  0.780157  0.516437  1
  K  K3  1  0.715545  0.664179  0.859762  1
  Ni  Ni4  1  0.000000  0.000000  0.000000  1
  P  P5  1  0.829859  0.736507  0.257397  1
  P  P6  1  0.170141  0.263493  0.742603  1
  S  S7  1  0.691981  0.964877  0.135763  1
  S  S8  1  0.775057  0.479152  0.187849  1
  S  S9  1  0.132525  0.812149  0.175894  1
  S  S10  1  0.761435  0.749337  0.482267  1
  S  S11  1  0.238565  0.250663  0.517733  1
  S  S12  1  0.867475  0.187851  0.824106  1
  S  S13  1  0.224943  0.520848  0.812151  1
  S  S14  1  0.308019  0.035123  0.864237  1
