# generated using pymatgen
data_Dy12IrPt2Rh
_symmetry_space_group_name_H-M   'P 1'
_cell_length_a   6.40421354
_cell_length_b   7.11560410
_cell_length_c   9.51826800
_cell_angle_alpha   90.00000000
_cell_angle_beta   90.00000000
_cell_angle_gamma   90.13586181
_symmetry_Int_Tables_number   1
_chemical_formula_structural   Dy12IrPt2Rh
_chemical_formula_sum   'Dy12 Ir1 Pt2 Rh1'
_cell_volume   433.74480803
_cell_formula_units_Z   1
loop_
 _symmetry_equiv_pos_site_id
 _symmetry_equiv_pos_as_xyz
  1  'x, y, z'
loop_
 _atom_site_type_symbol
 _atom_site_label
 _atom_site_symmetry_multiplicity
 _atom_site_fract_x
 _atom_site_fract_y
 _atom_site_fract_z
 _atom_site_occupancy
  Dy  Dy0  1  0.324254  0.682354  0.059968  1
  Dy  Dy1  1  0.172583  0.177569  0.437385  1
  Dy  Dy2  1  0.673389  0.322404  0.563494  1
  Dy  Dy3  1  0.823010  0.817116  0.938428  1
  Dy  Dy4  1  0.673389  0.322404  0.936506  1
  Dy  Dy5  1  0.823010  0.817116  0.561572  1
  Dy  Dy6  1  0.324254  0.682354  0.440032  1
  Dy  Dy7  1  0.172583  0.177569  0.062615  1
  Dy  Dy8  1  0.871225  0.533824  0.250000  1
  Dy  Dy9  1  0.634905  0.029367  0.250000  1
  Dy  Dy10  1  0.136001  0.471925  0.750000  1
  Dy  Dy11  1  0.371017  0.965803  0.750000  1
  Ir  Ir12  1  0.550987  0.614241  0.750000  1
  Pt  Pt13  1  0.446829  0.387041  0.250000  1
  Pt  Pt14  1  0.949700  0.113264  0.750000  1
  Rh  Rh15  1  0.052866  0.885649  0.250000  1
