# generated using pymatgen
data_Tb4Y(ZnB4)2
_symmetry_space_group_name_H-M   'P 1'
_cell_length_a   7.22075500
_cell_length_b   7.22075500
_cell_length_c   8.45865600
_cell_angle_alpha   90.00000000
_cell_angle_beta   90.00000000
_cell_angle_gamma   90.00000000
_symmetry_Int_Tables_number   1
_chemical_formula_structural   Tb4Y(ZnB4)2
_chemical_formula_sum   'Tb8 Y2 Zn4 B16'
_cell_volume   441.02842621
_cell_formula_units_Z   2
loop_
 _symmetry_equiv_pos_site_id
 _symmetry_equiv_pos_as_xyz
  1  'x, y, z'
loop_
 _atom_site_type_symbol
 _atom_site_label
 _atom_site_symmetry_multiplicity
 _atom_site_fract_x
 _atom_site_fract_y
 _atom_site_fract_z
 _atom_site_occupancy
  Tb  Tb0  1  0.682090  0.182090  0.212244  1
  Tb  Tb1  1  0.317910  0.817910  0.787756  1
  Tb  Tb2  1  0.317910  0.817910  0.212244  1
  Tb  Tb3  1  0.817910  0.682090  0.212244  1
  Tb  Tb4  1  0.817910  0.682090  0.787756  1
  Tb  Tb5  1  0.682090  0.182090  0.787756  1
  Tb  Tb6  1  0.182090  0.317910  0.787756  1
  Tb  Tb7  1  0.182090  0.317910  0.212244  1
  Y  Y8  1  0.000000  0.000000  0.500000  1
  Y  Y9  1  0.500000  0.500000  0.500000  1
  Zn  Zn10  1  0.117596  0.617596  0.500000  1
  Zn  Zn11  1  0.882404  0.382404  0.500000  1
  Zn  Zn12  1  0.382404  0.117596  0.500000  1
  Zn  Zn13  1  0.617596  0.882404  0.500000  1
  B  B14  1  0.171693  0.040393  0.000000  1
  B  B15  1  0.828307  0.959607  0.000000  1
  B  B16  1  0.959607  0.171693  0.000000  1
  B  B17  1  0.328307  0.540393  0.000000  1
  B  B18  1  0.040393  0.828307  0.000000  1
  B  B19  1  0.671693  0.459607  0.000000  1
  B  B20  1  0.540393  0.671693  0.000000  1
  B  B21  1  0.459607  0.328307  0.000000  1
  B  B22  1  0.090855  0.590855  0.000000  1
  B  B23  1  0.909145  0.409145  0.000000  1
  B  B24  1  0.409145  0.090855  0.000000  1
  B  B25  1  0.590855  0.909145  0.000000  1
  B  B26  1  0.000000  0.000000  0.156318  1
  B  B27  1  0.000000  0.000000  0.843682  1
  B  B28  1  0.500000  0.500000  0.843682  1
  B  B29  1  0.500000  0.500000  0.156318  1
