# generated using pymatgen
data_Tb14Nd2Cd4Pd3Pt
_symmetry_space_group_name_H-M   'P 1'
_cell_length_a   9.79322060
_cell_length_b   9.78045689
_cell_length_c   9.74955900
_cell_angle_alpha   60.10444543
_cell_angle_beta   60.14736837
_cell_angle_gamma   59.92891894
_symmetry_Int_Tables_number   1
_chemical_formula_structural   Tb14Nd2Cd4Pd3Pt
_chemical_formula_sum   'Tb14 Nd2 Cd4 Pd3 Pt1'
_cell_volume   661.21650867
_cell_formula_units_Z   1
loop_
 _symmetry_equiv_pos_site_id
 _symmetry_equiv_pos_as_xyz
  1  'x, y, z'
loop_
 _atom_site_type_symbol
 _atom_site_label
 _atom_site_symmetry_multiplicity
 _atom_site_fract_x
 _atom_site_fract_y
 _atom_site_fract_z
 _atom_site_occupancy
  Tb  Tb0  1  0.353503  0.351401  0.349745  1
  Tb  Tb1  1  0.353503  0.351401  0.945351  1
  Tb  Tb2  1  0.353862  0.941798  0.352170  1
  Tb  Tb3  1  0.940591  0.353177  0.353116  1
  Tb  Tb4  1  0.809225  0.190079  0.189865  1
  Tb  Tb5  1  0.190375  0.810538  0.808995  1
  Tb  Tb6  1  0.190375  0.810538  0.190092  1
  Tb  Tb7  1  0.809225  0.190079  0.810831  1
  Tb  Tb8  1  0.190873  0.190475  0.809326  1
  Tb  Tb9  1  0.809023  0.811403  0.189787  1
  Tb  Tb10  1  0.937495  0.562478  0.564096  1
  Tb  Tb11  1  0.562959  0.937833  0.936672  1
  Tb  Tb12  1  0.562959  0.937833  0.562536  1
  Tb  Tb13  1  0.937495  0.562478  0.935932  1
  Nd  Nd14  1  0.568490  0.567819  0.931846  1
  Nd  Nd15  1  0.932780  0.932537  0.567342  1
  Cd  Cd16  1  0.581853  0.582000  0.578792  1
  Cd  Cd17  1  0.581853  0.582000  0.257355  1
  Cd  Cd18  1  0.578582  0.255959  0.582730  1
  Cd  Cd19  1  0.256294  0.578696  0.582506  1
  Pd  Pd20  1  0.144228  0.144786  0.142514  1
  Pd  Pd21  1  0.144228  0.144786  0.568472  1
  Pd  Pd22  1  0.140895  0.569141  0.144982  1
  Pt  Pt23  1  0.569336  0.140767  0.144949  1
