# generated using pymatgen
data_Ti3V(GaRh5)2
_symmetry_space_group_name_H-M   'P 1'
_cell_length_a   3.98314900
_cell_length_b   5.39533869
_cell_length_c   10.65465238
_cell_angle_alpha   90.05813747
_cell_angle_beta   90.00000000
_cell_angle_gamma   90.00000000
_symmetry_Int_Tables_number   1
_chemical_formula_structural   Ti3V(GaRh5)2
_chemical_formula_sum   'Ti3 V1 Ga2 Rh10'
_cell_volume   228.97302752
_cell_formula_units_Z   1
loop_
 _symmetry_equiv_pos_site_id
 _symmetry_equiv_pos_as_xyz
  1  'x, y, z'
loop_
 _atom_site_type_symbol
 _atom_site_label
 _atom_site_symmetry_multiplicity
 _atom_site_fract_x
 _atom_site_fract_y
 _atom_site_fract_z
 _atom_site_occupancy
  Ti  Ti0  1  0.500000  0.684632  0.859995  1
  Ti  Ti1  1  0.500000  0.819254  0.363376  1
  Ti  Ti2  1  0.500000  0.184658  0.640623  1
  V  V3  1  0.500000  0.322313  0.140910  1
  Ga  Ga4  1  0.000000  0.993966  0.999752  1
  Ga  Ga5  1  0.000000  0.499017  0.499383  1
  Rh  Rh6  1  0.000000  0.001014  0.498282  1
  Rh  Rh7  1  0.000000  0.490429  0.004111  1
  Rh  Rh8  1  0.000000  0.070961  0.241757  1
  Rh  Rh9  1  0.000000  0.937717  0.753138  1
  Rh  Rh10  1  0.000000  0.564320  0.251690  1
  Rh  Rh11  1  0.000000  0.437366  0.748233  1
  Rh  Rh12  1  0.500000  0.304692  0.383070  1
  Rh  Rh13  1  0.500000  0.696275  0.611511  1
  Rh  Rh14  1  0.500000  0.796930  0.112283  1
  Rh  Rh15  1  0.500000  0.196458  0.891886  1
