# generated using pymatgen
data_Np8TiSe17
_symmetry_space_group_name_H-M   'P 1'
_cell_length_a   8.18865958
_cell_length_b   8.18865965
_cell_length_c   10.85346938
_cell_angle_alpha   80.97827411
_cell_angle_beta   80.97827429
_cell_angle_gamma   65.35716819
_symmetry_Int_Tables_number   1
_chemical_formula_structural   Np8TiSe17
_chemical_formula_sum   'Np8 Ti1 Se17'
_cell_volume   649.90778963
_cell_formula_units_Z   1
loop_
 _symmetry_equiv_pos_site_id
 _symmetry_equiv_pos_as_xyz
  1  'x, y, z'
loop_
 _atom_site_type_symbol
 _atom_site_label
 _atom_site_symmetry_multiplicity
 _atom_site_fract_x
 _atom_site_fract_y
 _atom_site_fract_z
 _atom_site_occupancy
  Np  Np0  1  0.816513  0.301596  0.299224  1
  Np  Np1  1  0.301596  0.816513  0.299224  1
  Np  Np2  1  0.183487  0.698404  0.700776  1
  Np  Np3  1  0.698404  0.183487  0.700776  1
  Np  Np4  1  0.205061  0.205061  0.541950  1
  Np  Np5  1  0.794939  0.794939  0.458050  1
  Np  Np6  1  0.682842  0.682842  0.980271  1
  Np  Np7  1  0.317158  0.317158  0.019729  1
  Ti  Ti8  1  0.000000  0.000000  0.000000  1
  Se  Se9  1  0.822463  0.432538  0.536079  1
  Se  Se10  1  0.432538  0.822463  0.536079  1
  Se  Se11  1  0.177537  0.567462  0.463921  1
  Se  Se12  1  0.567462  0.177537  0.463921  1
  Se  Se13  1  0.940179  0.324077  0.029561  1
  Se  Se14  1  0.324077  0.940179  0.029561  1
  Se  Se15  1  0.059821  0.675923  0.970439  1
  Se  Se16  1  0.675923  0.059821  0.970439  1
  Se  Se17  1  0.211320  0.211320  0.277983  1
  Se  Se18  1  0.788680  0.788680  0.722017  1
  Se  Se19  1  0.062114  0.062114  0.771067  1
  Se  Se20  1  0.937886  0.937886  0.228933  1
  Se  Se21  1  0.301821  0.301821  0.754944  1
  Se  Se22  1  0.698179  0.698179  0.245056  1
  Se  Se23  1  0.522993  0.522993  0.829724  1
  Se  Se24  1  0.477007  0.477007  0.170276  1
  Se  Se25  1  0.000000  0.000000  0.500000  1
