# generated using pymatgen
data_Tb3Ho(NiB10)2
_symmetry_space_group_name_H-M   'P 1'
_cell_length_a   4.14571400
_cell_length_b   5.55575801
_cell_length_c   11.09434302
_cell_angle_alpha   89.99247608
_cell_angle_beta   90.00000000
_cell_angle_gamma   90.00000000
_symmetry_Int_Tables_number   1
_chemical_formula_structural   Tb3Ho(NiB10)2
_chemical_formula_sum   'Tb3 Ho1 Ni2 B20'
_cell_volume   255.53138288
_cell_formula_units_Z   1
loop_
 _symmetry_equiv_pos_site_id
 _symmetry_equiv_pos_as_xyz
  1  'x, y, z'
loop_
 _atom_site_type_symbol
 _atom_site_label
 _atom_site_symmetry_multiplicity
 _atom_site_fract_x
 _atom_site_fract_y
 _atom_site_fract_z
 _atom_site_occupancy
  Tb  Tb0  1  0.500000  0.814970  0.637782  1
  Tb  Tb1  1  0.500000  0.314568  0.862074  1
  Tb  Tb2  1  0.500000  0.685275  0.138118  1
  Ho  Ho3  1  0.500000  0.184965  0.362135  1
  Ni  Ni4  1  0.000000  0.000502  0.000411  1
  Ni  Ni5  1  0.000000  0.499347  0.499614  1
  B  B6  1  0.000000  0.374399  0.041336  1
  B  B7  1  0.000000  0.625592  0.959125  1
  B  B8  1  0.000000  0.126091  0.540475  1
  B  B9  1  0.000000  0.874916  0.458735  1
  B  B10  1  0.000000  0.341405  0.198761  1
  B  B11  1  0.000000  0.658055  0.801730  1
  B  B12  1  0.000000  0.158080  0.697892  1
  B  B13  1  0.000000  0.841557  0.301534  1
  B  B14  1  0.000000  0.030018  0.186843  1
  B  B15  1  0.000000  0.969471  0.813054  1
  B  B16  1  0.000000  0.469580  0.686628  1
  B  B17  1  0.000000  0.529997  0.313418  1
  B  B18  1  0.301595  0.201077  0.114840  1
  B  B19  1  0.698671  0.798708  0.885686  1
  B  B20  1  0.301329  0.798708  0.885686  1
  B  B21  1  0.698549  0.298957  0.614007  1
  B  B22  1  0.698405  0.201077  0.114840  1
  B  B23  1  0.301614  0.701863  0.385635  1
  B  B24  1  0.698386  0.701863  0.385635  1
  B  B25  1  0.301451  0.298957  0.614007  1
