# generated using pymatgen
data_Tm6VCo16TcP12
_symmetry_space_group_name_H-M   'P 1'
_cell_length_a   3.68260900
_cell_length_b   10.49381300
_cell_length_c   12.14938400
_cell_angle_alpha   90.00000000
_cell_angle_beta   90.00000000
_cell_angle_gamma   90.00000000
_symmetry_Int_Tables_number   1
_chemical_formula_structural   Tm6VCo16TcP12
_chemical_formula_sum   'Tm6 V1 Co16 Tc1 P12'
_cell_volume   469.50820883
_cell_formula_units_Z   1
loop_
 _symmetry_equiv_pos_site_id
 _symmetry_equiv_pos_as_xyz
  1  'x, y, z'
loop_
 _atom_site_type_symbol
 _atom_site_label
 _atom_site_symmetry_multiplicity
 _atom_site_fract_x
 _atom_site_fract_y
 _atom_site_fract_z
 _atom_site_occupancy
  Tm  Tm0  1  0.000000  0.500000  0.525330  1
  Tm  Tm1  1  0.500000  0.000000  0.476973  1
  Tm  Tm2  1  0.500000  0.819045  0.204701  1
  Tm  Tm3  1  0.500000  0.180955  0.204701  1
  Tm  Tm4  1  0.000000  0.681575  0.794645  1
  Tm  Tm5  1  0.000000  0.318425  0.794645  1
  V  V6  1  0.000000  0.000000  0.844277  1
  Co  Co7  1  0.500000  0.500000  0.701899  1
  Co  Co8  1  0.000000  0.000000  0.298273  1
  Co  Co9  1  0.000000  0.500000  0.987213  1
  Co  Co10  1  0.500000  0.000000  0.013600  1
  Co  Co11  1  0.500000  0.332419  0.990009  1
  Co  Co12  1  0.500000  0.667581  0.990009  1
  Co  Co13  1  0.000000  0.167693  0.008088  1
  Co  Co14  1  0.000000  0.832307  0.008088  1
  Co  Co15  1  0.500000  0.296940  0.430977  1
  Co  Co16  1  0.500000  0.703060  0.430977  1
  Co  Co17  1  0.000000  0.204066  0.568138  1
  Co  Co18  1  0.000000  0.795934  0.568138  1
  Co  Co19  1  0.500000  0.877706  0.707429  1
  Co  Co20  1  0.500000  0.122294  0.707429  1
  Co  Co21  1  0.000000  0.621565  0.293167  1
  Co  Co22  1  0.000000  0.378435  0.293167  1
  Tc  Tc23  1  0.500000  0.500000  0.157325  1
  P  P24  1  0.500000  0.500000  0.880345  1
  P  P25  1  0.000000  0.000000  0.119003  1
  P  P26  1  0.500000  0.500000  0.350115  1
  P  P27  1  0.000000  0.000000  0.652428  1
  P  P28  1  0.500000  0.312256  0.616336  1
  P  P29  1  0.500000  0.687744  0.616336  1
  P  P30  1  0.000000  0.187346  0.383500  1
  P  P31  1  0.000000  0.812654  0.383500  1
  P  P32  1  0.500000  0.846426  0.891414  1
  P  P33  1  0.500000  0.153574  0.891414  1
  P  P34  1  0.000000  0.655017  0.108201  1
  P  P35  1  0.000000  0.344983  0.108201  1
