# generated using pymatgen
data_Ac2Cd4Au3
_symmetry_space_group_name_H-M   'P 1'
_cell_length_a   4.48405800
_cell_length_b   13.23813100
_cell_length_c   15.58853300
_cell_angle_alpha   90.00000000
_cell_angle_beta   90.00000000
_cell_angle_gamma   90.00000000
_symmetry_Int_Tables_number   1
_chemical_formula_structural   Ac2Cd4Au3
_chemical_formula_sum   'Ac8 Cd16 Au12'
_cell_volume   925.34384917
_cell_formula_units_Z   4
loop_
 _symmetry_equiv_pos_site_id
 _symmetry_equiv_pos_as_xyz
  1  'x, y, z'
loop_
 _atom_site_type_symbol
 _atom_site_label
 _atom_site_symmetry_multiplicity
 _atom_site_fract_x
 _atom_site_fract_y
 _atom_site_fract_z
 _atom_site_occupancy
  Ac  Ac0  1  0.750000  0.214137  0.519694  1
  Ac  Ac1  1  0.750000  0.421966  0.293808  1
  Ac  Ac2  1  0.250000  0.785862  0.480306  1
  Ac  Ac3  1  0.250000  0.714138  0.980306  1
  Ac  Ac4  1  0.750000  0.285863  0.019694  1
  Ac  Ac5  1  0.250000  0.578034  0.706192  1
  Ac  Ac6  1  0.750000  0.078034  0.793808  1
  Ac  Ac7  1  0.250000  0.921966  0.206192  1
  Cd  Cd8  1  0.750000  0.707831  0.314355  1
  Cd  Cd9  1  0.250000  0.207831  0.185645  1
  Cd  Cd10  1  0.750000  0.372020  0.802630  1
  Cd  Cd11  1  0.250000  0.420341  0.499380  1
  Cd  Cd12  1  0.750000  0.959833  0.575528  1
  Cd  Cd13  1  0.750000  0.792169  0.814355  1
  Cd  Cd14  1  0.250000  0.292169  0.685645  1
  Cd  Cd15  1  0.750000  0.540167  0.075528  1
  Cd  Cd16  1  0.750000  0.579659  0.500620  1
  Cd  Cd17  1  0.250000  0.040167  0.424472  1
  Cd  Cd18  1  0.750000  0.920341  0.000620  1
  Cd  Cd19  1  0.250000  0.627980  0.197370  1
  Cd  Cd20  1  0.250000  0.459833  0.924472  1
  Cd  Cd21  1  0.750000  0.127980  0.302630  1
  Cd  Cd22  1  0.250000  0.079659  0.999380  1
  Cd  Cd23  1  0.250000  0.872020  0.697370  1
  Au  Au24  1  0.750000  0.755807  0.129081  1
  Au  Au25  1  0.750000  0.918477  0.371994  1
  Au  Au26  1  0.250000  0.081523  0.628006  1
  Au  Au27  1  0.750000  0.744193  0.629081  1
  Au  Au28  1  0.750000  0.581523  0.871994  1
  Au  Au29  1  0.250000  0.921313  0.874548  1
  Au  Au30  1  0.750000  0.421313  0.625452  1
  Au  Au31  1  0.250000  0.244193  0.870919  1
  Au  Au32  1  0.250000  0.578687  0.374548  1
  Au  Au33  1  0.250000  0.255807  0.370919  1
  Au  Au34  1  0.750000  0.078687  0.125452  1
  Au  Au35  1  0.250000  0.418477  0.128006  1
