# generated using pymatgen
data_TmLu11ZnCo4Sn
_symmetry_space_group_name_H-M   'P 1'
_cell_length_a   8.11015426
_cell_length_b   8.10654512
_cell_length_c   8.10654665
_cell_angle_alpha   111.40415392
_cell_angle_beta   110.31165764
_cell_angle_gamma   106.71711560
_symmetry_Int_Tables_number   1
_chemical_formula_structural   TmLu11ZnCo4Sn
_chemical_formula_sum   'Tm1 Lu11 Zn1 Co4 Sn1'
_cell_volume   409.62264679
_cell_formula_units_Z   1
loop_
 _symmetry_equiv_pos_site_id
 _symmetry_equiv_pos_as_xyz
  1  'x, y, z'
loop_
 _atom_site_type_symbol
 _atom_site_label
 _atom_site_symmetry_multiplicity
 _atom_site_fract_x
 _atom_site_fract_y
 _atom_site_fract_z
 _atom_site_occupancy
  Tm  Tm0  1  0.428861  0.224000  0.204859  1
  Lu  Lu1  1  0.568197  0.774319  0.793880  1
  Lu  Lu2  1  0.020082  0.225812  0.794269  1
  Lu  Lu3  1  0.981365  0.775998  0.205367  1
  Lu  Lu4  1  0.184532  0.285331  0.470177  1
  Lu  Lu5  1  0.815266  0.715445  0.530267  1
  Lu  Lu6  1  0.184532  0.714356  0.899202  1
  Lu  Lu7  1  0.815266  0.284998  0.099821  1
  Lu  Lu8  1  0.314316  0.617991  0.302727  1
  Lu  Lu9  1  0.685698  0.382122  0.697225  1
  Lu  Lu10  1  0.314316  0.011588  0.696323  1
  Lu  Lu11  1  0.685698  0.988473  0.303577  1
  Zn  Zn12  1  0.996973  0.999292  0.997681  1
  Co  Co13  1  0.376266  0.999222  0.377045  1
  Co  Co14  1  0.627147  0.999430  0.627717  1
  Co  Co15  1  0.113536  0.613724  0.499812  1
  Co  Co16  1  0.886132  0.385001  0.501130  1
  Sn  Sn17  1  0.501817  0.502897  0.998919  1
