# generated using pymatgen
data_LaAl(InIr4)2
_symmetry_space_group_name_H-M   'P 1'
_cell_length_a   5.35388500
_cell_length_b   8.78165100
_cell_length_c   8.78165100
_cell_angle_alpha   90.00000000
_cell_angle_beta   90.00000000
_cell_angle_gamma   90.00000000
_symmetry_Int_Tables_number   1
_chemical_formula_structural   LaAl(InIr4)2
_chemical_formula_sum   'La2 Al2 In4 Ir16'
_cell_volume   412.87766051
_cell_formula_units_Z   2
loop_
 _symmetry_equiv_pos_site_id
 _symmetry_equiv_pos_as_xyz
  1  'x, y, z'
loop_
 _atom_site_type_symbol
 _atom_site_label
 _atom_site_symmetry_multiplicity
 _atom_site_fract_x
 _atom_site_fract_y
 _atom_site_fract_z
 _atom_site_occupancy
  La  La0  1  0.000000  0.500000  0.500000  1
  La  La1  1  0.000000  0.000000  0.000000  1
  Al  Al2  1  0.500000  0.000000  0.500000  1
  Al  Al3  1  0.500000  0.500000  0.000000  1
  In  In4  1  0.000000  0.625466  0.125466  1
  In  In5  1  0.000000  0.374534  0.874534  1
  In  In6  1  0.000000  0.874534  0.625466  1
  In  In7  1  0.000000  0.125466  0.374534  1
  Ir  Ir8  1  0.760946  0.171873  0.671873  1
  Ir  Ir9  1  0.760946  0.828127  0.328127  1
  Ir  Ir10  1  0.760946  0.328127  0.171873  1
  Ir  Ir11  1  0.760946  0.671873  0.828127  1
  Ir  Ir12  1  0.239054  0.828127  0.328127  1
  Ir  Ir13  1  0.239054  0.171873  0.671873  1
  Ir  Ir14  1  0.239054  0.671873  0.828127  1
  Ir  Ir15  1  0.239054  0.328127  0.171873  1
  Ir  Ir16  1  0.500000  0.705372  0.569442  1
  Ir  Ir17  1  0.500000  0.294628  0.430558  1
  Ir  Ir18  1  0.500000  0.794628  0.069442  1
  Ir  Ir19  1  0.500000  0.205372  0.930558  1
  Ir  Ir20  1  0.500000  0.569442  0.294628  1
  Ir  Ir21  1  0.500000  0.430558  0.705372  1
  Ir  Ir22  1  0.500000  0.069442  0.205372  1
  Ir  Ir23  1  0.500000  0.930558  0.794628  1
