# generated using pymatgen
data_Na3BiF8
_symmetry_space_group_name_H-M   'P 1'
_cell_length_a   6.67482896
_cell_length_b   6.67482874
_cell_length_c   6.67482861
_cell_angle_alpha   130.05175019
_cell_angle_beta   130.05175217
_cell_angle_gamma   73.32404672
_symmetry_Int_Tables_number   1
_chemical_formula_structural   Na3BiF8
_chemical_formula_sum   'Na3 Bi1 F8'
_cell_volume   170.09927208
_cell_formula_units_Z   1
loop_
 _symmetry_equiv_pos_site_id
 _symmetry_equiv_pos_as_xyz
  1  'x, y, z'
loop_
 _atom_site_type_symbol
 _atom_site_label
 _atom_site_symmetry_multiplicity
 _atom_site_fract_x
 _atom_site_fract_y
 _atom_site_fract_z
 _atom_site_occupancy
  Na  Na0  1  0.250000  0.750000  0.500000  1
  Na  Na1  1  0.500000  0.500000  0.000000  1
  Na  Na2  1  0.750000  0.250000  0.500000  1
  Bi  Bi3  1  0.000000  0.000000  0.000000  1
  F  F4  1  0.844073  0.336182  0.018859  1
  F  F5  1  0.672613  0.033507  0.008723  1
  F  F6  1  0.663818  0.682677  0.507891  1
  F  F7  1  0.336111  0.327387  0.360896  1
  F  F8  1  0.966493  0.975214  0.639104  1
  F  F9  1  0.174787  0.155927  0.492110  1
  F  F10  1  0.024786  0.663890  0.991278  1
  F  F11  1  0.317323  0.825214  0.981141  1
