# generated using pymatgen
data_La15Pr(HgRh)4
_symmetry_space_group_name_H-M   'P 1'
_cell_length_a   10.10151007
_cell_length_b   10.10150984
_cell_length_c   10.11361300
_cell_angle_alpha   59.96035420
_cell_angle_beta   59.96035495
_cell_angle_gamma   59.85155375
_symmetry_Int_Tables_number   1
_chemical_formula_structural   La15Pr(HgRh)4
_chemical_formula_sum   'La15 Pr1 Hg4 Rh4'
_cell_volume   728.47458525
_cell_formula_units_Z   1
loop_
 _symmetry_equiv_pos_site_id
 _symmetry_equiv_pos_as_xyz
  1  'x, y, z'
loop_
 _atom_site_type_symbol
 _atom_site_label
 _atom_site_symmetry_multiplicity
 _atom_site_fract_x
 _atom_site_fract_y
 _atom_site_fract_z
 _atom_site_occupancy
  La  La0  1  0.349048  0.349048  0.349338  1
  La  La1  1  0.349048  0.349048  0.952564  1
  La  La2  1  0.349040  0.950754  0.350102  1
  La  La3  1  0.950754  0.349040  0.350102  1
  La  La4  1  0.809587  0.190237  0.191653  1
  La  La5  1  0.190237  0.809588  0.808523  1
  La  La6  1  0.190237  0.809587  0.191652  1
  La  La7  1  0.809587  0.190237  0.808523  1
  La  La8  1  0.190387  0.190387  0.809613  1
  La  La9  1  0.809064  0.809064  0.190936  1
  La  La10  1  0.939164  0.561685  0.561376  1
  La  La11  1  0.561685  0.939164  0.937775  1
  La  La12  1  0.561685  0.939164  0.561376  1
  La  La13  1  0.939164  0.561685  0.937775  1
  La  La14  1  0.561369  0.561369  0.938631  1
  Pr  Pr15  1  0.938744  0.938744  0.561256  1
  Hg  Hg16  1  0.583700  0.583700  0.583330  1
  Hg  Hg17  1  0.583700  0.583700  0.249271  1
  Hg  Hg18  1  0.584413  0.248449  0.583569  1
  Hg  Hg19  1  0.248449  0.584413  0.583569  1
  Rh  Rh20  1  0.141591  0.141591  0.140974  1
  Rh  Rh21  1  0.141591  0.141591  0.575843  1
  Rh  Rh22  1  0.141526  0.576228  0.141123  1
  Rh  Rh23  1  0.576228  0.141526  0.141123  1
