# generated using pymatgen
data_ErSc3ReRu7
_symmetry_space_group_name_H-M   'P 1'
_cell_length_a   5.12833472
_cell_length_b   5.28819025
_cell_length_c   8.78511500
_cell_angle_alpha   90.00000000
_cell_angle_beta   90.12758885
_cell_angle_gamma   121.03659896
_symmetry_Int_Tables_number   1
_chemical_formula_structural   ErSc3ReRu7
_chemical_formula_sum   'Er1 Sc3 Re1 Ru7'
_cell_volume   204.14004452
_cell_formula_units_Z   1
loop_
 _symmetry_equiv_pos_site_id
 _symmetry_equiv_pos_as_xyz
  1  'x, y, z'
loop_
 _atom_site_type_symbol
 _atom_site_label
 _atom_site_symmetry_multiplicity
 _atom_site_fract_x
 _atom_site_fract_y
 _atom_site_fract_z
 _atom_site_occupancy
  Er  Er0  1  0.326505  0.663253  0.066234  1
  Sc  Sc1  1  0.328302  0.664151  0.435178  1
  Sc  Sc2  1  0.655899  0.327950  0.565945  1
  Sc  Sc3  1  0.654604  0.327301  0.929009  1
  Re  Re4  1  0.677860  0.838930  0.748185  1
  Ru  Ru5  1  0.975358  0.987679  0.499609  1
  Ru  Ru6  1  0.979091  0.989546  0.000320  1
  Ru  Ru7  1  0.836911  0.169213  0.253468  1
  Ru  Ru8  1  0.836911  0.667698  0.253468  1
  Ru  Ru9  1  0.357980  0.178990  0.253902  1
  Ru  Ru10  1  0.185288  0.833352  0.747340  1
  Ru  Ru11  1  0.185288  0.351935  0.747340  1
