# generated using pymatgen
data_Hf8Fe3Si14Ni5
_symmetry_space_group_name_H-M   'P 1'
_cell_length_a   9.46571461
_cell_length_b   9.46571372
_cell_length_c   9.50215334
_cell_angle_alpha   94.16435721
_cell_angle_beta   94.16436349
_cell_angle_gamma   148.78615120
_symmetry_Int_Tables_number   1
_chemical_formula_structural   Hf8Fe3Si14Ni5
_chemical_formula_sum   'Hf8 Fe3 Si14 Ni5'
_cell_volume   424.84264418
_cell_formula_units_Z   1
loop_
 _symmetry_equiv_pos_site_id
 _symmetry_equiv_pos_as_xyz
  1  'x, y, z'
loop_
 _atom_site_type_symbol
 _atom_site_label
 _atom_site_symmetry_multiplicity
 _atom_site_fract_x
 _atom_site_fract_y
 _atom_site_fract_z
 _atom_site_occupancy
  Hf  Hf0  1  0.137710  0.136824  0.274894  1
  Hf  Hf1  1  0.863176  0.862290  0.725106  1
  Hf  Hf2  1  0.862240  0.137760  0.000000  1
  Hf  Hf3  1  0.138209  0.861791  0.000000  1
  Hf  Hf4  1  0.503523  0.307969  0.804616  1
  Hf  Hf5  1  0.503486  0.698638  0.194706  1
  Hf  Hf6  1  0.692031  0.496477  0.195384  1
  Hf  Hf7  1  0.301362  0.496514  0.805294  1
  Fe  Fe8  1  0.400469  0.898241  0.801778  1
  Fe  Fe9  1  0.101759  0.599531  0.198222  1
  Fe  Fe10  1  0.099793  0.900207  0.500000  1
  Si  Si11  1  0.466688  0.057240  0.592480  1
  Si  Si12  1  0.478318  0.890019  0.406214  1
  Si  Si13  1  0.942760  0.533312  0.407520  1
  Si  Si14  1  0.109981  0.521682  0.593786  1
  Si  Si15  1  0.749127  0.748631  0.999990  1
  Si  Si16  1  0.251369  0.250873  0.000010  1
  Si  Si17  1  0.285551  0.284972  0.582205  1
  Si  Si18  1  0.715028  0.714449  0.417795  1
  Si  Si19  1  0.709549  0.290451  0.000000  1
  Si  Si20  1  0.290754  0.709246  0.000000  1
  Si  Si21  1  0.008829  0.307682  0.297270  1
  Si  Si22  1  0.014401  0.715438  0.701197  1
  Si  Si23  1  0.692318  0.991171  0.702730  1
  Si  Si24  1  0.284562  0.985599  0.298803  1
  Ni  Ni25  1  0.401176  0.598824  0.500000  1
  Ni  Ni26  1  0.605539  0.394461  0.500000  1
  Ni  Ni27  1  0.892612  0.107388  0.500000  1
  Ni  Ni28  1  0.890843  0.393163  0.788685  1
  Ni  Ni29  1  0.606837  0.109157  0.211315  1
