# generated using pymatgen
data_EuTlMoH9
_symmetry_space_group_name_H-M   'P 1'
_cell_length_a   8.94311000
_cell_length_b   8.94310925
_cell_length_c   5.47910100
_cell_angle_alpha   90.00000000
_cell_angle_beta   90.00000000
_cell_angle_gamma   120.00001019
_symmetry_Int_Tables_number   1
_chemical_formula_structural   EuTlMoH9
_chemical_formula_sum   'Eu3 Tl3 Mo3 H27'
_cell_volume   379.50456279
_cell_formula_units_Z   3
loop_
 _symmetry_equiv_pos_site_id
 _symmetry_equiv_pos_as_xyz
  1  'x, y, z'
loop_
 _atom_site_type_symbol
 _atom_site_label
 _atom_site_symmetry_multiplicity
 _atom_site_fract_x
 _atom_site_fract_y
 _atom_site_fract_z
 _atom_site_occupancy
  Eu  Eu0  1  0.000000  0.270371  0.500000  1
  Eu  Eu1  1  0.729629  0.729629  0.500000  1
  Eu  Eu2  1  0.270371  0.000000  0.500000  1
  Tl  Tl3  1  0.000000  0.585839  0.000000  1
  Tl  Tl4  1  0.414161  0.414161  0.000000  1
  Tl  Tl5  1  0.585839  0.000000  0.000000  1
  Mo  Mo6  1  0.666667  0.333333  0.500000  1
  Mo  Mo7  1  0.333333  0.666667  0.500000  1
  Mo  Mo8  1  0.000000  0.000000  0.000000  1
  H  H9  1  0.788565  0.303552  0.729973  1
  H  H10  1  0.696448  0.485012  0.729973  1
  H  H11  1  0.514988  0.211435  0.729973  1
  H  H12  1  0.211435  0.514988  0.270027  1
  H  H13  1  0.514988  0.211435  0.270027  1
  H  H14  1  0.788565  0.303552  0.270027  1
  H  H15  1  0.696448  0.485012  0.270027  1
  H  H16  1  0.303552  0.788565  0.729973  1
  H  H17  1  0.485012  0.696448  0.729973  1
  H  H18  1  0.195093  0.000000  0.000000  1
  H  H19  1  0.804907  0.804907  0.000000  1
  H  H20  1  0.000000  0.195093  0.000000  1
  H  H21  1  0.862807  0.000000  0.236636  1
  H  H22  1  0.137193  0.137193  0.763364  1
  H  H23  1  0.000000  0.862807  0.763364  1
  H  H24  1  0.000000  0.862807  0.236636  1
  H  H25  1  0.137193  0.137193  0.236636  1
  H  H26  1  0.862807  0.000000  0.763364  1
  H  H27  1  0.122953  0.628209  0.500000  1
  H  H28  1  0.505256  0.877047  0.500000  1
  H  H29  1  0.371791  0.494744  0.500000  1
  H  H30  1  0.494744  0.371791  0.500000  1
  H  H31  1  0.877047  0.505256  0.500000  1
  H  H32  1  0.628209  0.122953  0.500000  1
  H  H33  1  0.211435  0.514988  0.729973  1
  H  H34  1  0.303552  0.788565  0.270027  1
  H  H35  1  0.485012  0.696448  0.270027  1
