# generated using pymatgen
data_Yb2Pr8GaSi5
_symmetry_space_group_name_H-M   'P 1'
_cell_length_a   7.81549054
_cell_length_b   7.81549206
_cell_length_c   9.03576215
_cell_angle_alpha   115.62476052
_cell_angle_beta   115.62477179
_cell_angle_gamma   89.99999838
_symmetry_Int_Tables_number   1
_chemical_formula_structural   Yb2Pr8GaSi5
_chemical_formula_sum   'Yb2 Pr8 Ga1 Si5'
_cell_volume   436.65676127
_cell_formula_units_Z   1
loop_
 _symmetry_equiv_pos_site_id
 _symmetry_equiv_pos_as_xyz
  1  'x, y, z'
loop_
 _atom_site_type_symbol
 _atom_site_label
 _atom_site_symmetry_multiplicity
 _atom_site_fract_x
 _atom_site_fract_y
 _atom_site_fract_z
 _atom_site_occupancy
  Yb  Yb0  1  0.502906  0.502906  0.005812  1
  Yb  Yb1  1  0.997094  0.997094  0.994188  1
  Pr  Pr2  1  0.966480  0.825847  0.287534  1
  Pr  Pr3  1  0.321053  0.461687  0.287534  1
  Pr  Pr4  1  0.825847  0.321053  0.287534  1
  Pr  Pr5  1  0.461687  0.966480  0.287534  1
  Pr  Pr6  1  0.038313  0.178947  0.712466  1
  Pr  Pr7  1  0.674153  0.533520  0.712466  1
  Pr  Pr8  1  0.178947  0.674153  0.712466  1
  Pr  Pr9  1  0.533520  0.038313  0.712466  1
  Ga  Ga10  1  0.750000  0.750000  0.500000  1
  Si  Si11  1  0.250000  0.250000  0.500000  1
  Si  Si12  1  0.613010  0.886990  0.000000  1
  Si  Si13  1  0.386990  0.113010  0.000000  1
  Si  Si14  1  0.886990  0.386990  0.000000  1
  Si  Si15  1  0.113010  0.613010  0.000000  1
