# generated using pymatgen
data_Hf4TcOs2Ru
_symmetry_space_group_name_H-M   'P 1'
_cell_length_a   6.48256200
_cell_length_b   4.61459700
_cell_length_c   9.21562900
_cell_angle_alpha   90.00000000
_cell_angle_beta   90.00005498
_cell_angle_gamma   90.00000000
_symmetry_Int_Tables_number   1
_chemical_formula_structural   Hf4TcOs2Ru
_chemical_formula_sum   'Hf8 Tc2 Os4 Ru2'
_cell_volume   275.68011498
_cell_formula_units_Z   2
loop_
 _symmetry_equiv_pos_site_id
 _symmetry_equiv_pos_as_xyz
  1  'x, y, z'
loop_
 _atom_site_type_symbol
 _atom_site_label
 _atom_site_symmetry_multiplicity
 _atom_site_fract_x
 _atom_site_fract_y
 _atom_site_fract_z
 _atom_site_occupancy
  Hf  Hf0  1  0.499333  0.750000  0.125821  1
  Hf  Hf1  1  0.000749  0.750000  0.125826  1
  Hf  Hf2  1  0.500776  0.250001  0.374173  1
  Hf  Hf3  1  0.999354  0.250001  0.374178  1
  Hf  Hf4  1  0.999396  0.750000  0.624111  1
  Hf  Hf5  1  0.500471  0.750000  0.624115  1
  Hf  Hf6  1  0.000501  0.250001  0.875885  1
  Hf  Hf7  1  0.499423  0.250001  0.875890  1
  Tc  Tc8  1  0.250046  0.250001  0.124213  1
  Tc  Tc9  1  0.750049  0.750000  0.375789  1
  Os  Os10  1  0.750041  0.250001  0.124143  1
  Os  Os11  1  0.250045  0.750000  0.375854  1
  Os  Os12  1  0.749954  0.250001  0.625964  1
  Os  Os13  1  0.249956  0.750000  0.874038  1
  Ru  Ru14  1  0.249952  0.250001  0.625620  1
  Ru  Ru15  1  0.749954  0.750000  0.874379  1
