# generated using pymatgen
data_Rb6DyHoF12
_symmetry_space_group_name_H-M   'P 1'
_cell_length_a   6.90429911
_cell_length_b   6.66267124
_cell_length_c   11.57378277
_cell_angle_alpha   55.24634506
_cell_angle_beta   90.01742975
_cell_angle_gamma   89.99785815
_symmetry_Int_Tables_number   1
_chemical_formula_structural   Rb6DyHoF12
_chemical_formula_sum   'Rb6 Dy1 Ho1 F12'
_cell_volume   437.43073522
_cell_formula_units_Z   1
loop_
 _symmetry_equiv_pos_site_id
 _symmetry_equiv_pos_as_xyz
  1  'x, y, z'
loop_
 _atom_site_type_symbol
 _atom_site_label
 _atom_site_symmetry_multiplicity
 _atom_site_fract_x
 _atom_site_fract_y
 _atom_site_fract_z
 _atom_site_occupancy
  Rb  Rb0  1  0.500000  0.500000  0.000000  1
  Rb  Rb1  1  0.000000  0.500000  0.500000  1
  Rb  Rb2  1  0.050065  0.732953  0.753731  1
  Rb  Rb3  1  0.949935  0.267047  0.246269  1
  Rb  Rb4  1  0.550072  0.266050  0.747432  1
  Rb  Rb5  1  0.449928  0.733950  0.252568  1
  Dy  Dy6  1  0.000000  0.000000  0.000000  1
  Ho  Ho7  1  0.500000  0.000000  0.500000  1
  F  F8  1  0.762573  0.774674  0.564320  1
  F  F9  1  0.237427  0.225326  0.435680  1
  F  F10  1  0.263440  0.226929  0.936133  1
  F  F11  1  0.736560  0.773071  0.063867  1
  F  F12  1  0.449706  0.888262  0.715930  1
  F  F13  1  0.550294  0.111738  0.284070  1
  F  F14  1  0.949762  0.112521  0.782956  1
  F  F15  1  0.050238  0.887479  0.217044  1
  F  F16  1  0.331036  0.684196  0.546828  1
  F  F17  1  0.668964  0.315804  0.453172  1
  F  F18  1  0.828847  0.316229  0.953508  1
  F  F19  1  0.171153  0.683771  0.046492  1
