# generated using pymatgen
data_Y5Ho5(BiPb)3
_symmetry_space_group_name_H-M   'P 1'
_cell_length_a   9.11393714
_cell_length_b   9.11393640
_cell_length_c   6.48751700
_cell_angle_alpha   90.00000000
_cell_angle_beta   90.00000000
_cell_angle_gamma   119.97999392
_symmetry_Int_Tables_number   1
_chemical_formula_structural   Y5Ho5(BiPb)3
_chemical_formula_sum   'Y5 Ho5 Bi3 Pb3'
_cell_volume   466.77617335
_cell_formula_units_Z   1
loop_
 _symmetry_equiv_pos_site_id
 _symmetry_equiv_pos_as_xyz
  1  'x, y, z'
loop_
 _atom_site_type_symbol
 _atom_site_label
 _atom_site_symmetry_multiplicity
 _atom_site_fract_x
 _atom_site_fract_y
 _atom_site_fract_z
 _atom_site_occupancy
  Y  Y0  1  0.761608  0.761608  0.750000  1
  Y  Y1  1  0.238367  0.000085  0.750000  1
  Y  Y2  1  0.000085  0.238367  0.750000  1
  Y  Y3  1  0.761271  0.000048  0.250000  1
  Y  Y4  1  0.000048  0.761271  0.250000  1
  Ho  Ho5  1  0.666637  0.333322  0.002725  1
  Ho  Ho6  1  0.333322  0.666637  0.002725  1
  Ho  Ho7  1  0.333322  0.666637  0.497275  1
  Ho  Ho8  1  0.666637  0.333322  0.497275  1
  Ho  Ho9  1  0.238788  0.238788  0.250000  1
  Bi  Bi10  1  0.393639  0.393639  0.750000  1
  Bi  Bi11  1  0.606335  0.999989  0.750000  1
  Bi  Bi12  1  0.999989  0.606335  0.750000  1
  Pb  Pb13  1  0.606327  0.606327  0.250000  1
  Pb  Pb14  1  0.393505  0.000120  0.250000  1
  Pb  Pb15  1  0.000120  0.393505  0.250000  1
