# generated using pymatgen
data_Nd2Cu14Ni3
_symmetry_space_group_name_H-M   'P 1'
_cell_length_a   6.44387643
_cell_length_b   6.44387590
_cell_length_c   6.44387671
_cell_angle_alpha   83.02855832
_cell_angle_beta   96.97143591
_cell_angle_gamma   96.97144206
_symmetry_Int_Tables_number   1
_chemical_formula_structural   Nd2Cu14Ni3
_chemical_formula_sum   'Nd2 Cu14 Ni3'
_cell_volume   262.08194159
_cell_formula_units_Z   1
loop_
 _symmetry_equiv_pos_site_id
 _symmetry_equiv_pos_as_xyz
  1  'x, y, z'
loop_
 _atom_site_type_symbol
 _atom_site_label
 _atom_site_symmetry_multiplicity
 _atom_site_fract_x
 _atom_site_fract_y
 _atom_site_fract_z
 _atom_site_occupancy
  Nd  Nd0  1  0.659607  0.340392  0.340393  1
  Nd  Nd1  1  0.340392  0.659607  0.659607  1
  Cu  Cu2  1  0.291342  0.291342  0.000000  1
  Cu  Cu3  1  0.708658  0.708658  0.000000  1
  Cu  Cu4  1  0.901304  0.098694  0.098695  1
  Cu  Cu5  1  0.343224  0.656777  0.149566  1
  Cu  Cu6  1  0.000000  0.708658  0.291341  1
  Cu  Cu7  1  0.291342  0.000000  0.291342  1
  Cu  Cu8  1  0.656777  0.850434  0.343222  1
  Cu  Cu9  1  0.149566  0.343223  0.343224  1
  Cu  Cu10  1  0.850434  0.656777  0.656776  1
  Cu  Cu11  1  0.343223  0.149565  0.656777  1
  Cu  Cu12  1  0.000000  0.291342  0.708657  1
  Cu  Cu13  1  0.708658  0.000000  0.708658  1
  Cu  Cu14  1  0.656777  0.343223  0.850434  1
  Cu  Cu15  1  0.098694  0.901306  0.901305  1
  Ni  Ni16  1  0.500000  0.000000  0.000000  1
  Ni  Ni17  1  0.000000  0.499999  0.000000  1
  Ni  Ni18  1  0.000000  0.000000  0.500000  1
