# generated using pymatgen
data_Tb2Fe10CoNiP7
_symmetry_space_group_name_H-M   'P 1'
_cell_length_a   3.63294400
_cell_length_b   8.98199122
_cell_length_c   9.01755708
_cell_angle_alpha   120.00552980
_cell_angle_beta   90.00000000
_cell_angle_gamma   90.00000000
_symmetry_Int_Tables_number   1
_chemical_formula_structural   Tb2Fe10CoNiP7
_chemical_formula_sum   'Tb2 Fe10 Co1 Ni1 P7'
_cell_volume   254.81597935
_cell_formula_units_Z   1
loop_
 _symmetry_equiv_pos_site_id
 _symmetry_equiv_pos_as_xyz
  1  'x, y, z'
loop_
 _atom_site_type_symbol
 _atom_site_label
 _atom_site_symmetry_multiplicity
 _atom_site_fract_x
 _atom_site_fract_y
 _atom_site_fract_z
 _atom_site_occupancy
  Tb  Tb0  1  0.000000  0.666661  0.333278  1
  Tb  Tb1  1  0.500000  0.333695  0.665695  1
  Fe  Fe2  1  0.000000  0.571490  0.630483  1
  Fe  Fe3  1  0.000000  0.880312  0.728288  1
  Fe  Fe4  1  0.000000  0.272029  0.154150  1
  Fe  Fe5  1  0.000000  0.846445  0.119731  1
  Fe  Fe6  1  0.500000  0.950652  0.564957  1
  Fe  Fe7  1  0.500000  0.434862  0.386845  1
  Fe  Fe8  1  0.500000  0.612387  0.047274  1
  Fe  Fe9  1  0.500000  0.123269  0.900271  1
  Fe  Fe10  1  0.500000  0.099348  0.223589  1
  Fe  Fe11  1  0.500000  0.782299  0.880171  1
  Co  Co12  1  0.000000  0.059967  0.428576  1
  Ni  Ni13  1  0.000000  0.367929  0.937546  1
  P  P14  1  0.000000  0.104745  0.696574  1
  P  P15  1  0.000000  0.299971  0.408108  1
  P  P16  1  0.000000  0.596254  0.889382  1
  P  P17  1  0.500000  0.711437  0.600066  1
  P  P18  1  0.500000  0.401249  0.118463  1
  P  P19  1  0.500000  0.885051  0.285928  1
  P  P20  1  0.000000  0.999949  0.000622  1
