# generated using pymatgen
data_Tb7Ho9Cd4TcPd3
_symmetry_space_group_name_H-M   'P 1'
_cell_length_a   9.73338925
_cell_length_b   9.73338888
_cell_length_c   9.73722061
_cell_angle_alpha   59.16560040
_cell_angle_beta   59.16560501
_cell_angle_gamma   59.19579001
_symmetry_Int_Tables_number   1
_chemical_formula_structural   Tb7Ho9Cd4TcPd3
_chemical_formula_sum   'Tb7 Ho9 Cd4 Tc1 Pd3'
_cell_volume   640.04821654
_cell_formula_units_Z   1
loop_
 _symmetry_equiv_pos_site_id
 _symmetry_equiv_pos_as_xyz
  1  'x, y, z'
loop_
 _atom_site_type_symbol
 _atom_site_label
 _atom_site_symmetry_multiplicity
 _atom_site_fract_x
 _atom_site_fract_y
 _atom_site_fract_z
 _atom_site_occupancy
  Tb  Tb0  1  0.810360  0.810360  0.188077  1
  Tb  Tb1  1  0.935002  0.565177  0.565686  1
  Tb  Tb2  1  0.556107  0.937838  0.937570  1
  Tb  Tb3  1  0.565177  0.935002  0.565686  1
  Tb  Tb4  1  0.937838  0.556107  0.937570  1
  Tb  Tb5  1  0.565318  0.565318  0.934737  1
  Tb  Tb6  1  0.937659  0.937659  0.556336  1
  Ho  Ho7  1  0.352847  0.352847  0.353046  1
  Ho  Ho8  1  0.350578  0.350578  0.946407  1
  Ho  Ho9  1  0.350199  0.946667  0.350818  1
  Ho  Ho10  1  0.946667  0.350199  0.350818  1
  Ho  Ho11  1  0.817299  0.187812  0.187290  1
  Ho  Ho12  1  0.188431  0.810468  0.810067  1
  Ho  Ho13  1  0.187812  0.817299  0.187290  1
  Ho  Ho14  1  0.810468  0.188431  0.810067  1
  Ho  Ho15  1  0.187287  0.187287  0.817421  1
  Cd  Cd16  1  0.579787  0.579787  0.580053  1
  Cd  Cd17  1  0.580739  0.580739  0.254711  1
  Cd  Cd18  1  0.580851  0.254612  0.580867  1
  Cd  Cd19  1  0.254612  0.580851  0.580867  1
  Tc  Tc20  1  0.144638  0.144638  0.144871  1
  Pd  Pd21  1  0.144998  0.144998  0.570067  1
  Pd  Pd22  1  0.145996  0.569334  0.144839  1
  Pd  Pd23  1  0.569334  0.145996  0.144839  1
