# generated using pymatgen
data_Tm5Lu5Si5Bi
_symmetry_space_group_name_H-M   'P 1'
_cell_length_a   8.38122276
_cell_length_b   8.40637031
_cell_length_c   6.20993100
_cell_angle_alpha   90.00000000
_cell_angle_beta   90.00000000
_cell_angle_gamma   119.85217982
_symmetry_Int_Tables_number   1
_chemical_formula_structural   Tm5Lu5Si5Bi
_chemical_formula_sum   'Tm5 Lu5 Si5 Bi1'
_cell_volume   379.47072666
_cell_formula_units_Z   1
loop_
 _symmetry_equiv_pos_site_id
 _symmetry_equiv_pos_as_xyz
  1  'x, y, z'
loop_
 _atom_site_type_symbol
 _atom_site_label
 _atom_site_symmetry_multiplicity
 _atom_site_fract_x
 _atom_site_fract_y
 _atom_site_fract_z
 _atom_site_occupancy
  Tm  Tm0  1  0.768763  0.000099  0.750000  1
  Tm  Tm1  1  0.755656  0.756853  0.250000  1
  Tm  Tm2  1  0.998843  0.242962  0.250000  1
  Tm  Tm3  1  0.984421  0.745619  0.750000  1
  Tm  Tm4  1  0.239161  0.000098  0.250000  1
  Lu  Lu5  1  0.676992  0.346277  0.004832  1
  Lu  Lu6  1  0.330703  0.653580  0.495206  1
  Lu  Lu7  1  0.330703  0.653580  0.004794  1
  Lu  Lu8  1  0.676992  0.346277  0.495168  1
  Lu  Lu9  1  0.238697  0.254662  0.750000  1
  Si  Si10  1  0.394147  0.391387  0.250000  1
  Si  Si11  1  0.002774  0.608695  0.250000  1
  Si  Si12  1  0.998932  0.395226  0.750000  1
  Si  Si13  1  0.602876  0.604292  0.750000  1
  Si  Si14  1  0.606550  0.000038  0.250000  1
  Bi  Bi15  1  0.393790  0.000355  0.750000  1
