# generated using pymatgen
data_AcZn2CuNi2
_symmetry_space_group_name_H-M   'P 1'
_cell_length_a   9.20537700
_cell_length_b   9.21485117
_cell_length_c   4.09638200
_cell_angle_alpha   90.00000000
_cell_angle_beta   90.00000000
_cell_angle_gamma   119.96599877
_symmetry_Int_Tables_number   1
_chemical_formula_structural   AcZn2CuNi2
_chemical_formula_sum   'Ac3 Zn6 Cu3 Ni6'
_cell_volume   301.02993242
_cell_formula_units_Z   3
loop_
 _symmetry_equiv_pos_site_id
 _symmetry_equiv_pos_as_xyz
  1  'x, y, z'
loop_
 _atom_site_type_symbol
 _atom_site_label
 _atom_site_symmetry_multiplicity
 _atom_site_fract_x
 _atom_site_fract_y
 _atom_site_fract_z
 _atom_site_occupancy
  Ac  Ac0  1  0.003600  0.000000  0.500000  1
  Ac  Ac1  1  0.330751  0.664586  0.000000  1
  Ac  Ac2  1  0.666166  0.335414  0.000000  1
  Zn  Zn3  1  0.497054  0.000000  0.500000  1
  Zn  Zn4  1  0.300589  0.297912  0.000000  1
  Zn  Zn5  1  0.002676  0.702088  0.000000  1
  Zn  Zn6  1  0.999014  0.301016  0.000000  1
  Zn  Zn7  1  0.697999  0.698984  0.000000  1
  Zn  Zn8  1  0.707782  0.000000  0.000000  1
  Cu  Cu9  1  0.499655  0.500828  0.500000  1
  Cu  Cu10  1  0.998827  0.499172  0.500000  1
  Cu  Cu11  1  0.297312  0.000000  0.000000  1
  Ni  Ni12  1  0.180024  0.360234  0.500000  1
  Ni  Ni13  1  0.817687  0.180973  0.500000  1
  Ni  Ni14  1  0.363439  0.182517  0.500000  1
  Ni  Ni15  1  0.636714  0.819027  0.500000  1
  Ni  Ni16  1  0.180922  0.817483  0.500000  1
  Ni  Ni17  1  0.819789  0.639766  0.500000  1
