# generated using pymatgen
data_Dy3Pa(InRh2)2
_symmetry_space_group_name_H-M   'P 1'
_cell_length_a   7.63266096
_cell_length_b   7.63266061
_cell_length_c   3.67251600
_cell_angle_alpha   90.00000000
_cell_angle_beta   90.00000000
_cell_angle_gamma   92.66804206
_symmetry_Int_Tables_number   1
_chemical_formula_structural   Dy3Pa(InRh2)2
_chemical_formula_sum   'Dy3 Pa1 In2 Rh4'
_cell_volume   213.71971521
_cell_formula_units_Z   1
loop_
 _symmetry_equiv_pos_site_id
 _symmetry_equiv_pos_as_xyz
  1  'x, y, z'
loop_
 _atom_site_type_symbol
 _atom_site_label
 _atom_site_symmetry_multiplicity
 _atom_site_fract_x
 _atom_site_fract_y
 _atom_site_fract_z
 _atom_site_occupancy
  Dy  Dy0  1  0.326390  0.826390  0.500000  1
  Dy  Dy1  1  0.167260  0.334957  0.500000  1
  Dy  Dy2  1  0.834957  0.667260  0.500000  1
  Pa  Pa3  1  0.662334  0.162334  0.500000  1
  In  In4  1  0.010412  0.996988  0.000000  1
  In  In5  1  0.496988  0.510412  0.000000  1
  Rh  Rh6  1  0.124867  0.624867  0.000000  1
  Rh  Rh7  1  0.846421  0.346421  0.000000  1
  Rh  Rh8  1  0.644167  0.886205  0.000000  1
  Rh  Rh9  1  0.386205  0.144167  0.000000  1
