# generated using pymatgen
data_Er20Al3Co2Au3
_symmetry_space_group_name_H-M   'P 1'
_cell_length_a   9.38631100
_cell_length_b   9.38774148
_cell_length_c   9.21257800
_cell_angle_alpha   90.00000000
_cell_angle_beta   90.00000000
_cell_angle_gamma   119.96947705
_symmetry_Int_Tables_number   1
_chemical_formula_structural   Er20Al3Co2Au3
_chemical_formula_sum   'Er20 Al3 Co2 Au3'
_cell_volume   703.23643634
_cell_formula_units_Z   1
loop_
 _symmetry_equiv_pos_site_id
 _symmetry_equiv_pos_as_xyz
  1  'x, y, z'
loop_
 _atom_site_type_symbol
 _atom_site_label
 _atom_site_symmetry_multiplicity
 _atom_site_fract_x
 _atom_site_fract_y
 _atom_site_fract_z
 _atom_site_occupancy
  Er  Er0  1  0.999990  0.999942  0.462508  1
  Er  Er1  1  0.999990  0.999942  0.037492  1
  Er  Er2  1  0.541275  0.458690  0.250000  1
  Er  Er3  1  0.541293  0.082592  0.250000  1
  Er  Er4  1  0.917465  0.458788  0.250000  1
  Er  Er5  1  0.457215  0.542695  0.750000  1
  Er  Er6  1  0.457315  0.914555  0.750000  1
  Er  Er7  1  0.085509  0.542685  0.750000  1
  Er  Er8  1  0.210664  0.789316  0.437522  1
  Er  Er9  1  0.210685  0.421340  0.437553  1
  Er  Er10  1  0.578648  0.789299  0.437536  1
  Er  Er11  1  0.792031  0.207917  0.562741  1
  Er  Er12  1  0.792075  0.584189  0.562768  1
  Er  Er13  1  0.415839  0.207921  0.562812  1
  Er  Er14  1  0.792031  0.207917  0.937259  1
  Er  Er15  1  0.792075  0.584189  0.937232  1
  Er  Er16  1  0.415839  0.207921  0.937188  1
  Er  Er17  1  0.210664  0.789316  0.062478  1
  Er  Er18  1  0.210685  0.421340  0.062447  1
  Er  Er19  1  0.578648  0.789299  0.062464  1
  Al  Al20  1  0.103623  0.896388  0.750000  1
  Al  Al21  1  0.103633  0.207230  0.750000  1
  Al  Al22  1  0.792763  0.896380  0.750000  1
  Co  Co23  1  0.333296  0.666648  0.250000  1
  Co  Co24  1  0.666696  0.333338  0.750000  1
  Au  Au25  1  0.869763  0.130353  0.250000  1
  Au  Au26  1  0.869657  0.739374  0.250000  1
  Au  Au27  1  0.260633  0.130439  0.250000  1
