# generated using pymatgen
data_Ho12In2TcNi3
_symmetry_space_group_name_H-M   'P 1'
_cell_length_a   8.39662291
_cell_length_b   8.39662114
_cell_length_c   8.39662231
_cell_angle_alpha   113.13018353
_cell_angle_beta   109.59742773
_cell_angle_gamma   105.76955650
_symmetry_Int_Tables_number   1
_chemical_formula_structural   Ho12In2TcNi3
_chemical_formula_sum   'Ho12 In2 Tc1 Ni3'
_cell_volume   453.83575354
_cell_formula_units_Z   1
loop_
 _symmetry_equiv_pos_site_id
 _symmetry_equiv_pos_as_xyz
  1  'x, y, z'
loop_
 _atom_site_type_symbol
 _atom_site_label
 _atom_site_symmetry_multiplicity
 _atom_site_fract_x
 _atom_site_fract_y
 _atom_site_fract_z
 _atom_site_occupancy
  Ho  Ho0  1  0.445601  0.244880  0.200720  1
  Ho  Ho1  1  0.565721  0.768155  0.797566  1
  Ho  Ho2  1  0.029410  0.231845  0.797566  1
  Ho  Ho3  1  0.955841  0.755120  0.200720  1
  Ho  Ho4  1  0.189238  0.284536  0.473773  1
  Ho  Ho5  1  0.821625  0.714708  0.536334  1
  Ho  Ho6  1  0.189238  0.715464  0.904703  1
  Ho  Ho7  1  0.821625  0.285292  0.106917  1
  Ho  Ho8  1  0.322805  0.636088  0.307815  1
  Ho  Ho9  1  0.671726  0.363912  0.686715  1
  Ho  Ho10  1  0.322805  0.014989  0.686715  1
  Ho  Ho11  1  0.671726  0.985011  0.307815  1
  In  In12  1  0.494402  0.500000  0.994402  1
  In  In13  1  0.011643  0.000000  0.011643  1
  Tc  Tc14  1  0.331151  0.000000  0.331151  1
  Ni  Ni15  1  0.654318  0.000000  0.654318  1
  Ni  Ni16  1  0.118875  0.618312  0.500563  1
  Ni  Ni17  1  0.882250  0.381688  0.500563  1
