# generated using pymatgen
data_DyY7Tc2(B12Os)2
_symmetry_space_group_name_H-M   'P 1'
_cell_length_a   3.67693800
_cell_length_b   9.17766438
_cell_length_c   11.56985400
_cell_angle_alpha   89.92600110
_cell_angle_beta   90.00000000
_cell_angle_gamma   90.00000000
_symmetry_Int_Tables_number   1
_chemical_formula_structural   DyY7Tc2(B12Os)2
_chemical_formula_sum   'Dy1 Y7 Tc2 B24 Os2'
_cell_volume   390.43253028
_cell_formula_units_Z   1
loop_
 _symmetry_equiv_pos_site_id
 _symmetry_equiv_pos_as_xyz
  1  'x, y, z'
loop_
 _atom_site_type_symbol
 _atom_site_label
 _atom_site_symmetry_multiplicity
 _atom_site_fract_x
 _atom_site_fract_y
 _atom_site_fract_z
 _atom_site_occupancy
  Dy  Dy0  1  0.000000  0.556332  0.870020  1
  Y  Y1  1  0.000000  0.325029  0.415222  1
  Y  Y2  1  0.000000  0.674939  0.584791  1
  Y  Y3  1  0.000000  0.821314  0.087404  1
  Y  Y4  1  0.000000  0.178715  0.912588  1
  Y  Y5  1  0.000000  0.941770  0.371146  1
  Y  Y6  1  0.000000  0.058253  0.628865  1
  Y  Y7  1  0.000000  0.443816  0.129707  1
  Tc  Tc8  1  0.000000  0.638403  0.320499  1
  Tc  Tc9  1  0.000000  0.361640  0.679627  1
  B  B10  1  0.500000  0.553187  0.432852  1
  B  B11  1  0.500000  0.446797  0.567189  1
  B  B12  1  0.500000  0.053683  0.067162  1
  B  B13  1  0.500000  0.946319  0.932828  1
  B  B14  1  0.500000  0.747895  0.418921  1
  B  B15  1  0.500000  0.252141  0.581121  1
  B  B16  1  0.500000  0.248204  0.081311  1
  B  B17  1  0.500000  0.751715  0.918599  1
  B  B18  1  0.500000  0.791124  0.265676  1
  B  B19  1  0.500000  0.208921  0.734305  1
  B  B20  1  0.500000  0.290397  0.234004  1
  B  B21  1  0.500000  0.709576  0.766106  1
  B  B22  1  0.500000  0.631644  0.185630  1
  B  B23  1  0.500000  0.368480  0.814311  1
  B  B24  1  0.500000  0.131087  0.313621  1
  B  B25  1  0.500000  0.868899  0.686395  1
  B  B26  1  0.500000  0.983178  0.211977  1
  B  B27  1  0.500000  0.016792  0.788036  1
  B  B28  1  0.500000  0.483110  0.287684  1
  B  B29  1  0.500000  0.516804  0.712415  1
  B  B30  1  0.500000  0.604508  0.028789  1
  B  B31  1  0.500000  0.395515  0.971160  1
  B  B32  1  0.500000  0.104331  0.470745  1
  B  B33  1  0.500000  0.895666  0.529262  1
  Os  Os34  1  0.000000  0.137347  0.178068  1
  Os  Os35  1  0.000000  0.862470  0.821965  1
