# generated using pymatgen
data_Tb16ErTm3Pb16
_symmetry_space_group_name_H-M   'P 1'
_cell_length_a   8.21352822
_cell_length_b   8.30410006
_cell_length_c   15.70324200
_cell_angle_alpha   90.00000000
_cell_angle_beta   90.00000000
_cell_angle_gamma   89.99363935
_symmetry_Int_Tables_number   1
_chemical_formula_structural   Tb16ErTm3Pb16
_chemical_formula_sum   'Tb16 Er1 Tm3 Pb16'
_cell_volume   1071.05469168
_cell_formula_units_Z   1
loop_
 _symmetry_equiv_pos_site_id
 _symmetry_equiv_pos_as_xyz
  1  'x, y, z'
loop_
 _atom_site_type_symbol
 _atom_site_label
 _atom_site_symmetry_multiplicity
 _atom_site_fract_x
 _atom_site_fract_y
 _atom_site_fract_z
 _atom_site_occupancy
  Tb  Tb0  1  0.377464  0.840771  0.879554  1
  Tb  Tb1  1  0.877457  0.659250  0.620486  1
  Tb  Tb2  1  0.622594  0.159275  0.379492  1
  Tb  Tb3  1  0.122518  0.340816  0.120520  1
  Tb  Tb4  1  0.622594  0.159275  0.120508  1
  Tb  Tb5  1  0.122518  0.340816  0.379480  1
  Tb  Tb6  1  0.377464  0.840771  0.620446  1
  Tb  Tb7  1  0.877457  0.659250  0.879514  1
  Tb  Tb8  1  0.534392  0.323351  0.899920  1
  Tb  Tb9  1  0.034406  0.176646  0.600042  1
  Tb  Tb10  1  0.465611  0.676673  0.399902  1
  Tb  Tb11  1  0.965568  0.823362  0.100076  1
  Tb  Tb12  1  0.465611  0.676673  0.100098  1
  Tb  Tb13  1  0.965568  0.823362  0.399924  1
  Tb  Tb14  1  0.534392  0.323351  0.600080  1
  Tb  Tb15  1  0.034406  0.176646  0.899958  1
  Er  Er16  1  0.290896  0.003714  0.250000  1
  Tm  Tm17  1  0.209203  0.503798  0.750000  1
  Tm  Tm18  1  0.709185  0.996195  0.750000  1
  Tm  Tm19  1  0.790801  0.496196  0.250000  1
  Pb  Pb20  1  0.281088  0.032938  0.043237  1
  Pb  Pb21  1  0.781079  0.466963  0.456744  1
  Pb  Pb22  1  0.718905  0.966951  0.543245  1
  Pb  Pb23  1  0.218891  0.533026  0.956750  1
  Pb  Pb24  1  0.718905  0.966951  0.956755  1
  Pb  Pb25  1  0.218891  0.533026  0.543250  1
  Pb  Pb26  1  0.281088  0.032938  0.456763  1
  Pb  Pb27  1  0.781079  0.466963  0.043256  1
  Pb  Pb28  1  0.572664  0.625961  0.750000  1
  Pb  Pb29  1  0.072714  0.874078  0.750000  1
  Pb  Pb30  1  0.427346  0.374151  0.250000  1
  Pb  Pb31  1  0.927121  0.125963  0.250000  1
  Pb  Pb32  1  0.346359  0.153303  0.750000  1
  Pb  Pb33  1  0.846443  0.346675  0.750000  1
  Pb  Pb34  1  0.653637  0.846759  0.250000  1
  Pb  Pb35  1  0.153686  0.653165  0.250000  1
