# generated using pymatgen
data_Pa2Co7(TcP2)3
_symmetry_space_group_name_H-M   'P 1'
_cell_length_a   3.75643000
_cell_length_b   10.52586900
_cell_length_c   11.92843000
_cell_angle_alpha   90.00000000
_cell_angle_beta   90.00000000
_cell_angle_gamma   90.00000000
_symmetry_Int_Tables_number   1
_chemical_formula_structural   Pa2Co7(TcP2)3
_chemical_formula_sum   'Pa4 Co14 Tc6 P12'
_cell_volume   471.64642543
_cell_formula_units_Z   2
loop_
 _symmetry_equiv_pos_site_id
 _symmetry_equiv_pos_as_xyz
  1  'x, y, z'
loop_
 _atom_site_type_symbol
 _atom_site_label
 _atom_site_symmetry_multiplicity
 _atom_site_fract_x
 _atom_site_fract_y
 _atom_site_fract_z
 _atom_site_occupancy
  Pa  Pa0  1  0.250000  0.584844  0.704708  1
  Pa  Pa1  1  0.250000  0.915156  0.204708  1
  Pa  Pa2  1  0.750000  0.418846  0.293950  1
  Pa  Pa3  1  0.750000  0.081154  0.793950  1
  Co  Co4  1  0.750000  0.600436  0.520060  1
  Co  Co5  1  0.750000  0.899564  0.020060  1
  Co  Co6  1  0.250000  0.228191  0.178263  1
  Co  Co7  1  0.250000  0.271809  0.678263  1
  Co  Co8  1  0.750000  0.776267  0.824242  1
  Co  Co9  1  0.750000  0.723733  0.324242  1
  Co  Co10  1  0.250000  0.882480  0.700520  1
  Co  Co11  1  0.250000  0.617520  0.200520  1
  Co  Co12  1  0.750000  0.112052  0.296659  1
  Co  Co13  1  0.750000  0.387948  0.796659  1
  Co  Co14  1  0.250000  0.466176  0.930339  1
  Co  Co15  1  0.250000  0.033824  0.430339  1
  Co  Co16  1  0.750000  0.535780  0.067492  1
  Co  Co17  1  0.750000  0.964220  0.567492  1
  Tc  Tc18  1  0.250000  0.707629  0.987790  1
  Tc  Tc19  1  0.250000  0.792371  0.487790  1
  Tc  Tc20  1  0.750000  0.293728  0.012563  1
  Tc  Tc21  1  0.750000  0.206272  0.512563  1
  Tc  Tc22  1  0.250000  0.408752  0.485408  1
  Tc  Tc23  1  0.250000  0.091248  0.985408  1
  P  P24  1  0.250000  0.423223  0.111171  1
  P  P25  1  0.250000  0.076777  0.611171  1
  P  P26  1  0.750000  0.579854  0.887969  1
  P  P27  1  0.750000  0.920146  0.387969  1
  P  P28  1  0.250000  0.275298  0.864701  1
  P  P29  1  0.250000  0.224702  0.364701  1
  P  P30  1  0.750000  0.725925  0.134714  1
  P  P31  1  0.750000  0.774075  0.634714  1
  P  P32  1  0.250000  0.605706  0.388408  1
  P  P33  1  0.250000  0.894294  0.888408  1
  P  P34  1  0.750000  0.397281  0.611041  1
  P  P35  1  0.750000  0.102719  0.111041  1
