# generated using pymatgen
data_Tb2Dy3Zr3Pt4
_symmetry_space_group_name_H-M   'P 1'
_cell_length_a   4.74209400
_cell_length_b   7.14663890
_cell_length_c   8.36360519
_cell_angle_alpha   90.47165164
_cell_angle_beta   90.00000000
_cell_angle_gamma   90.00000000
_symmetry_Int_Tables_number   1
_chemical_formula_structural   Tb2Dy3Zr3Pt4
_chemical_formula_sum   'Tb2 Dy3 Zr3 Pt4'
_cell_volume   283.43325616
_cell_formula_units_Z   1
loop_
 _symmetry_equiv_pos_site_id
 _symmetry_equiv_pos_as_xyz
  1  'x, y, z'
loop_
 _atom_site_type_symbol
 _atom_site_label
 _atom_site_symmetry_multiplicity
 _atom_site_fract_x
 _atom_site_fract_y
 _atom_site_fract_z
 _atom_site_occupancy
  Tb  Tb0  1  0.250000  0.009645  0.325423  1
  Tb  Tb1  1  0.250000  0.519237  0.170470  1
  Dy  Dy2  1  0.750000  0.352976  0.416597  1
  Dy  Dy3  1  0.750000  0.982134  0.681831  1
  Dy  Dy4  1  0.750000  0.485229  0.822238  1
  Zr  Zr5  1  0.250000  0.144061  0.921970  1
  Zr  Zr6  1  0.250000  0.646408  0.580641  1
  Zr  Zr7  1  0.750000  0.852253  0.079970  1
  Pt  Pt8  1  0.250000  0.264633  0.604817  1
  Pt  Pt9  1  0.250000  0.769736  0.906368  1
  Pt  Pt10  1  0.750000  0.745554  0.408948  1
  Pt  Pt11  1  0.750000  0.228134  0.080727  1
