# generated using pymatgen
data_Nd2MgCd3Cu17Ni
_symmetry_space_group_name_H-M   'P 1'
_cell_length_a   5.09432200
_cell_length_b   5.09432263
_cell_length_c   15.95744200
_cell_angle_alpha   90.00000000
_cell_angle_beta   90.00000000
_cell_angle_gamma   119.99999588
_symmetry_Int_Tables_number   1
_chemical_formula_structural   Nd2MgCd3Cu17Ni
_chemical_formula_sum   'Nd2 Mg1 Cd3 Cu17 Ni1'
_cell_volume   358.64663702
_cell_formula_units_Z   1
loop_
 _symmetry_equiv_pos_site_id
 _symmetry_equiv_pos_as_xyz
  1  'x, y, z'
loop_
 _atom_site_type_symbol
 _atom_site_label
 _atom_site_symmetry_multiplicity
 _atom_site_fract_x
 _atom_site_fract_y
 _atom_site_fract_z
 _atom_site_occupancy
  Nd  Nd0  1  0.666667  0.333333  0.250494  1
  Nd  Nd1  1  0.333333  0.666667  0.751379  1
  Mg  Mg2  1  0.333333  0.666667  0.530972  1
  Cd  Cd3  1  0.666667  0.333333  0.467275  1
  Cd  Cd4  1  0.333333  0.666667  0.966041  1
  Cd  Cd5  1  0.666667  0.333333  0.033943  1
  Cu  Cu6  1  0.666667  0.333333  0.749641  1
  Cu  Cu7  1  0.169077  0.830923  0.376922  1
  Cu  Cu8  1  0.169077  0.338153  0.376922  1
  Cu  Cu9  1  0.000000  0.000000  0.749623  1
  Cu  Cu10  1  0.000000  0.000000  0.250038  1
  Cu  Cu11  1  0.000000  0.000000  0.000061  1
  Cu  Cu12  1  0.000000  0.000000  0.500235  1
  Cu  Cu13  1  0.168744  0.337487  0.123724  1
  Cu  Cu14  1  0.831600  0.168400  0.622901  1
  Cu  Cu15  1  0.336798  0.168400  0.622901  1
  Cu  Cu16  1  0.662513  0.831256  0.123724  1
  Cu  Cu17  1  0.168744  0.831256  0.123724  1
  Cu  Cu18  1  0.831639  0.663279  0.876473  1
  Cu  Cu19  1  0.831639  0.168361  0.876473  1
  Cu  Cu20  1  0.831600  0.663202  0.622901  1
  Cu  Cu21  1  0.336721  0.168361  0.876473  1
  Cu  Cu22  1  0.661847  0.830923  0.376922  1
  Ni  Ni23  1  0.333333  0.666667  0.250235  1
