# generated using pymatgen
data_Tm3HfZn2Ir3
_symmetry_space_group_name_H-M   'P 1'
_cell_length_a   7.12303281
_cell_length_b   7.05157394
_cell_length_c   4.07818500
_cell_angle_alpha   90.00000000
_cell_angle_beta   90.00000000
_cell_angle_gamma   119.66870401
_symmetry_Int_Tables_number   1
_chemical_formula_structural   Tm3HfZn2Ir3
_chemical_formula_sum   'Tm3 Hf1 Zn2 Ir3'
_cell_volume   177.98718555
_cell_formula_units_Z   1
loop_
 _symmetry_equiv_pos_site_id
 _symmetry_equiv_pos_as_xyz
  1  'x, y, z'
loop_
 _atom_site_type_symbol
 _atom_site_label
 _atom_site_symmetry_multiplicity
 _atom_site_fract_x
 _atom_site_fract_y
 _atom_site_fract_z
 _atom_site_occupancy
  Tm  Tm0  1  0.000000  0.388397  0.500000  1
  Tm  Tm1  1  0.570043  0.582877  0.500000  1
  Tm  Tm2  1  0.429957  0.012835  0.500000  1
  Hf  Hf3  1  0.000000  0.760132  0.000000  1
  Zn  Zn4  1  0.253390  0.250569  0.000000  1
  Zn  Zn5  1  0.746610  0.997178  0.000000  1
  Ir  Ir6  1  0.323935  0.670926  0.000000  1
  Ir  Ir7  1  0.676065  0.346990  0.000000  1
  Ir  Ir8  1  0.000000  0.990098  0.500000  1
