# generated using pymatgen
data_Zr6Ti7Zn9(CoRh3)2
_symmetry_space_group_name_H-M   'P 1'
_cell_length_a   8.79781211
_cell_length_b   8.79781064
_cell_length_c   8.79781095
_cell_angle_alpha   60.20165751
_cell_angle_beta   60.20166183
_cell_angle_gamma   60.20166741
_symmetry_Int_Tables_number   1
_chemical_formula_structural   Zr6Ti7Zn9(CoRh3)2
_chemical_formula_sum   'Zr6 Ti7 Zn9 Co2 Rh6'
_cell_volume   483.71275836
_cell_formula_units_Z   1
loop_
 _symmetry_equiv_pos_site_id
 _symmetry_equiv_pos_as_xyz
  1  'x, y, z'
loop_
 _atom_site_type_symbol
 _atom_site_label
 _atom_site_symmetry_multiplicity
 _atom_site_fract_x
 _atom_site_fract_y
 _atom_site_fract_z
 _atom_site_occupancy
  Zr  Zr0  1  0.206446  0.206446  0.797258  1
  Zr  Zr1  1  0.797258  0.206446  0.206446  1
  Zr  Zr2  1  0.206446  0.797258  0.206446  1
  Zr  Zr3  1  0.799583  0.799583  0.185007  1
  Zr  Zr4  1  0.185007  0.799583  0.799583  1
  Zr  Zr5  1  0.799583  0.185007  0.799583  1
  Ti  Ti6  1  0.383004  0.383004  0.383004  1
  Ti  Ti7  1  0.384492  0.852505  0.384492  1
  Ti  Ti8  1  0.852505  0.384492  0.384492  1
  Ti  Ti9  1  0.384492  0.384492  0.852505  1
  Ti  Ti10  1  0.833255  0.499982  0.833255  1
  Ti  Ti11  1  0.499982  0.833255  0.833255  1
  Ti  Ti12  1  0.833255  0.833255  0.499982  1
  Zn  Zn13  1  0.168848  0.168848  0.168848  1
  Zn  Zn14  1  0.169188  0.497177  0.169188  1
  Zn  Zn15  1  0.497177  0.169188  0.169188  1
  Zn  Zn16  1  0.169188  0.169188  0.497177  1
  Zn  Zn17  1  0.615604  0.615604  0.615604  1
  Zn  Zn18  1  0.615762  0.152630  0.615762  1
  Zn  Zn19  1  0.152630  0.615762  0.615762  1
  Zn  Zn20  1  0.615762  0.615762  0.152630  1
  Zn  Zn21  1  0.825770  0.825770  0.825770  1
  Co  Co22  1  0.500048  0.500048  0.500048  1
  Co  Co23  1  0.002957  0.002957  0.002957  1
  Rh  Rh24  1  0.000517  0.000517  0.495373  1
  Rh  Rh25  1  0.495373  0.000517  0.000517  1
  Rh  Rh26  1  0.000517  0.495373  0.000517  1
  Rh  Rh27  1  0.504405  0.504405  0.996541  1
  Rh  Rh28  1  0.996541  0.504405  0.504405  1
  Rh  Rh29  1  0.504405  0.996541  0.504405  1
