# generated using pymatgen
data_Hf18ReMo7PtSe
_symmetry_space_group_name_H-M   'P 1'
_cell_length_a   8.73529000
_cell_length_b   8.73528909
_cell_length_c   8.60407000
_cell_angle_alpha   90.00000000
_cell_angle_beta   90.00000000
_cell_angle_gamma   120.00000344
_symmetry_Int_Tables_number   1
_chemical_formula_structural   Hf18ReMo7PtSe
_chemical_formula_sum   'Hf18 Re1 Mo7 Pt1 Se1'
_cell_volume   568.57683490
_cell_formula_units_Z   1
loop_
 _symmetry_equiv_pos_site_id
 _symmetry_equiv_pos_as_xyz
  1  'x, y, z'
loop_
 _atom_site_type_symbol
 _atom_site_label
 _atom_site_symmetry_multiplicity
 _atom_site_fract_x
 _atom_site_fract_y
 _atom_site_fract_z
 _atom_site_occupancy
  Hf  Hf0  1  0.196175  0.803825  0.448287  1
  Hf  Hf1  1  0.196175  0.392349  0.448287  1
  Hf  Hf2  1  0.607651  0.803825  0.448287  1
  Hf  Hf3  1  0.805849  0.194151  0.546516  1
  Hf  Hf4  1  0.805849  0.611698  0.546516  1
  Hf  Hf5  1  0.388302  0.194151  0.546516  1
  Hf  Hf6  1  0.807255  0.192745  0.953197  1
  Hf  Hf7  1  0.807255  0.614510  0.953197  1
  Hf  Hf8  1  0.385490  0.192745  0.953197  1
  Hf  Hf9  1  0.195246  0.804754  0.052276  1
  Hf  Hf10  1  0.195246  0.390491  0.052276  1
  Hf  Hf11  1  0.609509  0.804754  0.052276  1
  Hf  Hf12  1  0.542211  0.457789  0.249452  1
  Hf  Hf13  1  0.542211  0.084422  0.249452  1
  Hf  Hf14  1  0.915578  0.457789  0.249452  1
  Hf  Hf15  1  0.455626  0.544374  0.750413  1
  Hf  Hf16  1  0.455626  0.911254  0.750413  1
  Hf  Hf17  1  0.088746  0.544374  0.750413  1
  Re  Re18  1  0.000000  0.000000  0.000646  1
  Mo  Mo19  1  0.888964  0.111036  0.250370  1
  Mo  Mo20  1  0.888964  0.777928  0.250370  1
  Mo  Mo21  1  0.222072  0.111036  0.250370  1
  Mo  Mo22  1  0.110170  0.889830  0.749630  1
  Mo  Mo23  1  0.110170  0.220340  0.749630  1
  Mo  Mo24  1  0.779660  0.889830  0.749630  1
  Mo  Mo25  1  0.000000  0.000000  0.498548  1
  Pt  Pt26  1  0.333333  0.666667  0.249278  1
  Se  Se27  1  0.666667  0.333333  0.751102  1
