# generated using pymatgen
data_Er2Tm8Tl7InPt4
_symmetry_space_group_name_H-M   'P 1'
_cell_length_a   3.57302600
_cell_length_b   8.22631497
_cell_length_c   18.32212344
_cell_angle_alpha   89.92048742
_cell_angle_beta   90.00000000
_cell_angle_gamma   90.00000000
_symmetry_Int_Tables_number   1
_chemical_formula_structural   Er2Tm8Tl7InPt4
_chemical_formula_sum   'Er2 Tm8 Tl7 In1 Pt4'
_cell_volume   538.53867399
_cell_formula_units_Z   1
loop_
 _symmetry_equiv_pos_site_id
 _symmetry_equiv_pos_as_xyz
  1  'x, y, z'
loop_
 _atom_site_type_symbol
 _atom_site_label
 _atom_site_symmetry_multiplicity
 _atom_site_fract_x
 _atom_site_fract_y
 _atom_site_fract_z
 _atom_site_occupancy
  Er  Er0  1  0.000000  0.999822  0.000198  1
  Er  Er1  1  0.000000  0.501782  0.499667  1
  Tm  Tm2  1  0.000000  0.114596  0.413281  1
  Tm  Tm3  1  0.000000  0.884561  0.586179  1
  Tm  Tm4  1  0.000000  0.385255  0.912611  1
  Tm  Tm5  1  0.000000  0.614651  0.087399  1
  Tm  Tm6  1  0.000000  0.243785  0.221366  1
  Tm  Tm7  1  0.000000  0.756595  0.779059  1
  Tm  Tm8  1  0.000000  0.255514  0.720687  1
  Tm  Tm9  1  0.000000  0.743742  0.279410  1
  Tl  Tl10  1  0.500000  0.423262  0.353504  1
  Tl  Tl11  1  0.500000  0.579442  0.646923  1
  Tl  Tl12  1  0.500000  0.078875  0.852934  1
  Tl  Tl13  1  0.500000  0.921175  0.147395  1
  Tl  Tl14  1  0.500000  0.292706  0.064829  1
  Tl  Tl15  1  0.500000  0.707117  0.935203  1
  Tl  Tl16  1  0.500000  0.207108  0.564676  1
  In  In17  1  0.500000  0.794145  0.433839  1
  Pt  Pt18  1  0.500000  0.023634  0.304142  1
  Pt  Pt19  1  0.500000  0.973104  0.696792  1
  Pt  Pt20  1  0.500000  0.473222  0.802746  1
  Pt  Pt21  1  0.500000  0.525910  0.197160  1
