# generated using pymatgen
data_Th5Zr3(Ni4P3)4
_symmetry_space_group_name_H-M   'P 1'
_cell_length_a   12.51049400
_cell_length_b   12.51049260
_cell_length_c   3.89447200
_cell_angle_alpha   90.00000000
_cell_angle_beta   90.00000000
_cell_angle_gamma   120.00000370
_symmetry_Int_Tables_number   1
_chemical_formula_structural   Th5Zr3(Ni4P3)4
_chemical_formula_sum   'Th5 Zr3 Ni16 P12'
_cell_volume   527.87132449
_cell_formula_units_Z   1
loop_
 _symmetry_equiv_pos_site_id
 _symmetry_equiv_pos_as_xyz
  1  'x, y, z'
loop_
 _atom_site_type_symbol
 _atom_site_label
 _atom_site_symmetry_multiplicity
 _atom_site_fract_x
 _atom_site_fract_y
 _atom_site_fract_z
 _atom_site_occupancy
  Th  Th0  1  0.188289  0.188289  0.500000  1
  Th  Th1  1  0.811711  0.000000  0.500000  1
  Th  Th2  1  0.000000  0.811711  0.500000  1
  Th  Th3  1  0.333333  0.666667  0.000000  1
  Th  Th4  1  0.666667  0.333333  0.000000  1
  Zr  Zr5  1  0.568826  0.568826  0.000000  1
  Zr  Zr6  1  0.431174  0.000000  0.000000  1
  Zr  Zr7  1  0.000000  0.431174  0.000000  1
  Ni  Ni8  1  0.727391  0.727391  0.500000  1
  Ni  Ni9  1  0.272609  0.000000  0.500000  1
  Ni  Ni10  1  0.000000  0.272609  0.500000  1
  Ni  Ni11  1  0.187998  0.376387  0.000000  1
  Ni  Ni12  1  0.623613  0.811610  0.000000  1
  Ni  Ni13  1  0.188390  0.812002  0.000000  1
  Ni  Ni14  1  0.811610  0.623613  0.000000  1
  Ni  Ni15  1  0.812002  0.188390  0.000000  1
  Ni  Ni16  1  0.376387  0.187998  0.000000  1
  Ni  Ni17  1  0.365392  0.487007  0.500000  1
  Ni  Ni18  1  0.512993  0.878386  0.500000  1
  Ni  Ni19  1  0.121614  0.634608  0.500000  1
  Ni  Ni20  1  0.878386  0.512993  0.500000  1
  Ni  Ni21  1  0.634608  0.121614  0.500000  1
  Ni  Ni22  1  0.487007  0.365392  0.500000  1
  Ni  Ni23  1  0.000000  0.000000  0.000000  1
  P  P24  1  0.818753  0.818753  0.000000  1
  P  P25  1  0.181247  0.000000  0.000000  1
  P  P26  1  0.000000  0.181247  0.000000  1
  P  P27  1  0.170073  0.471920  0.500000  1
  P  P28  1  0.528080  0.698153  0.500000  1
  P  P29  1  0.301847  0.829927  0.500000  1
  P  P30  1  0.698153  0.528080  0.500000  1
  P  P31  1  0.829927  0.301847  0.500000  1
  P  P32  1  0.471920  0.170073  0.500000  1
  P  P33  1  0.366679  0.366679  0.000000  1
  P  P34  1  0.633321  0.000000  0.000000  1
  P  P35  1  0.000000  0.633321  0.000000  1
