# generated using pymatgen
data_La4CdTc
_symmetry_space_group_name_H-M   'P 1'
_cell_length_a   10.06834205
_cell_length_b   10.06834134
_cell_length_c   10.06834200
_cell_angle_alpha   59.99999782
_cell_angle_beta   60.00000015
_cell_angle_gamma   59.99999777
_symmetry_Int_Tables_number   1
_chemical_formula_structural   La4CdTc
_chemical_formula_sum   'La16 Cd4 Tc4'
_cell_volume   721.70354599
_cell_formula_units_Z   4
loop_
 _symmetry_equiv_pos_site_id
 _symmetry_equiv_pos_as_xyz
  1  'x, y, z'
loop_
 _atom_site_type_symbol
 _atom_site_label
 _atom_site_symmetry_multiplicity
 _atom_site_fract_x
 _atom_site_fract_y
 _atom_site_fract_z
 _atom_site_occupancy
  La  La0  1  0.943686  0.943686  0.556314  1
  La  La1  1  0.556314  0.943686  0.556314  1
  La  La2  1  0.556314  0.943686  0.943686  1
  La  La3  1  0.688244  0.688244  0.311756  1
  La  La4  1  0.154677  0.154677  0.535968  1
  La  La5  1  0.311756  0.688244  0.688244  1
  La  La6  1  0.154677  0.154677  0.154677  1
  La  La7  1  0.535968  0.154677  0.154677  1
  La  La8  1  0.311756  0.688244  0.311756  1
  La  La9  1  0.311756  0.311756  0.688244  1
  La  La10  1  0.688244  0.311756  0.688244  1
  La  La11  1  0.943686  0.556314  0.556314  1
  La  La12  1  0.556314  0.556314  0.943686  1
  La  La13  1  0.154677  0.535968  0.154677  1
  La  La14  1  0.688244  0.311756  0.311756  1
  La  La15  1  0.943686  0.556314  0.943686  1
  Cd  Cd16  1  0.234683  0.921772  0.921772  1
  Cd  Cd17  1  0.921772  0.921772  0.921772  1
  Cd  Cd18  1  0.921772  0.921772  0.234683  1
  Cd  Cd19  1  0.921772  0.234683  0.921772  1
  Tc  Tc20  1  0.900931  0.366356  0.366356  1
  Tc  Tc21  1  0.366356  0.366356  0.900931  1
  Tc  Tc22  1  0.366356  0.900931  0.366356  1
  Tc  Tc23  1  0.366356  0.366356  0.366356  1
