# generated using pymatgen
data_Tb8Si12OsPt3
_symmetry_space_group_name_H-M   'P 1'
_cell_length_a   8.17804300
_cell_length_b   8.17804362
_cell_length_c   7.97848300
_cell_angle_alpha   90.00000000
_cell_angle_beta   90.00000000
_cell_angle_gamma   119.99999343
_symmetry_Int_Tables_number   1
_chemical_formula_structural   Tb8Si12OsPt3
_chemical_formula_sum   'Tb8 Si12 Os1 Pt3'
_cell_volume   462.11471412
_cell_formula_units_Z   1
loop_
 _symmetry_equiv_pos_site_id
 _symmetry_equiv_pos_as_xyz
  1  'x, y, z'
loop_
 _atom_site_type_symbol
 _atom_site_label
 _atom_site_symmetry_multiplicity
 _atom_site_fract_x
 _atom_site_fract_y
 _atom_site_fract_z
 _atom_site_occupancy
  Tb  Tb0  1  0.000000  0.000000  0.248573  1
  Tb  Tb1  1  0.000000  0.000000  0.749392  1
  Tb  Tb2  1  0.012830  0.506415  0.254544  1
  Tb  Tb3  1  0.493585  0.506415  0.254544  1
  Tb  Tb4  1  0.510329  0.020656  0.746073  1
  Tb  Tb5  1  0.493585  0.987170  0.254544  1
  Tb  Tb6  1  0.510329  0.489671  0.746073  1
  Tb  Tb7  1  0.979344  0.489671  0.746073  1
  Si  Si8  1  0.165121  0.330242  0.001864  1
  Si  Si9  1  0.669758  0.834879  0.001864  1
  Si  Si10  1  0.163936  0.327871  0.501812  1
  Si  Si11  1  0.330691  0.165347  0.996491  1
  Si  Si12  1  0.165121  0.834879  0.001864  1
  Si  Si13  1  0.672129  0.836064  0.501812  1
  Si  Si14  1  0.834653  0.669309  0.996491  1
  Si  Si15  1  0.335106  0.167554  0.498752  1
  Si  Si16  1  0.163936  0.836064  0.501812  1
  Si  Si17  1  0.832446  0.664894  0.498752  1
  Si  Si18  1  0.834653  0.165347  0.996491  1
  Si  Si19  1  0.832446  0.167554  0.498752  1
  Os  Os20  1  0.666667  0.333333  0.468828  1
  Pt  Pt21  1  0.333333  0.666667  0.974423  1
  Pt  Pt22  1  0.333333  0.666667  0.523227  1
  Pt  Pt23  1  0.666667  0.333333  0.036948  1
