# generated using pymatgen
data_Tb5Nd6HoIn20
_symmetry_space_group_name_H-M   'P 1'
_cell_length_a   6.66001501
_cell_length_b   10.51101038
_cell_length_c   12.40588500
_cell_angle_alpha   89.99168174
_cell_angle_beta   89.99671367
_cell_angle_gamma   90.13750721
_symmetry_Int_Tables_number   1
_chemical_formula_structural   Tb5Nd6HoIn20
_chemical_formula_sum   'Tb5 Nd6 Ho1 In20'
_cell_volume   868.45269669
_cell_formula_units_Z   1
loop_
 _symmetry_equiv_pos_site_id
 _symmetry_equiv_pos_as_xyz
  1  'x, y, z'
loop_
 _atom_site_type_symbol
 _atom_site_label
 _atom_site_symmetry_multiplicity
 _atom_site_fract_x
 _atom_site_fract_y
 _atom_site_fract_z
 _atom_site_occupancy
  Tb  Tb0  1  0.349859  0.748224  0.057642  1
  Tb  Tb1  1  0.150317  0.751765  0.557722  1
  Tb  Tb2  1  0.648997  0.248631  0.942051  1
  Tb  Tb3  1  0.888561  0.009868  0.142894  1
  Tb  Tb4  1  0.611554  0.489928  0.642768  1
  Nd  Nd5  1  0.887147  0.489472  0.144044  1
  Nd  Nd6  1  0.612802  0.010661  0.643831  1
  Nd  Nd7  1  0.110699  0.990358  0.856667  1
  Nd  Nd8  1  0.389171  0.509772  0.356699  1
  Nd  Nd9  1  0.110651  0.509870  0.857081  1
  Nd  Nd10  1  0.389352  0.990056  0.357148  1
  Ho  Ho11  1  0.850767  0.251441  0.441936  1
  In  In12  1  0.618701  0.748333  0.505892  1
  In  In13  1  0.881384  0.751668  0.005862  1
  In  In14  1  0.386946  0.251249  0.497766  1
  In  In15  1  0.114597  0.248776  0.997922  1
  In  In16  1  0.655193  0.752522  0.242814  1
  In  In17  1  0.844602  0.747486  0.742680  1
  In  In18  1  0.346630  0.252245  0.755519  1
  In  In19  1  0.152693  0.247715  0.255984  1
  In  In20  1  0.110967  0.750343  0.281675  1
  In  In21  1  0.388905  0.749702  0.781592  1
  In  In22  1  0.885978  0.253552  0.716259  1
  In  In23  1  0.614004  0.246400  0.216913  1
  In  In24  1  0.874494  0.545144  0.404500  1
  In  In25  1  0.625432  0.954292  0.904427  1
  In  In26  1  0.125243  0.047029  0.596214  1
  In  In27  1  0.374537  0.453226  0.096516  1
  In  In28  1  0.127776  0.456341  0.597210  1
  In  In29  1  0.372063  0.043464  0.097306  1
  In  In30  1  0.874559  0.956412  0.401237  1
  In  In31  1  0.625418  0.544052  0.901227  1
