# generated using pymatgen
data_RbZn2H5
_symmetry_space_group_name_H-M   'P 1'
_cell_length_a   7.11065000
_cell_length_b   4.96776868
_cell_length_c   4.76136707
_cell_angle_alpha   119.75817986
_cell_angle_beta   88.34317137
_cell_angle_gamma   111.35391724
_symmetry_Int_Tables_number   1
_chemical_formula_structural   RbZn2H5
_chemical_formula_sum   'Rb1 Zn2 H5'
_cell_volume   133.56853110
_cell_formula_units_Z   1
loop_
 _symmetry_equiv_pos_site_id
 _symmetry_equiv_pos_as_xyz
  1  'x, y, z'
loop_
 _atom_site_type_symbol
 _atom_site_label
 _atom_site_symmetry_multiplicity
 _atom_site_fract_x
 _atom_site_fract_y
 _atom_site_fract_z
 _atom_site_occupancy
  Rb  Rb0  1  0.984601  0.020162  0.287615  1
  Zn  Zn1  1  0.394131  0.622786  0.036117  1
  Zn  Zn2  1  0.586837  0.387830  0.423420  1
  H  H3  1  0.823069  0.545860  0.593793  1
  H  H4  1  0.517745  0.003039  0.067664  1
  H  H5  1  0.566863  0.631503  0.278818  1
  H  H6  1  0.156366  0.504458  0.067603  1
  H  H7  1  0.397305  0.340508  0.635603  1
