# generated using pymatgen
data_PrSm3(B4W)4
_symmetry_space_group_name_H-M   'P 1'
_cell_length_a   6.10808485
_cell_length_b   11.81596809
_cell_length_c   3.68571000
_cell_angle_alpha   90.00000000
_cell_angle_beta   90.00000000
_cell_angle_gamma   90.06530050
_symmetry_Int_Tables_number   1
_chemical_formula_structural   PrSm3(B4W)4
_chemical_formula_sum   'Pr1 Sm3 B16 W4'
_cell_volume   266.00833782
_cell_formula_units_Z   1
loop_
 _symmetry_equiv_pos_site_id
 _symmetry_equiv_pos_as_xyz
  1  'x, y, z'
loop_
 _atom_site_type_symbol
 _atom_site_label
 _atom_site_symmetry_multiplicity
 _atom_site_fract_x
 _atom_site_fract_y
 _atom_site_fract_z
 _atom_site_occupancy
  Pr  Pr0  1  0.874652  0.849535  0.000000  1
  Sm  Sm1  1  0.625510  0.349911  0.000000  1
  Sm  Sm2  1  0.374336  0.649549  0.000000  1
  Sm  Sm3  1  0.125753  0.150439  0.000000  1
  B  B4  1  0.783854  0.186128  0.500000  1
  B  B5  1  0.218556  0.814171  0.500000  1
  B  B6  1  0.283835  0.314554  0.500000  1
  B  B7  1  0.715668  0.683993  0.500000  1
  B  B8  1  0.863636  0.033610  0.500000  1
  B  B9  1  0.136728  0.968900  0.500000  1
  B  B10  1  0.364141  0.467528  0.500000  1
  B  B11  1  0.635557  0.531508  0.500000  1
  B  B12  1  0.887389  0.453039  0.500000  1
  B  B13  1  0.113049  0.545797  0.500000  1
  B  B14  1  0.386907  0.047452  0.500000  1
  B  B15  1  0.611047  0.954716  0.500000  1
  B  B16  1  0.975528  0.308167  0.500000  1
  B  B17  1  0.025703  0.690152  0.500000  1
  B  B18  1  0.475456  0.192358  0.500000  1
  B  B19  1  0.522954  0.808305  0.500000  1
  W  W20  1  0.628648  0.084674  0.000000  1
  W  W21  1  0.370903  0.916903  0.000000  1
  W  W22  1  0.129116  0.415848  0.000000  1
  W  W23  1  0.871075  0.582763  0.000000  1
