# generated using pymatgen
data_Zr6GaBiP
_symmetry_space_group_name_H-M   'P 1'
_cell_length_a   7.58213000
_cell_length_b   7.58212897
_cell_length_c   3.84168900
_cell_angle_alpha   90.00000000
_cell_angle_beta   90.00000000
_cell_angle_gamma   120.00000451
_symmetry_Int_Tables_number   1
_chemical_formula_structural   Zr6GaBiP
_chemical_formula_sum   'Zr6 Ga1 Bi1 P1'
_cell_volume   191.26486996
_cell_formula_units_Z   1
loop_
 _symmetry_equiv_pos_site_id
 _symmetry_equiv_pos_as_xyz
  1  'x, y, z'
loop_
 _atom_site_type_symbol
 _atom_site_label
 _atom_site_symmetry_multiplicity
 _atom_site_fract_x
 _atom_site_fract_y
 _atom_site_fract_z
 _atom_site_occupancy
  Zr  Zr0  1  0.395523  0.384233  0.500000  1
  Zr  Zr1  1  0.615767  0.011290  0.500000  1
  Zr  Zr2  1  0.988710  0.604477  0.500000  1
  Zr  Zr3  1  0.760573  0.750712  0.000000  1
  Zr  Zr4  1  0.249288  0.009861  0.000000  1
  Zr  Zr5  1  0.990139  0.239427  0.000000  1
  Ga  Ga6  1  0.666667  0.333333  0.000000  1
  Bi  Bi7  1  0.333333  0.666667  0.000000  1
  P  P8  1  0.000000  0.000000  0.500000  1
