# generated using pymatgen
data_Nd3HgPt3Pb2
_symmetry_space_group_name_H-M   'P 1'
_cell_length_a   7.88118854
_cell_length_b   7.88118716
_cell_length_c   4.01195500
_cell_angle_alpha   90.00000000
_cell_angle_beta   90.00000000
_cell_angle_gamma   119.67223472
_symmetry_Int_Tables_number   1
_chemical_formula_structural   Nd3HgPt3Pb2
_chemical_formula_sum   'Nd3 Hg1 Pt3 Pb2'
_cell_volume   216.51847945
_cell_formula_units_Z   1
loop_
 _symmetry_equiv_pos_site_id
 _symmetry_equiv_pos_as_xyz
  1  'x, y, z'
loop_
 _atom_site_type_symbol
 _atom_site_label
 _atom_site_symmetry_multiplicity
 _atom_site_fract_x
 _atom_site_fract_y
 _atom_site_fract_z
 _atom_site_occupancy
  Nd  Nd0  1  0.991368  0.595749  0.500000  1
  Nd  Nd1  1  0.595749  0.991368  0.500000  1
  Nd  Nd2  1  0.418037  0.418037  0.500000  1
  Hg  Hg3  1  0.736360  0.736360  0.000000  1
  Pt  Pt4  1  0.002849  0.002849  0.500000  1
  Pt  Pt5  1  0.665780  0.330898  0.000000  1
  Pt  Pt6  1  0.330898  0.665780  0.000000  1
  Pb  Pb7  1  0.000543  0.258414  0.000000  1
  Pb  Pb8  1  0.258414  0.000543  0.000000  1
