# generated using pymatgen
data_Pr9Nd3(BCl3)4
_symmetry_space_group_name_H-M   'P 1'
_cell_length_a   9.91408331
_cell_length_b   9.92265190
_cell_length_c   9.93145511
_cell_angle_alpha   109.47206198
_cell_angle_beta   109.51759657
_cell_angle_gamma   109.47657893
_symmetry_Int_Tables_number   1
_chemical_formula_structural   Pr9Nd3(BCl3)4
_chemical_formula_sum   'Pr9 Nd3 B4 Cl12'
_cell_volume   751.60409449
_cell_formula_units_Z   1
loop_
 _symmetry_equiv_pos_site_id
 _symmetry_equiv_pos_as_xyz
  1  'x, y, z'
loop_
 _atom_site_type_symbol
 _atom_site_label
 _atom_site_symmetry_multiplicity
 _atom_site_fract_x
 _atom_site_fract_y
 _atom_site_fract_z
 _atom_site_occupancy
  Pr  Pr0  1  0.236799  0.474154  0.487093  1
  Pr  Pr1  1  0.263359  0.750299  0.237519  1
  Pr  Pr2  1  0.025481  0.262753  0.012715  1
  Pr  Pr3  1  0.012401  0.025659  0.262922  1
  Pr  Pr4  1  0.488105  0.750515  0.013445  1
  Pr  Pr5  1  0.488108  0.237596  0.474685  1
  Pr  Pr6  1  0.012400  0.486768  0.749504  1
  Pr  Pr7  1  0.263368  0.013039  0.025816  1
  Pr  Pr8  1  0.236811  0.262636  0.749704  1
  Nd  Nd9  1  0.473002  0.486488  0.236493  1
  Nd  Nd10  1  0.750068  0.236302  0.263891  1
  Nd  Nd11  1  0.750102  0.013795  0.486216  1
  B  B12  1  0.250686  0.250848  0.249948  1
  B  B13  1  0.501619  0.000828  0.250794  1
  B  B14  1  0.998585  0.249275  0.499294  1
  B  B15  1  0.250636  0.499815  0.000719  1
  Cl  Cl16  1  0.250158  0.754379  0.745706  1
  Cl  Cl17  1  0.508902  0.504457  0.754435  1
  Cl  Cl18  1  0.991518  0.745770  0.995758  1
  Cl  Cl19  1  0.745404  0.247788  0.752534  1
  Cl  Cl20  1  0.994074  0.991396  0.744218  1
  Cl  Cl21  1  0.250147  0.995772  0.504440  1
  Cl  Cl22  1  0.753025  0.507102  0.500815  1
  Cl  Cl23  1  0.506351  0.252221  0.999360  1
  Cl  Cl24  1  0.753023  0.745939  0.252233  1
  Cl  Cl25  1  0.745428  0.997625  0.992887  1
  Cl  Cl26  1  0.994086  0.502665  0.249868  1
  Cl  Cl27  1  0.506353  0.754118  0.506987  1
