# generated using pymatgen
data_YbY3(Si4Tc3)2
_symmetry_space_group_name_H-M   'P 1'
_cell_length_a   6.81319018
_cell_length_b   6.73542197
_cell_length_c   6.79633300
_cell_angle_alpha   70.20764708
_cell_angle_beta   90.01310206
_cell_angle_gamma   89.81909365
_symmetry_Int_Tables_number   1
_chemical_formula_structural   YbY3(Si4Tc3)2
_chemical_formula_sum   'Yb1 Y3 Si8 Tc6'
_cell_volume   293.45590194
_cell_formula_units_Z   1
loop_
 _symmetry_equiv_pos_site_id
 _symmetry_equiv_pos_as_xyz
  1  'x, y, z'
loop_
 _atom_site_type_symbol
 _atom_site_label
 _atom_site_symmetry_multiplicity
 _atom_site_fract_x
 _atom_site_fract_y
 _atom_site_fract_z
 _atom_site_occupancy
  Yb  Yb0  1  0.166307  0.944519  0.186085  1
  Y  Y1  1  0.330993  0.440844  0.193455  1
  Y  Y2  1  0.833479  0.057433  0.810162  1
  Y  Y3  1  0.667759  0.559183  0.807352  1
  Si  Si4  1  0.548393  0.118942  0.105172  1
  Si  Si5  1  0.356525  0.635399  0.509023  1
  Si  Si6  1  0.861373  0.868968  0.484665  1
  Si  Si7  1  0.050265  0.378948  0.897897  1
  Si  Si8  1  0.142437  0.128417  0.512044  1
  Si  Si9  1  0.641427  0.368132  0.487923  1
  Si  Si10  1  0.950533  0.620403  0.104679  1
  Si  Si11  1  0.448538  0.880202  0.897039  1
  Tc  Tc12  1  0.845096  0.243489  0.239616  1
  Tc  Tc13  1  0.347945  0.259539  0.760479  1
  Tc  Tc14  1  0.153731  0.755068  0.761415  1
  Tc  Tc15  1  0.653229  0.742553  0.239452  1
  Tc  Tc16  1  0.502049  0.999772  0.502310  1
  Tc  Tc17  1  0.999925  0.498190  0.501232  1
