# generated using pymatgen
data_Y3HoHgRh
_symmetry_space_group_name_H-M   'P 1'
_cell_length_a   9.59954936
_cell_length_b   9.59954959
_cell_length_c   9.59955100
_cell_angle_alpha   60.00000548
_cell_angle_beta   60.00000468
_cell_angle_gamma   60.00000591
_symmetry_Int_Tables_number   1
_chemical_formula_structural   Y3HoHgRh
_chemical_formula_sum   'Y12 Ho4 Hg4 Rh4'
_cell_volume   625.51492632
_cell_formula_units_Z   4
loop_
 _symmetry_equiv_pos_site_id
 _symmetry_equiv_pos_as_xyz
  1  'x, y, z'
loop_
 _atom_site_type_symbol
 _atom_site_label
 _atom_site_symmetry_multiplicity
 _atom_site_fract_x
 _atom_site_fract_y
 _atom_site_fract_z
 _atom_site_occupancy
  Y  Y0  1  0.060607  0.439393  0.439393  1
  Y  Y1  1  0.439393  0.060607  0.060607  1
  Y  Y2  1  0.439393  0.060607  0.439393  1
  Y  Y3  1  0.060607  0.439393  0.060607  1
  Y  Y4  1  0.439393  0.439393  0.060607  1
  Y  Y5  1  0.060607  0.060607  0.439393  1
  Y  Y6  1  0.186913  0.813087  0.813087  1
  Y  Y7  1  0.813087  0.186913  0.186913  1
  Y  Y8  1  0.813087  0.186913  0.813087  1
  Y  Y9  1  0.186913  0.813087  0.186913  1
  Y  Y10  1  0.813087  0.813087  0.186913  1
  Y  Y11  1  0.186913  0.186913  0.813087  1
  Ho  Ho12  1  0.601080  0.601080  0.601080  1
  Ho  Ho13  1  0.601080  0.601080  0.196762  1
  Ho  Ho14  1  0.601080  0.196762  0.601080  1
  Ho  Ho15  1  0.196762  0.601080  0.601080  1
  Hg  Hg16  1  0.834314  0.834314  0.834314  1
  Hg  Hg17  1  0.834314  0.834314  0.497058  1
  Hg  Hg18  1  0.834314  0.497058  0.834314  1
  Hg  Hg19  1  0.497058  0.834314  0.834314  1
  Rh  Rh20  1  0.394013  0.394013  0.394013  1
  Rh  Rh21  1  0.394013  0.394013  0.817961  1
  Rh  Rh22  1  0.394013  0.817961  0.394013  1
  Rh  Rh23  1  0.817961  0.394013  0.394013  1
