# generated using pymatgen
data_Pr5ErTm2(Si3Rh)4
_symmetry_space_group_name_H-M   'P 1'
_cell_length_a   8.26026000
_cell_length_b   8.26331726
_cell_length_c   8.19438600
_cell_angle_alpha   90.00000000
_cell_angle_beta   90.00000000
_cell_angle_gamma   119.98776194
_symmetry_Int_Tables_number   1
_chemical_formula_structural   Pr5ErTm2(Si3Rh)4
_chemical_formula_sum   'Pr5 Er1 Tm2 Si12 Rh4'
_cell_volume   484.44975142
_cell_formula_units_Z   1
loop_
 _symmetry_equiv_pos_site_id
 _symmetry_equiv_pos_as_xyz
  1  'x, y, z'
loop_
 _atom_site_type_symbol
 _atom_site_label
 _atom_site_symmetry_multiplicity
 _atom_site_fract_x
 _atom_site_fract_y
 _atom_site_fract_z
 _atom_site_occupancy
  Pr  Pr0  1  0.999991  0.999981  0.250000  1
  Pr  Pr1  1  0.000019  0.000037  0.750000  1
  Pr  Pr2  1  0.499523  0.500498  0.250000  1
  Pr  Pr3  1  0.499423  0.998846  0.250000  1
  Pr  Pr4  1  0.000976  0.500498  0.250000  1
  Er  Er5  1  0.503960  0.007921  0.750000  1
  Tm  Tm6  1  0.503827  0.496227  0.750000  1
  Tm  Tm7  1  0.992400  0.496227  0.750000  1
  Si  Si8  1  0.833279  0.166887  0.505848  1
  Si  Si9  1  0.833255  0.666510  0.506137  1
  Si  Si10  1  0.333607  0.166887  0.505848  1
  Si  Si11  1  0.833279  0.166887  0.994152  1
  Si  Si12  1  0.833255  0.666510  0.993863  1
  Si  Si13  1  0.333607  0.166887  0.994152  1
  Si  Si14  1  0.168435  0.831379  0.993201  1
  Si  Si15  1  0.662946  0.831379  0.993201  1
  Si  Si16  1  0.168453  0.336904  0.993156  1
  Si  Si17  1  0.168435  0.831379  0.506799  1
  Si  Si18  1  0.662946  0.831379  0.506799  1
  Si  Si19  1  0.168453  0.336904  0.506844  1
  Rh  Rh20  1  0.666871  0.333741  0.523796  1
  Rh  Rh21  1  0.666871  0.333741  0.976204  1
  Rh  Rh22  1  0.333096  0.666193  0.953821  1
  Rh  Rh23  1  0.333096  0.666193  0.546179  1
