# generated using pymatgen
data_DyErSe3
_symmetry_space_group_name_H-M   'P 1'
_cell_length_a   13.52352588
_cell_length_b   12.90799513
_cell_length_c   7.08602742
_cell_angle_alpha   79.30706558
_cell_angle_beta   69.70355159
_cell_angle_gamma   30.98938664
_symmetry_Int_Tables_number   1
_chemical_formula_structural   DyErSe3
_chemical_formula_sum   'Dy4 Er4 Se12'
_cell_volume   581.10122964
_cell_formula_units_Z   4
loop_
 _symmetry_equiv_pos_site_id
 _symmetry_equiv_pos_as_xyz
  1  'x, y, z'
loop_
 _atom_site_type_symbol
 _atom_site_label
 _atom_site_symmetry_multiplicity
 _atom_site_fract_x
 _atom_site_fract_y
 _atom_site_fract_z
 _atom_site_occupancy
  Dy  Dy0  1  0.752789  0.752789  0.247211  1
  Dy  Dy1  1  0.247211  0.247211  0.752789  1
  Dy  Dy2  1  0.497211  0.497211  0.002789  1
  Dy  Dy3  1  0.002789  0.002789  0.497211  1
  Er  Er4  1  0.416234  0.416234  0.583766  1
  Er  Er5  1  0.583766  0.583766  0.416234  1
  Er  Er6  1  0.833766  0.833766  0.666234  1
  Er  Er7  1  0.666234  0.666234  0.833766  1
  Se  Se8  1  0.673276  0.163685  0.819473  1
  Se  Se9  1  0.343565  0.819473  0.163685  1
  Se  Se10  1  0.819473  0.343565  0.673276  1
  Se  Se11  1  0.163685  0.673276  0.343565  1
  Se  Se12  1  0.576724  0.086315  0.430527  1
  Se  Se13  1  0.906435  0.430527  0.086315  1
  Se  Se14  1  0.430527  0.906435  0.576724  1
  Se  Se15  1  0.086315  0.576724  0.906435  1
  Se  Se16  1  0.991154  0.508846  0.508846  1
  Se  Se17  1  0.508846  0.991154  0.991154  1
  Se  Se18  1  0.258846  0.741154  0.741154  1
  Se  Se19  1  0.741154  0.258846  0.258846  1
