# generated using pymatgen
data_SmY2Ho(MoN3)4
_symmetry_space_group_name_H-M   'P 1'
_cell_length_a   7.34114558
_cell_length_b   7.34114449
_cell_length_c   6.29032261
_cell_angle_alpha   73.88965985
_cell_angle_beta   73.88966022
_cell_angle_gamma   81.94608387
_symmetry_Int_Tables_number   1
_chemical_formula_structural   SmY2Ho(MoN3)4
_chemical_formula_sum   'Sm1 Y2 Ho1 Mo4 N12'
_cell_volume   312.16556539
_cell_formula_units_Z   1
loop_
 _symmetry_equiv_pos_site_id
 _symmetry_equiv_pos_as_xyz
  1  'x, y, z'
loop_
 _atom_site_type_symbol
 _atom_site_label
 _atom_site_symmetry_multiplicity
 _atom_site_fract_x
 _atom_site_fract_y
 _atom_site_fract_z
 _atom_site_occupancy
  Sm  Sm0  1  0.703330  0.296670  0.250000  1
  Y  Y1  1  0.088622  0.911378  0.250000  1
  Y  Y2  1  0.295239  0.704761  0.750000  1
  Ho  Ho3  1  0.913635  0.086365  0.750000  1
  Mo  Mo4  1  0.800882  0.620430  0.766365  1
  Mo  Mo5  1  0.199186  0.380490  0.231933  1
  Mo  Mo6  1  0.619510  0.800814  0.268067  1
  Mo  Mo7  1  0.379570  0.199118  0.733635  1
  N  N8  1  0.218628  0.999221  0.846988  1
  N  N9  1  0.359953  0.349405  0.442572  1
  N  N10  1  0.636473  0.650898  0.560140  1
  N  N11  1  0.622549  0.112170  0.666901  1
  N  N12  1  0.000779  0.781372  0.653012  1
  N  N13  1  0.783721  0.997537  0.149195  1
  N  N14  1  0.110623  0.622689  0.161165  1
  N  N15  1  0.887830  0.377451  0.833099  1
  N  N16  1  0.002463  0.216279  0.350805  1
  N  N17  1  0.349102  0.363527  0.939860  1
  N  N18  1  0.650595  0.640047  0.057428  1
  N  N19  1  0.377311  0.889377  0.338835  1
