# generated using pymatgen
data_HoSc6Sn23Os6
_symmetry_space_group_name_H-M   'P 1'
_cell_length_a   9.73566100
_cell_length_b   9.73566010
_cell_length_c   9.94411700
_cell_angle_alpha   90.00000000
_cell_angle_beta   90.00000000
_cell_angle_gamma   119.99999965
_symmetry_Int_Tables_number   1
_chemical_formula_structural   HoSc6Sn23Os6
_chemical_formula_sum   'Ho1 Sc6 Sn23 Os6'
_cell_volume   816.25847772
_cell_formula_units_Z   1
loop_
 _symmetry_equiv_pos_site_id
 _symmetry_equiv_pos_as_xyz
  1  'x, y, z'
loop_
 _atom_site_type_symbol
 _atom_site_label
 _atom_site_symmetry_multiplicity
 _atom_site_fract_x
 _atom_site_fract_y
 _atom_site_fract_z
 _atom_site_occupancy
  Ho  Ho0  1  0.000000  0.000000  0.000000  1
  Sc  Sc1  1  0.508778  0.491222  0.700133  1
  Sc  Sc2  1  0.508778  0.017555  0.700133  1
  Sc  Sc3  1  0.982445  0.491222  0.700133  1
  Sc  Sc4  1  0.017555  0.508778  0.299867  1
  Sc  Sc5  1  0.491222  0.982445  0.299867  1
  Sc  Sc6  1  0.491222  0.508778  0.299867  1
  Sn  Sn7  1  0.666667  0.333333  0.168726  1
  Sn  Sn8  1  0.666667  0.333333  0.852221  1
  Sn  Sn9  1  0.333333  0.666667  0.147779  1
  Sn  Sn10  1  0.350761  0.350761  0.000000  1
  Sn  Sn11  1  0.000000  0.649239  0.000000  1
  Sn  Sn12  1  0.649239  0.000000  0.000000  1
  Sn  Sn13  1  0.649239  0.649239  0.000000  1
  Sn  Sn14  1  0.333333  0.666667  0.831274  1
  Sn  Sn15  1  0.446971  0.223486  0.467160  1
  Sn  Sn16  1  0.223486  0.776514  0.532840  1
  Sn  Sn17  1  0.223486  0.446971  0.532840  1
  Sn  Sn18  1  0.553029  0.776514  0.532840  1
  Sn  Sn19  1  0.122120  0.877880  0.280151  1
  Sn  Sn20  1  0.776514  0.553029  0.467160  1
  Sn  Sn21  1  0.776514  0.223486  0.467160  1
  Sn  Sn22  1  0.350761  0.000000  0.000000  1
  Sn  Sn23  1  0.122120  0.244240  0.280151  1
  Sn  Sn24  1  0.755760  0.877880  0.280151  1
  Sn  Sn25  1  0.244240  0.122120  0.719849  1
  Sn  Sn26  1  0.877880  0.755760  0.719849  1
  Sn  Sn27  1  0.877880  0.122120  0.719849  1
  Sn  Sn28  1  0.000000  0.000000  0.500000  1
  Sn  Sn29  1  0.000000  0.350761  0.000000  1
  Os  Os30  1  0.171902  0.828098  0.795132  1
  Os  Os31  1  0.171902  0.343804  0.795132  1
  Os  Os32  1  0.656196  0.828098  0.795132  1
  Os  Os33  1  0.343804  0.171902  0.204868  1
  Os  Os34  1  0.828098  0.656196  0.204868  1
  Os  Os35  1  0.828098  0.171902  0.204868  1
