# generated using pymatgen
data_LaPr7(HgRh)2
_symmetry_space_group_name_H-M   'P 1'
_cell_length_a   10.01312395
_cell_length_b   10.01312388
_cell_length_c   10.02656330
_cell_angle_alpha   59.94611106
_cell_angle_beta   59.94611079
_cell_angle_gamma   59.93192923
_symmetry_Int_Tables_number   1
_chemical_formula_structural   LaPr7(HgRh)2
_chemical_formula_sum   'La2 Pr14 Hg4 Rh4'
_cell_volume   709.90216564
_cell_formula_units_Z   2
loop_
 _symmetry_equiv_pos_site_id
 _symmetry_equiv_pos_as_xyz
  1  'x, y, z'
loop_
 _atom_site_type_symbol
 _atom_site_label
 _atom_site_symmetry_multiplicity
 _atom_site_fract_x
 _atom_site_fract_y
 _atom_site_fract_z
 _atom_site_occupancy
  La  La0  1  0.348027  0.348027  0.348738  1
  La  La1  1  0.348351  0.348351  0.954700  1
  Pr  Pr2  1  0.350331  0.947955  0.350995  1
  Pr  Pr3  1  0.947955  0.350331  0.350995  1
  Pr  Pr4  1  0.809973  0.190215  0.190629  1
  Pr  Pr5  1  0.190133  0.809720  0.808602  1
  Pr  Pr6  1  0.190215  0.809973  0.190629  1
  Pr  Pr7  1  0.809720  0.190133  0.808602  1
  Pr  Pr8  1  0.190370  0.190370  0.809545  1
  Pr  Pr9  1  0.809109  0.809109  0.190300  1
  Pr  Pr10  1  0.938281  0.562189  0.562237  1
  Pr  Pr11  1  0.561562  0.938097  0.937914  1
  Pr  Pr12  1  0.562189  0.938281  0.562237  1
  Pr  Pr13  1  0.938097  0.561562  0.937914  1
  Pr  Pr14  1  0.562933  0.562933  0.937368  1
  Pr  Pr15  1  0.938393  0.938393  0.561330  1
  Hg  Hg16  1  0.584072  0.584072  0.582964  1
  Hg  Hg17  1  0.584235  0.584235  0.248633  1
  Hg  Hg18  1  0.584537  0.248544  0.583675  1
  Hg  Hg19  1  0.248544  0.584537  0.583675  1
  Rh  Rh20  1  0.143093  0.143093  0.140895  1
  Rh  Rh21  1  0.143336  0.143336  0.573090  1
  Rh  Rh22  1  0.144128  0.572414  0.142166  1
  Rh  Rh23  1  0.572414  0.144128  0.142166  1
