# generated using pymatgen
data_LiHoTm(Co3P2)3
_symmetry_space_group_name_H-M   'P 1'
_cell_length_a   3.65823000
_cell_length_b   10.23107600
_cell_length_c   11.79274600
_cell_angle_alpha   90.00000000
_cell_angle_beta   90.00000000
_cell_angle_gamma   90.00000000
_symmetry_Int_Tables_number   1
_chemical_formula_structural   LiHoTm(Co3P2)3
_chemical_formula_sum   'Li2 Ho2 Tm2 Co18 P12'
_cell_volume   441.37452401
_cell_formula_units_Z   2
loop_
 _symmetry_equiv_pos_site_id
 _symmetry_equiv_pos_as_xyz
  1  'x, y, z'
loop_
 _atom_site_type_symbol
 _atom_site_label
 _atom_site_symmetry_multiplicity
 _atom_site_fract_x
 _atom_site_fract_y
 _atom_site_fract_z
 _atom_site_occupancy
  Li  Li0  1  0.250000  0.702870  0.990763  1
  Li  Li1  1  0.250000  0.797130  0.490763  1
  Ho  Ho2  1  0.750000  0.419843  0.297533  1
  Ho  Ho3  1  0.750000  0.080157  0.797533  1
  Tm  Tm4  1  0.250000  0.579462  0.702256  1
  Tm  Tm5  1  0.250000  0.920538  0.202256  1
  Co  Co6  1  0.750000  0.288378  0.008799  1
  Co  Co7  1  0.750000  0.211622  0.508799  1
  Co  Co8  1  0.250000  0.404254  0.487314  1
  Co  Co9  1  0.250000  0.095746  0.987314  1
  Co  Co10  1  0.750000  0.591212  0.515567  1
  Co  Co11  1  0.750000  0.908788  0.015567  1
  Co  Co12  1  0.250000  0.223707  0.174843  1
  Co  Co13  1  0.250000  0.276293  0.674843  1
  Co  Co14  1  0.750000  0.779870  0.826118  1
  Co  Co15  1  0.750000  0.720130  0.326118  1
  Co  Co16  1  0.250000  0.880640  0.698633  1
  Co  Co17  1  0.250000  0.619360  0.198633  1
  Co  Co18  1  0.750000  0.120093  0.299509  1
  Co  Co19  1  0.750000  0.379907  0.799509  1
  Co  Co20  1  0.250000  0.464053  0.931097  1
  Co  Co21  1  0.250000  0.035947  0.431097  1
  Co  Co22  1  0.750000  0.533568  0.066262  1
  Co  Co23  1  0.750000  0.966432  0.566262  1
  P  P24  1  0.250000  0.422165  0.112047  1
  P  P25  1  0.250000  0.077835  0.612047  1
  P  P26  1  0.750000  0.577623  0.883379  1
  P  P27  1  0.750000  0.922377  0.383379  1
  P  P28  1  0.250000  0.267866  0.867119  1
  P  P29  1  0.250000  0.232134  0.367119  1
  P  P30  1  0.750000  0.730948  0.138027  1
  P  P31  1  0.750000  0.769052  0.638027  1
  P  P32  1  0.250000  0.601025  0.393055  1
  P  P33  1  0.250000  0.898975  0.893055  1
  P  P34  1  0.750000  0.396648  0.607677  1
  P  P35  1  0.750000  0.103352  0.107677  1
