# generated using pymatgen
data_Dy10In3Ru
_symmetry_space_group_name_H-M   'P 1'
_cell_length_a   9.70997900
_cell_length_b   9.70997920
_cell_length_c   9.79025200
_cell_angle_alpha   90.00000000
_cell_angle_beta   90.00000000
_cell_angle_gamma   119.99999592
_symmetry_Int_Tables_number   1
_chemical_formula_structural   Dy10In3Ru
_chemical_formula_sum   'Dy20 In6 Ru2'
_cell_volume   799.39441602
_cell_formula_units_Z   2
loop_
 _symmetry_equiv_pos_site_id
 _symmetry_equiv_pos_as_xyz
  1  'x, y, z'
loop_
 _atom_site_type_symbol
 _atom_site_label
 _atom_site_symmetry_multiplicity
 _atom_site_fract_x
 _atom_site_fract_y
 _atom_site_fract_z
 _atom_site_occupancy
  Dy  Dy0  1  0.000000  0.000000  0.500000  1
  Dy  Dy1  1  0.000000  0.000000  0.000000  1
  Dy  Dy2  1  0.209757  0.790243  0.438834  1
  Dy  Dy3  1  0.209757  0.419516  0.438834  1
  Dy  Dy4  1  0.580484  0.790243  0.438834  1
  Dy  Dy5  1  0.790243  0.209757  0.561166  1
  Dy  Dy6  1  0.790243  0.580484  0.561166  1
  Dy  Dy7  1  0.419516  0.209757  0.561166  1
  Dy  Dy8  1  0.790243  0.209757  0.938834  1
  Dy  Dy9  1  0.790243  0.580484  0.938834  1
  Dy  Dy10  1  0.419516  0.209757  0.938834  1
  Dy  Dy11  1  0.209757  0.790243  0.061166  1
  Dy  Dy12  1  0.209757  0.419516  0.061166  1
  Dy  Dy13  1  0.580484  0.790243  0.061166  1
  Dy  Dy14  1  0.539690  0.460310  0.250000  1
  Dy  Dy15  1  0.539690  0.079378  0.250000  1
  Dy  Dy16  1  0.920622  0.460310  0.250000  1
  Dy  Dy17  1  0.460310  0.539690  0.750000  1
  Dy  Dy18  1  0.460310  0.920622  0.750000  1
  Dy  Dy19  1  0.079378  0.539690  0.750000  1
  In  In20  1  0.884454  0.115546  0.250000  1
  In  In21  1  0.884454  0.768909  0.250000  1
  In  In22  1  0.231091  0.115546  0.250000  1
  In  In23  1  0.115546  0.884454  0.750000  1
  In  In24  1  0.115546  0.231091  0.750000  1
  In  In25  1  0.768909  0.884454  0.750000  1
  Ru  Ru26  1  0.333333  0.666667  0.250000  1
  Ru  Ru27  1  0.666667  0.333333  0.750000  1
