# generated using pymatgen
data_Tm6Ta(Fe3Co8)2
_symmetry_space_group_name_H-M   'P 1'
_cell_length_a   8.35680971
_cell_length_b   8.35680989
_cell_length_c   8.35680900
_cell_angle_alpha   60.00000746
_cell_angle_beta   60.00000678
_cell_angle_gamma   60.00000063
_symmetry_Int_Tables_number   1
_chemical_formula_structural   Tm6Ta(Fe3Co8)2
_chemical_formula_sum   'Tm6 Ta1 Fe6 Co16'
_cell_volume   412.67348224
_cell_formula_units_Z   1
loop_
 _symmetry_equiv_pos_site_id
 _symmetry_equiv_pos_as_xyz
  1  'x, y, z'
loop_
 _atom_site_type_symbol
 _atom_site_label
 _atom_site_symmetry_multiplicity
 _atom_site_fract_x
 _atom_site_fract_y
 _atom_site_fract_z
 _atom_site_occupancy
  Tm  Tm0  1  0.711760  0.288240  0.288240  1
  Tm  Tm1  1  0.288240  0.711760  0.711760  1
  Tm  Tm2  1  0.288240  0.711760  0.288240  1
  Tm  Tm3  1  0.288240  0.288240  0.711760  1
  Tm  Tm4  1  0.711760  0.288240  0.711760  1
  Tm  Tm5  1  0.711760  0.711760  0.288240  1
  Ta  Ta6  1  0.000000  0.000000  0.000000  1
  Fe  Fe7  1  0.500000  0.000000  0.000000  1
  Fe  Fe8  1  0.000000  0.500000  0.500000  1
  Fe  Fe9  1  0.000000  0.500000  0.000000  1
  Fe  Fe10  1  0.000000  0.000000  0.500000  1
  Fe  Fe11  1  0.500000  0.000000  0.500000  1
  Fe  Fe12  1  0.500000  0.500000  0.000000  1
  Co  Co13  1  0.323684  0.323684  0.323684  1
  Co  Co14  1  0.323684  0.323684  0.028950  1
  Co  Co15  1  0.028950  0.323684  0.323684  1
  Co  Co16  1  0.323684  0.028950  0.323684  1
  Co  Co17  1  0.676316  0.676316  0.676316  1
  Co  Co18  1  0.676316  0.676316  0.971050  1
  Co  Co19  1  0.676316  0.971050  0.676316  1
  Co  Co20  1  0.971050  0.676316  0.676316  1
  Co  Co21  1  0.124533  0.124533  0.124533  1
  Co  Co22  1  0.124533  0.124533  0.626399  1
  Co  Co23  1  0.626399  0.124533  0.124533  1
  Co  Co24  1  0.124533  0.626399  0.124533  1
  Co  Co25  1  0.875467  0.875467  0.875467  1
  Co  Co26  1  0.875467  0.875467  0.373601  1
  Co  Co27  1  0.875467  0.373601  0.875467  1
  Co  Co28  1  0.373601  0.875467  0.875467  1
