# generated using pymatgen
data_Tb2Nb3P7Pt2Rh7
_symmetry_space_group_name_H-M   'P 1'
_cell_length_a   3.98671200
_cell_length_b   9.63474842
_cell_length_c   9.68456054
_cell_angle_alpha   120.03056179
_cell_angle_beta   89.99774545
_cell_angle_gamma   90.00129070
_symmetry_Int_Tables_number   1
_chemical_formula_structural   Tb2Nb3P7Pt2Rh7
_chemical_formula_sum   'Tb2 Nb3 P7 Pt2 Rh7'
_cell_volume   322.05642253
_cell_formula_units_Z   1
loop_
 _symmetry_equiv_pos_site_id
 _symmetry_equiv_pos_as_xyz
  1  'x, y, z'
loop_
 _atom_site_type_symbol
 _atom_site_label
 _atom_site_symmetry_multiplicity
 _atom_site_fract_x
 _atom_site_fract_y
 _atom_site_fract_z
 _atom_site_occupancy
  Tb  Tb0  1  0.261854  0.671265  0.335416  1
  Tb  Tb1  1  0.761941  0.331089  0.665358  1
  Nb  Nb2  1  0.761911  0.092872  0.871027  1
  Nb  Nb3  1  0.761889  0.127954  0.221033  1
  Nb  Nb4  1  0.761937  0.777378  0.906715  1
  P  P5  1  0.262025  0.999417  0.000680  1
  P  P6  1  0.761858  0.884529  0.591425  1
  P  P7  1  0.761767  0.404311  0.285820  1
  P  P8  1  0.762010  0.720568  0.124913  1
  P  P9  1  0.261803  0.117638  0.414510  1
  P  P10  1  0.262055  0.582358  0.706828  1
  P  P11  1  0.262080  0.290303  0.875637  1
  Pt  Pt12  1  0.761877  0.612424  0.553145  1
  Pt  Pt13  1  0.761881  0.450694  0.061879  1
  Rh  Rh14  1  0.261918  0.882955  0.161852  1
  Rh  Rh15  1  0.261816  0.835845  0.723721  1
  Rh  Rh16  1  0.261870  0.278295  0.114600  1
  Rh  Rh17  1  0.761862  0.947779  0.388467  1
  Rh  Rh18  1  0.261886  0.370257  0.440239  1
  Rh  Rh19  1  0.261857  0.556931  0.929944  1
  Rh  Rh20  1  0.261903  0.065142  0.626787  1
