# generated using pymatgen
data_CaErMnIr3
_symmetry_space_group_name_H-M   'P 1'
_cell_length_a   5.45845800
_cell_length_b   5.45845675
_cell_length_c   8.32750600
_cell_angle_alpha   90.00000000
_cell_angle_beta   90.00000000
_cell_angle_gamma   119.99998336
_symmetry_Int_Tables_number   1
_chemical_formula_structural   CaErMnIr3
_chemical_formula_sum   'Ca2 Er2 Mn2 Ir6'
_cell_volume   214.87480965
_cell_formula_units_Z   2
loop_
 _symmetry_equiv_pos_site_id
 _symmetry_equiv_pos_as_xyz
  1  'x, y, z'
loop_
 _atom_site_type_symbol
 _atom_site_label
 _atom_site_symmetry_multiplicity
 _atom_site_fract_x
 _atom_site_fract_y
 _atom_site_fract_z
 _atom_site_occupancy
  Ca  Ca0  1  0.333333  0.666667  0.439017  1
  Ca  Ca1  1  0.666667  0.333333  0.560983  1
  Er  Er2  1  0.666667  0.333333  0.927969  1
  Er  Er3  1  0.333333  0.666667  0.072031  1
  Mn  Mn4  1  0.000000  0.000000  0.500000  1
  Mn  Mn5  1  0.000000  0.000000  0.000000  1
  Ir  Ir6  1  0.830091  0.169909  0.242026  1
  Ir  Ir7  1  0.830091  0.660181  0.242026  1
  Ir  Ir8  1  0.339819  0.169909  0.242026  1
  Ir  Ir9  1  0.169909  0.830091  0.757974  1
  Ir  Ir10  1  0.169909  0.339819  0.757974  1
  Ir  Ir11  1  0.660181  0.830091  0.757974  1
