# generated using pymatgen
data_Dy3Ho(CuP2)4
_symmetry_space_group_name_H-M   'P 1'
_cell_length_a   3.70146400
_cell_length_b   3.75518763
_cell_length_c   19.44729308
_cell_angle_alpha   89.95940004
_cell_angle_beta   90.00000000
_cell_angle_gamma   90.00000000
_symmetry_Int_Tables_number   1
_chemical_formula_structural   Dy3Ho(CuP2)4
_chemical_formula_sum   'Dy3 Ho1 Cu4 P8'
_cell_volume   270.31131248
_cell_formula_units_Z   1
loop_
 _symmetry_equiv_pos_site_id
 _symmetry_equiv_pos_as_xyz
  1  'x, y, z'
loop_
 _atom_site_type_symbol
 _atom_site_label
 _atom_site_symmetry_multiplicity
 _atom_site_fract_x
 _atom_site_fract_y
 _atom_site_fract_z
 _atom_site_occupancy
  Dy  Dy0  1  0.250000  0.715386  0.382342  1
  Dy  Dy1  1  0.250000  0.784175  0.883329  1
  Dy  Dy2  1  0.750000  0.284158  0.617245  1
  Ho  Ho3  1  0.750000  0.215461  0.117156  1
  Cu  Cu4  1  0.250000  0.218235  0.248523  1
  Cu  Cu5  1  0.750000  0.786855  0.750635  1
  Cu  Cu6  1  0.250000  0.282391  0.750538  1
  Cu  Cu7  1  0.750000  0.713388  0.250177  1
  P  P8  1  0.750000  0.801942  0.501385  1
  P  P9  1  0.750000  0.697934  0.002200  1
  P  P10  1  0.250000  0.197999  0.498159  1
  P  P11  1  0.250000  0.302147  0.998951  1
  P  P12  1  0.250000  0.716664  0.171083  1
  P  P13  1  0.750000  0.215124  0.327568  1
  P  P14  1  0.750000  0.284750  0.828480  1
  P  P15  1  0.250000  0.783393  0.672229  1
