# generated using pymatgen
data_Y4MnOsC4
_symmetry_space_group_name_H-M   'P 1'
_cell_length_a   5.09591300
_cell_length_b   6.42589202
_cell_length_c   9.75527969
_cell_angle_alpha   90.44642477
_cell_angle_beta   90.00000000
_cell_angle_gamma   90.00000000
_symmetry_Int_Tables_number   1
_chemical_formula_structural   Y4MnOsC4
_chemical_formula_sum   'Y8 Mn2 Os2 C8'
_cell_volume   319.43461121
_cell_formula_units_Z   2
loop_
 _symmetry_equiv_pos_site_id
 _symmetry_equiv_pos_as_xyz
  1  'x, y, z'
loop_
 _atom_site_type_symbol
 _atom_site_label
 _atom_site_symmetry_multiplicity
 _atom_site_fract_x
 _atom_site_fract_y
 _atom_site_fract_z
 _atom_site_occupancy
  Y  Y0  1  0.250000  0.684561  0.556896  1
  Y  Y1  1  0.750000  0.315439  0.443104  1
  Y  Y2  1  0.750000  0.819542  0.052059  1
  Y  Y3  1  0.250000  0.180458  0.947941  1
  Y  Y4  1  0.250000  0.525811  0.215674  1
  Y  Y5  1  0.750000  0.474189  0.784326  1
  Y  Y6  1  0.750000  0.974587  0.714115  1
  Y  Y7  1  0.250000  0.025413  0.285885  1
  Mn  Mn8  1  0.250000  0.728416  0.860712  1
  Mn  Mn9  1  0.750000  0.271584  0.139288  1
  Os  Os10  1  0.750000  0.773438  0.359893  1
  Os  Os11  1  0.250000  0.226562  0.640107  1
  C  C12  1  0.250000  0.469258  0.764628  1
  C  C13  1  0.750000  0.530742  0.235372  1
  C  C14  1  0.750000  0.045085  0.254266  1
  C  C15  1  0.250000  0.954915  0.745734  1
  C  C16  1  0.250000  0.811705  0.037475  1
  C  C17  1  0.750000  0.188295  0.962525  1
  C  C18  1  0.750000  0.679108  0.547768  1
  C  C19  1  0.250000  0.320892  0.452232  1
