# generated using pymatgen
data_Y(MnAl5)2
_symmetry_space_group_name_H-M   'P 1'
_cell_length_a   6.80260126
_cell_length_b   6.80259987
_cell_length_c   9.05282400
_cell_angle_alpha   90.00000000
_cell_angle_beta   90.00000000
_cell_angle_gamma   97.35792325
_symmetry_Int_Tables_number   1
_chemical_formula_structural   Y(MnAl5)2
_chemical_formula_sum   'Y2 Mn4 Al20'
_cell_volume   415.47319228
_cell_formula_units_Z   2
loop_
 _symmetry_equiv_pos_site_id
 _symmetry_equiv_pos_as_xyz
  1  'x, y, z'
loop_
 _atom_site_type_symbol
 _atom_site_label
 _atom_site_symmetry_multiplicity
 _atom_site_fract_x
 _atom_site_fract_y
 _atom_site_fract_z
 _atom_site_occupancy
  Y  Y0  1  0.872510  0.127490  0.250000  1
  Y  Y1  1  0.127490  0.872510  0.750000  1
  Mn  Mn2  1  0.000000  0.500000  0.500000  1
  Mn  Mn3  1  0.000000  0.500000  0.000000  1
  Mn  Mn4  1  0.500000  0.000000  0.500000  1
  Mn  Mn5  1  0.500000  0.000000  0.000000  1
  Al  Al6  1  0.229377  0.229377  0.500000  1
  Al  Al7  1  0.770623  0.770623  0.000000  1
  Al  Al8  1  0.770623  0.770623  0.500000  1
  Al  Al9  1  0.229377  0.229377  0.000000  1
  Al  Al10  1  0.374398  0.625602  0.546002  1
  Al  Al11  1  0.625602  0.374398  0.046002  1
  Al  Al12  1  0.589070  0.867687  0.750000  1
  Al  Al13  1  0.410930  0.132313  0.250000  1
  Al  Al14  1  0.867687  0.589070  0.250000  1
  Al  Al15  1  0.132313  0.410930  0.750000  1
  Al  Al16  1  0.476124  0.218475  0.750000  1
  Al  Al17  1  0.523876  0.781525  0.250000  1
  Al  Al18  1  0.218475  0.476124  0.250000  1
  Al  Al19  1  0.781525  0.523876  0.750000  1
  Al  Al20  1  0.157109  0.842891  0.403502  1
  Al  Al21  1  0.842891  0.157109  0.903502  1
  Al  Al22  1  0.842891  0.157109  0.596498  1
  Al  Al23  1  0.157109  0.842891  0.096498  1
  Al  Al24  1  0.374398  0.625602  0.953998  1
  Al  Al25  1  0.625602  0.374398  0.453998  1
