# generated using pymatgen
data_LiCa3Cd2Sn3
_symmetry_space_group_name_H-M   'P 1'
_cell_length_a   7.62665200
_cell_length_b   7.60514232
_cell_length_c   4.74524800
_cell_angle_alpha   90.00000000
_cell_angle_beta   90.00000000
_cell_angle_gamma   120.09359513
_symmetry_Int_Tables_number   1
_chemical_formula_structural   LiCa3Cd2Sn3
_chemical_formula_sum   'Li1 Ca3 Cd2 Sn3'
_cell_volume   238.13347783
_cell_formula_units_Z   1
loop_
 _symmetry_equiv_pos_site_id
 _symmetry_equiv_pos_as_xyz
  1  'x, y, z'
loop_
 _atom_site_type_symbol
 _atom_site_label
 _atom_site_symmetry_multiplicity
 _atom_site_fract_x
 _atom_site_fract_y
 _atom_site_fract_z
 _atom_site_occupancy
  Li  Li0  1  0.234966  0.000000  0.000000  1
  Ca  Ca1  1  0.999165  0.566784  0.500000  1
  Ca  Ca2  1  0.571424  0.000000  0.500000  1
  Ca  Ca3  1  0.432381  0.433216  0.500000  1
  Cd  Cd4  1  0.757525  0.757432  0.000000  1
  Cd  Cd5  1  0.000093  0.242568  0.000000  1
  Sn  Sn6  1  0.012694  0.000000  0.500000  1
  Sn  Sn7  1  0.658907  0.326063  0.000000  1
  Sn  Sn8  1  0.332844  0.673937  0.000000  1
