# generated using pymatgen
data_Tb2ErZn2In3Ir
_symmetry_space_group_name_H-M   'P 1'
_cell_length_a   7.75607293
_cell_length_b   7.77797475
_cell_length_c   3.83177400
_cell_angle_alpha   90.00000000
_cell_angle_beta   90.00000000
_cell_angle_gamma   119.79162468
_symmetry_Int_Tables_number   1
_chemical_formula_structural   Tb2ErZn2In3Ir
_chemical_formula_sum   'Tb2 Er1 Zn2 In3 Ir1'
_cell_volume   200.60742686
_cell_formula_units_Z   1
loop_
 _symmetry_equiv_pos_site_id
 _symmetry_equiv_pos_as_xyz
  1  'x, y, z'
loop_
 _atom_site_type_symbol
 _atom_site_label
 _atom_site_symmetry_multiplicity
 _atom_site_fract_x
 _atom_site_fract_y
 _atom_site_fract_z
 _atom_site_occupancy
  Tb  Tb0  1  0.389190  0.974559  0.500000  1
  Tb  Tb1  1  0.025521  0.414418  0.500000  1
  Er  Er2  1  0.584214  0.612178  0.500000  1
  Zn  Zn3  1  0.666240  0.334191  0.000000  1
  Zn  Zn4  1  0.999776  0.999709  0.500000  1
  In  In5  1  0.739644  0.006630  0.000000  1
  In  In6  1  0.991083  0.731826  0.000000  1
  In  In7  1  0.268788  0.260894  0.000000  1
  Ir  Ir8  1  0.335547  0.665594  0.000000  1
