# generated using pymatgen
data_Y3Er(MoN3)4
_symmetry_space_group_name_H-M   'P 1'
_cell_length_a   7.34018924
_cell_length_b   7.34018844
_cell_length_c   6.28324993
_cell_angle_alpha   73.42003974
_cell_angle_beta   73.42003788
_cell_angle_gamma   81.38635391
_symmetry_Int_Tables_number   1
_chemical_formula_structural   Y3Er(MoN3)4
_chemical_formula_sum   'Y3 Er1 Mo4 N12'
_cell_volume   310.10397005
_cell_formula_units_Z   1
loop_
 _symmetry_equiv_pos_site_id
 _symmetry_equiv_pos_as_xyz
  1  'x, y, z'
loop_
 _atom_site_type_symbol
 _atom_site_label
 _atom_site_symmetry_multiplicity
 _atom_site_fract_x
 _atom_site_fract_y
 _atom_site_fract_z
 _atom_site_occupancy
  Y  Y0  1  0.706951  0.293049  0.250000  1
  Y  Y1  1  0.087279  0.912721  0.250000  1
  Y  Y2  1  0.293020  0.706980  0.750000  1
  Er  Er3  1  0.911974  0.088026  0.750000  1
  Mo  Mo4  1  0.800299  0.619294  0.772764  1
  Mo  Mo5  1  0.199791  0.379791  0.228158  1
  Mo  Mo6  1  0.620209  0.800209  0.271842  1
  Mo  Mo7  1  0.380706  0.199701  0.727236  1
  N  N8  1  0.217709  0.001584  0.844447  1
  N  N9  1  0.366875  0.345900  0.431078  1
  N  N10  1  0.634725  0.654550  0.567989  1
  N  N11  1  0.625139  0.112371  0.663250  1
  N  N12  1  0.998416  0.782291  0.655553  1
  N  N13  1  0.781266  0.000099  0.150367  1
  N  N14  1  0.112254  0.623692  0.161525  1
  N  N15  1  0.887629  0.374861  0.836750  1
  N  N16  1  0.999901  0.218734  0.349633  1
  N  N17  1  0.345450  0.365275  0.932011  1
  N  N18  1  0.654100  0.633125  0.068922  1
  N  N19  1  0.376308  0.887746  0.338475  1
