# generated using pymatgen
data_TbNd14Ho(CdCo)4
_symmetry_space_group_name_H-M   'P 1'
_cell_length_a   9.74712403
_cell_length_b   9.78400037
_cell_length_c   9.76666136
_cell_angle_alpha   59.85947850
_cell_angle_beta   60.17987588
_cell_angle_gamma   60.10866072
_symmetry_Int_Tables_number   1
_chemical_formula_structural   TbNd14Ho(CdCo)4
_chemical_formula_sum   'Tb1 Nd14 Ho1 Cd4 Co4'
_cell_volume   659.32874239
_cell_formula_units_Z   1
loop_
 _symmetry_equiv_pos_site_id
 _symmetry_equiv_pos_as_xyz
  1  'x, y, z'
loop_
 _atom_site_type_symbol
 _atom_site_label
 _atom_site_symmetry_multiplicity
 _atom_site_fract_x
 _atom_site_fract_y
 _atom_site_fract_z
 _atom_site_occupancy
  Tb  Tb0  1  0.062000  0.440813  0.058957  1
  Nd  Nd1  1  0.594285  0.595037  0.599842  1
  Nd  Nd2  1  0.189366  0.810529  0.812671  1
  Nd  Nd3  1  0.059639  0.062880  0.435531  1
  Nd  Nd4  1  0.435462  0.066131  0.060388  1
  Nd  Nd5  1  0.809971  0.190983  0.811952  1
  Nd  Nd6  1  0.438483  0.063779  0.435527  1
  Nd  Nd7  1  0.598160  0.208401  0.597896  1
  Nd  Nd8  1  0.808891  0.809832  0.191089  1
  Nd  Nd9  1  0.208158  0.595603  0.601118  1
  Nd  Nd10  1  0.808824  0.190458  0.188761  1
  Nd  Nd11  1  0.063336  0.440025  0.432768  1
  Nd  Nd12  1  0.192877  0.806417  0.190878  1
  Nd  Nd13  1  0.600237  0.592990  0.207575  1
  Nd  Nd14  1  0.189819  0.190052  0.810045  1
  Ho  Ho15  1  0.437868  0.440982  0.058982  1
  Cd  Cd16  1  0.829642  0.829459  0.510323  1
  Cd  Cd17  1  0.830123  0.828315  0.829650  1
  Cd  Cd18  1  0.510098  0.827695  0.831435  1
  Cd  Cd19  1  0.828915  0.509861  0.830924  1
  Co  Co20  1  0.391671  0.389898  0.389949  1
  Co  Co21  1  0.828997  0.391190  0.390573  1
  Co  Co22  1  0.392077  0.826743  0.391882  1
  Co  Co23  1  0.391100  0.391928  0.831284  1
