# generated using pymatgen
data_Eu2HfAlO6
_symmetry_space_group_name_H-M   'P 1'
_cell_length_a   5.54208312
_cell_length_b   5.58982300
_cell_length_c   7.86677664
_cell_angle_alpha   90.00000000
_cell_angle_beta   89.96499035
_cell_angle_gamma   90.00000000
_symmetry_Int_Tables_number   1
_chemical_formula_structural   Eu2HfAlO6
_chemical_formula_sum   'Eu4 Hf2 Al2 O12'
_cell_volume   243.70690248
_cell_formula_units_Z   2
loop_
 _symmetry_equiv_pos_site_id
 _symmetry_equiv_pos_as_xyz
  1  'x, y, z'
loop_
 _atom_site_type_symbol
 _atom_site_label
 _atom_site_symmetry_multiplicity
 _atom_site_fract_x
 _atom_site_fract_y
 _atom_site_fract_z
 _atom_site_occupancy
  Eu  Eu0  1  0.505571  0.532818  0.250672  1
  Eu  Eu1  1  0.994429  0.032818  0.249328  1
  Eu  Eu2  1  0.494429  0.467182  0.749328  1
  Eu  Eu3  1  0.005571  0.967182  0.750672  1
  Hf  Hf4  1  0.000000  0.500000  0.500000  1
  Hf  Hf5  1  0.500000  0.000000  0.000000  1
  Al  Al6  1  0.000000  0.500000  0.000000  1
  Al  Al7  1  0.500000  0.000000  0.500000  1
  O  O8  1  0.430091  0.983564  0.259235  1
  O  O9  1  0.069909  0.483564  0.240765  1
  O  O10  1  0.569909  0.016436  0.740765  1
  O  O11  1  0.930091  0.516436  0.759235  1
  O  O12  1  0.797486  0.779950  0.036682  1
  O  O13  1  0.702514  0.279950  0.463318  1
  O  O14  1  0.221301  0.203529  0.536346  1
  O  O15  1  0.278699  0.703529  0.963654  1
  O  O16  1  0.202514  0.220050  0.963318  1
  O  O17  1  0.297486  0.720050  0.536682  1
  O  O18  1  0.778699  0.796471  0.463654  1
  O  O19  1  0.721301  0.296471  0.036346  1
