# generated using pymatgen
data_Nd4ReTc3B16
_symmetry_space_group_name_H-M   'P 1'
_cell_length_a   3.68120400
_cell_length_b   6.07664537
_cell_length_c   11.75729005
_cell_angle_alpha   89.95614178
_cell_angle_beta   90.00000000
_cell_angle_gamma   90.00000000
_symmetry_Int_Tables_number   1
_chemical_formula_structural   Nd4ReTc3B16
_chemical_formula_sum   'Nd4 Re1 Tc3 B16'
_cell_volume   263.00310901
_cell_formula_units_Z   1
loop_
 _symmetry_equiv_pos_site_id
 _symmetry_equiv_pos_as_xyz
  1  'x, y, z'
loop_
 _atom_site_type_symbol
 _atom_site_label
 _atom_site_symmetry_multiplicity
 _atom_site_fract_x
 _atom_site_fract_y
 _atom_site_fract_z
 _atom_site_occupancy
  Nd  Nd0  1  0.500000  0.374612  0.151119  1
  Nd  Nd1  1  0.500000  0.625111  0.848969  1
  Nd  Nd2  1  0.500000  0.125011  0.650005  1
  Nd  Nd3  1  0.500000  0.874843  0.350187  1
  Re  Re4  1  0.500000  0.870008  0.086303  1
  Tc  Tc5  1  0.500000  0.369705  0.413486  1
  Tc  Tc6  1  0.500000  0.630763  0.586538  1
  Tc  Tc7  1  0.500000  0.129438  0.914086  1
  B  B8  1  0.000000  0.112254  0.045677  1
  B  B9  1  0.000000  0.888060  0.953752  1
  B  B10  1  0.000000  0.387954  0.545983  1
  B  B11  1  0.000000  0.611869  0.454265  1
  B  B12  1  0.000000  0.140186  0.467767  1
  B  B13  1  0.000000  0.859910  0.532312  1
  B  B14  1  0.000000  0.359878  0.967611  1
  B  B15  1  0.000000  0.640295  0.031999  1
  B  B16  1  0.000000  0.023895  0.189742  1
  B  B17  1  0.000000  0.976370  0.809942  1
  B  B18  1  0.000000  0.475875  0.689812  1
  B  B19  1  0.000000  0.523621  0.310268  1
  B  B20  1  0.000000  0.217912  0.316747  1
  B  B21  1  0.000000  0.782471  0.683297  1
  B  B22  1  0.000000  0.282417  0.816564  1
  B  B23  1  0.000000  0.717544  0.183572  1
