# generated using pymatgen
data_Pr2LuPa3N8
_symmetry_space_group_name_H-M   'P 1'
_cell_length_a   6.99422105
_cell_length_b   6.99412163
_cell_length_c   6.84156000
_cell_angle_alpha   120.73911458
_cell_angle_beta   90.00681564
_cell_angle_gamma   119.99634789
_symmetry_Int_Tables_number   1
_chemical_formula_structural   Pr2LuPa3N8
_chemical_formula_sum   'Pr2 Lu1 Pa3 N8'
_cell_volume   233.97364197
_cell_formula_units_Z   1
loop_
 _symmetry_equiv_pos_site_id
 _symmetry_equiv_pos_as_xyz
  1  'x, y, z'
loop_
 _atom_site_type_symbol
 _atom_site_label
 _atom_site_symmetry_multiplicity
 _atom_site_fract_x
 _atom_site_fract_y
 _atom_site_fract_z
 _atom_site_occupancy
  Pr  Pr0  1  0.995782  0.991636  0.987629  1
  Pr  Pr1  1  0.754219  0.508364  0.262371  1
  Lu  Lu2  1  0.375000  0.750000  0.125000  1
  Pa  Pa3  1  0.375000  0.750000  0.624999  1
  Pa  Pa4  1  0.375000  0.249999  0.624999  1
  Pa  Pa5  1  0.874999  0.249999  0.625000  1
  N  N6  1  0.612485  0.225025  0.401514  1
  N  N7  1  0.176697  0.789045  0.401487  1
  N  N8  1  0.612423  0.788895  0.401488  1
  N  N9  1  0.141192  0.282408  0.423774  1
  N  N10  1  0.608807  0.217593  0.826226  1
  N  N11  1  0.137577  0.711104  0.848510  1
  N  N12  1  0.137516  0.274976  0.848486  1
  N  N13  1  0.573303  0.710954  0.848513  1
