# generated using pymatgen
data_CaTh2U(Al3Ir)6
_symmetry_space_group_name_H-M   'P 1'
_cell_length_a   7.63313873
_cell_length_b   7.62328324
_cell_length_c   9.44498600
_cell_angle_alpha   90.00000000
_cell_angle_beta   90.00000000
_cell_angle_gamma   119.49243226
_symmetry_Int_Tables_number   1
_chemical_formula_structural   CaTh2U(Al3Ir)6
_chemical_formula_sum   'Ca1 Th2 U1 Al18 Ir6'
_cell_volume   478.38301858
_cell_formula_units_Z   1
loop_
 _symmetry_equiv_pos_site_id
 _symmetry_equiv_pos_as_xyz
  1  'x, y, z'
loop_
 _atom_site_type_symbol
 _atom_site_label
 _atom_site_symmetry_multiplicity
 _atom_site_fract_x
 _atom_site_fract_y
 _atom_site_fract_z
 _atom_site_occupancy
  Ca  Ca0  1  0.993637  0.671853  0.750000  1
  Th  Th1  1  0.005297  0.330157  0.250000  1
  Th  Th2  1  0.327314  0.004254  0.250000  1
  U  U3  1  0.674097  0.000032  0.750000  1
  Al  Al4  1  0.126953  0.130145  0.750000  1
  Al  Al5  1  0.866504  0.864772  0.250000  1
  Al  Al6  1  0.002969  0.339611  0.582362  1
  Al  Al7  1  0.994158  0.664551  0.432210  1
  Al  Al8  1  0.994158  0.664551  0.067790  1
  Al  Al9  1  0.332913  0.997837  0.917621  1
  Al  Al10  1  0.002969  0.339611  0.917638  1
  Al  Al11  1  0.663885  0.993624  0.069871  1
  Al  Al12  1  0.663885  0.993624  0.430129  1
  Al  Al13  1  0.332913  0.997837  0.582379  1
  Al  Al14  1  0.337141  0.336519  0.044037  1
  Al  Al15  1  0.667561  0.666410  0.941940  1
  Al  Al16  1  0.667561  0.666410  0.558060  1
  Al  Al17  1  0.337141  0.336519  0.455963  1
  Al  Al18  1  0.347346  0.553912  0.750000  1
  Al  Al19  1  0.660186  0.455417  0.250000  1
  Al  Al20  1  0.549286  0.337860  0.750000  1
  Al  Al21  1  0.455852  0.658901  0.250000  1
  Ir  Ir22  1  0.670717  0.323692  0.500655  1
  Ir  Ir23  1  0.328533  0.672139  0.499561  1
  Ir  Ir24  1  0.328533  0.672139  0.000439  1
  Ir  Ir25  1  0.670717  0.323692  0.999345  1
  Ir  Ir26  1  0.998885  0.001963  0.500579  1
  Ir  Ir27  1  0.998885  0.001963  0.999421  1
