# generated using pymatgen
data_Tm3Lu10Sc7Bi12
_symmetry_space_group_name_H-M   'P 1'
_cell_length_a   7.98209934
_cell_length_b   9.23924570
_cell_length_c   11.72689676
_cell_angle_alpha   89.95563133
_cell_angle_beta   90.11237947
_cell_angle_gamma   89.99614751
_symmetry_Int_Tables_number   1
_chemical_formula_structural   Tm3Lu10Sc7Bi12
_chemical_formula_sum   'Tm3 Lu10 Sc7 Bi12'
_cell_volume   864.84002409
_cell_formula_units_Z   1
loop_
 _symmetry_equiv_pos_site_id
 _symmetry_equiv_pos_as_xyz
  1  'x, y, z'
loop_
 _atom_site_type_symbol
 _atom_site_label
 _atom_site_symmetry_multiplicity
 _atom_site_fract_x
 _atom_site_fract_y
 _atom_site_fract_z
 _atom_site_occupancy
  Tm  Tm0  1  0.814811  0.750923  0.218339  1
  Tm  Tm1  1  0.314792  0.751784  0.281421  1
  Tm  Tm2  1  0.685731  0.249032  0.718801  1
  Lu  Lu3  1  0.353357  0.247939  0.281301  1
  Lu  Lu4  1  0.646193  0.752486  0.718696  1
  Lu  Lu5  1  0.146754  0.752106  0.781984  1
  Lu  Lu6  1  0.855311  0.249608  0.216836  1
  Lu  Lu7  1  0.185776  0.248674  0.782619  1
  Lu  Lu8  1  0.805770  0.566901  0.941001  1
  Lu  Lu9  1  0.694208  0.067153  0.440467  1
  Lu  Lu10  1  0.193882  0.432977  0.059117  1
  Lu  Lu11  1  0.694310  0.432616  0.440709  1
  Lu  Lu12  1  0.305001  0.567302  0.559825  1
  Sc  Sc13  1  0.023206  0.249080  0.512131  1
  Sc  Sc14  1  0.978594  0.752107  0.488984  1
  Sc  Sc15  1  0.478423  0.752956  0.010279  1
  Sc  Sc16  1  0.521185  0.247012  0.988387  1
  Sc  Sc17  1  0.194916  0.068597  0.058841  1
  Sc  Sc18  1  0.805165  0.931496  0.940941  1
  Sc  Sc19  1  0.304233  0.931317  0.559273  1
  Bi  Bi20  1  0.398066  0.245208  0.542462  1
  Bi  Bi21  1  0.596884  0.751581  0.459816  1
  Bi  Bi22  1  0.098334  0.757022  0.040966  1
  Bi  Bi23  1  0.901873  0.243011  0.958052  1
  Bi  Bi24  1  0.067460  0.004389  0.329450  1
  Bi  Bi25  1  0.936465  0.995812  0.671174  1
  Bi  Bi26  1  0.433930  0.995870  0.829941  1
  Bi  Bi27  1  0.934531  0.504468  0.671033  1
  Bi  Bi28  1  0.565302  0.004340  0.167928  1
  Bi  Bi29  1  0.066017  0.496390  0.329649  1
  Bi  Bi30  1  0.565908  0.495765  0.169706  1
  Bi  Bi31  1  0.433608  0.504081  0.829871  1
