# generated using pymatgen
data_Sc2TaNb(SbIr)4
_symmetry_space_group_name_H-M   'P 1'
_cell_length_a   4.45516200
_cell_length_b   6.29033208
_cell_length_c   8.89777612
_cell_angle_alpha   89.98138622
_cell_angle_beta   90.00000000
_cell_angle_gamma   90.00000000
_symmetry_Int_Tables_number   1
_chemical_formula_structural   Sc2TaNb(SbIr)4
_chemical_formula_sum   'Sc2 Ta1 Nb1 Sb4 Ir4'
_cell_volume   249.35525508
_cell_formula_units_Z   1
loop_
 _symmetry_equiv_pos_site_id
 _symmetry_equiv_pos_as_xyz
  1  'x, y, z'
loop_
 _atom_site_type_symbol
 _atom_site_label
 _atom_site_symmetry_multiplicity
 _atom_site_fract_x
 _atom_site_fract_y
 _atom_site_fract_z
 _atom_site_occupancy
  Sc  Sc0  1  0.000000  0.006454  0.375272  1
  Sc  Sc1  1  0.500001  0.506455  0.624717  1
  Ta  Ta2  1  0.000000  0.994772  0.876774  1
  Nb  Nb3  1  0.500001  0.494890  0.123578  1
  Sb  Sb4  1  0.500001  0.989069  0.131445  1
  Sb  Sb5  1  0.000000  0.509365  0.380263  1
  Sb  Sb6  1  0.500001  0.009418  0.619604  1
  Sb  Sb7  1  0.000000  0.489446  0.868670  1
  Ir  Ir8  1  0.000000  0.736825  0.113820  1
  Ir  Ir9  1  0.500001  0.264331  0.362934  1
  Ir  Ir10  1  0.000000  0.765319  0.637935  1
  Ir  Ir11  1  0.500001  0.233645  0.884984  1
