# generated using pymatgen
data_LiTbLuAs2
_symmetry_space_group_name_H-M   'P 1'
_cell_length_a   4.15729600
_cell_length_b   4.15729741
_cell_length_c   13.96348500
_cell_angle_alpha   90.00000000
_cell_angle_beta   90.00000000
_cell_angle_gamma   120.00000468
_symmetry_Int_Tables_number   1
_chemical_formula_structural   LiTbLuAs2
_chemical_formula_sum   'Li2 Tb2 Lu2 As4'
_cell_volume   209.00009157
_cell_formula_units_Z   2
loop_
 _symmetry_equiv_pos_site_id
 _symmetry_equiv_pos_as_xyz
  1  'x, y, z'
loop_
 _atom_site_type_symbol
 _atom_site_label
 _atom_site_symmetry_multiplicity
 _atom_site_fract_x
 _atom_site_fract_y
 _atom_site_fract_z
 _atom_site_occupancy
  Li  Li0  1  0.000000  0.000000  0.993522  1
  Li  Li1  1  0.000000  0.000000  0.493522  1
  Tb  Tb2  1  0.666667  0.333333  0.346749  1
  Tb  Tb3  1  0.333333  0.666667  0.846749  1
  Lu  Lu4  1  0.666667  0.333333  0.625552  1
  Lu  Lu5  1  0.333333  0.666667  0.125552  1
  As  As6  1  0.666667  0.333333  0.987855  1
  As  As7  1  0.333333  0.666667  0.487855  1
  As  As8  1  0.000000  0.000000  0.730654  1
  As  As9  1  0.000000  0.000000  0.230654  1
