# generated using pymatgen
data_Y5In4IrPt
_symmetry_space_group_name_H-M   'P 1'
_cell_length_a   3.64512400
_cell_length_b   8.15582024
_cell_length_c   18.28237867
_cell_angle_alpha   89.93740489
_cell_angle_beta   90.00000000
_cell_angle_gamma   90.00000000
_symmetry_Int_Tables_number   1
_chemical_formula_structural   Y5In4IrPt
_chemical_formula_sum   'Y10 In8 Ir2 Pt2'
_cell_volume   543.51607430
_cell_formula_units_Z   2
loop_
 _symmetry_equiv_pos_site_id
 _symmetry_equiv_pos_as_xyz
  1  'x, y, z'
loop_
 _atom_site_type_symbol
 _atom_site_label
 _atom_site_symmetry_multiplicity
 _atom_site_fract_x
 _atom_site_fract_y
 _atom_site_fract_z
 _atom_site_occupancy
  Y  Y0  1  0.500000  0.248806  0.779290  1
  Y  Y1  1  0.500000  0.751194  0.220710  1
  Y  Y2  1  0.500000  0.266238  0.277975  1
  Y  Y3  1  0.500000  0.733762  0.722025  1
  Y  Y4  1  0.500000  0.116291  0.585924  1
  Y  Y5  1  0.500000  0.883709  0.414076  1
  Y  Y6  1  0.500000  0.385646  0.087431  1
  Y  Y7  1  0.500000  0.614354  0.912569  1
  Y  Y8  1  0.500000  0.000000  0.000000  1
  Y  Y9  1  0.500000  0.500000  0.500000  1
  In  In10  1  0.000000  0.076707  0.148690  1
  In  In11  1  0.000000  0.923293  0.851310  1
  In  In12  1  0.000000  0.426051  0.648876  1
  In  In13  1  0.000000  0.573949  0.351124  1
  In  In14  1  0.000000  0.207663  0.433165  1
  In  In15  1  0.000000  0.792337  0.566835  1
  In  In16  1  0.000000  0.292825  0.932067  1
  In  In17  1  0.000000  0.707175  0.067933  1
  Ir  Ir18  1  0.000000  0.482001  0.196081  1
  Ir  Ir19  1  0.000000  0.517999  0.803919  1
  Pt  Pt20  1  0.000000  0.018880  0.696726  1
  Pt  Pt21  1  0.000000  0.981120  0.303274  1
