# generated using pymatgen
data_Pa2Tc6Ni6P7
_symmetry_space_group_name_H-M   'P 1'
_cell_length_a   9.40400501
_cell_length_b   9.39943581
_cell_length_c   3.74820200
_cell_angle_alpha   90.00000000
_cell_angle_beta   90.00000000
_cell_angle_gamma   120.01967288
_symmetry_Int_Tables_number   1
_chemical_formula_structural   Pa2Tc6Ni6P7
_chemical_formula_sum   'Pa2 Tc6 Ni6 P7'
_cell_volume   286.86801642
_cell_formula_units_Z   1
loop_
 _symmetry_equiv_pos_site_id
 _symmetry_equiv_pos_as_xyz
  1  'x, y, z'
loop_
 _atom_site_type_symbol
 _atom_site_label
 _atom_site_symmetry_multiplicity
 _atom_site_fract_x
 _atom_site_fract_y
 _atom_site_fract_z
 _atom_site_occupancy
  Pa  Pa0  1  0.666710  0.333446  0.500000  1
  Pa  Pa1  1  0.333297  0.666601  0.000000  1
  Tc  Tc2  1  0.389418  0.436574  0.500000  1
  Tc  Tc3  1  0.880666  0.791486  0.500000  1
  Tc  Tc4  1  0.910841  0.119225  0.500000  1
  Tc  Tc5  1  0.047116  0.610667  0.500000  1
  Tc  Tc6  1  0.208468  0.089117  0.500000  1
  Tc  Tc7  1  0.563538  0.952816  0.500000  1
  Ni  Ni8  1  0.161177  0.276217  0.000000  1
  Ni  Ni9  1  0.115067  0.838955  0.000000  1
  Ni  Ni10  1  0.723848  0.884856  0.000000  1
  Ni  Ni11  1  0.939374  0.366048  0.000000  1
  Ni  Ni12  1  0.633863  0.573276  0.000000  1
  Ni  Ni13  1  0.426755  0.060742  0.000000  1
  P  P14  1  0.600736  0.714021  0.500000  1
  P  P15  1  0.113259  0.399161  0.500000  1
  P  P16  1  0.880440  0.588949  0.000000  1
  P  P17  1  0.285927  0.886759  0.500000  1
  P  P18  1  0.000038  0.000067  0.000000  1
  P  P19  1  0.708434  0.119512  0.000000  1
  P  P20  1  0.411027  0.291506  0.000000  1
