# generated using pymatgen
data_PrTmTh7S17
_symmetry_space_group_name_H-M   'P 1'
_cell_length_a   8.09094522
_cell_length_b   8.08342903
_cell_length_c   10.73452900
_cell_angle_alpha   80.80634912
_cell_angle_beta   80.82583842
_cell_angle_gamma   65.24408790
_symmetry_Int_Tables_number   1
_chemical_formula_structural   PrTmTh7S17
_chemical_formula_sum   'Pr1 Tm1 Th7 S17'
_cell_volume   625.99434742
_cell_formula_units_Z   1
loop_
 _symmetry_equiv_pos_site_id
 _symmetry_equiv_pos_as_xyz
  1  'x, y, z'
loop_
 _atom_site_type_symbol
 _atom_site_label
 _atom_site_symmetry_multiplicity
 _atom_site_fract_x
 _atom_site_fract_y
 _atom_site_fract_z
 _atom_site_occupancy
  Pr  Pr0  1  0.809691  0.304904  0.300083  1
  Tm  Tm1  1  0.998028  0.002884  0.001845  1
  Th  Th2  1  0.303062  0.810777  0.298115  1
  Th  Th3  1  0.188346  0.697156  0.700373  1
  Th  Th4  1  0.697596  0.189413  0.699654  1
  Th  Th5  1  0.206812  0.205890  0.539667  1
  Th  Th6  1  0.792623  0.792502  0.458700  1
  Th  Th7  1  0.682430  0.681899  0.978050  1
  Th  Th8  1  0.315499  0.318550  0.024443  1
  S  S9  1  0.826116  0.430280  0.536211  1
  S  S10  1  0.430417  0.821460  0.532195  1
  S  S11  1  0.176611  0.568410  0.468853  1
  S  S12  1  0.569791  0.171673  0.472365  1
  S  S13  1  0.942427  0.335646  0.033997  1
  S  S14  1  0.333233  0.942780  0.036054  1
  S  S15  1  0.058967  0.668109  0.960461  1
  S  S16  1  0.665610  0.060563  0.961047  1
  S  S17  1  0.214791  0.201345  0.279042  1
  S  S18  1  0.792927  0.793201  0.721875  1
  S  S19  1  0.064540  0.061706  0.763165  1
  S  S20  1  0.942577  0.929195  0.237987  1
  S  S21  1  0.305182  0.305161  0.753303  1
  S  S22  1  0.689226  0.703647  0.244865  1
  S  S23  1  0.520567  0.521885  0.831274  1
  S  S24  1  0.471525  0.485725  0.163176  1
  S  S25  1  0.001404  0.995241  0.503202  1
