# generated using pymatgen
data_DyLu3Ta4(Fe4P3)4
_symmetry_space_group_name_H-M   'P 1'
_cell_length_a   3.66017400
_cell_length_b   10.40739908
_cell_length_c   12.32713707
_cell_angle_alpha   89.98702846
_cell_angle_beta   90.00000000
_cell_angle_gamma   90.00000000
_symmetry_Int_Tables_number   1
_chemical_formula_structural   DyLu3Ta4(Fe4P3)4
_chemical_formula_sum   'Dy1 Lu3 Ta4 Fe16 P12'
_cell_volume   469.57628291
_cell_formula_units_Z   1
loop_
 _symmetry_equiv_pos_site_id
 _symmetry_equiv_pos_as_xyz
  1  'x, y, z'
loop_
 _atom_site_type_symbol
 _atom_site_label
 _atom_site_symmetry_multiplicity
 _atom_site_fract_x
 _atom_site_fract_y
 _atom_site_fract_z
 _atom_site_occupancy
  Dy  Dy0  1  0.750000  0.083640  0.786818  1
  Lu  Lu1  1  0.250000  0.583276  0.713816  1
  Lu  Lu2  1  0.250000  0.916973  0.213871  1
  Lu  Lu3  1  0.750000  0.416583  0.286138  1
  Ta  Ta4  1  0.250000  0.704291  0.993202  1
  Ta  Ta5  1  0.250000  0.795306  0.491866  1
  Ta  Ta6  1  0.750000  0.295740  0.008094  1
  Ta  Ta7  1  0.750000  0.204512  0.507402  1
  Fe  Fe8  1  0.250000  0.416383  0.490723  1
  Fe  Fe9  1  0.250000  0.082347  0.992722  1
  Fe  Fe10  1  0.750000  0.583129  0.508834  1
  Fe  Fe11  1  0.750000  0.915757  0.010089  1
  Fe  Fe12  1  0.250000  0.216160  0.171217  1
  Fe  Fe13  1  0.250000  0.285054  0.670126  1
  Fe  Fe14  1  0.750000  0.783364  0.828849  1
  Fe  Fe15  1  0.750000  0.715687  0.328849  1
  Fe  Fe16  1  0.250000  0.877831  0.696471  1
  Fe  Fe17  1  0.250000  0.620659  0.198112  1
  Fe  Fe18  1  0.750000  0.120656  0.302240  1
  Fe  Fe19  1  0.750000  0.381750  0.802597  1
  Fe  Fe20  1  0.250000  0.465009  0.934563  1
  Fe  Fe21  1  0.250000  0.035680  0.433059  1
  Fe  Fe22  1  0.750000  0.536090  0.066832  1
  Fe  Fe23  1  0.750000  0.963188  0.564938  1
  P  P24  1  0.250000  0.424449  0.114626  1
  P  P25  1  0.250000  0.075073  0.612542  1
  P  P26  1  0.750000  0.576521  0.886138  1
  P  P27  1  0.750000  0.924078  0.385273  1
  P  P28  1  0.250000  0.274766  0.854483  1
  P  P29  1  0.250000  0.228337  0.354598  1
  P  P30  1  0.750000  0.728791  0.145523  1
  P  P31  1  0.750000  0.771074  0.645019  1
  P  P32  1  0.250000  0.594507  0.375490  1
  P  P33  1  0.250000  0.902858  0.875488  1
  P  P34  1  0.750000  0.405342  0.624587  1
  P  P35  1  0.750000  0.095138  0.124803  1
