# generated using pymatgen
data_Tb5Nd6Tm5(CdIr)4
_symmetry_space_group_name_H-M   'P 1'
_cell_length_a   9.73717843
_cell_length_b   9.72134218
_cell_length_c   9.72134145
_cell_angle_alpha   59.94491635
_cell_angle_beta   59.94609713
_cell_angle_gamma   59.94609626
_symmetry_Int_Tables_number   1
_chemical_formula_structural   Tb5Nd6Tm5(CdIr)4
_chemical_formula_sum   'Tb5 Nd6 Tm5 Cd4 Ir4'
_cell_volume   649.88335043
_cell_formula_units_Z   1
loop_
 _symmetry_equiv_pos_site_id
 _symmetry_equiv_pos_as_xyz
  1  'x, y, z'
loop_
 _atom_site_type_symbol
 _atom_site_label
 _atom_site_symmetry_multiplicity
 _atom_site_fract_x
 _atom_site_fract_y
 _atom_site_fract_z
 _atom_site_occupancy
  Tb  Tb0  1  0.346551  0.348683  0.348683  1
  Tb  Tb1  1  0.348137  0.348845  0.954882  1
  Tb  Tb2  1  0.348137  0.954882  0.348845  1
  Tb  Tb3  1  0.956083  0.348683  0.348683  1
  Tb  Tb4  1  0.813552  0.186448  0.186448  1
  Nd  Nd5  1  0.940739  0.559261  0.559261  1
  Nd  Nd6  1  0.558547  0.941453  0.941453  1
  Nd  Nd7  1  0.558585  0.940592  0.559347  1
  Nd  Nd8  1  0.941476  0.559347  0.940592  1
  Nd  Nd9  1  0.558585  0.559347  0.940592  1
  Nd  Nd10  1  0.941476  0.940592  0.559347  1
  Tm  Tm11  1  0.186081  0.813919  0.813919  1
  Tm  Tm12  1  0.187730  0.812577  0.185545  1
  Tm  Tm13  1  0.814147  0.185545  0.812577  1
  Tm  Tm14  1  0.187730  0.185545  0.812577  1
  Tm  Tm15  1  0.814147  0.812577  0.185545  1
  Cd  Cd16  1  0.579553  0.579456  0.579456  1
  Cd  Cd17  1  0.579449  0.580023  0.261077  1
  Cd  Cd18  1  0.579449  0.261077  0.580023  1
  Cd  Cd19  1  0.261533  0.579456  0.579456  1
  Ir  Ir20  1  0.141124  0.140515  0.140515  1
  Ir  Ir21  1  0.139669  0.141228  0.579433  1
  Ir  Ir22  1  0.139669  0.579433  0.141228  1
  Ir  Ir23  1  0.577846  0.140515  0.140515  1
