# generated using pymatgen
data_LaPr2In3GeRh2
_symmetry_space_group_name_H-M   'P 1'
_cell_length_a   7.66751069
_cell_length_b   7.67616493
_cell_length_c   4.22773500
_cell_angle_alpha   90.00000000
_cell_angle_beta   90.00000000
_cell_angle_gamma   120.11393330
_symmetry_Int_Tables_number   1
_chemical_formula_structural   LaPr2In3GeRh2
_chemical_formula_sum   'La1 Pr2 In3 Ge1 Rh2'
_cell_volume   215.24711117
_cell_formula_units_Z   1
loop_
 _symmetry_equiv_pos_site_id
 _symmetry_equiv_pos_as_xyz
  1  'x, y, z'
loop_
 _atom_site_type_symbol
 _atom_site_label
 _atom_site_symmetry_multiplicity
 _atom_site_fract_x
 _atom_site_fract_y
 _atom_site_fract_z
 _atom_site_occupancy
  La  La0  1  0.988679  0.583617  0.500000  1
  Pr  Pr1  1  0.414895  0.405858  0.500000  1
  Pr  Pr2  1  0.594438  0.008939  0.500000  1
  In  In3  1  0.756731  0.747813  0.000000  1
  In  In4  1  0.987896  0.238975  0.000000  1
  In  In5  1  0.253348  0.012676  0.000000  1
  Ge  Ge6  1  0.335256  0.667658  0.000000  1
  Rh  Rh7  1  0.000550  0.999834  0.500000  1
  Rh  Rh8  1  0.668209  0.334629  0.000000  1
