# generated using pymatgen
data_Nd2Rh6Pb2C
_symmetry_space_group_name_H-M   'P 1'
_cell_length_a   5.93543200
_cell_length_b   5.93543159
_cell_length_c   13.89756100
_cell_angle_alpha   90.00000000
_cell_angle_beta   90.00000000
_cell_angle_gamma   119.99999113
_symmetry_Int_Tables_number   1
_chemical_formula_structural   Nd2Rh6Pb2C
_chemical_formula_sum   'Nd4 Rh12 Pb4 C2'
_cell_volume   424.00785005
_cell_formula_units_Z   2
loop_
 _symmetry_equiv_pos_site_id
 _symmetry_equiv_pos_as_xyz
  1  'x, y, z'
loop_
 _atom_site_type_symbol
 _atom_site_label
 _atom_site_symmetry_multiplicity
 _atom_site_fract_x
 _atom_site_fract_y
 _atom_site_fract_z
 _atom_site_occupancy
  Nd  Nd0  1  0.333333  0.666667  0.406819  1
  Nd  Nd1  1  0.666667  0.333333  0.906819  1
  Nd  Nd2  1  0.666667  0.333333  0.593181  1
  Nd  Nd3  1  0.333333  0.666667  0.093181  1
  Rh  Rh4  1  0.333503  0.166752  0.414129  1
  Rh  Rh5  1  0.833248  0.166752  0.414129  1
  Rh  Rh6  1  0.833248  0.666497  0.414129  1
  Rh  Rh7  1  0.166752  0.333503  0.914129  1
  Rh  Rh8  1  0.666497  0.833248  0.585871  1
  Rh  Rh9  1  0.666497  0.833248  0.914129  1
  Rh  Rh10  1  0.333503  0.166752  0.085871  1
  Rh  Rh11  1  0.166752  0.333503  0.585871  1
  Rh  Rh12  1  0.166752  0.833248  0.585871  1
  Rh  Rh13  1  0.833248  0.166752  0.085871  1
  Rh  Rh14  1  0.833248  0.666497  0.085871  1
  Rh  Rh15  1  0.166752  0.833248  0.914129  1
  Pb  Pb16  1  0.000000  0.000000  0.750000  1
  Pb  Pb17  1  0.000000  0.000000  0.250000  1
  Pb  Pb18  1  0.333333  0.666667  0.750000  1
  Pb  Pb19  1  0.666667  0.333333  0.250000  1
  C  C20  1  0.000000  0.000000  0.500000  1
  C  C21  1  0.000000  0.000000  0.000000  1
