# generated using pymatgen
data_La2Tb4CoBr10
_symmetry_space_group_name_H-M   'P 1'
_cell_length_a   7.41911084
_cell_length_b   9.26006944
_cell_length_c   9.28261100
_cell_angle_alpha   107.25284697
_cell_angle_beta   96.30453737
_cell_angle_gamma   105.78851782
_symmetry_Int_Tables_number   1
_chemical_formula_structural   La2Tb4CoBr10
_chemical_formula_sum   'La2 Tb4 Co1 Br10'
_cell_volume   573.32560650
_cell_formula_units_Z   1
loop_
 _symmetry_equiv_pos_site_id
 _symmetry_equiv_pos_as_xyz
  1  'x, y, z'
loop_
 _atom_site_type_symbol
 _atom_site_label
 _atom_site_symmetry_multiplicity
 _atom_site_fract_x
 _atom_site_fract_y
 _atom_site_fract_z
 _atom_site_occupancy
  La  La0  1  0.874892  0.950866  0.736993  1
  La  La1  1  0.125108  0.049134  0.263007  1
  Tb  Tb2  1  0.357924  0.134328  0.675870  1
  Tb  Tb3  1  0.642076  0.865672  0.324130  1
  Tb  Tb4  1  0.030516  0.703741  0.407026  1
  Tb  Tb5  1  0.969484  0.296259  0.592974  1
  Co  Co6  1  0.000000  0.000000  0.500000  1
  Br  Br7  1  0.444824  0.820024  0.580538  1
  Br  Br8  1  0.555176  0.179976  0.419462  1
  Br  Br9  1  0.917363  0.621120  0.668905  1
  Br  Br10  1  0.082637  0.378880  0.331095  1
  Br  Br11  1  0.264078  0.086703  0.954526  1
  Br  Br12  1  0.735922  0.913297  0.045474  1
  Br  Br13  1  0.346819  0.450060  0.770531  1
  Br  Br14  1  0.653181  0.549940  0.229469  1
  Br  Br15  1  0.779465  0.262823  0.843094  1
  Br  Br16  1  0.220535  0.737177  0.156906  1
