# generated using pymatgen
data_ThU3F15
_symmetry_space_group_name_H-M   'P 1'
_cell_length_a   8.81452772
_cell_length_b   8.81452706
_cell_length_c   8.83492214
_cell_angle_alpha   79.66114318
_cell_angle_beta   79.66114948
_cell_angle_gamma   100.17739808
_symmetry_Int_Tables_number   1
_chemical_formula_structural   ThU3F15
_chemical_formula_sum   'Th2 U6 F30'
_cell_volume   648.66580473
_cell_formula_units_Z   2
loop_
 _symmetry_equiv_pos_site_id
 _symmetry_equiv_pos_as_xyz
  1  'x, y, z'
loop_
 _atom_site_type_symbol
 _atom_site_label
 _atom_site_symmetry_multiplicity
 _atom_site_fract_x
 _atom_site_fract_y
 _atom_site_fract_z
 _atom_site_occupancy
  Th  Th0  1  0.177977  0.822023  0.250000  1
  Th  Th1  1  0.822023  0.177977  0.750000  1
  U  U2  1  0.750474  0.249526  0.250000  1
  U  U3  1  0.249526  0.750474  0.750000  1
  U  U4  1  0.747997  0.677649  0.679690  1
  U  U5  1  0.322351  0.252003  0.820310  1
  U  U6  1  0.252003  0.322351  0.320310  1
  U  U7  1  0.677649  0.747997  0.179690  1
  F  F8  1  0.463825  0.536175  0.250000  1
  F  F9  1  0.750940  0.963294  0.962135  1
  F  F10  1  0.036706  0.249060  0.537865  1
  F  F11  1  0.249060  0.036706  0.037865  1
  F  F12  1  0.963294  0.750940  0.462135  1
  F  F13  1  0.536175  0.463825  0.750000  1
  F  F14  1  0.221875  0.490972  0.777186  1
  F  F15  1  0.223315  0.722370  0.012998  1
  F  F16  1  0.990493  0.724087  0.773586  1
  F  F17  1  0.724087  0.990493  0.273586  1
  F  F18  1  0.722370  0.223315  0.512998  1
  F  F19  1  0.490972  0.221875  0.277186  1
  F  F20  1  0.778126  0.509028  0.222814  1
  F  F21  1  0.776685  0.277630  0.987002  1
  F  F22  1  0.009507  0.275913  0.226414  1
  F  F23  1  0.275913  0.009507  0.726414  1
  F  F24  1  0.277630  0.776685  0.487002  1
  F  F25  1  0.509028  0.778125  0.722814  1
  F  F26  1  0.550375  0.154400  0.817083  1
  F  F27  1  0.185488  0.051882  0.347399  1
  F  F28  1  0.657320  0.685502  0.447618  1
  F  F29  1  0.685502  0.657320  0.947618  1
  F  F30  1  0.051882  0.185488  0.847399  1
  F  F31  1  0.154400  0.550375  0.317083  1
  F  F32  1  0.449625  0.845600  0.182917  1
  F  F33  1  0.814512  0.948118  0.652601  1
  F  F34  1  0.342680  0.314498  0.552382  1
  F  F35  1  0.314498  0.342680  0.052382  1
  F  F36  1  0.948118  0.814512  0.152601  1
  F  F37  1  0.845600  0.449625  0.682917  1
