# generated using pymatgen
data_Zr10InGa2Bi2Pb3
_symmetry_space_group_name_H-M   'P 1'
_cell_length_a   8.82305900
_cell_length_b   8.86717453
_cell_length_c   5.94988600
_cell_angle_alpha   90.00000000
_cell_angle_beta   90.00000000
_cell_angle_gamma   119.83556309
_symmetry_Int_Tables_number   1
_chemical_formula_structural   Zr10InGa2Bi2Pb3
_chemical_formula_sum   'Zr10 In1 Ga2 Bi2 Pb3'
_cell_volume   403.79501156
_cell_formula_units_Z   1
loop_
 _symmetry_equiv_pos_site_id
 _symmetry_equiv_pos_as_xyz
  1  'x, y, z'
loop_
 _atom_site_type_symbol
 _atom_site_label
 _atom_site_symmetry_multiplicity
 _atom_site_fract_x
 _atom_site_fract_y
 _atom_site_fract_z
 _atom_site_occupancy
  Zr  Zr0  1  0.334474  0.668084  0.002191  1
  Zr  Zr1  1  0.666390  0.331916  0.497809  1
  Zr  Zr2  1  0.666390  0.331916  0.002191  1
  Zr  Zr3  1  0.334474  0.668084  0.497809  1
  Zr  Zr4  1  0.267290  0.000000  0.250000  1
  Zr  Zr5  1  0.263854  0.262949  0.750000  1
  Zr  Zr6  1  0.000906  0.737051  0.750000  1
  Zr  Zr7  1  0.997244  0.264027  0.250000  1
  Zr  Zr8  1  0.733217  0.735973  0.250000  1
  Zr  Zr9  1  0.736553  0.000000  0.750000  1
  In  In10  1  0.613122  0.000000  0.250000  1
  Ga  Ga11  1  0.999780  0.000000  0.003728  1
  Ga  Ga12  1  0.999780  0.000000  0.496272  1
  Bi  Bi13  1  0.611231  0.610677  0.750000  1
  Bi  Bi14  1  0.000555  0.389323  0.750000  1
  Pb  Pb15  1  0.999558  0.613847  0.250000  1
  Pb  Pb16  1  0.385711  0.386153  0.250000  1
  Pb  Pb17  1  0.389473  0.000000  0.750000  1
