# generated using pymatgen
data_LuTh3(Al8Pt3)3
_symmetry_space_group_name_H-M   'P 1'
_cell_length_a   7.60729490
_cell_length_b   7.62237032
_cell_length_c   13.18867182
_cell_angle_alpha   84.53960933
_cell_angle_beta   78.95878369
_cell_angle_gamma   59.94523769
_symmetry_Int_Tables_number   1
_chemical_formula_structural   LuTh3(Al8Pt3)3
_chemical_formula_sum   'Lu1 Th3 Al24 Pt9'
_cell_volume   649.67720919
_cell_formula_units_Z   1
loop_
 _symmetry_equiv_pos_site_id
 _symmetry_equiv_pos_as_xyz
  1  'x, y, z'
loop_
 _atom_site_type_symbol
 _atom_site_label
 _atom_site_symmetry_multiplicity
 _atom_site_fract_x
 _atom_site_fract_y
 _atom_site_fract_z
 _atom_site_occupancy
  Lu  Lu0  1  0.265247  0.500841  0.195960  1
  Th  Th1  1  0.394385  0.168451  0.807389  1
  Th  Th2  1  0.604442  0.832208  0.193837  1
  Th  Th3  1  0.733694  0.498216  0.807437  1
  Al  Al4  1  0.687398  0.833798  0.946820  1
  Al  Al5  1  0.312769  0.170632  0.058235  1
  Al  Al6  1  0.146408  0.832449  0.559279  1
  Al  Al7  1  0.854532  0.167029  0.437090  1
  Al  Al8  1  0.481244  0.167407  0.556560  1
  Al  Al9  1  0.518989  0.833605  0.441574  1
  Al  Al10  1  0.212808  0.169206  0.332700  1
  Al  Al11  1  0.788823  0.834306  0.662515  1
  Al  Al12  1  0.436102  0.510457  0.662956  1
  Al  Al13  1  0.561525  0.489819  0.332401  1
  Al  Al14  1  0.112947  0.155783  0.660898  1
  Al  Al15  1  0.892678  0.839836  0.334234  1
  Al  Al16  1  0.347207  0.503063  0.949757  1
  Al  Al17  1  0.644440  0.498626  0.058196  1
  Al  Al18  1  0.013631  0.164499  0.958837  1
  Al  Al19  1  0.986603  0.831067  0.049498  1
  Al  Al20  1  0.187013  0.499767  0.439859  1
  Al  Al21  1  0.814691  0.499794  0.556461  1
  Al  Al22  1  0.733464  0.167693  0.183870  1
  Al  Al23  1  0.261919  0.835553  0.816691  1
  Al  Al24  1  0.062503  0.634638  0.815118  1
  Al  Al25  1  0.941805  0.366027  0.185097  1
  Al  Al26  1  0.860938  0.036839  0.815806  1
  Al  Al27  1  0.140884  0.957423  0.184083  1
  Pt  Pt28  1  0.120203  0.491021  0.638483  1
  Pt  Pt29  1  0.880160  0.509287  0.360366  1
  Pt  Pt30  1  0.656388  0.172166  0.999858  1
  Pt  Pt31  1  0.343445  0.828897  0.000146  1
  Pt  Pt32  1  0.536993  0.166752  0.360601  1
  Pt  Pt33  1  0.463371  0.833098  0.638477  1
  Pt  Pt34  1  0.778448  0.175486  0.637046  1
  Pt  Pt35  1  0.222483  0.824003  0.361590  1
  Pt  Pt36  1  0.999422  0.500256  0.000277  1
