# generated using pymatgen
data_Ca3Pr(CdPt)4
_symmetry_space_group_name_H-M   'P 1'
_cell_length_a   4.25427000
_cell_length_b   7.36597014
_cell_length_c   8.81003505
_cell_angle_alpha   90.24584533
_cell_angle_beta   90.00000000
_cell_angle_gamma   90.00000000
_symmetry_Int_Tables_number   1
_chemical_formula_structural   Ca3Pr(CdPt)4
_chemical_formula_sum   'Ca3 Pr1 Cd4 Pt4'
_cell_volume   276.07599215
_cell_formula_units_Z   1
loop_
 _symmetry_equiv_pos_site_id
 _symmetry_equiv_pos_as_xyz
  1  'x, y, z'
loop_
 _atom_site_type_symbol
 _atom_site_label
 _atom_site_symmetry_multiplicity
 _atom_site_fract_x
 _atom_site_fract_y
 _atom_site_fract_z
 _atom_site_occupancy
  Ca  Ca0  1  0.250000  0.538182  0.174753  1
  Ca  Ca1  1  0.750000  0.960388  0.682711  1
  Ca  Ca2  1  0.750000  0.462165  0.821282  1
  Pr  Pr3  1  0.250000  0.039775  0.324269  1
  Cd  Cd4  1  0.250000  0.143104  0.934164  1
  Cd  Cd5  1  0.250000  0.642002  0.565412  1
  Cd  Cd6  1  0.750000  0.852013  0.059516  1
  Cd  Cd7  1  0.750000  0.365595  0.438317  1
  Pt  Pt8  1  0.250000  0.251367  0.625548  1
  Pt  Pt9  1  0.250000  0.752825  0.869879  1
  Pt  Pt10  1  0.750000  0.751857  0.370463  1
  Pt  Pt11  1  0.750000  0.240728  0.133685  1
