# generated using pymatgen
data_Ho20Sn15Pb
_symmetry_space_group_name_H-M   'P 1'
_cell_length_a   8.06786095
_cell_length_b   8.13987552
_cell_length_c   15.44143961
_cell_angle_alpha   89.99750823
_cell_angle_beta   90.08676938
_cell_angle_gamma   89.89764231
_symmetry_Int_Tables_number   1
_chemical_formula_structural   Ho20Sn15Pb
_chemical_formula_sum   'Ho20 Sn15 Pb1'
_cell_volume   1014.05792572
_cell_formula_units_Z   1
loop_
 _symmetry_equiv_pos_site_id
 _symmetry_equiv_pos_as_xyz
  1  'x, y, z'
loop_
 _atom_site_type_symbol
 _atom_site_label
 _atom_site_symmetry_multiplicity
 _atom_site_fract_x
 _atom_site_fract_y
 _atom_site_fract_z
 _atom_site_occupancy
  Ho  Ho0  1  0.378691  0.837350  0.878545  1
  Ho  Ho1  1  0.877569  0.661948  0.621205  1
  Ho  Ho2  1  0.622127  0.161956  0.378701  1
  Ho  Ho3  1  0.124137  0.338093  0.121562  1
  Ho  Ho4  1  0.620955  0.159599  0.122074  1
  Ho  Ho5  1  0.122995  0.338110  0.378903  1
  Ho  Ho6  1  0.378116  0.837503  0.621185  1
  Ho  Ho7  1  0.878631  0.663294  0.877706  1
  Ho  Ho8  1  0.529535  0.321144  0.899494  1
  Ho  Ho9  1  0.030599  0.177959  0.598760  1
  Ho  Ho10  1  0.468568  0.677122  0.400989  1
  Ho  Ho11  1  0.969299  0.825564  0.099744  1
  Ho  Ho12  1  0.464851  0.679186  0.100203  1
  Ho  Ho13  1  0.969175  0.822506  0.401318  1
  Ho  Ho14  1  0.531386  0.322919  0.599262  1
  Ho  Ho15  1  0.032938  0.176127  0.899952  1
  Ho  Ho16  1  0.209005  0.504231  0.749827  1
  Ho  Ho17  1  0.709037  0.995855  0.749987  1
  Ho  Ho18  1  0.791440  0.495734  0.251521  1
  Ho  Ho19  1  0.291010  0.004189  0.250167  1
  Sn  Sn20  1  0.284746  0.033693  0.041838  1
  Sn  Sn21  1  0.784793  0.465672  0.458278  1
  Sn  Sn22  1  0.715093  0.966507  0.542103  1
  Sn  Sn23  1  0.215336  0.533376  0.957713  1
  Sn  Sn24  1  0.715977  0.966932  0.957917  1
  Sn  Sn25  1  0.215275  0.534088  0.541981  1
  Sn  Sn26  1  0.285091  0.033742  0.457972  1
  Sn  Sn27  1  0.575828  0.619666  0.749748  1
  Sn  Sn28  1  0.075838  0.880108  0.749641  1
  Sn  Sn29  1  0.424926  0.380402  0.250040  1
  Sn  Sn30  1  0.924601  0.120587  0.250072  1
  Sn  Sn31  1  0.340894  0.147400  0.749347  1
  Sn  Sn32  1  0.841339  0.352049  0.749923  1
  Sn  Sn33  1  0.659011  0.851344  0.250447  1
  Sn  Sn34  1  0.157981  0.648207  0.250388  1
  Pb  Pb35  1  0.783210  0.465837  0.041489  1
