# generated using pymatgen
data_Tb2Dy3TcRuO12
_symmetry_space_group_name_H-M   'P 1'
_cell_length_a   6.86436865
_cell_length_b   6.86584042
_cell_length_c   7.53722700
_cell_angle_alpha   73.77485283
_cell_angle_beta   73.76551424
_cell_angle_gamma   48.89276558
_symmetry_Int_Tables_number   1
_chemical_formula_structural   Tb2Dy3TcRuO12
_chemical_formula_sum   'Tb2 Dy3 Tc1 Ru1 O12'
_cell_volume   254.72996786
_cell_formula_units_Z   1
loop_
 _symmetry_equiv_pos_site_id
 _symmetry_equiv_pos_as_xyz
  1  'x, y, z'
loop_
 _atom_site_type_symbol
 _atom_site_label
 _atom_site_symmetry_multiplicity
 _atom_site_fract_x
 _atom_site_fract_y
 _atom_site_fract_z
 _atom_site_occupancy
  Tb  Tb0  1  0.188677  0.204482  0.642561  1
  Tb  Tb1  1  0.182315  0.189672  0.172796  1
  Dy  Dy2  1  0.493913  0.506394  0.499970  1
  Dy  Dy3  1  0.795739  0.811498  0.357732  1
  Dy  Dy4  1  0.810233  0.817627  0.826893  1
  Tc  Tc5  1  0.292625  0.706962  0.000044  1
  Ru  Ru6  1  0.728229  0.271534  0.000006  1
  O  O7  1  0.411636  0.910886  0.917055  1
  O  O8  1  0.923405  0.413668  0.915342  1
  O  O9  1  0.900096  0.409752  0.424615  1
  O  O10  1  0.396644  0.907900  0.427990  1
  O  O11  1  0.503005  0.497467  0.202064  1
  O  O12  1  0.004561  0.992284  0.175754  1
  O  O13  1  0.006900  0.994561  0.824479  1
  O  O14  1  0.502101  0.496352  0.798112  1
  O  O15  1  0.087417  0.589865  0.082701  1
  O  O16  1  0.588548  0.074280  0.084536  1
  O  O17  1  0.091063  0.605930  0.572031  1
  O  O18  1  0.592895  0.098884  0.575314  1
