# generated using pymatgen
data_DyY2In3HgRh2
_symmetry_space_group_name_H-M   'P 1'
_cell_length_a   7.76458235
_cell_length_b   7.75239852
_cell_length_c   3.90537600
_cell_angle_alpha   90.00000000
_cell_angle_beta   90.00000000
_cell_angle_gamma   119.98443230
_symmetry_Int_Tables_number   1
_chemical_formula_structural   DyY2In3HgRh2
_chemical_formula_sum   'Dy1 Y2 In3 Hg1 Rh2'
_cell_volume   203.61781905
_cell_formula_units_Z   1
loop_
 _symmetry_equiv_pos_site_id
 _symmetry_equiv_pos_as_xyz
  1  'x, y, z'
loop_
 _atom_site_type_symbol
 _atom_site_label
 _atom_site_symmetry_multiplicity
 _atom_site_fract_x
 _atom_site_fract_y
 _atom_site_fract_z
 _atom_site_occupancy
  Dy  Dy0  1  0.385755  0.415829  0.500000  1
  Y  Y1  1  0.028058  0.613316  0.500000  1
  Y  Y2  1  0.585108  0.971742  0.500000  1
  In  In3  1  0.003334  0.257302  0.000000  1
  In  In4  1  0.253949  0.996535  0.000000  1
  In  In5  1  0.742817  0.746198  0.000000  1
  Hg  Hg6  1  0.666075  0.333367  0.000000  1
  Rh  Rh7  1  0.001124  0.001079  0.500000  1
  Rh  Rh8  1  0.333779  0.664631  0.000000  1
