# generated using pymatgen
data_Tb3Er2(FeB3)2
_symmetry_space_group_name_H-M   'P 1'
_cell_length_a   5.41028676
_cell_length_b   5.41028686
_cell_length_c   8.28970727
_cell_angle_alpha   70.95410527
_cell_angle_beta   70.95410348
_cell_angle_gamma   59.99999163
_symmetry_Int_Tables_number   1
_chemical_formula_structural   Tb3Er2(FeB3)2
_chemical_formula_sum   'Tb3 Er2 Fe2 B6'
_cell_volume   194.65159412
_cell_formula_units_Z   1
loop_
 _symmetry_equiv_pos_site_id
 _symmetry_equiv_pos_as_xyz
  1  'x, y, z'
loop_
 _atom_site_type_symbol
 _atom_site_label
 _atom_site_symmetry_multiplicity
 _atom_site_fract_x
 _atom_site_fract_y
 _atom_site_fract_z
 _atom_site_occupancy
  Tb  Tb0  1  0.000000  0.000000  0.000000  1
  Tb  Tb1  1  0.252003  0.252003  0.243991  1
  Tb  Tb2  1  0.747997  0.747997  0.756009  1
  Er  Er3  1  0.417787  0.417787  0.746640  1
  Er  Er4  1  0.582213  0.582213  0.253360  1
  Fe  Fe5  1  0.118118  0.118118  0.645647  1
  Fe  Fe6  1  0.881882  0.881882  0.354353  1
  B  B7  1  0.167873  0.832127  0.500000  1
  B  B8  1  0.832127  0.500000  0.500000  1
  B  B9  1  0.500000  0.167873  0.500000  1
  B  B10  1  0.167873  0.500000  0.500000  1
  B  B11  1  0.500000  0.832127  0.500000  1
  B  B12  1  0.832127  0.167873  0.500000  1
