# generated using pymatgen
data_Gd3Ag3C
_symmetry_space_group_name_H-M   'P 1'
_cell_length_a   9.46210759
_cell_length_b   9.46210755
_cell_length_c   9.46210600
_cell_angle_alpha   60.00000543
_cell_angle_beta   60.00000554
_cell_angle_gamma   60.00000560
_symmetry_Int_Tables_number   1
_chemical_formula_structural   Gd3Ag3C
_chemical_formula_sum   'Gd12 Ag12 C4'
_cell_volume   599.03007528
_cell_formula_units_Z   4
loop_
 _symmetry_equiv_pos_site_id
 _symmetry_equiv_pos_as_xyz
  1  'x, y, z'
loop_
 _atom_site_type_symbol
 _atom_site_label
 _atom_site_symmetry_multiplicity
 _atom_site_fract_x
 _atom_site_fract_y
 _atom_site_fract_z
 _atom_site_occupancy
  Gd  Gd0  1  0.443447  0.443447  0.056553  1
  Gd  Gd1  1  0.056553  0.443447  0.056553  1
  Gd  Gd2  1  0.443447  0.056553  0.056553  1
  Gd  Gd3  1  0.056553  0.056553  0.443447  1
  Gd  Gd4  1  0.443447  0.056553  0.443447  1
  Gd  Gd5  1  0.056553  0.443447  0.443447  1
  Gd  Gd6  1  0.806553  0.806553  0.193447  1
  Gd  Gd7  1  0.193447  0.806553  0.193447  1
  Gd  Gd8  1  0.806553  0.193447  0.193447  1
  Gd  Gd9  1  0.193447  0.193447  0.806553  1
  Gd  Gd10  1  0.806553  0.193447  0.806553  1
  Gd  Gd11  1  0.193447  0.806553  0.806553  1
  Ag  Ag12  1  0.831300  0.831300  0.506102  1
  Ag  Ag13  1  0.831300  0.506102  0.831300  1
  Ag  Ag14  1  0.506102  0.831300  0.831300  1
  Ag  Ag15  1  0.831300  0.831300  0.831300  1
  Ag  Ag16  1  0.418700  0.418700  0.743898  1
  Ag  Ag17  1  0.418700  0.743898  0.418700  1
  Ag  Ag18  1  0.743898  0.418700  0.418700  1
  Ag  Ag19  1  0.418700  0.418700  0.418700  1
  Ag  Ag20  1  0.625000  0.625000  0.125000  1
  Ag  Ag21  1  0.625000  0.125000  0.625000  1
  Ag  Ag22  1  0.125000  0.625000  0.625000  1
  Ag  Ag23  1  0.625000  0.625000  0.625000  1
  C  C24  1  0.125000  0.125000  0.625000  1
  C  C25  1  0.125000  0.625000  0.125000  1
  C  C26  1  0.625000  0.125000  0.125000  1
  C  C27  1  0.125000  0.125000  0.125000  1
