# generated using pymatgen
data_SrLi3AcDyPt3
_symmetry_space_group_name_H-M   'P 1'
_cell_length_a   7.47534101
_cell_length_b   7.48824305
_cell_length_c   4.23086400
_cell_angle_alpha   90.00000000
_cell_angle_beta   90.00000000
_cell_angle_gamma   120.48231364
_symmetry_Int_Tables_number   1
_chemical_formula_structural   SrLi3AcDyPt3
_chemical_formula_sum   'Sr1 Li3 Ac1 Dy1 Pt3'
_cell_volume   204.09827532
_cell_formula_units_Z   1
loop_
 _symmetry_equiv_pos_site_id
 _symmetry_equiv_pos_as_xyz
  1  'x, y, z'
loop_
 _atom_site_type_symbol
 _atom_site_label
 _atom_site_symmetry_multiplicity
 _atom_site_fract_x
 _atom_site_fract_y
 _atom_site_fract_z
 _atom_site_occupancy
  Sr  Sr0  1  0.411905  0.415727  0.000000  1
  Li  Li1  1  0.777076  0.760703  0.500000  1
  Li  Li2  1  0.214144  0.989224  0.500000  1
  Li  Li3  1  0.007381  0.236510  0.500000  1
  Ac  Ac4  1  0.590520  0.004366  0.000000  1
  Dy  Dy5  1  0.000742  0.596722  0.000000  1
  Pt  Pt6  1  0.988835  0.974891  0.000000  1
  Pt  Pt7  1  0.706237  0.350571  0.500000  1
  Pt  Pt8  1  0.303159  0.671284  0.500000  1
