# generated using pymatgen
data_CeEr(TcB4)2
_symmetry_space_group_name_H-M   'P 1'
_cell_length_a   3.62841100
_cell_length_b   5.97572339
_cell_length_c   11.56926548
_cell_angle_alpha   89.80067205
_cell_angle_beta   90.00000000
_cell_angle_gamma   90.00000000
_symmetry_Int_Tables_number   1
_chemical_formula_structural   CeEr(TcB4)2
_chemical_formula_sum   'Ce2 Er2 Tc4 B16'
_cell_volume   250.84769779
_cell_formula_units_Z   2
loop_
 _symmetry_equiv_pos_site_id
 _symmetry_equiv_pos_as_xyz
  1  'x, y, z'
loop_
 _atom_site_type_symbol
 _atom_site_label
 _atom_site_symmetry_multiplicity
 _atom_site_fract_x
 _atom_site_fract_y
 _atom_site_fract_z
 _atom_site_occupancy
  Ce  Ce0  1  0.000000  0.627648  0.348509  1
  Ce  Ce1  1  0.000000  0.372352  0.651491  1
  Er  Er2  1  0.000000  0.126342  0.149097  1
  Er  Er3  1  0.000000  0.873658  0.850903  1
  Tc  Tc4  1  0.000000  0.634465  0.087688  1
  Tc  Tc5  1  0.000000  0.365535  0.912312  1
  Tc  Tc6  1  0.000000  0.136367  0.409396  1
  Tc  Tc7  1  0.000000  0.863633  0.590604  1
  B  B8  1  0.500000  0.788343  0.183712  1
  B  B9  1  0.500000  0.211657  0.816288  1
  B  B10  1  0.500000  0.286515  0.313659  1
  B  B11  1  0.500000  0.713485  0.686341  1
  B  B12  1  0.500000  0.864423  0.031159  1
  B  B13  1  0.500000  0.135577  0.968841  1
  B  B14  1  0.500000  0.362655  0.468353  1
  B  B15  1  0.500000  0.637345  0.531647  1
  B  B16  1  0.500000  0.888817  0.453106  1
  B  B17  1  0.500000  0.111183  0.546894  1
  B  B18  1  0.500000  0.386201  0.046721  1
  B  B19  1  0.500000  0.613799  0.953279  1
  B  B20  1  0.500000  0.977077  0.307292  1
  B  B21  1  0.500000  0.022923  0.692708  1
  B  B22  1  0.500000  0.477220  0.190716  1
  B  B23  1  0.500000  0.522780  0.809284  1
