# generated using pymatgen
data_Pr4Zn2As5
_symmetry_space_group_name_H-M   'P 1'
_cell_length_a   4.29703400
_cell_length_b   4.29703348
_cell_length_c   17.49171300
_cell_angle_alpha   90.00000000
_cell_angle_beta   90.00000000
_cell_angle_gamma   120.00000403
_symmetry_Int_Tables_number   1
_chemical_formula_structural   Pr4Zn2As5
_chemical_formula_sum   'Pr4 Zn2 As5'
_cell_volume   279.70516371
_cell_formula_units_Z   1
loop_
 _symmetry_equiv_pos_site_id
 _symmetry_equiv_pos_as_xyz
  1  'x, y, z'
loop_
 _atom_site_type_symbol
 _atom_site_label
 _atom_site_symmetry_multiplicity
 _atom_site_fract_x
 _atom_site_fract_y
 _atom_site_fract_z
 _atom_site_occupancy
  Pr  Pr0  1  0.666667  0.333333  0.899777  1
  Pr  Pr1  1  0.333333  0.666667  0.100223  1
  Pr  Pr2  1  0.000000  0.000000  0.701302  1
  Pr  Pr3  1  0.000000  0.000000  0.298698  1
  Zn  Zn4  1  0.666667  0.333333  0.443948  1
  Zn  Zn5  1  0.333333  0.666667  0.556052  1
  As  As6  1  0.666667  0.333333  0.592117  1
  As  As7  1  0.333333  0.666667  0.407883  1
  As  As8  1  0.666667  0.333333  0.202079  1
  As  As9  1  0.333333  0.666667  0.797921  1
  As  As10  1  0.000000  0.000000  0.000000  1
