# generated using pymatgen
data_SmTiCo4As3
_symmetry_space_group_name_H-M   'P 1'
_cell_length_a   3.82507500
_cell_length_b   10.89022000
_cell_length_c   12.43923000
_cell_angle_alpha   90.00000000
_cell_angle_beta   90.00000000
_cell_angle_gamma   90.00000000
_symmetry_Int_Tables_number   1
_chemical_formula_structural   SmTiCo4As3
_chemical_formula_sum   'Sm4 Ti4 Co16 As12'
_cell_volume   518.16742379
_cell_formula_units_Z   4
loop_
 _symmetry_equiv_pos_site_id
 _symmetry_equiv_pos_as_xyz
  1  'x, y, z'
loop_
 _atom_site_type_symbol
 _atom_site_label
 _atom_site_symmetry_multiplicity
 _atom_site_fract_x
 _atom_site_fract_y
 _atom_site_fract_z
 _atom_site_occupancy
  Sm  Sm0  1  0.250000  0.580210  0.705340  1
  Sm  Sm1  1  0.250000  0.919790  0.205340  1
  Sm  Sm2  1  0.750000  0.419790  0.294660  1
  Sm  Sm3  1  0.750000  0.080210  0.794660  1
  Ti  Ti4  1  0.250000  0.698377  0.991807  1
  Ti  Ti5  1  0.250000  0.801623  0.491807  1
  Ti  Ti6  1  0.750000  0.301623  0.008193  1
  Ti  Ti7  1  0.750000  0.198377  0.508193  1
  Co  Co8  1  0.250000  0.404880  0.490057  1
  Co  Co9  1  0.250000  0.095120  0.990057  1
  Co  Co10  1  0.750000  0.595120  0.509943  1
  Co  Co11  1  0.750000  0.904880  0.009943  1
  Co  Co12  1  0.250000  0.218311  0.175112  1
  Co  Co13  1  0.250000  0.281689  0.675112  1
  Co  Co14  1  0.750000  0.781689  0.824888  1
  Co  Co15  1  0.750000  0.718311  0.324888  1
  Co  Co16  1  0.250000  0.883809  0.698016  1
  Co  Co17  1  0.250000  0.616191  0.198016  1
  Co  Co18  1  0.750000  0.116191  0.301984  1
  Co  Co19  1  0.750000  0.383809  0.801984  1
  Co  Co20  1  0.250000  0.465253  0.933969  1
  Co  Co21  1  0.250000  0.034747  0.433969  1
  Co  Co22  1  0.750000  0.534747  0.066031  1
  Co  Co23  1  0.750000  0.965253  0.566031  1
  As  As24  1  0.250000  0.419962  0.116165  1
  As  As25  1  0.250000  0.080038  0.616165  1
  As  As26  1  0.750000  0.580038  0.883835  1
  As  As27  1  0.750000  0.919962  0.383835  1
  As  As28  1  0.250000  0.268451  0.863271  1
  As  As29  1  0.250000  0.231549  0.363271  1
  As  As30  1  0.750000  0.731549  0.136729  1
  As  As31  1  0.750000  0.768451  0.636729  1
  As  As32  1  0.250000  0.595330  0.391373  1
  As  As33  1  0.250000  0.904670  0.891373  1
  As  As34  1  0.750000  0.404670  0.608627  1
  As  As35  1  0.750000  0.095330  0.108627  1
