# generated using pymatgen
data_La2TaReH18
_symmetry_space_group_name_H-M   'P 1'
_cell_length_a   4.90699500
_cell_length_b   4.90699533
_cell_length_c   9.21507200
_cell_angle_alpha   90.00000000
_cell_angle_beta   90.00000000
_cell_angle_gamma   119.99999101
_symmetry_Int_Tables_number   1
_chemical_formula_structural   La2TaReH18
_chemical_formula_sum   'La2 Ta1 Re1 H18'
_cell_volume   192.15897094
_cell_formula_units_Z   1
loop_
 _symmetry_equiv_pos_site_id
 _symmetry_equiv_pos_as_xyz
  1  'x, y, z'
loop_
 _atom_site_type_symbol
 _atom_site_label
 _atom_site_symmetry_multiplicity
 _atom_site_fract_x
 _atom_site_fract_y
 _atom_site_fract_z
 _atom_site_occupancy
  La  La0  1  0.000000  0.000000  0.023460  1
  La  La1  1  0.000000  0.000000  0.476540  1
  Ta  Ta2  1  0.333333  0.666667  0.250000  1
  Re  Re3  1  0.666667  0.333333  0.750000  1
  H  H4  1  0.484436  0.515564  0.397677  1
  H  H5  1  0.484436  0.968873  0.397677  1
  H  H6  1  0.031127  0.515564  0.397677  1
  H  H7  1  0.950720  0.475360  0.881695  1
  H  H8  1  0.122649  0.245299  0.250000  1
  H  H9  1  0.863523  0.136477  0.750000  1
  H  H10  1  0.272954  0.136477  0.750000  1
  H  H11  1  0.754701  0.877351  0.250000  1
  H  H12  1  0.122649  0.877351  0.250000  1
  H  H13  1  0.863523  0.727046  0.750000  1
  H  H14  1  0.484436  0.968873  0.102323  1
  H  H15  1  0.524640  0.475360  0.618305  1
  H  H16  1  0.950720  0.475360  0.618305  1
  H  H17  1  0.031127  0.515564  0.102323  1
  H  H18  1  0.484436  0.515564  0.102323  1
  H  H19  1  0.524640  0.049280  0.881695  1
  H  H20  1  0.524640  0.475360  0.881695  1
  H  H21  1  0.524640  0.049280  0.618305  1
