# generated using pymatgen
data_DyHoNi7P4
_symmetry_space_group_name_H-M   'P 1'
_cell_length_a   3.69503400
_cell_length_b   9.14632600
_cell_length_c   10.25218100
_cell_angle_alpha   90.00000000
_cell_angle_beta   90.00000000
_cell_angle_gamma   90.00000000
_symmetry_Int_Tables_number   1
_chemical_formula_structural   DyHoNi7P4
_chemical_formula_sum   'Dy2 Ho2 Ni14 P8'
_cell_volume   346.48256088
_cell_formula_units_Z   2
loop_
 _symmetry_equiv_pos_site_id
 _symmetry_equiv_pos_as_xyz
  1  'x, y, z'
loop_
 _atom_site_type_symbol
 _atom_site_label
 _atom_site_symmetry_multiplicity
 _atom_site_fract_x
 _atom_site_fract_y
 _atom_site_fract_z
 _atom_site_occupancy
  Dy  Dy0  1  0.000000  0.436166  0.178299  1
  Dy  Dy1  1  0.500000  0.563834  0.678299  1
  Ho  Ho2  1  0.000000  0.057525  0.395470  1
  Ho  Ho3  1  0.500000  0.942475  0.895470  1
  Ni  Ni4  1  0.000000  0.055682  0.699244  1
  Ni  Ni5  1  0.500000  0.944318  0.199244  1
  Ni  Ni6  1  0.000000  0.725192  0.510130  1
  Ni  Ni7  1  0.500000  0.274808  0.010130  1
  Ni  Ni8  1  0.000000  0.097570  0.093690  1
  Ni  Ni9  1  0.500000  0.902430  0.593690  1
  Ni  Ni10  1  0.000000  0.745633  0.273542  1
  Ni  Ni11  1  0.500000  0.254367  0.773542  1
  Ni  Ni12  1  0.000000  0.305885  0.603145  1
  Ni  Ni13  1  0.500000  0.694115  0.103145  1
  Ni  Ni14  1  0.000000  0.686837  0.912116  1
  Ni  Ni15  1  0.500000  0.313163  0.412116  1
  Ni  Ni16  1  0.000000  0.417963  0.869464  1
  Ni  Ni17  1  0.500000  0.582037  0.369464  1
  P  P18  1  0.000000  0.180177  0.889133  1
  P  P19  1  0.500000  0.819823  0.389133  1
  P  P20  1  0.000000  0.846447  0.083782  1
  P  P21  1  0.500000  0.153553  0.583782  1
  P  P22  1  0.000000  0.809248  0.714908  1
  P  P23  1  0.500000  0.190752  0.214908  1
  P  P24  1  0.000000  0.479659  0.461174  1
  P  P25  1  0.500000  0.520341  0.961174  1
