# generated using pymatgen
data_Zr12Mn2AlNi(Ir2N)4
_symmetry_space_group_name_H-M   'P 1'
_cell_length_a   8.57258684
_cell_length_b   8.50431959
_cell_length_c   8.57289200
_cell_angle_alpha   59.73359609
_cell_angle_beta   59.99953246
_cell_angle_gamma   59.73251269
_symmetry_Int_Tables_number   1
_chemical_formula_structural   Zr12Mn2AlNi(Ir2N)4
_chemical_formula_sum   'Zr12 Mn2 Al1 Ni1 Ir8 N4'
_cell_volume   440.14739562
_cell_formula_units_Z   1
loop_
 _symmetry_equiv_pos_site_id
 _symmetry_equiv_pos_as_xyz
  1  'x, y, z'
loop_
 _atom_site_type_symbol
 _atom_site_label
 _atom_site_symmetry_multiplicity
 _atom_site_fract_x
 _atom_site_fract_y
 _atom_site_fract_z
 _atom_site_occupancy
  Zr  Zr0  1  0.806057  0.805038  0.196492  1
  Zr  Zr1  1  0.191438  0.191168  0.808846  1
  Zr  Zr2  1  0.807471  0.194421  0.807460  1
  Zr  Zr3  1  0.192870  0.807092  0.192859  1
  Zr  Zr4  1  0.196494  0.805047  0.806057  1
  Zr  Zr5  1  0.808845  0.191179  0.191433  1
  Zr  Zr6  1  0.443943  0.444962  0.053508  1
  Zr  Zr7  1  0.058562  0.058832  0.441154  1
  Zr  Zr8  1  0.442529  0.055579  0.442540  1
  Zr  Zr9  1  0.057130  0.442908  0.057141  1
  Zr  Zr10  1  0.053506  0.444953  0.443943  1
  Zr  Zr11  1  0.441155  0.058821  0.058567  1
  Mn  Mn12  1  0.125000  0.625000  0.625000  1
  Mn  Mn13  1  0.625000  0.625000  0.125000  1
  Al  Al14  1  0.625000  0.125000  0.625000  1
  Ni  Ni15  1  0.625000  0.625000  0.625000  1
  Ir  Ir16  1  0.747253  0.418425  0.416470  1
  Ir  Ir17  1  0.417259  0.748116  0.417262  1
  Ir  Ir18  1  0.416472  0.418429  0.747245  1
  Ir  Ir19  1  0.416942  0.416910  0.416942  1
  Ir  Ir20  1  0.502747  0.831575  0.833530  1
  Ir  Ir21  1  0.832741  0.501884  0.832738  1
  Ir  Ir22  1  0.833528  0.831571  0.502755  1
  Ir  Ir23  1  0.833058  0.833090  0.833058  1
  N  N24  1  0.625000  0.125000  0.125000  1
  N  N25  1  0.125000  0.625000  0.125000  1
  N  N26  1  0.125000  0.125000  0.625000  1
  N  N27  1  0.125000  0.125000  0.125000  1
