# generated using pymatgen
data_Ac4TlAu4
_symmetry_space_group_name_H-M   'P 1'
_cell_length_a   8.36523900
_cell_length_b   8.23194868
_cell_length_c   8.65457647
_cell_angle_alpha   68.72216272
_cell_angle_beta   90.00000000
_cell_angle_gamma   90.00000000
_symmetry_Int_Tables_number   1
_chemical_formula_structural   Ac4TlAu4
_chemical_formula_sum   'Ac8 Tl2 Au8'
_cell_volume   555.34682495
_cell_formula_units_Z   2
loop_
 _symmetry_equiv_pos_site_id
 _symmetry_equiv_pos_as_xyz
  1  'x, y, z'
loop_
 _atom_site_type_symbol
 _atom_site_label
 _atom_site_symmetry_multiplicity
 _atom_site_fract_x
 _atom_site_fract_y
 _atom_site_fract_z
 _atom_site_occupancy
  Ac  Ac0  1  0.320011  0.074458  0.282888  1
  Ac  Ac1  1  0.179989  0.574458  0.282888  1
  Ac  Ac2  1  0.820011  0.425542  0.717112  1
  Ac  Ac3  1  0.323730  0.275677  0.755640  1
  Ac  Ac4  1  0.679989  0.925542  0.717112  1
  Ac  Ac5  1  0.823730  0.224323  0.244360  1
  Ac  Ac6  1  0.176270  0.775677  0.755640  1
  Ac  Ac7  1  0.676270  0.724323  0.244360  1
  Tl  Tl8  1  0.000000  0.000000  0.000000  1
  Tl  Tl9  1  0.500000  0.500000  0.000000  1
  Au  Au10  1  0.875143  0.622129  0.990367  1
  Au  Au11  1  0.963788  0.825368  0.437697  1
  Au  Au12  1  0.124857  0.377871  0.009633  1
  Au  Au13  1  0.536212  0.325368  0.437697  1
  Au  Au14  1  0.375143  0.877871  0.009633  1
  Au  Au15  1  0.463788  0.674632  0.562303  1
  Au  Au16  1  0.036212  0.174632  0.562303  1
  Au  Au17  1  0.624857  0.122129  0.990367  1
