# generated using pymatgen
data_Tb5Dy3Hf12Si15Os
_symmetry_space_group_name_H-M   'P 1'
_cell_length_a   7.29686329
_cell_length_b   7.30202443
_cell_length_c   13.42380712
_cell_angle_alpha   89.86534037
_cell_angle_beta   89.84975924
_cell_angle_gamma   90.02191097
_symmetry_Int_Tables_number   1
_chemical_formula_structural   Tb5Dy3Hf12Si15Os
_chemical_formula_sum   'Tb5 Dy3 Hf12 Si15 Os1'
_cell_volume   715.24111125
_cell_formula_units_Z   1
loop_
 _symmetry_equiv_pos_site_id
 _symmetry_equiv_pos_as_xyz
  1  'x, y, z'
loop_
 _atom_site_type_symbol
 _atom_site_label
 _atom_site_symmetry_multiplicity
 _atom_site_fract_x
 _atom_site_fract_y
 _atom_site_fract_z
 _atom_site_occupancy
  Tb  Tb0  1  0.503745  0.843275  0.034292  1
  Tb  Tb1  1  0.844607  0.502461  0.965230  1
  Tb  Tb2  1  0.496189  0.158643  0.534745  1
  Tb  Tb3  1  0.343572  0.996687  0.784877  1
  Tb  Tb4  1  0.654881  0.003498  0.284495  1
  Dy  Dy5  1  0.997447  0.346743  0.214716  1
  Dy  Dy6  1  0.004237  0.655250  0.714492  1
  Dy  Dy7  1  0.158357  0.495357  0.463159  1
  Hf  Hf8  1  0.175662  0.174659  0.998414  1
  Hf  Hf9  1  0.826921  0.825821  0.500583  1
  Hf  Hf10  1  0.325116  0.665432  0.253103  1
  Hf  Hf11  1  0.674286  0.325556  0.750262  1
  Hf  Hf12  1  0.155262  0.003118  0.373216  1
  Hf  Hf13  1  0.850382  0.004037  0.874737  1
  Hf  Hf14  1  0.503719  0.650571  0.626232  1
  Hf  Hf15  1  0.350881  0.496338  0.873169  1
  Hf  Hf16  1  0.494495  0.345721  0.128338  1
  Hf  Hf17  1  0.644475  0.498728  0.377279  1
  Hf  Hf18  1  0.997380  0.148922  0.625718  1
  Hf  Hf19  1  0.000280  0.848515  0.124625  1
  Si  Si20  1  0.638917  0.704925  0.818697  1
  Si  Si21  1  0.205772  0.861519  0.567486  1
  Si  Si22  1  0.137781  0.795579  0.932997  1
  Si  Si23  1  0.797030  0.137155  0.065953  1
  Si  Si24  1  0.862676  0.200600  0.435024  1
  Si  Si25  1  0.295692  0.362286  0.683189  1
  Si  Si26  1  0.703841  0.639491  0.182187  1
  Si  Si27  1  0.289431  0.046222  0.183475  1
  Si  Si28  1  0.705615  0.951404  0.685626  1
  Si  Si29  1  0.452867  0.797960  0.438720  1
  Si  Si30  1  0.206321  0.550891  0.061166  1
  Si  Si31  1  0.548187  0.204932  0.935321  1
  Si  Si32  1  0.795766  0.452039  0.566139  1
  Si  Si33  1  0.047616  0.295484  0.814376  1
  Si  Si34  1  0.946998  0.709877  0.313996  1
  Os  Os35  1  0.363598  0.300302  0.313962  1
