# generated using pymatgen
data_Yb3Th(B6Os)2
_symmetry_space_group_name_H-M   'P 1'
_cell_length_a   3.71418200
_cell_length_b   9.13032393
_cell_length_c   11.53967347
_cell_angle_alpha   90.07471447
_cell_angle_beta   90.00000000
_cell_angle_gamma   90.00000000
_symmetry_Int_Tables_number   1
_chemical_formula_structural   Yb3Th(B6Os)2
_chemical_formula_sum   'Yb6 Th2 B24 Os4'
_cell_volume   391.32943651
_cell_formula_units_Z   2
loop_
 _symmetry_equiv_pos_site_id
 _symmetry_equiv_pos_as_xyz
  1  'x, y, z'
loop_
 _atom_site_type_symbol
 _atom_site_label
 _atom_site_symmetry_multiplicity
 _atom_site_fract_x
 _atom_site_fract_y
 _atom_site_fract_z
 _atom_site_occupancy
  Yb  Yb0  1  0.000000  0.824198  0.084167  1
  Yb  Yb1  1  0.000000  0.175802  0.915833  1
  Yb  Yb2  1  0.000000  0.940941  0.363460  1
  Yb  Yb3  1  0.000000  0.059059  0.636540  1
  Yb  Yb4  1  0.000000  0.441283  0.129411  1
  Yb  Yb5  1  0.000000  0.558717  0.870589  1
  Th  Th6  1  0.000000  0.318102  0.411268  1
  Th  Th7  1  0.000000  0.681898  0.588732  1
  B  B8  1  0.500000  0.555937  0.430313  1
  B  B9  1  0.500000  0.444063  0.569687  1
  B  B10  1  0.500000  0.054477  0.067383  1
  B  B11  1  0.500000  0.945523  0.932617  1
  B  B12  1  0.500000  0.750423  0.413880  1
  B  B13  1  0.500000  0.249577  0.586120  1
  B  B14  1  0.500000  0.249462  0.081114  1
  B  B15  1  0.500000  0.750538  0.918886  1
  B  B16  1  0.500000  0.790110  0.262798  1
  B  B17  1  0.500000  0.209890  0.737202  1
  B  B18  1  0.500000  0.289639  0.231879  1
  B  B19  1  0.500000  0.710361  0.768121  1
  B  B20  1  0.500000  0.629363  0.184034  1
  B  B21  1  0.500000  0.370637  0.815966  1
  B  B22  1  0.500000  0.127437  0.311243  1
  B  B23  1  0.500000  0.872563  0.688757  1
  B  B24  1  0.500000  0.982784  0.209418  1
  B  B25  1  0.500000  0.017216  0.790582  1
  B  B26  1  0.500000  0.484857  0.285119  1
  B  B27  1  0.500000  0.515143  0.714881  1
  B  B28  1  0.500000  0.593053  0.025808  1
  B  B29  1  0.500000  0.406947  0.974192  1
  B  B30  1  0.500000  0.091485  0.474313  1
  B  B31  1  0.500000  0.908515  0.525687  1
  Os  Os32  1  0.000000  0.636658  0.320761  1
  Os  Os33  1  0.000000  0.363342  0.679239  1
  Os  Os34  1  0.000000  0.140401  0.180537  1
  Os  Os35  1  0.000000  0.859599  0.819463  1
