# generated using pymatgen
data_Eu3Dy5Cu3Si12Rh
_symmetry_space_group_name_H-M   'P 1'
_cell_length_a   8.06906194
_cell_length_b   8.07577175
_cell_length_c   8.24808801
_cell_angle_alpha   89.99999964
_cell_angle_beta   89.99442448
_cell_angle_gamma   120.02750079
_symmetry_Int_Tables_number   1
_chemical_formula_structural   Eu3Dy5Cu3Si12Rh
_chemical_formula_sum   'Eu3 Dy5 Cu3 Si12 Rh1'
_cell_volume   465.34021254
_cell_formula_units_Z   1
loop_
 _symmetry_equiv_pos_site_id
 _symmetry_equiv_pos_as_xyz
  1  'x, y, z'
loop_
 _atom_site_type_symbol
 _atom_site_label
 _atom_site_symmetry_multiplicity
 _atom_site_fract_x
 _atom_site_fract_y
 _atom_site_fract_z
 _atom_site_occupancy
  Eu  Eu0  1  0.999768  0.999884  0.249463  1
  Eu  Eu1  1  0.000260  0.000130  0.750371  1
  Eu  Eu2  1  0.000159  0.500079  0.251460  1
  Dy  Dy3  1  0.500161  0.499524  0.252605  1
  Dy  Dy4  1  0.501846  0.003598  0.747343  1
  Dy  Dy5  1  0.500161  0.000635  0.252605  1
  Dy  Dy6  1  0.501846  0.498249  0.747343  1
  Dy  Dy7  1  0.996566  0.498283  0.747552  1
  Cu  Cu8  1  0.334351  0.667176  0.995265  1
  Cu  Cu9  1  0.334492  0.667246  0.504447  1
  Cu  Cu10  1  0.665566  0.332782  0.001735  1
  Si  Si11  1  0.170288  0.338613  0.998967  1
  Si  Si12  1  0.661121  0.830560  0.999578  1
  Si  Si13  1  0.169367  0.336903  0.501604  1
  Si  Si14  1  0.338961  0.169481  0.999385  1
  Si  Si15  1  0.170288  0.831674  0.998967  1
  Si  Si16  1  0.662713  0.831356  0.501312  1
  Si  Si17  1  0.829733  0.661391  0.998847  1
  Si  Si18  1  0.335934  0.167967  0.499463  1
  Si  Si19  1  0.169367  0.832463  0.501604  1
  Si  Si20  1  0.831108  0.664018  0.500499  1
  Si  Si21  1  0.829733  0.168343  0.998847  1
  Si  Si22  1  0.831108  0.167091  0.500499  1
  Rh  Rh23  1  0.665104  0.332551  0.500237  1
