# generated using pymatgen
data_Dy2Sb2Br2O5
_symmetry_space_group_name_H-M   'P 1'
_cell_length_a   6.78094604
_cell_length_b   6.99032670
_cell_length_c   10.27196300
_cell_angle_alpha   110.15472960
_cell_angle_beta   96.23425472
_cell_angle_gamma   99.58591175
_symmetry_Int_Tables_number   1
_chemical_formula_structural   Dy2Sb2Br2O5
_chemical_formula_sum   'Dy4 Sb4 Br4 O10'
_cell_volume   443.40016368
_cell_formula_units_Z   2
loop_
 _symmetry_equiv_pos_site_id
 _symmetry_equiv_pos_as_xyz
  1  'x, y, z'
loop_
 _atom_site_type_symbol
 _atom_site_label
 _atom_site_symmetry_multiplicity
 _atom_site_fract_x
 _atom_site_fract_y
 _atom_site_fract_z
 _atom_site_occupancy
  Dy  Dy0  1  0.390640  0.758481  0.540481  1
  Dy  Dy1  1  0.609360  0.241519  0.459519  1
  Dy  Dy2  1  0.855537  0.749264  0.372808  1
  Dy  Dy3  1  0.144463  0.250736  0.627192  1
  Sb  Sb4  1  0.899543  0.783426  0.713635  1
  Sb  Sb5  1  0.100457  0.216574  0.286365  1
  Sb  Sb6  1  0.682116  0.259539  0.796180  1
  Sb  Sb7  1  0.317884  0.740461  0.203820  1
  Br  Br8  1  0.356694  0.676556  0.806512  1
  Br  Br9  1  0.643306  0.323444  0.193488  1
  Br  Br10  1  0.874701  0.763839  0.085757  1
  Br  Br11  1  0.125299  0.236161  0.914243  1
  O  O12  1  0.844336  0.344004  0.667345  1
  O  O13  1  0.155664  0.655996  0.332655  1
  O  O14  1  0.552358  0.840472  0.374376  1
  O  O15  1  0.447642  0.159528  0.625624  1
  O  O16  1  0.690859  0.956936  0.703990  1
  O  O17  1  0.309141  0.043064  0.296010  1
  O  O18  1  0.715030  0.596839  0.522825  1
  O  O19  1  0.284970  0.403161  0.477175  1
  O  O20  1  0.070045  0.889186  0.589020  1
  O  O21  1  0.929955  0.110814  0.410980  1
