# generated using pymatgen
data_Sc4Co18As5P7Ru2
_symmetry_space_group_name_H-M   'P 1'
_cell_length_a   3.64959400
_cell_length_b   10.41741622
_cell_length_c   11.82960002
_cell_angle_alpha   90.18893718
_cell_angle_beta   90.00000000
_cell_angle_gamma   90.00000000
_symmetry_Int_Tables_number   1
_chemical_formula_structural   Sc4Co18As5P7Ru2
_chemical_formula_sum   'Sc4 Co18 As5 P7 Ru2'
_cell_volume   449.75113641
_cell_formula_units_Z   1
loop_
 _symmetry_equiv_pos_site_id
 _symmetry_equiv_pos_as_xyz
  1  'x, y, z'
loop_
 _atom_site_type_symbol
 _atom_site_label
 _atom_site_symmetry_multiplicity
 _atom_site_fract_x
 _atom_site_fract_y
 _atom_site_fract_z
 _atom_site_occupancy
  Sc  Sc0  1  0.250000  0.583947  0.702588  1
  Sc  Sc1  1  0.250000  0.917959  0.200181  1
  Sc  Sc2  1  0.750000  0.416387  0.294393  1
  Sc  Sc3  1  0.750000  0.075328  0.800719  1
  Co  Co4  1  0.750000  0.275863  0.010819  1
  Co  Co5  1  0.750000  0.221880  0.511511  1
  Co  Co6  1  0.250000  0.409767  0.492460  1
  Co  Co7  1  0.250000  0.083945  0.988980  1
  Co  Co8  1  0.750000  0.591898  0.521384  1
  Co  Co9  1  0.750000  0.907735  0.013331  1
  Co  Co10  1  0.250000  0.209077  0.174070  1
  Co  Co11  1  0.250000  0.290628  0.675960  1
  Co  Co12  1  0.750000  0.778508  0.823419  1
  Co  Co13  1  0.750000  0.727298  0.319755  1
  Co  Co14  1  0.250000  0.882933  0.704784  1
  Co  Co15  1  0.250000  0.621579  0.196175  1
  Co  Co16  1  0.750000  0.106384  0.295933  1
  Co  Co17  1  0.750000  0.393592  0.796988  1
  Co  Co18  1  0.250000  0.474576  0.925758  1
  Co  Co19  1  0.250000  0.026107  0.427672  1
  Co  Co20  1  0.750000  0.541864  0.065068  1
  Co  Co21  1  0.750000  0.959745  0.568852  1
  As  As22  1  0.250000  0.414014  0.113004  1
  As  As23  1  0.250000  0.086493  0.616024  1
  As  As24  1  0.250000  0.264676  0.870263  1
  As  As25  1  0.250000  0.233571  0.369649  1
  As  As26  1  0.250000  0.593069  0.386978  1
  P  P27  1  0.750000  0.582526  0.882345  1
  P  P28  1  0.750000  0.918960  0.383930  1
  P  P29  1  0.750000  0.736166  0.132809  1
  P  P30  1  0.750000  0.765860  0.635828  1
  P  P31  1  0.250000  0.905013  0.889272  1
  P  P32  1  0.750000  0.403488  0.611299  1
  P  P33  1  0.750000  0.094955  0.109272  1
  Ru  Ru34  1  0.250000  0.718522  0.991017  1
  Ru  Ru35  1  0.250000  0.785687  0.497515  1
