# generated using pymatgen
data_BeNi11(Mo6C)2
_symmetry_space_group_name_H-M   'P 1'
_cell_length_a   7.68011154
_cell_length_b   7.68011091
_cell_length_c   7.68011090
_cell_angle_alpha   60.19624489
_cell_angle_beta   60.19624545
_cell_angle_gamma   60.19624768
_symmetry_Int_Tables_number   1
_chemical_formula_structural   BeNi11(Mo6C)2
_chemical_formula_sum   'Be1 Ni11 Mo12 C2'
_cell_volume   321.74601557
_cell_formula_units_Z   1
loop_
 _symmetry_equiv_pos_site_id
 _symmetry_equiv_pos_as_xyz
  1  'x, y, z'
loop_
 _atom_site_type_symbol
 _atom_site_label
 _atom_site_symmetry_multiplicity
 _atom_site_fract_x
 _atom_site_fract_y
 _atom_site_fract_z
 _atom_site_occupancy
  Be  Be0  1  0.125000  0.125000  0.125000  1
  Ni  Ni1  1  0.328139  0.328139  0.003499  1
  Ni  Ni2  1  0.333328  0.333328  0.333328  1
  Ni  Ni3  1  0.246501  0.921861  0.921861  1
  Ni  Ni4  1  0.916672  0.916672  0.916672  1
  Ni  Ni5  1  0.003499  0.328139  0.328139  1
  Ni  Ni6  1  0.328139  0.003499  0.328139  1
  Ni  Ni7  1  0.125000  0.625000  0.125000  1
  Ni  Ni8  1  0.125000  0.125000  0.625000  1
  Ni  Ni9  1  0.625000  0.125000  0.125000  1
  Ni  Ni10  1  0.921861  0.921861  0.246501  1
  Ni  Ni11  1  0.921861  0.246501  0.921861  1
  Mo  Mo12  1  0.301692  0.699040  0.699040  1
  Mo  Mo13  1  0.699040  0.699040  0.301692  1
  Mo  Mo14  1  0.699040  0.301692  0.699040  1
  Mo  Mo15  1  0.301750  0.698514  0.301750  1
  Mo  Mo16  1  0.550960  0.948308  0.550960  1
  Mo  Mo17  1  0.551486  0.948250  0.948250  1
  Mo  Mo18  1  0.948308  0.550960  0.550960  1
  Mo  Mo19  1  0.948250  0.551486  0.948250  1
  Mo  Mo20  1  0.301750  0.301750  0.698514  1
  Mo  Mo21  1  0.550960  0.550960  0.948308  1
  Mo  Mo22  1  0.948250  0.948250  0.551486  1
  Mo  Mo23  1  0.698514  0.301750  0.301750  1
  C  C24  1  0.500678  0.500678  0.500678  1
  C  C25  1  0.749322  0.749322  0.749322  1
