# generated using pymatgen
data_Er2MnBe2Rh5
_symmetry_space_group_name_H-M   'P 1'
_cell_length_a   9.59238700
_cell_length_b   9.59238700
_cell_length_c   3.22621000
_cell_angle_alpha   90.00000000
_cell_angle_beta   90.00000000
_cell_angle_gamma   90.00000000
_symmetry_Int_Tables_number   1
_chemical_formula_structural   Er2MnBe2Rh5
_chemical_formula_sum   'Er4 Mn2 Be4 Rh10'
_cell_volume   296.85612676
_cell_formula_units_Z   2
loop_
 _symmetry_equiv_pos_site_id
 _symmetry_equiv_pos_as_xyz
  1  'x, y, z'
loop_
 _atom_site_type_symbol
 _atom_site_label
 _atom_site_symmetry_multiplicity
 _atom_site_fract_x
 _atom_site_fract_y
 _atom_site_fract_z
 _atom_site_occupancy
  Er  Er0  1  0.824055  0.324055  0.000000  1
  Er  Er1  1  0.324055  0.175945  0.000000  1
  Er  Er2  1  0.675945  0.824055  0.000000  1
  Er  Er3  1  0.175945  0.675945  0.000000  1
  Mn  Mn4  1  0.000000  0.000000  0.000000  1
  Mn  Mn5  1  0.500000  0.500000  0.000000  1
  Be  Be6  1  0.622794  0.122794  0.000000  1
  Be  Be7  1  0.122794  0.377206  0.000000  1
  Be  Be8  1  0.877206  0.622794  0.000000  1
  Be  Be9  1  0.377206  0.877206  0.000000  1
  Rh  Rh10  1  0.069217  0.211552  0.500000  1
  Rh  Rh11  1  0.211552  0.930783  0.500000  1
  Rh  Rh12  1  0.788448  0.069217  0.500000  1
  Rh  Rh13  1  0.930783  0.788448  0.500000  1
  Rh  Rh14  1  0.430783  0.711552  0.500000  1
  Rh  Rh15  1  0.569217  0.288448  0.500000  1
  Rh  Rh16  1  0.711552  0.569217  0.500000  1
  Rh  Rh17  1  0.288448  0.430783  0.500000  1
  Rh  Rh18  1  0.500000  0.000000  0.500000  1
  Rh  Rh19  1  0.000000  0.500000  0.500000  1
