# generated using pymatgen
data_La3Tb2Sm5C4I15
_symmetry_space_group_name_H-M   'P 1'
_cell_length_a   9.76594867
_cell_length_b   10.60052983
_cell_length_c   11.73839152
_cell_angle_alpha   93.47985708
_cell_angle_beta   114.28711690
_cell_angle_gamma   109.55719565
_symmetry_Int_Tables_number   1
_chemical_formula_structural   La3Tb2Sm5C4I15
_chemical_formula_sum   'La3 Tb2 Sm5 C4 I15'
_cell_volume   1015.53151454
_cell_formula_units_Z   1
loop_
 _symmetry_equiv_pos_site_id
 _symmetry_equiv_pos_as_xyz
  1  'x, y, z'
loop_
 _atom_site_type_symbol
 _atom_site_label
 _atom_site_symmetry_multiplicity
 _atom_site_fract_x
 _atom_site_fract_y
 _atom_site_fract_z
 _atom_site_occupancy
  La  La0  1  0.706689  0.569492  0.045287  1
  La  La1  1  0.292822  0.432194  0.955115  1
  La  La2  1  0.660219  0.252590  0.834029  1
  Tb  Tb3  1  0.404594  0.456024  0.662218  1
  Tb  Tb4  1  0.472933  0.814013  0.902447  1
  Sm  Sm5  1  0.593272  0.542957  0.338779  1
  Sm  Sm6  1  0.348833  0.746250  0.165165  1
  Sm  Sm7  1  0.772314  0.880665  0.255755  1
  Sm  Sm8  1  0.526142  0.185930  0.099214  1
  Sm  Sm9  1  0.229328  0.118765  0.745660  1
  C  C10  1  0.482413  0.299060  0.937035  1
  C  C11  1  0.517528  0.703172  0.061565  1
  C  C12  1  0.453220  0.361994  0.832395  1
  C  C13  1  0.546011  0.639085  0.165698  1
  I  I14  1  0.213161  0.904164  0.937149  1
  I  I15  1  0.112432  0.194824  0.475894  1
  I  I16  1  0.166589  0.564727  0.700075  1
  I  I17  1  0.398817  0.961294  0.651473  1
  I  I18  1  0.697053  0.736052  0.812664  1
  I  I19  1  0.292351  0.262034  0.183397  1
  I  I20  1  0.839852  0.438270  0.300542  1
  I  I21  1  0.891405  0.809448  0.527847  1
  I  I22  1  0.357992  0.627617  0.410536  1
  I  I23  1  0.054481  0.840434  0.223623  1
  I  I24  1  0.786447  0.087648  0.063653  1
  I  I25  1  0.635866  0.377011  0.585002  1
  I  I26  1  0.945751  0.159322  0.775993  1
  I  I27  1  0.594889  0.029078  0.348565  1
  I  I28  1  0.006595  0.505884  0.003224  1
