# generated using pymatgen
data_Al2TlBr7
_symmetry_space_group_name_H-M   'P 1'
_cell_length_a   11.36825600
_cell_length_b   11.09634621
_cell_length_c   14.89945000
_cell_angle_alpha   55.93051408
_cell_angle_beta   90.00000000
_cell_angle_gamma   90.00000000
_symmetry_Int_Tables_number   1
_chemical_formula_structural   Al2TlBr7
_chemical_formula_sum   'Al8 Tl4 Br28'
_cell_volume   1556.90663410
_cell_formula_units_Z   4
loop_
 _symmetry_equiv_pos_site_id
 _symmetry_equiv_pos_as_xyz
  1  'x, y, z'
loop_
 _atom_site_type_symbol
 _atom_site_label
 _atom_site_symmetry_multiplicity
 _atom_site_fract_x
 _atom_site_fract_y
 _atom_site_fract_z
 _atom_site_occupancy
  Al  Al0  1  0.287465  0.600020  0.797507  1
  Al  Al1  1  0.787465  0.399980  0.702493  1
  Al  Al2  1  0.712535  0.399980  0.202493  1
  Al  Al3  1  0.212535  0.600020  0.297507  1
  Al  Al4  1  0.216626  0.172506  0.545701  1
  Al  Al5  1  0.716626  0.827494  0.954299  1
  Al  Al6  1  0.783374  0.827494  0.454299  1
  Al  Al7  1  0.283374  0.172506  0.045701  1
  Tl  Tl8  1  0.381228  0.886098  0.380723  1
  Tl  Tl9  1  0.881228  0.113902  0.119277  1
  Tl  Tl10  1  0.618772  0.113902  0.619277  1
  Tl  Tl11  1  0.118772  0.886098  0.880723  1
  Br  Br12  1  0.406793  0.378939  0.915450  1
  Br  Br13  1  0.906793  0.621061  0.584550  1
  Br  Br14  1  0.593207  0.621061  0.084550  1
  Br  Br15  1  0.093207  0.378939  0.415450  1
  Br  Br16  1  0.132670  0.152123  0.950842  1
  Br  Br17  1  0.632670  0.847877  0.549158  1
  Br  Br18  1  0.867330  0.847877  0.049158  1
  Br  Br19  1  0.367330  0.152123  0.450842  1
  Br  Br20  1  0.213717  0.207371  0.174306  1
  Br  Br21  1  0.713717  0.792629  0.325694  1
  Br  Br22  1  0.786283  0.792629  0.825694  1
  Br  Br23  1  0.286283  0.207371  0.674306  1
  Br  Br24  1  0.417120  0.983992  0.119829  1
  Br  Br25  1  0.917120  0.016008  0.380171  1
  Br  Br26  1  0.582880  0.016008  0.880171  1
  Br  Br27  1  0.082880  0.983992  0.619829  1
  Br  Br28  1  0.223615  0.618767  0.135943  1
  Br  Br29  1  0.723615  0.381233  0.364057  1
  Br  Br30  1  0.776385  0.381233  0.864057  1
  Br  Br31  1  0.276385  0.618767  0.635943  1
  Br  Br32  1  0.105154  0.778453  0.294369  1
  Br  Br33  1  0.605154  0.221547  0.205631  1
  Br  Br34  1  0.894846  0.221547  0.705631  1
  Br  Br35  1  0.394846  0.778453  0.794369  1
  Br  Br36  1  0.391783  0.567337  0.379658  1
  Br  Br37  1  0.891783  0.432663  0.120342  1
  Br  Br38  1  0.608217  0.432663  0.620342  1
  Br  Br39  1  0.108217  0.567337  0.879658  1
