# generated using pymatgen
data_CaScGaS4
_symmetry_space_group_name_H-M   'P 1'
_cell_length_a   13.75068000
_cell_length_b   7.75837200
_cell_length_c   6.21881500
_cell_angle_alpha   90.00000000
_cell_angle_beta   90.00000000
_cell_angle_gamma   90.00000000
_symmetry_Int_Tables_number   1
_chemical_formula_structural   CaScGaS4
_chemical_formula_sum   'Ca4 Sc4 Ga4 S16'
_cell_volume   663.44116088
_cell_formula_units_Z   4
loop_
 _symmetry_equiv_pos_site_id
 _symmetry_equiv_pos_as_xyz
  1  'x, y, z'
loop_
 _atom_site_type_symbol
 _atom_site_label
 _atom_site_symmetry_multiplicity
 _atom_site_fract_x
 _atom_site_fract_y
 _atom_site_fract_z
 _atom_site_occupancy
  Ca  Ca0  1  0.734303  0.750001  0.006005  1
  Ca  Ca1  1  0.234303  0.750001  0.493995  1
  Ca  Ca2  1  0.765697  0.250000  0.506005  1
  Ca  Ca3  1  0.265697  0.250000  0.993994  1
  Sc  Sc4  1  0.000000  0.000000  0.000000  1
  Sc  Sc5  1  0.000000  0.499999  0.000000  1
  Sc  Sc6  1  0.500000  0.000000  0.500000  1
  Sc  Sc7  1  0.500000  0.499999  0.500000  1
  Ga  Ga8  1  0.583611  0.250000  0.095397  1
  Ga  Ga9  1  0.083611  0.250000  0.404603  1
  Ga  Ga10  1  0.916389  0.750001  0.595398  1
  Ga  Ga11  1  0.416389  0.750001  0.904603  1
  S  S12  1  0.917684  0.750001  0.229038  1
  S  S13  1  0.153720  0.015183  0.241370  1
  S  S14  1  0.153720  0.484817  0.241370  1
  S  S15  1  0.932355  0.250000  0.234445  1
  S  S16  1  0.432355  0.250000  0.265555  1
  S  S17  1  0.653720  0.015183  0.258630  1
  S  S18  1  0.653720  0.484817  0.258630  1
  S  S19  1  0.417683  0.750001  0.270961  1
  S  S20  1  0.582316  0.250000  0.729038  1
  S  S21  1  0.346280  0.515184  0.741370  1
  S  S22  1  0.346280  0.984816  0.741370  1
  S  S23  1  0.567645  0.750001  0.734444  1
  S  S24  1  0.067645  0.750001  0.765555  1
  S  S25  1  0.846280  0.515184  0.758629  1
  S  S26  1  0.846280  0.984816  0.758629  1
  S  S27  1  0.082317  0.250000  0.770961  1
