# generated using pymatgen
data_Lu3UGe3As3Ru7
_symmetry_space_group_name_H-M   'P 1'
_cell_length_a   7.20901739
_cell_length_b   7.16315925
_cell_length_c   7.16417830
_cell_angle_alpha   109.11005811
_cell_angle_beta   109.62271812
_cell_angle_gamma   109.80327583
_symmetry_Int_Tables_number   1
_chemical_formula_structural   Lu3UGe3As3Ru7
_chemical_formula_sum   'Lu3 U1 Ge3 As3 Ru7'
_cell_volume   284.35092325
_cell_formula_units_Z   1
loop_
 _symmetry_equiv_pos_site_id
 _symmetry_equiv_pos_as_xyz
  1  'x, y, z'
loop_
 _atom_site_type_symbol
 _atom_site_label
 _atom_site_symmetry_multiplicity
 _atom_site_fract_x
 _atom_site_fract_y
 _atom_site_fract_z
 _atom_site_occupancy
  Lu  Lu0  1  0.001223  0.999868  0.500966  1
  Lu  Lu1  1  0.001202  0.500502  0.001065  1
  Lu  Lu2  1  0.500653  0.499437  0.500459  1
  U  U3  1  0.501195  0.000022  0.001786  1
  Ge  Ge4  1  0.307154  0.999775  0.312959  1
  Ge  Ge5  1  0.006353  0.317269  0.317841  1
  Ge  Ge6  1  0.995838  0.683113  0.683827  1
  As  As7  1  0.309174  0.313767  0.000635  1
  As  As8  1  0.692658  0.686039  0.000778  1
  As  As9  1  0.687228  0.000093  0.682323  1
  Ru  Ru10  1  0.744639  0.489725  0.244055  1
  Ru  Ru11  1  0.499287  0.754991  0.244395  1
  Ru  Ru12  1  0.500339  0.246215  0.755377  1
  Ru  Ru13  1  0.744016  0.243388  0.489244  1
  Ru  Ru14  1  0.255384  0.755671  0.510029  1
  Ru  Ru15  1  0.256082  0.510151  0.757405  1
  Ru  Ru16  1  0.997575  0.999974  0.996856  1
