# generated using pymatgen
data_Tb3Cd(Rh2O7)2
_symmetry_space_group_name_H-M   'P 1'
_cell_length_a   7.30525389
_cell_length_b   7.18919888
_cell_length_c   7.30525400
_cell_angle_alpha   59.46455129
_cell_angle_beta   60.00000858
_cell_angle_gamma   59.46454303
_symmetry_Int_Tables_number   1
_chemical_formula_structural   Tb3Cd(Rh2O7)2
_chemical_formula_sum   'Tb3 Cd1 Rh4 O14'
_cell_volume   269.07505077
_cell_formula_units_Z   1
loop_
 _symmetry_equiv_pos_site_id
 _symmetry_equiv_pos_as_xyz
  1  'x, y, z'
loop_
 _atom_site_type_symbol
 _atom_site_label
 _atom_site_symmetry_multiplicity
 _atom_site_fract_x
 _atom_site_fract_y
 _atom_site_fract_z
 _atom_site_occupancy
  Tb  Tb0  1  0.125000  0.125000  0.125000  1
  Tb  Tb1  1  0.625000  0.125000  0.125000  1
  Tb  Tb2  1  0.125000  0.125000  0.625000  1
  Cd  Cd3  1  0.125000  0.625000  0.125000  1
  Rh  Rh4  1  0.625000  0.625000  0.625000  1
  Rh  Rh5  1  0.625000  0.625000  0.125000  1
  Rh  Rh6  1  0.125000  0.625000  0.625000  1
  Rh  Rh7  1  0.625000  0.125000  0.625000  1
  O  O8  1  0.249928  0.250214  0.249928  1
  O  O9  1  0.296258  0.708971  0.296258  1
  O  O10  1  0.959670  0.963477  0.538426  1
  O  O11  1  0.538426  0.963477  0.538426  1
  O  O12  1  0.698512  0.708971  0.296258  1
  O  O13  1  0.953742  0.541029  0.551488  1
  O  O14  1  0.711574  0.286523  0.711574  1
  O  O15  1  0.290330  0.286523  0.711574  1
  O  O16  1  0.711574  0.286523  0.290330  1
  O  O17  1  0.296258  0.708971  0.698512  1
  O  O18  1  0.953742  0.541029  0.953742  1
  O  O19  1  0.551488  0.541029  0.953742  1
  O  O20  1  0.000072  0.999786  0.000072  1
  O  O21  1  0.538426  0.963477  0.959670  1
