# generated using pymatgen
data_KMn3Cl5O
_symmetry_space_group_name_H-M   'P 1'
_cell_length_a   6.39288250
_cell_length_b   6.38152689
_cell_length_c   7.29062300
_cell_angle_alpha   69.64805017
_cell_angle_beta   94.98781483
_cell_angle_gamma   120.05412409
_symmetry_Int_Tables_number   1
_chemical_formula_structural   KMn3Cl5O
_chemical_formula_sum   'K1 Mn3 Cl5 O1'
_cell_volume   239.97239776
_cell_formula_units_Z   1
loop_
 _symmetry_equiv_pos_site_id
 _symmetry_equiv_pos_as_xyz
  1  'x, y, z'
loop_
 _atom_site_type_symbol
 _atom_site_label
 _atom_site_symmetry_multiplicity
 _atom_site_fract_x
 _atom_site_fract_y
 _atom_site_fract_z
 _atom_site_occupancy
  K  K0  1  0.252749  0.077893  0.526814  1
  Mn  Mn1  1  0.715488  0.394493  0.967847  1
  Mn  Mn2  1  0.309655  0.678740  0.987643  1
  Mn  Mn3  1  0.009596  0.980187  0.988284  1
  Cl  Cl4  1  0.343465  0.937672  0.201496  1
  Cl  Cl5  1  0.973514  0.222733  0.200438  1
  Cl  Cl6  1  0.625640  0.581020  0.201914  1
  Cl  Cl7  1  0.703232  0.109439  0.775772  1
  Cl  Cl8  1  0.367624  0.443882  0.776203  1
  O  O9  1  0.032372  0.740609  0.873589  1
