# generated using pymatgen
data_Nd2Ga3Si2Pt3
_symmetry_space_group_name_H-M   'P 1'
_cell_length_a   8.47323407
_cell_length_b   8.47323390
_cell_length_c   8.47323395
_cell_angle_alpha   137.89207151
_cell_angle_beta   105.53649159
_cell_angle_gamma   89.44222072
_symmetry_Int_Tables_number   1
_chemical_formula_structural   Nd2Ga3Si2Pt3
_chemical_formula_sum   'Nd4 Ga6 Si4 Pt6'
_cell_volume   375.81487040
_cell_formula_units_Z   2
loop_
 _symmetry_equiv_pos_site_id
 _symmetry_equiv_pos_as_xyz
  1  'x, y, z'
loop_
 _atom_site_type_symbol
 _atom_site_label
 _atom_site_symmetry_multiplicity
 _atom_site_fract_x
 _atom_site_fract_y
 _atom_site_fract_z
 _atom_site_occupancy
  Nd  Nd0  1  0.105262  0.869208  0.236053  1
  Nd  Nd1  1  0.894738  0.130792  0.763947  1
  Nd  Nd2  1  0.633155  0.369208  0.263947  1
  Nd  Nd3  1  0.366845  0.630792  0.736053  1
  Ga  Ga4  1  0.000000  0.750000  0.750000  1
  Ga  Ga5  1  0.000000  0.250000  0.250000  1
  Ga  Ga6  1  0.268085  0.018085  0.750000  1
  Ga  Ga7  1  0.731915  0.481915  0.750000  1
  Ga  Ga8  1  0.731915  0.981915  0.250000  1
  Ga  Ga9  1  0.268085  0.518085  0.250000  1
  Si  Si10  1  0.753874  0.607493  0.146381  1
  Si  Si11  1  0.246126  0.392507  0.853619  1
  Si  Si12  1  0.461112  0.107493  0.353619  1
  Si  Si13  1  0.538888  0.892507  0.646381  1
  Pt  Pt14  1  0.500000  0.750000  0.250000  1
  Pt  Pt15  1  0.500000  0.250000  0.750000  1
  Pt  Pt16  1  0.008851  0.634914  0.373937  1
  Pt  Pt17  1  0.991149  0.365086  0.626063  1
  Pt  Pt18  1  0.260977  0.134914  0.126063  1
  Pt  Pt19  1  0.739023  0.865086  0.873937  1
