# generated using pymatgen
data_Ho2ThSi6(Pd3Pt2)4
_symmetry_space_group_name_H-M   'P 1'
_cell_length_a   8.74895947
_cell_length_b   8.74896029
_cell_length_c   8.74896000
_cell_angle_alpha   60.00000109
_cell_angle_beta   59.99999798
_cell_angle_gamma   59.99999522
_symmetry_Int_Tables_number   1
_chemical_formula_structural   Ho2ThSi6(Pd3Pt2)4
_chemical_formula_sum   'Ho2 Th1 Si6 Pd12 Pt8'
_cell_volume   473.53737694
_cell_formula_units_Z   1
loop_
 _symmetry_equiv_pos_site_id
 _symmetry_equiv_pos_as_xyz
  1  'x, y, z'
loop_
 _atom_site_type_symbol
 _atom_site_label
 _atom_site_symmetry_multiplicity
 _atom_site_fract_x
 _atom_site_fract_y
 _atom_site_fract_z
 _atom_site_occupancy
  Ho  Ho0  1  0.750000  0.750000  0.750000  1
  Ho  Ho1  1  0.000000  0.000000  0.000000  1
  Th  Th2  1  0.250000  0.250000  0.250000  1
  Si  Si3  1  0.731972  0.268028  0.268028  1
  Si  Si4  1  0.268028  0.731972  0.731972  1
  Si  Si5  1  0.268028  0.731972  0.268028  1
  Si  Si6  1  0.731972  0.268028  0.731972  1
  Si  Si7  1  0.268028  0.268028  0.731972  1
  Si  Si8  1  0.731972  0.731972  0.268028  1
  Pd  Pd9  1  0.344446  0.000126  0.000126  1
  Pd  Pd10  1  0.655302  0.000126  0.000126  1
  Pd  Pd11  1  0.000126  0.344446  0.655302  1
  Pd  Pd12  1  0.000126  0.655302  0.344446  1
  Pd  Pd13  1  0.000126  0.344446  0.000126  1
  Pd  Pd14  1  0.655302  0.000126  0.344446  1
  Pd  Pd15  1  0.000126  0.655302  0.000126  1
  Pd  Pd16  1  0.344446  0.000126  0.655302  1
  Pd  Pd17  1  0.000126  0.000126  0.344446  1
  Pd  Pd18  1  0.000126  0.000126  0.655302  1
  Pd  Pd19  1  0.655302  0.344446  0.000126  1
  Pd  Pd20  1  0.344446  0.655302  0.000126  1
  Pt  Pt21  1  0.384587  0.384587  0.384587  1
  Pt  Pt22  1  0.617100  0.617100  0.617100  1
  Pt  Pt23  1  0.384587  0.384587  0.846240  1
  Pt  Pt24  1  0.384587  0.846240  0.384587  1
  Pt  Pt25  1  0.617100  0.617100  0.148699  1
  Pt  Pt26  1  0.617100  0.148699  0.617100  1
  Pt  Pt27  1  0.846240  0.384587  0.384587  1
  Pt  Pt28  1  0.148699  0.617100  0.617100  1
