# generated using pymatgen
data_Pa4(BRu4)3
_symmetry_space_group_name_H-M   'P 1'
_cell_length_a   4.19200100
_cell_length_b   4.19200100
_cell_length_c   16.44824200
_cell_angle_alpha   90.00000000
_cell_angle_beta   90.00000000
_cell_angle_gamma   90.00000000
_symmetry_Int_Tables_number   1
_chemical_formula_structural   Pa4(BRu4)3
_chemical_formula_sum   'Pa4 B3 Ru12'
_cell_volume   289.04285761
_cell_formula_units_Z   1
loop_
 _symmetry_equiv_pos_site_id
 _symmetry_equiv_pos_as_xyz
  1  'x, y, z'
loop_
 _atom_site_type_symbol
 _atom_site_label
 _atom_site_symmetry_multiplicity
 _atom_site_fract_x
 _atom_site_fract_y
 _atom_site_fract_z
 _atom_site_occupancy
  Pa  Pa0  1  0.000000  0.000000  0.882880  1
  Pa  Pa1  1  0.000000  0.000000  0.117120  1
  Pa  Pa2  1  0.000000  0.000000  0.371836  1
  Pa  Pa3  1  0.000000  0.000000  0.628164  1
  B  B4  1  0.500000  0.500000  0.239367  1
  B  B5  1  0.500000  0.500000  0.500000  1
  B  B6  1  0.500000  0.500000  0.760633  1
  Ru  Ru7  1  0.500000  0.500000  0.885324  1
  Ru  Ru8  1  0.500000  0.500000  0.114676  1
  Ru  Ru9  1  0.500000  0.500000  0.372032  1
  Ru  Ru10  1  0.500000  0.500000  0.627968  1
  Ru  Ru11  1  0.500000  0.000000  0.000000  1
  Ru  Ru12  1  0.500000  0.000000  0.248437  1
  Ru  Ru13  1  0.500000  0.000000  0.500000  1
  Ru  Ru14  1  0.500000  0.000000  0.751563  1
  Ru  Ru15  1  0.000000  0.500000  0.000000  1
  Ru  Ru16  1  0.000000  0.500000  0.248437  1
  Ru  Ru17  1  0.000000  0.500000  0.500000  1
  Ru  Ru18  1  0.000000  0.500000  0.751563  1
