# generated using pymatgen
data_NaCu9Si4
_symmetry_space_group_name_H-M   'P 1'
_cell_length_a   8.17094404
_cell_length_b   8.17094438
_cell_length_c   8.17094333
_cell_angle_alpha   120.54980168
_cell_angle_beta   120.54980172
_cell_angle_gamma   89.05032257
_symmetry_Int_Tables_number   1
_chemical_formula_structural   NaCu9Si4
_chemical_formula_sum   'Na2 Cu18 Si8'
_cell_volume   382.48361654
_cell_formula_units_Z   2
loop_
 _symmetry_equiv_pos_site_id
 _symmetry_equiv_pos_as_xyz
  1  'x, y, z'
loop_
 _atom_site_type_symbol
 _atom_site_label
 _atom_site_symmetry_multiplicity
 _atom_site_fract_x
 _atom_site_fract_y
 _atom_site_fract_z
 _atom_site_occupancy
  Na  Na0  1  0.250000  0.250000  0.000000  1
  Na  Na1  1  0.750000  0.750000  0.000000  1
  Cu  Cu2  1  0.935441  0.203676  0.139117  1
  Cu  Cu3  1  0.203676  0.064559  0.268235  1
  Cu  Cu4  1  0.796324  0.935441  0.731765  1
  Cu  Cu5  1  0.435441  0.296324  0.731765  1
  Cu  Cu6  1  0.064559  0.796324  0.860883  1
  Cu  Cu7  1  0.808390  0.059098  0.500000  1
  Cu  Cu8  1  0.559098  0.308390  0.500000  1
  Cu  Cu9  1  0.191610  0.940902  0.500000  1
  Cu  Cu10  1  0.440902  0.691610  0.500000  1
  Cu  Cu11  1  0.940902  0.440902  0.749291  1
  Cu  Cu12  1  0.691610  0.191610  0.250709  1
  Cu  Cu13  1  0.059098  0.559098  0.250709  1
  Cu  Cu14  1  0.703676  0.435441  0.139117  1
  Cu  Cu15  1  0.564559  0.703676  0.268235  1
  Cu  Cu16  1  0.500000  0.000000  0.500000  1
  Cu  Cu17  1  0.000000  0.500000  0.500000  1
  Cu  Cu18  1  0.308390  0.808390  0.749291  1
  Cu  Cu19  1  0.296324  0.564559  0.860883  1
  Si  Si20  1  0.792818  0.292818  0.853078  1
  Si  Si21  1  0.560260  0.060260  0.853078  1
  Si  Si22  1  0.060260  0.207182  0.500000  1
  Si  Si23  1  0.292818  0.439740  0.500000  1
  Si  Si24  1  0.939740  0.792818  0.500000  1
  Si  Si25  1  0.439740  0.939740  0.146922  1
  Si  Si26  1  0.207182  0.707182  0.146922  1
  Si  Si27  1  0.707182  0.560260  0.500000  1
