# generated using pymatgen
data_Y3Si6Pd17Pt3
_symmetry_space_group_name_H-M   'P 1'
_cell_length_a   8.74066370
_cell_length_b   8.74066400
_cell_length_c   8.75355413
_cell_angle_alpha   59.78432923
_cell_angle_beta   59.78432900
_cell_angle_gamma   59.76690182
_symmetry_Int_Tables_number   1
_chemical_formula_structural   Y3Si6Pd17Pt3
_chemical_formula_sum   'Y3 Si6 Pd17 Pt3'
_cell_volume   470.51003938
_cell_formula_units_Z   1
loop_
 _symmetry_equiv_pos_site_id
 _symmetry_equiv_pos_as_xyz
  1  'x, y, z'
loop_
 _atom_site_type_symbol
 _atom_site_label
 _atom_site_symmetry_multiplicity
 _atom_site_fract_x
 _atom_site_fract_y
 _atom_site_fract_z
 _atom_site_occupancy
  Y  Y0  1  0.250786  0.250786  0.249767  1
  Y  Y1  1  0.749134  0.749134  0.750204  1
  Y  Y2  1  0.999968  0.999968  0.000121  1
  Si  Si3  1  0.730970  0.268145  0.267008  1
  Si  Si4  1  0.269643  0.731004  0.732268  1
  Si  Si5  1  0.268145  0.730970  0.267008  1
  Si  Si6  1  0.731004  0.269643  0.732268  1
  Si  Si7  1  0.268577  0.268577  0.730720  1
  Si  Si8  1  0.732453  0.732453  0.268370  1
  Pd  Pd9  1  0.381869  0.850044  0.382435  1
  Pd  Pd10  1  0.617751  0.617751  0.150280  1
  Pd  Pd11  1  0.619434  0.148865  0.616142  1
  Pd  Pd12  1  0.850044  0.381869  0.382435  1
  Pd  Pd13  1  0.148865  0.619434  0.616142  1
  Pd  Pd14  1  0.344667  0.000119  0.000759  1
  Pd  Pd15  1  0.654732  0.999595  0.000691  1
  Pd  Pd16  1  0.999805  0.344910  0.655846  1
  Pd  Pd17  1  0.999453  0.655050  0.345918  1
  Pd  Pd18  1  0.000119  0.344667  0.000759  1
  Pd  Pd19  1  0.655050  0.999453  0.345918  1
  Pd  Pd20  1  0.999595  0.654732  0.000691  1
  Pd  Pd21  1  0.344910  0.999805  0.655846  1
  Pd  Pd22  1  0.999799  0.999799  0.345860  1
  Pd  Pd23  1  0.999638  0.999638  0.655506  1
  Pd  Pd24  1  0.654899  0.344676  0.000526  1
  Pd  Pd25  1  0.344676  0.654899  0.000526  1
  Pt  Pt26  1  0.384366  0.384366  0.384663  1
  Pt  Pt27  1  0.616791  0.616791  0.613695  1
  Pt  Pt28  1  0.382857  0.382857  0.847632  1
