# generated using pymatgen
data_CaLa2Th(ZnSn)4
_symmetry_space_group_name_H-M   'P 1'
_cell_length_a   4.59418400
_cell_length_b   4.59418432
_cell_length_c   17.05658800
_cell_angle_alpha   90.00000000
_cell_angle_beta   90.00000000
_cell_angle_gamma   119.99998330
_symmetry_Int_Tables_number   1
_chemical_formula_structural   CaLa2Th(ZnSn)4
_chemical_formula_sum   'Ca1 La2 Th1 Zn4 Sn4'
_cell_volume   311.77383437
_cell_formula_units_Z   1
loop_
 _symmetry_equiv_pos_site_id
 _symmetry_equiv_pos_as_xyz
  1  'x, y, z'
loop_
 _atom_site_type_symbol
 _atom_site_label
 _atom_site_symmetry_multiplicity
 _atom_site_fract_x
 _atom_site_fract_y
 _atom_site_fract_z
 _atom_site_occupancy
  Ca  Ca0  1  0.000000  0.000000  0.499514  1
  La  La1  1  0.000000  0.000000  0.252470  1
  La  La2  1  0.000000  0.000000  0.999234  1
  Th  Th3  1  0.000000  0.000000  0.748780  1
  Zn  Zn4  1  0.666667  0.333333  0.844617  1
  Zn  Zn5  1  0.666667  0.333333  0.656082  1
  Zn  Zn6  1  0.333333  0.666667  0.153472  1
  Zn  Zn7  1  0.333333  0.666667  0.347464  1
  Sn  Sn8  1  0.666667  0.333333  0.115760  1
  Sn  Sn9  1  0.666667  0.333333  0.384216  1
  Sn  Sn10  1  0.333333  0.666667  0.879194  1
  Sn  Sn11  1  0.333333  0.666667  0.619197  1
