# generated using pymatgen
data_Pr2Dy4MgCo17P12
_symmetry_space_group_name_H-M   'P 1'
_cell_length_a   3.73750500
_cell_length_b   10.62580600
_cell_length_c   12.30127700
_cell_angle_alpha   90.00000000
_cell_angle_beta   90.00000000
_cell_angle_gamma   90.00000000
_symmetry_Int_Tables_number   1
_chemical_formula_structural   Pr2Dy4MgCo17P12
_chemical_formula_sum   'Pr2 Dy4 Mg1 Co17 P12'
_cell_volume   488.53295235
_cell_formula_units_Z   1
loop_
 _symmetry_equiv_pos_site_id
 _symmetry_equiv_pos_as_xyz
  1  'x, y, z'
loop_
 _atom_site_type_symbol
 _atom_site_label
 _atom_site_symmetry_multiplicity
 _atom_site_fract_x
 _atom_site_fract_y
 _atom_site_fract_z
 _atom_site_occupancy
  Pr  Pr0  1  0.000000  0.500000  0.526300  1
  Pr  Pr1  1  0.500000  0.000000  0.477248  1
  Dy  Dy2  1  0.500000  0.821501  0.205734  1
  Dy  Dy3  1  0.500000  0.178499  0.205734  1
  Dy  Dy4  1  0.000000  0.682708  0.796057  1
  Dy  Dy5  1  0.000000  0.317292  0.796057  1
  Mg  Mg6  1  0.500000  0.500000  0.149964  1
  Co  Co7  1  0.000000  0.000000  0.841949  1
  Co  Co8  1  0.500000  0.500000  0.708772  1
  Co  Co9  1  0.000000  0.000000  0.291932  1
  Co  Co10  1  0.000000  0.500000  0.986400  1
  Co  Co11  1  0.500000  0.000000  0.011252  1
  Co  Co12  1  0.500000  0.328973  0.993284  1
  Co  Co13  1  0.500000  0.671027  0.993284  1
  Co  Co14  1  0.000000  0.163298  0.001455  1
  Co  Co15  1  0.000000  0.836702  0.001455  1
  Co  Co16  1  0.500000  0.295585  0.431255  1
  Co  Co17  1  0.500000  0.704415  0.431255  1
  Co  Co18  1  0.000000  0.202793  0.572239  1
  Co  Co19  1  0.000000  0.797207  0.572239  1
  Co  Co20  1  0.500000  0.880755  0.712175  1
  Co  Co21  1  0.500000  0.119245  0.712175  1
  Co  Co22  1  0.000000  0.622364  0.289626  1
  Co  Co23  1  0.000000  0.377636  0.289626  1
  P  P24  1  0.500000  0.500000  0.885280  1
  P  P25  1  0.000000  0.000000  0.114423  1
  P  P26  1  0.500000  0.500000  0.348754  1
  P  P27  1  0.000000  0.000000  0.660280  1
  P  P28  1  0.500000  0.305609  0.619223  1
  P  P29  1  0.500000  0.694391  0.619223  1
  P  P30  1  0.000000  0.193352  0.383878  1
  P  P31  1  0.000000  0.806648  0.383878  1
  P  P32  1  0.500000  0.848808  0.891429  1
  P  P33  1  0.500000  0.151192  0.891429  1
  P  P34  1  0.000000  0.663174  0.102368  1
  P  P35  1  0.000000  0.336826  0.102368  1
