# generated using pymatgen
data_DyHoB10Ir
_symmetry_space_group_name_H-M   'P 1'
_cell_length_a   4.17046100
_cell_length_b   5.67992504
_cell_length_c   11.33846109
_cell_angle_alpha   89.98581382
_cell_angle_beta   90.00000000
_cell_angle_gamma   90.00000000
_symmetry_Int_Tables_number   1
_chemical_formula_structural   DyHoB10Ir
_chemical_formula_sum   'Dy2 Ho2 B20 Ir2'
_cell_volume   268.58439078
_cell_formula_units_Z   2
loop_
 _symmetry_equiv_pos_site_id
 _symmetry_equiv_pos_as_xyz
  1  'x, y, z'
loop_
 _atom_site_type_symbol
 _atom_site_label
 _atom_site_symmetry_multiplicity
 _atom_site_fract_x
 _atom_site_fract_y
 _atom_site_fract_z
 _atom_site_occupancy
  Dy  Dy0  1  0.500000  0.204131  0.365531  1
  Dy  Dy1  1  0.500000  0.795869  0.634469  1
  Ho  Ho2  1  0.500000  0.295910  0.865669  1
  Ho  Ho3  1  0.500000  0.704090  0.134331  1
  B  B4  1  0.000000  0.381477  0.042551  1
  B  B5  1  0.000000  0.618523  0.957449  1
  B  B6  1  0.000000  0.118506  0.542625  1
  B  B7  1  0.000000  0.881494  0.457375  1
  B  B8  1  0.000000  0.363556  0.197263  1
  B  B9  1  0.000000  0.636444  0.802737  1
  B  B10  1  0.000000  0.136503  0.697358  1
  B  B11  1  0.000000  0.863497  0.302642  1
  B  B12  1  0.000000  0.055364  0.193105  1
  B  B13  1  0.000000  0.944636  0.806895  1
  B  B14  1  0.000000  0.444589  0.693223  1
  B  B15  1  0.000000  0.555411  0.306777  1
  B  B16  1  0.301691  0.220143  0.119280  1
  B  B17  1  0.698309  0.779857  0.880720  1
  B  B18  1  0.301691  0.779857  0.880720  1
  B  B19  1  0.698288  0.280058  0.619415  1
  B  B20  1  0.698309  0.220143  0.119280  1
  B  B21  1  0.301712  0.719942  0.380585  1
  B  B22  1  0.698288  0.719942  0.380585  1
  B  B23  1  0.301712  0.280058  0.619415  1
  Ir  Ir24  1  0.000000  0.000000  0.000000  1
  Ir  Ir25  1  0.000000  0.500000  0.500000  1
