# generated using pymatgen
data_Li4Dy8Sc7Si16W
_symmetry_space_group_name_H-M   'P 1'
_cell_length_a   6.88125884
_cell_length_b   7.34130680
_cell_length_c   13.93680109
_cell_angle_alpha   90.05848157
_cell_angle_beta   89.71197429
_cell_angle_gamma   89.80632843
_symmetry_Int_Tables_number   1
_chemical_formula_structural   Li4Dy8Sc7Si16W
_chemical_formula_sum   'Li4 Dy8 Sc7 Si16 W1'
_cell_volume   704.03810931
_cell_formula_units_Z   1
loop_
 _symmetry_equiv_pos_site_id
 _symmetry_equiv_pos_as_xyz
  1  'x, y, z'
loop_
 _atom_site_type_symbol
 _atom_site_label
 _atom_site_symmetry_multiplicity
 _atom_site_fract_x
 _atom_site_fract_y
 _atom_site_fract_z
 _atom_site_occupancy
  Li  Li0  1  0.160898  0.500061  0.744571  1
  Li  Li1  1  0.840307  0.495201  0.252107  1
  Li  Li2  1  0.339829  0.006548  0.250684  1
  Li  Li3  1  0.657949  0.999633  0.745180  1
  Dy  Dy4  1  0.013109  0.181463  0.099302  1
  Dy  Dy5  1  0.987377  0.822541  0.894249  1
  Dy  Dy6  1  0.487360  0.678258  0.896853  1
  Dy  Dy7  1  0.987564  0.825709  0.598291  1
  Dy  Dy8  1  0.513334  0.319007  0.100085  1
  Dy  Dy9  1  0.011695  0.181757  0.401281  1
  Dy  Dy10  1  0.510900  0.319272  0.406046  1
  Dy  Dy11  1  0.487155  0.676333  0.598018  1
  Sc  Sc12  1  0.666787  0.822344  0.378541  1
  Sc  Sc13  1  0.167385  0.680314  0.378747  1
  Sc  Sc14  1  0.667923  0.821405  0.127509  1
  Sc  Sc15  1  0.834603  0.316944  0.624910  1
  Sc  Sc16  1  0.330351  0.179770  0.870811  1
  Sc  Sc17  1  0.830369  0.321037  0.871526  1
  Sc  Sc18  1  0.168685  0.678995  0.126416  1
  Si  Si19  1  0.039786  0.109373  0.744418  1
  Si  Si20  1  0.967817  0.896658  0.251484  1
  Si  Si21  1  0.466859  0.606393  0.251986  1
  Si  Si22  1  0.527286  0.383006  0.745146  1
  Si  Si23  1  0.291873  0.891131  0.744121  1
  Si  Si24  1  0.713512  0.117905  0.251368  1
  Si  Si25  1  0.217886  0.382730  0.251152  1
  Si  Si26  1  0.785038  0.611377  0.745353  1
  Si  Si27  1  0.177064  0.447188  0.537166  1
  Si  Si28  1  0.840541  0.534609  0.468631  1
  Si  Si29  1  0.328963  0.968864  0.476601  1
  Si  Si30  1  0.840974  0.538487  0.034059  1
  Si  Si31  1  0.644261  0.037747  0.543073  1
  Si  Si32  1  0.156698  0.465075  0.963438  1
  Si  Si33  1  0.660268  0.036827  0.964320  1
  Si  Si34  1  0.342426  0.962592  0.033355  1
  W  W35  1  0.335169  0.183448  0.629203  1
