# generated using pymatgen
data_YLu2AlGa4Pd
_symmetry_space_group_name_H-M   'P 1'
_cell_length_a   6.82754100
_cell_length_b   6.89967048
_cell_length_c   4.28837600
_cell_angle_alpha   90.00000000
_cell_angle_beta   90.00000000
_cell_angle_gamma   119.65478605
_symmetry_Int_Tables_number   1
_chemical_formula_structural   YLu2AlGa4Pd
_chemical_formula_sum   'Y1 Lu2 Al1 Ga4 Pd1'
_cell_volume   175.55629532
_cell_formula_units_Z   1
loop_
 _symmetry_equiv_pos_site_id
 _symmetry_equiv_pos_as_xyz
  1  'x, y, z'
loop_
 _atom_site_type_symbol
 _atom_site_label
 _atom_site_symmetry_multiplicity
 _atom_site_fract_x
 _atom_site_fract_y
 _atom_site_fract_z
 _atom_site_occupancy
  Y  Y0  1  0.581376  0.000000  0.500000  1
  Lu  Lu1  1  0.417485  0.419264  0.500000  1
  Lu  Lu2  1  0.998220  0.580736  0.500000  1
  Al  Al3  1  0.233530  0.000000  0.000000  1
  Ga  Ga4  1  0.004150  0.245833  0.000000  1
  Ga  Ga5  1  0.664578  0.333197  0.000000  1
  Ga  Ga6  1  0.331381  0.666803  0.000000  1
  Ga  Ga7  1  0.758316  0.754167  0.000000  1
  Pd  Pd8  1  0.010965  0.000000  0.500000  1
