# generated using pymatgen
data_Dy2Er8CoBi5
_symmetry_space_group_name_H-M   'P 1'
_cell_length_a   8.01922100
_cell_length_b   9.34659600
_cell_length_c   12.03381500
_cell_angle_alpha   90.00000000
_cell_angle_beta   90.00000000
_cell_angle_gamma   90.00000000
_symmetry_Int_Tables_number   1
_chemical_formula_structural   Dy2Er8CoBi5
_chemical_formula_sum   'Dy4 Er16 Co2 Bi10'
_cell_volume   901.96354311
_cell_formula_units_Z   2
loop_
 _symmetry_equiv_pos_site_id
 _symmetry_equiv_pos_as_xyz
  1  'x, y, z'
loop_
 _atom_site_type_symbol
 _atom_site_label
 _atom_site_symmetry_multiplicity
 _atom_site_fract_x
 _atom_site_fract_y
 _atom_site_fract_z
 _atom_site_occupancy
  Dy  Dy0  1  0.573085  0.500000  0.772627  1
  Dy  Dy1  1  0.426915  0.500000  0.272627  1
  Dy  Dy2  1  0.907880  0.000000  0.201143  1
  Dy  Dy3  1  0.092120  0.000000  0.701143  1
  Er  Er4  1  0.429150  0.176501  0.562931  1
  Er  Er5  1  0.570850  0.823499  0.062931  1
  Er  Er6  1  0.070577  0.729001  0.436418  1
  Er  Er7  1  0.929423  0.270999  0.936418  1
  Er  Er8  1  0.070577  0.270999  0.436418  1
  Er  Er9  1  0.929423  0.729001  0.936418  1
  Er  Er10  1  0.429150  0.823499  0.562931  1
  Er  Er11  1  0.570850  0.176501  0.062931  1
  Er  Er12  1  0.259420  0.500000  0.993481  1
  Er  Er13  1  0.740580  0.500000  0.493481  1
  Er  Er14  1  0.198845  0.000000  0.996261  1
  Er  Er15  1  0.801155  0.000000  0.496261  1
  Er  Er16  1  0.089608  0.500000  0.718519  1
  Er  Er17  1  0.910392  0.500000  0.218519  1
  Er  Er18  1  0.371963  0.000000  0.308793  1
  Er  Er19  1  0.628037  0.000000  0.808793  1
  Co  Co20  1  0.172589  0.000000  0.487832  1
  Co  Co21  1  0.827411  0.000000  0.987832  1
  Bi  Bi22  1  0.813774  0.741541  0.671898  1
  Bi  Bi23  1  0.186226  0.258459  0.171898  1
  Bi  Bi24  1  0.680271  0.241983  0.325677  1
  Bi  Bi25  1  0.319729  0.758017  0.825677  1
  Bi  Bi26  1  0.680271  0.758017  0.325677  1
  Bi  Bi27  1  0.319729  0.241983  0.825677  1
  Bi  Bi28  1  0.813774  0.258459  0.671898  1
  Bi  Bi29  1  0.186226  0.741541  0.171898  1
  Bi  Bi30  1  0.346038  0.500000  0.527495  1
  Bi  Bi31  1  0.653962  0.500000  0.027495  1
