# generated using pymatgen
data_Zr2TiIr3
_symmetry_space_group_name_H-M   'P 1'
_cell_length_a   5.12057079
_cell_length_b   5.43843242
_cell_length_c   5.43843200
_cell_angle_alpha   59.99999038
_cell_angle_beta   57.92439369
_cell_angle_gamma   57.92440391
_symmetry_Int_Tables_number   1
_chemical_formula_structural   Zr2TiIr3
_chemical_formula_sum   'Zr2 Ti1 Ir3'
_cell_volume   103.60678138
_cell_formula_units_Z   1
loop_
 _symmetry_equiv_pos_site_id
 _symmetry_equiv_pos_as_xyz
  1  'x, y, z'
loop_
 _atom_site_type_symbol
 _atom_site_label
 _atom_site_symmetry_multiplicity
 _atom_site_fract_x
 _atom_site_fract_y
 _atom_site_fract_z
 _atom_site_occupancy
  Zr  Zr0  1  0.243880  0.252040  0.252040  1
  Zr  Zr1  1  0.006120  0.997960  0.997960  1
  Ti  Ti2  1  0.125000  0.625000  0.625000  1
  Ir  Ir3  1  0.625000  0.125000  0.625000  1
  Ir  Ir4  1  0.625000  0.625000  0.125000  1
  Ir  Ir5  1  0.625000  0.625000  0.625000  1
