# generated using pymatgen
data_Tb4Ho2Al24ZnRu7
_symmetry_space_group_name_H-M   'P 1'
_cell_length_a   8.83813674
_cell_length_b   8.83813622
_cell_length_c   9.53984544
_cell_angle_alpha   90.03639450
_cell_angle_beta   89.96360551
_cell_angle_gamma   119.97757740
_symmetry_Int_Tables_number   1
_chemical_formula_structural   Tb4Ho2Al24ZnRu7
_chemical_formula_sum   'Tb4 Ho2 Al24 Zn1 Ru7'
_cell_volume   645.49271212
_cell_formula_units_Z   1
loop_
 _symmetry_equiv_pos_site_id
 _symmetry_equiv_pos_as_xyz
  1  'x, y, z'
loop_
 _atom_site_type_symbol
 _atom_site_label
 _atom_site_symmetry_multiplicity
 _atom_site_fract_x
 _atom_site_fract_y
 _atom_site_fract_z
 _atom_site_occupancy
  Tb  Tb0  1  0.192948  0.385861  0.247407  1
  Tb  Tb1  1  0.807052  0.614139  0.752593  1
  Tb  Tb2  1  0.614139  0.807052  0.247407  1
  Tb  Tb3  1  0.385861  0.192948  0.752593  1
  Ho  Ho4  1  0.194345  0.805655  0.253313  1
  Ho  Ho5  1  0.805655  0.194345  0.746687  1
  Al  Al6  1  0.328898  0.671102  0.021009  1
  Al  Al7  1  0.671102  0.328898  0.978991  1
  Al  Al8  1  0.666413  0.333587  0.515931  1
  Al  Al9  1  0.333587  0.666413  0.484069  1
  Al  Al10  1  0.162032  0.324317  0.576666  1
  Al  Al11  1  0.837968  0.675683  0.423334  1
  Al  Al12  1  0.675683  0.837968  0.576666  1
  Al  Al13  1  0.849789  0.678064  0.081821  1
  Al  Al14  1  0.324317  0.162032  0.423334  1
  Al  Al15  1  0.150211  0.321936  0.918179  1
  Al  Al16  1  0.162482  0.837518  0.578023  1
  Al  Al17  1  0.321936  0.150211  0.081821  1
  Al  Al18  1  0.837518  0.162482  0.421977  1
  Al  Al19  1  0.678064  0.849789  0.918179  1
  Al  Al20  1  0.837231  0.162769  0.078056  1
  Al  Al21  1  0.162769  0.837231  0.921944  1
  Al  Al22  1  0.560995  0.121244  0.248530  1
  Al  Al23  1  0.439005  0.878756  0.751470  1
  Al  Al24  1  0.878756  0.439005  0.248530  1
  Al  Al25  1  0.121244  0.560995  0.751470  1
  Al  Al26  1  0.563698  0.436302  0.254753  1
  Al  Al27  1  0.436302  0.563698  0.745247  1
  Al  Al28  1  0.999349  0.000651  0.250320  1
  Al  Al29  1  0.000651  0.999349  0.749680  1
  Zn  Zn30  1  0.500000  0.500000  0.000000  1
  Ru  Ru31  1  0.500000  0.000000  0.000000  1
  Ru  Ru32  1  0.000000  0.500000  0.000000  1
  Ru  Ru33  1  0.500000  0.000000  0.500000  1
  Ru  Ru34  1  0.000000  0.500000  0.500000  1
  Ru  Ru35  1  0.500000  0.500000  0.500000  1
  Ru  Ru36  1  0.000000  0.000000  0.000000  1
  Ru  Ru37  1  0.000000  0.000000  0.500000  1
