# generated using pymatgen
data_Y3Er14Tm3Pb16
_symmetry_space_group_name_H-M   'P 1'
_cell_length_a   8.17879800
_cell_length_b   8.24198814
_cell_length_c   15.56919400
_cell_angle_alpha   90.04125831
_cell_angle_beta   89.99930647
_cell_angle_gamma   90.00194697
_symmetry_Int_Tables_number   1
_chemical_formula_structural   Y3Er14Tm3Pb16
_chemical_formula_sum   'Y3 Er14 Tm3 Pb16'
_cell_volume   1049.51218411
_cell_formula_units_Z   1
loop_
 _symmetry_equiv_pos_site_id
 _symmetry_equiv_pos_as_xyz
  1  'x, y, z'
loop_
 _atom_site_type_symbol
 _atom_site_label
 _atom_site_symmetry_multiplicity
 _atom_site_fract_x
 _atom_site_fract_y
 _atom_site_fract_z
 _atom_site_occupancy
  Y  Y0  1  0.463442  0.676376  0.400136  1
  Y  Y1  1  0.963491  0.823645  0.099856  1
  Y  Y2  1  0.463131  0.676017  0.099594  1
  Er  Er3  1  0.376534  0.842388  0.878129  1
  Er  Er4  1  0.876683  0.657742  0.621731  1
  Er  Er5  1  0.622779  0.157955  0.378608  1
  Er  Er6  1  0.122740  0.341994  0.121386  1
  Er  Er7  1  0.622609  0.158055  0.121253  1
  Er  Er8  1  0.122657  0.342017  0.378749  1
  Er  Er9  1  0.376941  0.842486  0.621941  1
  Er  Er10  1  0.876902  0.657477  0.878060  1
  Er  Er11  1  0.537902  0.324199  0.899625  1
  Er  Er12  1  0.037866  0.175824  0.600417  1
  Er  Er13  1  0.209106  0.504411  0.750002  1
  Er  Er14  1  0.709075  0.995540  0.749965  1
  Er  Er15  1  0.791124  0.495458  0.249914  1
  Er  Er16  1  0.290949  0.004645  0.250150  1
  Tm  Tm17  1  0.962522  0.824380  0.400308  1
  Tm  Tm18  1  0.536720  0.323939  0.599702  1
  Tm  Tm19  1  0.036723  0.176058  0.900280  1
  Pb  Pb20  1  0.282012  0.034380  0.041866  1
  Pb  Pb21  1  0.782317  0.466164  0.458029  1
  Pb  Pb22  1  0.718500  0.967193  0.542296  1
  Pb  Pb23  1  0.217618  0.532196  0.957016  1
  Pb  Pb24  1  0.717366  0.966944  0.956986  1
  Pb  Pb25  1  0.217388  0.533034  0.543045  1
  Pb  Pb26  1  0.281276  0.033706  0.457978  1
  Pb  Pb27  1  0.782661  0.465265  0.041821  1
  Pb  Pb28  1  0.570664  0.625386  0.749967  1
  Pb  Pb29  1  0.070701  0.874604  0.750064  1
  Pb  Pb30  1  0.429087  0.373520  0.250039  1
  Pb  Pb31  1  0.929022  0.126155  0.250094  1
  Pb  Pb32  1  0.350236  0.155187  0.749917  1
  Pb  Pb33  1  0.850141  0.344826  0.750159  1
  Pb  Pb34  1  0.651191  0.846524  0.250021  1
  Pb  Pb35  1  0.149925  0.654314  0.250897  1
