# generated using pymatgen
data_Nd2ScTi2(Co2Si5)2
_symmetry_space_group_name_H-M   'P 1'
_cell_length_a   12.13699500
_cell_length_b   12.13699500
_cell_length_c   3.98257100
_cell_angle_alpha   90.00000000
_cell_angle_beta   90.00000000
_cell_angle_gamma   90.00000000
_symmetry_Int_Tables_number   1
_chemical_formula_structural   Nd2ScTi2(Co2Si5)2
_chemical_formula_sum   'Nd4 Sc2 Ti4 Co8 Si20'
_cell_volume   586.65918296
_cell_formula_units_Z   2
loop_
 _symmetry_equiv_pos_site_id
 _symmetry_equiv_pos_as_xyz
  1  'x, y, z'
loop_
 _atom_site_type_symbol
 _atom_site_label
 _atom_site_symmetry_multiplicity
 _atom_site_fract_x
 _atom_site_fract_y
 _atom_site_fract_z
 _atom_site_occupancy
  Nd  Nd0  1  0.884889  0.384889  0.500000  1
  Nd  Nd1  1  0.384889  0.115111  0.500000  1
  Nd  Nd2  1  0.615111  0.884889  0.500000  1
  Nd  Nd3  1  0.115111  0.615111  0.500000  1
  Sc  Sc4  1  0.000000  0.000000  0.000000  1
  Sc  Sc5  1  0.500000  0.500000  0.000000  1
  Ti  Ti6  1  0.675447  0.175447  0.500000  1
  Ti  Ti7  1  0.175447  0.324553  0.500000  1
  Ti  Ti8  1  0.824553  0.675447  0.500000  1
  Ti  Ti9  1  0.324553  0.824553  0.500000  1
  Co  Co10  1  0.524305  0.257914  0.000000  1
  Co  Co11  1  0.257914  0.475695  0.000000  1
  Co  Co12  1  0.742086  0.524305  0.000000  1
  Co  Co13  1  0.475695  0.742086  0.000000  1
  Co  Co14  1  0.975695  0.757914  0.000000  1
  Co  Co15  1  0.024305  0.242086  0.000000  1
  Co  Co16  1  0.757914  0.024305  0.000000  1
  Co  Co17  1  0.242086  0.975695  0.000000  1
  Si  Si18  1  0.573787  0.073787  0.000000  1
  Si  Si19  1  0.073787  0.426213  0.000000  1
  Si  Si20  1  0.926213  0.573787  0.000000  1
  Si  Si21  1  0.426213  0.926213  0.000000  1
  Si  Si22  1  0.193383  0.160277  0.000000  1
  Si  Si23  1  0.160277  0.806617  0.000000  1
  Si  Si24  1  0.839723  0.193383  0.000000  1
  Si  Si25  1  0.806617  0.839723  0.000000  1
  Si  Si26  1  0.306617  0.660277  0.000000  1
  Si  Si27  1  0.693383  0.339723  0.000000  1
  Si  Si28  1  0.660277  0.693383  0.000000  1
  Si  Si29  1  0.339723  0.306617  0.000000  1
  Si  Si30  1  0.017059  0.161199  0.500000  1
  Si  Si31  1  0.161199  0.982941  0.500000  1
  Si  Si32  1  0.838801  0.017059  0.500000  1
  Si  Si33  1  0.982941  0.838801  0.500000  1
  Si  Si34  1  0.482941  0.661199  0.500000  1
  Si  Si35  1  0.517059  0.338801  0.500000  1
  Si  Si36  1  0.661199  0.517059  0.500000  1
  Si  Si37  1  0.338801  0.482941  0.500000  1
