# generated using pymatgen
data_Zn22IrPdRh2
_symmetry_space_group_name_H-M   'P 1'
_cell_length_a   7.92217862
_cell_length_b   7.91888944
_cell_length_c   7.91681444
_cell_angle_alpha   109.46108472
_cell_angle_beta   109.47791936
_cell_angle_gamma   109.49368667
_symmetry_Int_Tables_number   1
_chemical_formula_structural   Zn22IrPdRh2
_chemical_formula_sum   'Zn22 Ir1 Pd1 Rh2'
_cell_volume   382.23937788
_cell_formula_units_Z   1
loop_
 _symmetry_equiv_pos_site_id
 _symmetry_equiv_pos_as_xyz
  1  'x, y, z'
loop_
 _atom_site_type_symbol
 _atom_site_label
 _atom_site_symmetry_multiplicity
 _atom_site_fract_x
 _atom_site_fract_y
 _atom_site_fract_z
 _atom_site_occupancy
  Zn  Zn0  1  0.999435  0.789798  0.000000  1
  Zn  Zn1  1  0.784886  0.997800  0.000000  1
  Zn  Zn2  1  0.999196  0.997716  0.784522  1
  Zn  Zn3  1  0.214674  0.213194  0.215478  1
  Zn  Zn4  1  0.351966  0.618071  0.352422  1
  Zn  Zn5  1  0.265490  0.000556  0.648521  1
  Zn  Zn6  1  0.650490  0.000929  0.266620  1
  Zn  Zn7  1  0.267987  0.650220  0.000000  1
  Zn  Zn8  1  0.733920  0.735088  0.383680  1
  Zn  Zn9  1  0.383870  0.734309  0.733380  1
  Zn  Zn10  1  0.999894  0.650771  0.268442  1
  Zn  Zn11  1  0.999544  0.265649  0.647578  1
  Zn  Zn12  1  0.649005  0.266235  0.000000  1
  Zn  Zn13  1  0.350240  0.351408  0.616320  1
  Zn  Zn14  1  0.616969  0.352036  0.351479  1
  Zn  Zn15  1  0.731453  0.382331  0.731558  1
  Zn  Zn16  1  0.356004  0.356617  0.000000  1
  Zn  Zn17  1  0.998992  0.640567  0.644188  1
  Zn  Zn18  1  0.001290  0.356459  0.357213  1
  Zn  Zn19  1  0.354805  0.996380  0.355812  1
  Zn  Zn20  1  0.644078  0.999246  0.642787  1
  Zn  Zn21  1  0.645669  0.641083  0.000000  1
  Ir  Ir22  1  0.345901  0.001170  0.000000  1
  Pd  Pd23  1  0.999877  0.346890  0.000000  1
  Rh  Rh24  1  0.999919  0.000473  0.345473  1
  Rh  Rh25  1  0.654447  0.655000  0.654527  1
