# generated using pymatgen
data_Li7(Eu2Sb3)2
_symmetry_space_group_name_H-M   'P 1'
_cell_length_a   8.92328586
_cell_length_b   8.92328600
_cell_length_c   12.55307495
_cell_angle_alpha   55.37488763
_cell_angle_beta   55.37488626
_cell_angle_gamma   30.85294822
_symmetry_Int_Tables_number   1
_chemical_formula_structural   Li7(Eu2Sb3)2
_chemical_formula_sum   'Li7 Eu4 Sb6'
_cell_volume   414.08433742
_cell_formula_units_Z   1
loop_
 _symmetry_equiv_pos_site_id
 _symmetry_equiv_pos_as_xyz
  1  'x, y, z'
loop_
 _atom_site_type_symbol
 _atom_site_label
 _atom_site_symmetry_multiplicity
 _atom_site_fract_x
 _atom_site_fract_y
 _atom_site_fract_z
 _atom_site_occupancy
  Li  Li0  1  0.052020  0.052020  0.678899  1
  Li  Li1  1  0.947980  0.947980  0.321101  1
  Li  Li2  1  0.237177  0.237177  0.911536  1
  Li  Li3  1  0.762823  0.762823  0.088464  1
  Li  Li4  1  0.416647  0.416647  0.655892  1
  Li  Li5  1  0.583353  0.583353  0.344108  1
  Li  Li6  1  0.000000  0.000000  0.500000  1
  Eu  Eu7  1  0.260013  0.260013  0.338687  1
  Eu  Eu8  1  0.739987  0.739987  0.661313  1
  Eu  Eu9  1  0.431586  0.431586  0.913815  1
  Eu  Eu10  1  0.568414  0.568414  0.086185  1
  Sb  Sb11  1  0.091898  0.091898  0.870149  1
  Sb  Sb12  1  0.908102  0.908102  0.129851  1
  Sb  Sb13  1  0.154203  0.154203  0.184747  1
  Sb  Sb14  1  0.845797  0.845797  0.815253  1
  Sb  Sb15  1  0.384428  0.384428  0.462865  1
  Sb  Sb16  1  0.615572  0.615572  0.537135  1
