# generated using pymatgen
data_La4AlCuIr4
_symmetry_space_group_name_H-M   'P 1'
_cell_length_a   5.78273764
_cell_length_b   5.78273706
_cell_length_c   7.57330700
_cell_angle_alpha   91.82450342
_cell_angle_beta   88.17549676
_cell_angle_gamma   117.78593404
_symmetry_Int_Tables_number   1
_chemical_formula_structural   La4AlCuIr4
_chemical_formula_sum   'La4 Al1 Cu1 Ir4'
_cell_volume   223.89573475
_cell_formula_units_Z   1
loop_
 _symmetry_equiv_pos_site_id
 _symmetry_equiv_pos_as_xyz
  1  'x, y, z'
loop_
 _atom_site_type_symbol
 _atom_site_label
 _atom_site_symmetry_multiplicity
 _atom_site_fract_x
 _atom_site_fract_y
 _atom_site_fract_z
 _atom_site_occupancy
  La  La0  1  0.341553  0.658447  0.085609  1
  La  La1  1  0.658447  0.341553  0.914391  1
  La  La2  1  0.160006  0.839994  0.605607  1
  La  La3  1  0.839994  0.160006  0.394393  1
  Al  Al4  1  0.500000  0.500000  0.500000  1
  Cu  Cu5  1  0.000000  0.000000  0.000000  1
  Ir  Ir6  1  0.853366  0.661727  0.257416  1
  Ir  Ir7  1  0.661727  0.853366  0.742584  1
  Ir  Ir8  1  0.146634  0.338273  0.742584  1
  Ir  Ir9  1  0.338273  0.146634  0.257416  1
