# generated using pymatgen
data_Yb7CeSi12PdPt3
_symmetry_space_group_name_H-M   'P 1'
_cell_length_a   8.21369700
_cell_length_b   8.21369566
_cell_length_c   8.24994900
_cell_angle_alpha   90.00000000
_cell_angle_beta   90.00000000
_cell_angle_gamma   120.00000138
_symmetry_Int_Tables_number   1
_chemical_formula_structural   Yb7CeSi12PdPt3
_chemical_formula_sum   'Yb7 Ce1 Si12 Pd1 Pt3'
_cell_volume   482.01346929
_cell_formula_units_Z   1
loop_
 _symmetry_equiv_pos_site_id
 _symmetry_equiv_pos_as_xyz
  1  'x, y, z'
loop_
 _atom_site_type_symbol
 _atom_site_label
 _atom_site_symmetry_multiplicity
 _atom_site_fract_x
 _atom_site_fract_y
 _atom_site_fract_z
 _atom_site_occupancy
  Yb  Yb0  1  0.501977  0.003955  0.249941  1
  Yb  Yb1  1  0.498839  0.997677  0.749992  1
  Yb  Yb2  1  0.996045  0.498023  0.249941  1
  Yb  Yb3  1  0.002323  0.501161  0.749992  1
  Yb  Yb4  1  0.501977  0.498023  0.249941  1
  Yb  Yb5  1  0.498839  0.501161  0.749992  1
  Yb  Yb6  1  0.000000  0.000000  0.250411  1
  Ce  Ce7  1  0.000000  0.000000  0.749487  1
  Si  Si8  1  0.165308  0.330615  0.999009  1
  Si  Si9  1  0.834877  0.669755  0.996268  1
  Si  Si10  1  0.669385  0.834692  0.999009  1
  Si  Si11  1  0.835102  0.670206  0.503868  1
  Si  Si12  1  0.330245  0.165123  0.996268  1
  Si  Si13  1  0.164701  0.329402  0.501200  1
  Si  Si14  1  0.165308  0.834692  0.999009  1
  Si  Si15  1  0.329794  0.164898  0.503868  1
  Si  Si16  1  0.834877  0.165123  0.996268  1
  Si  Si17  1  0.670598  0.835299  0.501200  1
  Si  Si18  1  0.835102  0.164898  0.503868  1
  Si  Si19  1  0.164701  0.835299  0.501200  1
  Pd  Pd20  1  0.333333  0.666667  0.495228  1
  Pt  Pt21  1  0.333333  0.666667  0.004023  1
  Pt  Pt22  1  0.666667  0.333333  0.998898  1
  Pt  Pt23  1  0.666667  0.333333  0.501120  1
