# generated using pymatgen
data_Li4La4Si3SnGe2
_symmetry_space_group_name_H-M   'P 1'
_cell_length_a   9.82020150
_cell_length_b   9.82020005
_cell_length_c   6.96955552
_cell_angle_alpha   90.03283946
_cell_angle_beta   89.96716090
_cell_angle_gamma   152.87353316
_symmetry_Int_Tables_number   1
_chemical_formula_structural   Li4La4Si3SnGe2
_chemical_formula_sum   'Li4 La4 Si3 Sn1 Ge2'
_cell_volume   306.45643833
_cell_formula_units_Z   1
loop_
 _symmetry_equiv_pos_site_id
 _symmetry_equiv_pos_as_xyz
  1  'x, y, z'
loop_
 _atom_site_type_symbol
 _atom_site_label
 _atom_site_symmetry_multiplicity
 _atom_site_fract_x
 _atom_site_fract_y
 _atom_site_fract_z
 _atom_site_occupancy
  Li  Li0  1  0.815116  0.184884  0.444051  1
  Li  Li1  1  0.184376  0.815624  0.565668  1
  Li  Li2  1  0.810882  0.189118  0.049525  1
  Li  Li3  1  0.186133  0.813867  0.936489  1
  La  La4  1  0.551700  0.448300  0.751376  1
  La  La5  1  0.453541  0.546459  0.252341  1
  La  La6  1  0.343039  0.656961  0.745386  1
  La  La7  1  0.653748  0.346252  0.252989  1
  Si  Si8  1  0.058685  0.941315  0.078294  1
  Si  Si9  1  0.943540  0.056460  0.571967  1
  Si  Si10  1  0.057163  0.942837  0.426244  1
  Sn  Sn11  1  0.280981  0.719019  0.250746  1
  Ge  Ge12  1  0.941292  0.058708  0.927880  1
  Ge  Ge13  1  0.719804  0.280196  0.747046  1
