# generated using pymatgen
data_Ho2Co9TcP6
_symmetry_space_group_name_H-M   'P 1'
_cell_length_a   3.67748100
_cell_length_b   10.30617800
_cell_length_c   11.75824400
_cell_angle_alpha   90.00000000
_cell_angle_beta   90.00000000
_cell_angle_gamma   90.00000000
_symmetry_Int_Tables_number   1
_chemical_formula_structural   Ho2Co9TcP6
_chemical_formula_sum   'Ho4 Co18 Tc2 P12'
_cell_volume   445.64654587
_cell_formula_units_Z   2
loop_
 _symmetry_equiv_pos_site_id
 _symmetry_equiv_pos_as_xyz
  1  'x, y, z'
loop_
 _atom_site_type_symbol
 _atom_site_label
 _atom_site_symmetry_multiplicity
 _atom_site_fract_x
 _atom_site_fract_y
 _atom_site_fract_z
 _atom_site_occupancy
  Ho  Ho0  1  0.250000  0.582486  0.702856  1
  Ho  Ho1  1  0.250000  0.917514  0.202856  1
  Ho  Ho2  1  0.750000  0.415296  0.295628  1
  Ho  Ho3  1  0.750000  0.084704  0.795628  1
  Co  Co4  1  0.750000  0.284433  0.009711  1
  Co  Co5  1  0.750000  0.215567  0.509711  1
  Co  Co6  1  0.250000  0.406120  0.488020  1
  Co  Co7  1  0.250000  0.093880  0.988020  1
  Co  Co8  1  0.750000  0.591822  0.511084  1
  Co  Co9  1  0.750000  0.908178  0.011084  1
  Co  Co10  1  0.250000  0.220930  0.176659  1
  Co  Co11  1  0.250000  0.279070  0.676659  1
  Co  Co12  1  0.750000  0.778744  0.822786  1
  Co  Co13  1  0.750000  0.721256  0.322786  1
  Co  Co14  1  0.250000  0.885926  0.701324  1
  Co  Co15  1  0.250000  0.614074  0.201324  1
  Co  Co16  1  0.750000  0.116533  0.300985  1
  Co  Co17  1  0.750000  0.383467  0.800985  1
  Co  Co18  1  0.250000  0.464322  0.932673  1
  Co  Co19  1  0.250000  0.035678  0.432673  1
  Co  Co20  1  0.750000  0.533001  0.068572  1
  Co  Co21  1  0.750000  0.966999  0.568572  1
  Tc  Tc22  1  0.250000  0.710667  0.989083  1
  Tc  Tc23  1  0.250000  0.789333  0.489083  1
  P  P24  1  0.250000  0.417573  0.112720  1
  P  P25  1  0.250000  0.082427  0.612720  1
  P  P26  1  0.750000  0.578739  0.886561  1
  P  P27  1  0.750000  0.921261  0.386561  1
  P  P28  1  0.250000  0.269270  0.868493  1
  P  P29  1  0.250000  0.230730  0.368493  1
  P  P30  1  0.750000  0.729605  0.133170  1
  P  P31  1  0.750000  0.770395  0.633170  1
  P  P32  1  0.250000  0.595569  0.390966  1
  P  P33  1  0.250000  0.904431  0.890966  1
  P  P34  1  0.750000  0.397698  0.608711  1
  P  P35  1  0.750000  0.102302  0.108711  1
