# generated using pymatgen
data_Tm2U(InIr)3
_symmetry_space_group_name_H-M   'P 1'
_cell_length_a   7.46114788
_cell_length_b   7.72701671
_cell_length_c   3.82817000
_cell_angle_alpha   90.00000000
_cell_angle_beta   90.00000000
_cell_angle_gamma   121.18591451
_symmetry_Int_Tables_number   1
_chemical_formula_structural   Tm2U(InIr)3
_chemical_formula_sum   'Tm2 U1 In3 Ir3'
_cell_volume   188.80976732
_cell_formula_units_Z   1
loop_
 _symmetry_equiv_pos_site_id
 _symmetry_equiv_pos_as_xyz
  1  'x, y, z'
loop_
 _atom_site_type_symbol
 _atom_site_label
 _atom_site_symmetry_multiplicity
 _atom_site_fract_x
 _atom_site_fract_y
 _atom_site_fract_z
 _atom_site_occupancy
  Tm  Tm0  1  0.596361  0.596532  0.500000  1
  Tm  Tm1  1  0.403639  0.000171  0.500000  1
  U  U2  1  0.000000  0.415565  0.500000  1
  In  In3  1  0.274043  0.259962  0.000000  1
  In  In4  1  0.000000  0.756434  0.000000  1
  In  In5  1  0.725957  0.985920  0.000000  1
  Ir  Ir6  1  0.297909  0.635026  0.000000  1
  Ir  Ir7  1  0.000000  0.013272  0.500000  1
  Ir  Ir8  1  0.702091  0.337116  0.000000  1
