# generated using pymatgen
data_Hf4Ni4MoP4
_symmetry_space_group_name_H-M   'P 1'
_cell_length_a   7.32600423
_cell_length_b   7.32600451
_cell_length_c   7.32600488
_cell_angle_alpha   93.57579084
_cell_angle_beta   93.57579873
_cell_angle_gamma   151.07602236
_symmetry_Int_Tables_number   1
_chemical_formula_structural   Hf4Ni4MoP4
_chemical_formula_sum   'Hf4 Ni4 Mo1 P4'
_cell_volume   184.13976933
_cell_formula_units_Z   1
loop_
 _symmetry_equiv_pos_site_id
 _symmetry_equiv_pos_as_xyz
  1  'x, y, z'
loop_
 _atom_site_type_symbol
 _atom_site_label
 _atom_site_symmetry_multiplicity
 _atom_site_fract_x
 _atom_site_fract_y
 _atom_site_fract_z
 _atom_site_occupancy
  Hf  Hf0  1  0.872786  0.197393  0.070180  1
  Hf  Hf1  1  0.127214  0.802607  0.929820  1
  Hf  Hf2  1  0.197393  0.127214  0.324609  1
  Hf  Hf3  1  0.802607  0.872786  0.675391  1
  Ni  Ni4  1  0.609626  0.083899  0.693527  1
  Ni  Ni5  1  0.390374  0.916101  0.306473  1
  Ni  Ni6  1  0.083899  0.390374  0.474272  1
  Ni  Ni7  1  0.916101  0.609626  0.525728  1
  Mo  Mo8  1  0.500000  0.500000  0.000000  1
  P  P9  1  0.757016  0.442738  0.199754  1
  P  P10  1  0.242984  0.557262  0.800246  1
  P  P11  1  0.442738  0.242984  0.685723  1
  P  P12  1  0.557262  0.757016  0.314277  1
