# generated using pymatgen
data_Pr6Nd4C4Cl17
_symmetry_space_group_name_H-M   'P 1'
_cell_length_a   8.91880421
_cell_length_b   9.54565650
_cell_length_c   12.02719912
_cell_angle_alpha   104.63249881
_cell_angle_beta   96.21342558
_cell_angle_gamma   110.84056714
_symmetry_Int_Tables_number   1
_chemical_formula_structural   Pr6Nd4C4Cl17
_chemical_formula_sum   'Pr6 Nd4 C4 Cl17'
_cell_volume   903.42187407
_cell_formula_units_Z   1
loop_
 _symmetry_equiv_pos_site_id
 _symmetry_equiv_pos_as_xyz
  1  'x, y, z'
loop_
 _atom_site_type_symbol
 _atom_site_label
 _atom_site_symmetry_multiplicity
 _atom_site_fract_x
 _atom_site_fract_y
 _atom_site_fract_z
 _atom_site_occupancy
  Pr  Pr0  1  0.653892  0.486736  0.438267  1
  Pr  Pr1  1  0.346108  0.513266  0.561733  1
  Pr  Pr2  1  0.077652  0.424528  0.268408  1
  Pr  Pr3  1  0.922347  0.575472  0.731592  1
  Pr  Pr4  1  0.409880  0.367245  0.134548  1
  Pr  Pr5  1  0.590119  0.632754  0.865452  1
  Nd  Nd6  1  0.492225  0.782033  0.341409  1
  Nd  Nd7  1  0.507776  0.217966  0.658591  1
  Nd  Nd8  1  0.206439  0.097178  0.307890  1
  Nd  Nd9  1  0.793560  0.902822  0.692110  1
  C  C10  1  0.396312  0.525870  0.342099  1
  C  C11  1  0.603688  0.474130  0.657901  1
  C  C12  1  0.326441  0.364904  0.336823  1
  C  C13  1  0.673559  0.635096  0.663178  1
  Cl  Cl14  1  0.103628  0.349035  0.038639  1
  Cl  Cl15  1  0.896372  0.650964  0.961361  1
  Cl  Cl16  1  0.810246  0.821234  0.445584  1
  Cl  Cl17  1  0.189755  0.178767  0.554417  1
  Cl  Cl18  1  0.000000  0.500000  0.500000  1
  Cl  Cl19  1  0.296570  0.041625  0.095763  1
  Cl  Cl20  1  0.703431  0.958377  0.904237  1
  Cl  Cl21  1  0.904408  0.102903  0.248614  1
  Cl  Cl22  1  0.095591  0.897098  0.751385  1
  Cl  Cl23  1  0.541656  0.132444  0.412794  1
  Cl  Cl24  1  0.458345  0.867557  0.587205  1
  Cl  Cl25  1  0.739897  0.414447  0.211433  1
  Cl  Cl26  1  0.260104  0.585553  0.788567  1
  Cl  Cl27  1  0.167300  0.757350  0.287170  1
  Cl  Cl28  1  0.832701  0.242651  0.712830  1
  Cl  Cl29  1  0.535576  0.685733  0.112315  1
  Cl  Cl30  1  0.464426  0.314266  0.887685  1
