# generated using pymatgen
data_Sm8Y2B2Br15
_symmetry_space_group_name_H-M   'P 1'
_cell_length_a   9.22868707
_cell_length_b   9.99593149
_cell_length_c   10.87713500
_cell_angle_alpha   91.31275342
_cell_angle_beta   114.49040750
_cell_angle_gamma   110.65901723
_symmetry_Int_Tables_number   1
_chemical_formula_structural   Sm8Y2B2Br15
_chemical_formula_sum   'Sm8 Y2 B2 Br15'
_cell_volume   837.38494859
_cell_formula_units_Z   1
loop_
 _symmetry_equiv_pos_site_id
 _symmetry_equiv_pos_as_xyz
  1  'x, y, z'
loop_
 _atom_site_type_symbol
 _atom_site_label
 _atom_site_symmetry_multiplicity
 _atom_site_fract_x
 _atom_site_fract_y
 _atom_site_fract_z
 _atom_site_occupancy
  Sm  Sm0  1  0.799583  0.408504  0.275942  1
  Sm  Sm1  1  0.200417  0.591496  0.724058  1
  Sm  Sm2  1  0.673251  0.745842  0.820592  1
  Sm  Sm3  1  0.326749  0.254158  0.179408  1
  Sm  Sm4  1  0.525806  0.704189  0.095621  1
  Sm  Sm5  1  0.474194  0.295811  0.904379  1
  Sm  Sm6  1  0.586059  0.038131  0.323072  1
  Sm  Sm7  1  0.413941  0.961869  0.676928  1
  Y  Y8  1  0.718799  0.072948  0.046940  1
  Y  Y9  1  0.281201  0.927052  0.953060  1
  B  B10  1  0.467390  0.821007  0.877644  1
  B  B11  1  0.532610  0.178993  0.122356  1
  Br  Br12  1  0.000000  0.000000  0.000000  1
  Br  Br13  1  0.636406  0.881874  0.582856  1
  Br  Br14  1  0.363594  0.118126  0.417144  1
  Br  Br15  1  0.883793  0.299090  0.528597  1
  Br  Br16  1  0.116207  0.700910  0.471403  1
  Br  Br17  1  0.284547  0.763190  0.174610  1
  Br  Br18  1  0.715453  0.236810  0.825390  1
  Br  Br19  1  0.048491  0.335679  0.220954  1
  Br  Br20  1  0.160327  0.054059  0.707179  1
  Br  Br21  1  0.839673  0.945941  0.292821  1
  Br  Br22  1  0.228255  0.409765  0.943164  1
  Br  Br23  1  0.771745  0.590235  0.056836  1
  Br  Br24  1  0.408155  0.461482  0.657622  1
  Br  Br25  1  0.591845  0.538518  0.342378  1
  Br  Br26  1  0.951509  0.664321  0.779046  1
