# generated using pymatgen
data_Pr2Co9TcAs6
_symmetry_space_group_name_H-M   'P 1'
_cell_length_a   3.89180100
_cell_length_b   10.87600200
_cell_length_c   12.35235000
_cell_angle_alpha   90.00000000
_cell_angle_beta   90.00000000
_cell_angle_gamma   90.00000000
_symmetry_Int_Tables_number   1
_chemical_formula_structural   Pr2Co9TcAs6
_chemical_formula_sum   'Pr4 Co18 Tc2 As12'
_cell_volume   522.84082693
_cell_formula_units_Z   2
loop_
 _symmetry_equiv_pos_site_id
 _symmetry_equiv_pos_as_xyz
  1  'x, y, z'
loop_
 _atom_site_type_symbol
 _atom_site_label
 _atom_site_symmetry_multiplicity
 _atom_site_fract_x
 _atom_site_fract_y
 _atom_site_fract_z
 _atom_site_occupancy
  Pr  Pr0  1  0.250000  0.581902  0.700806  1
  Pr  Pr1  1  0.250000  0.918098  0.200806  1
  Pr  Pr2  1  0.750000  0.416197  0.297117  1
  Pr  Pr3  1  0.750000  0.083803  0.797117  1
  Co  Co4  1  0.750000  0.292071  0.009690  1
  Co  Co5  1  0.750000  0.207929  0.509690  1
  Co  Co6  1  0.250000  0.405047  0.490252  1
  Co  Co7  1  0.250000  0.094953  0.990252  1
  Co  Co8  1  0.750000  0.595910  0.509138  1
  Co  Co9  1  0.750000  0.904090  0.009138  1
  Co  Co10  1  0.250000  0.216204  0.175825  1
  Co  Co11  1  0.250000  0.283796  0.675825  1
  Co  Co12  1  0.750000  0.782332  0.824969  1
  Co  Co13  1  0.750000  0.717668  0.324969  1
  Co  Co14  1  0.250000  0.885982  0.698555  1
  Co  Co15  1  0.250000  0.614018  0.198555  1
  Co  Co16  1  0.750000  0.116546  0.303674  1
  Co  Co17  1  0.750000  0.383454  0.803674  1
  Co  Co18  1  0.250000  0.468388  0.933068  1
  Co  Co19  1  0.250000  0.031612  0.433068  1
  Co  Co20  1  0.750000  0.530830  0.067131  1
  Co  Co21  1  0.750000  0.969170  0.567131  1
  Tc  Tc22  1  0.250000  0.704947  0.990027  1
  Tc  Tc23  1  0.250000  0.795053  0.490027  1
  As  As24  1  0.250000  0.415167  0.111344  1
  As  As25  1  0.250000  0.084833  0.611344  1
  As  As26  1  0.750000  0.581563  0.886882  1
  As  As27  1  0.750000  0.918437  0.386882  1
  As  As28  1  0.250000  0.273457  0.869165  1
  As  As29  1  0.250000  0.226543  0.369165  1
  As  As30  1  0.750000  0.726145  0.132882  1
  As  As31  1  0.750000  0.773855  0.632882  1
  As  As32  1  0.250000  0.599361  0.392741  1
  As  As33  1  0.250000  0.900639  0.892741  1
  As  As34  1  0.750000  0.394903  0.606732  1
  As  As35  1  0.750000  0.105097  0.106732  1
