# generated using pymatgen
data_NaYb(In2Pt)2
_symmetry_space_group_name_H-M   'P 1'
_cell_length_a   5.58888594
_cell_length_b   5.58888646
_cell_length_c   8.18020100
_cell_angle_alpha   90.00000000
_cell_angle_beta   90.00000000
_cell_angle_gamma   134.58743983
_symmetry_Int_Tables_number   1
_chemical_formula_structural   NaYb(In2Pt)2
_chemical_formula_sum   'Na1 Yb1 In4 Pt2'
_cell_volume   181.97186746
_cell_formula_units_Z   1
loop_
 _symmetry_equiv_pos_site_id
 _symmetry_equiv_pos_as_xyz
  1  'x, y, z'
loop_
 _atom_site_type_symbol
 _atom_site_label
 _atom_site_symmetry_multiplicity
 _atom_site_fract_x
 _atom_site_fract_y
 _atom_site_fract_z
 _atom_site_occupancy
  Na  Na0  1  0.567478  0.432522  0.250000  1
  Yb  Yb1  1  0.431368  0.568632  0.750000  1
  In  In2  1  0.855951  0.144049  0.445123  1
  In  In3  1  0.143272  0.856728  0.547161  1
  In  In4  1  0.855951  0.144049  0.054877  1
  In  In5  1  0.143272  0.856728  0.952839  1
  Pt  Pt6  1  0.282193  0.717807  0.250000  1
  Pt  Pt7  1  0.720514  0.279486  0.750000  1
