# generated using pymatgen
data_Eu3ZnCd3Au2
_symmetry_space_group_name_H-M   'P 1'
_cell_length_a   7.87597100
_cell_length_b   7.87707956
_cell_length_c   4.16278900
_cell_angle_alpha   90.00000000
_cell_angle_beta   90.00000000
_cell_angle_gamma   120.00465499
_symmetry_Int_Tables_number   1
_chemical_formula_structural   Eu3ZnCd3Au2
_chemical_formula_sum   'Eu3 Zn1 Cd3 Au2'
_cell_volume   223.64747390
_cell_formula_units_Z   1
loop_
 _symmetry_equiv_pos_site_id
 _symmetry_equiv_pos_as_xyz
  1  'x, y, z'
loop_
 _atom_site_type_symbol
 _atom_site_label
 _atom_site_symmetry_multiplicity
 _atom_site_fract_x
 _atom_site_fract_y
 _atom_site_fract_z
 _atom_site_occupancy
  Eu  Eu0  1  0.588757  0.999998  0.000000  1
  Eu  Eu1  1  0.000000  0.588755  0.000000  1
  Eu  Eu2  1  0.411243  0.411241  0.000000  1
  Zn  Zn3  1  0.000000  0.000007  0.000000  1
  Cd  Cd4  1  0.243899  0.999991  0.500000  1
  Cd  Cd5  1  0.000000  0.243910  0.500000  1
  Cd  Cd6  1  0.756101  0.756092  0.500000  1
  Au  Au7  1  0.333327  0.666667  0.500000  1
  Au  Au8  1  0.666673  0.333339  0.500000  1
