# generated using pymatgen
data_NaAc4Mg3Pb4
_symmetry_space_group_name_H-M   'P 1'
_cell_length_a   8.15414609
_cell_length_b   4.95698100
_cell_length_c   9.67878968
_cell_angle_alpha   90.00000000
_cell_angle_beta   88.82850853
_cell_angle_gamma   90.00000000
_symmetry_Int_Tables_number   1
_chemical_formula_structural   NaAc4Mg3Pb4
_chemical_formula_sum   'Na1 Ac4 Mg3 Pb4'
_cell_volume   391.13439616
_cell_formula_units_Z   1
loop_
 _symmetry_equiv_pos_site_id
 _symmetry_equiv_pos_as_xyz
  1  'x, y, z'
loop_
 _atom_site_type_symbol
 _atom_site_label
 _atom_site_symmetry_multiplicity
 _atom_site_fract_x
 _atom_site_fract_y
 _atom_site_fract_z
 _atom_site_occupancy
  Na  Na0  1  0.150972  0.250000  0.934791  1
  Ac  Ac1  1  0.020389  0.250000  0.313822  1
  Ac  Ac2  1  0.520279  0.250000  0.191968  1
  Ac  Ac3  1  0.976893  0.750000  0.679857  1
  Ac  Ac4  1  0.483408  0.750000  0.811186  1
  Mg  Mg5  1  0.654507  0.250000  0.565601  1
  Mg  Mg6  1  0.850356  0.750000  0.062914  1
  Mg  Mg7  1  0.344850  0.750000  0.433591  1
  Pb  Pb8  1  0.275407  0.250000  0.602919  1
  Pb  Pb9  1  0.764916  0.250000  0.892587  1
  Pb  Pb10  1  0.723884  0.750000  0.394048  1
  Pb  Pb11  1  0.234140  0.750000  0.116719  1
