# generated using pymatgen
data_Tb4Y4CdInPd2
_symmetry_space_group_name_H-M   'P 1'
_cell_length_a   9.75567117
_cell_length_b   9.75567201
_cell_length_c   9.76681500
_cell_angle_alpha   59.96220553
_cell_angle_beta   59.96220267
_cell_angle_gamma   60.19014585
_symmetry_Int_Tables_number   1
_chemical_formula_structural   Tb4Y4CdInPd2
_chemical_formula_sum   'Tb8 Y8 Cd2 In2 Pd4'
_cell_volume   657.84481693
_cell_formula_units_Z   2
loop_
 _symmetry_equiv_pos_site_id
 _symmetry_equiv_pos_as_xyz
  1  'x, y, z'
loop_
 _atom_site_type_symbol
 _atom_site_label
 _atom_site_symmetry_multiplicity
 _atom_site_fract_x
 _atom_site_fract_y
 _atom_site_fract_z
 _atom_site_occupancy
  Tb  Tb0  1  0.352646  0.352646  0.352298  1
  Tb  Tb1  1  0.352646  0.352646  0.942409  1
  Tb  Tb2  1  0.353981  0.939012  0.353504  1
  Tb  Tb3  1  0.939012  0.353981  0.353504  1
  Tb  Tb4  1  0.809930  0.190752  0.189902  1
  Tb  Tb5  1  0.190752  0.809930  0.809416  1
  Tb  Tb6  1  0.190752  0.809930  0.189902  1
  Tb  Tb7  1  0.809930  0.190752  0.809416  1
  Y  Y8  1  0.189621  0.189621  0.810379  1
  Y  Y9  1  0.807889  0.807889  0.192111  1
  Y  Y10  1  0.937039  0.565245  0.564854  1
  Y  Y11  1  0.565245  0.937039  0.932862  1
  Y  Y12  1  0.565245  0.937039  0.564854  1
  Y  Y13  1  0.937039  0.565245  0.932862  1
  Y  Y14  1  0.565516  0.565516  0.934484  1
  Y  Y15  1  0.936884  0.936884  0.563116  1
  Cd  Cd16  1  0.580766  0.252048  0.583594  1
  Cd  Cd17  1  0.252048  0.580766  0.583594  1
  In  In18  1  0.582264  0.582264  0.583945  1
  In  In19  1  0.582264  0.582264  0.251527  1
  Pd  Pd20  1  0.143640  0.143640  0.146071  1
  Pd  Pd21  1  0.143640  0.143640  0.566646  1
  Pd  Pd22  1  0.143642  0.567605  0.144376  1
  Pd  Pd23  1  0.567605  0.143642  0.144376  1
