# generated using pymatgen
data_Dy4Fe4P12Ir7Ru9
_symmetry_space_group_name_H-M   'P 1'
_cell_length_a   3.88618400
_cell_length_b   10.71164283
_cell_length_c   12.26962117
_cell_angle_alpha   90.04758947
_cell_angle_beta   90.00000000
_cell_angle_gamma   90.00000000
_symmetry_Int_Tables_number   1
_chemical_formula_structural   Dy4Fe4P12Ir7Ru9
_chemical_formula_sum   'Dy4 Fe4 P12 Ir7 Ru9'
_cell_volume   510.75243596
_cell_formula_units_Z   1
loop_
 _symmetry_equiv_pos_site_id
 _symmetry_equiv_pos_as_xyz
  1  'x, y, z'
loop_
 _atom_site_type_symbol
 _atom_site_label
 _atom_site_symmetry_multiplicity
 _atom_site_fract_x
 _atom_site_fract_y
 _atom_site_fract_z
 _atom_site_occupancy
  Dy  Dy0  1  0.250000  0.582436  0.706152  1
  Dy  Dy1  1  0.250000  0.918419  0.206118  1
  Dy  Dy2  1  0.750000  0.416058  0.292608  1
  Dy  Dy3  1  0.750000  0.083227  0.793968  1
  Fe  Fe4  1  0.250000  0.460855  0.936019  1
  Fe  Fe5  1  0.250000  0.038989  0.436736  1
  Fe  Fe6  1  0.750000  0.541396  0.064140  1
  Fe  Fe7  1  0.750000  0.959176  0.564968  1
  P  P8  1  0.250000  0.425529  0.108714  1
  P  P9  1  0.250000  0.070434  0.608433  1
  P  P10  1  0.750000  0.570951  0.892249  1
  P  P11  1  0.750000  0.929629  0.392478  1
  P  P12  1  0.250000  0.268234  0.874340  1
  P  P13  1  0.250000  0.230905  0.370642  1
  P  P14  1  0.750000  0.733144  0.125998  1
  P  P15  1  0.750000  0.767344  0.626387  1
  P  P16  1  0.250000  0.594872  0.395146  1
  P  P17  1  0.250000  0.904112  0.896156  1
  P  P18  1  0.750000  0.403748  0.603457  1
  P  P19  1  0.750000  0.101993  0.106251  1
  Ir  Ir20  1  0.250000  0.264133  0.681134  1
  Ir  Ir21  1  0.750000  0.764657  0.820123  1
  Ir  Ir22  1  0.750000  0.736195  0.318851  1
  Ir  Ir23  1  0.250000  0.886077  0.703787  1
  Ir  Ir24  1  0.250000  0.612309  0.203381  1
  Ir  Ir25  1  0.750000  0.114528  0.298917  1
  Ir  Ir26  1  0.750000  0.387659  0.795699  1
  Ru  Ru27  1  0.250000  0.707293  0.984560  1
  Ru  Ru28  1  0.250000  0.792730  0.483608  1
  Ru  Ru29  1  0.750000  0.295198  0.013808  1
  Ru  Ru30  1  0.750000  0.205690  0.518028  1
  Ru  Ru31  1  0.250000  0.402081  0.489028  1
  Ru  Ru32  1  0.250000  0.096844  0.987809  1
  Ru  Ru33  1  0.750000  0.596361  0.510087  1
  Ru  Ru34  1  0.750000  0.905129  0.011893  1
  Ru  Ru35  1  0.250000  0.231664  0.178327  1
