# generated using pymatgen
data_Be9Nb6Co6(Si3Ni)2
_symmetry_space_group_name_H-M   'P 1'
_cell_length_a   7.71440902
_cell_length_b   7.74085300
_cell_length_c   7.71706647
_cell_angle_alpha   59.89798211
_cell_angle_beta   60.33618323
_cell_angle_gamma   59.88652901
_symmetry_Int_Tables_number   1
_chemical_formula_structural   Be9Nb6Co6(Si3Ni)2
_chemical_formula_sum   'Be9 Nb6 Co6 Si6 Ni2'
_cell_volume   326.14232571
_cell_formula_units_Z   1
loop_
 _symmetry_equiv_pos_site_id
 _symmetry_equiv_pos_as_xyz
  1  'x, y, z'
loop_
 _atom_site_type_symbol
 _atom_site_label
 _atom_site_symmetry_multiplicity
 _atom_site_fract_x
 _atom_site_fract_y
 _atom_site_fract_z
 _atom_site_occupancy
  Be  Be0  1  0.330649  0.316792  0.333429  1
  Be  Be1  1  0.669351  0.683208  0.666571  1
  Be  Be2  1  0.324989  0.326741  0.021529  1
  Be  Be3  1  0.330649  0.019129  0.333429  1
  Be  Be4  1  0.675011  0.673259  0.978471  1
  Be  Be5  1  0.669351  0.980871  0.666571  1
  Be  Be6  1  0.024279  0.324854  0.326015  1
  Be  Be7  1  0.975721  0.675146  0.673985  1
  Be  Be8  1  0.500000  0.000000  0.500000  1
  Nb  Nb9  1  0.705868  0.294141  0.296511  1
  Nb  Nb10  1  0.294132  0.705859  0.703489  1
  Nb  Nb11  1  0.306206  0.691618  0.310558  1
  Nb  Nb12  1  0.693794  0.308382  0.689442  1
  Nb  Nb13  1  0.294132  0.296520  0.703489  1
  Nb  Nb14  1  0.705868  0.703480  0.296511  1
  Co  Co15  1  0.124620  0.121981  0.123921  1
  Co  Co16  1  0.875380  0.878019  0.876079  1
  Co  Co17  1  0.122077  0.123366  0.631192  1
  Co  Co18  1  0.124620  0.629477  0.123921  1
  Co  Co19  1  0.877923  0.876634  0.368808  1
  Co  Co20  1  0.875380  0.370523  0.876079  1
  Si  Si21  1  0.500000  0.000000  0.000000  1
  Si  Si22  1  0.000000  0.500000  0.500000  1
  Si  Si23  1  0.000000  0.500000  0.000000  1
  Si  Si24  1  0.000000  0.000000  0.500000  1
  Si  Si25  1  0.500000  0.500000  0.000000  1
  Si  Si26  1  0.000000  0.000000  0.000000  1
  Ni  Ni27  1  0.629777  0.123542  0.123138  1
  Ni  Ni28  1  0.370223  0.876458  0.876862  1
