# generated using pymatgen
data_Nd5P12Ir2Ru9Rh8
_symmetry_space_group_name_H-M   'P 1'
_cell_length_a   12.70095200
_cell_length_b   12.70664950
_cell_length_c   3.99081500
_cell_angle_alpha   90.00000000
_cell_angle_beta   90.00000000
_cell_angle_gamma   119.98531294
_symmetry_Int_Tables_number   1
_chemical_formula_structural   Nd5P12Ir2Ru9Rh8
_chemical_formula_sum   'Nd5 P12 Ir2 Ru9 Rh8'
_cell_volume   557.85818303
_cell_formula_units_Z   1
loop_
 _symmetry_equiv_pos_site_id
 _symmetry_equiv_pos_as_xyz
  1  'x, y, z'
loop_
 _atom_site_type_symbol
 _atom_site_label
 _atom_site_symmetry_multiplicity
 _atom_site_fract_x
 _atom_site_fract_y
 _atom_site_fract_z
 _atom_site_occupancy
  Nd  Nd0  1  0.999415  0.185666  0.500000  1
  Nd  Nd1  1  0.814086  0.814035  0.500000  1
  Nd  Nd2  1  0.185822  0.999992  0.500000  1
  Nd  Nd3  1  0.666860  0.333382  0.000000  1
  Nd  Nd4  1  0.333389  0.667209  0.000000  1
  P  P5  1  0.999919  0.814864  0.000000  1
  P  P6  1  0.184597  0.184954  0.000000  1
  P  P7  1  0.815009  0.999887  0.000000  1
  P  P8  1  0.689977  0.171520  0.500000  1
  P  P9  1  0.828579  0.518212  0.500000  1
  P  P10  1  0.481709  0.309905  0.500000  1
  P  P11  1  0.171627  0.690122  0.500000  1
  P  P12  1  0.518393  0.828534  0.500000  1
  P  P13  1  0.309636  0.481997  0.500000  1
  P  P14  1  0.000555  0.371711  0.000000  1
  P  P15  1  0.628026  0.628019  0.000000  1
  P  P16  1  0.372039  0.999933  0.000000  1
  Ir  Ir17  1  0.194854  0.377268  0.000000  1
  Ir  Ir18  1  0.000192  0.999852  0.000000  1
  Ru  Ru19  1  0.999874  0.712136  0.500000  1
  Ru  Ru20  1  0.288022  0.288169  0.500000  1
  Ru  Ru21  1  0.712340  0.999913  0.500000  1
  Ru  Ru22  1  0.874876  0.362479  0.500000  1
  Ru  Ru23  1  0.637380  0.512166  0.500000  1
  Ru  Ru24  1  0.487753  0.125037  0.500000  1
  Ru  Ru25  1  0.362806  0.875112  0.500000  1
  Ru  Ru26  1  0.511817  0.637114  0.500000  1
  Ru  Ru27  1  0.125422  0.488874  0.500000  1
  Rh  Rh28  1  0.999981  0.550604  0.000000  1
  Rh  Rh29  1  0.449172  0.448890  0.000000  1
  Rh  Rh30  1  0.550982  0.999989  0.000000  1
  Rh  Rh31  1  0.805354  0.182370  0.000000  1
  Rh  Rh32  1  0.817447  0.622615  0.000000  1
  Rh  Rh33  1  0.377108  0.194656  0.000000  1
  Rh  Rh34  1  0.182322  0.805347  0.000000  1
  Rh  Rh35  1  0.622657  0.817470  0.000000  1
