# generated using pymatgen
data_CsNdH12Ir2Pb
_symmetry_space_group_name_H-M   'P 1'
_cell_length_a   5.32338500
_cell_length_b   5.32338419
_cell_length_c   9.33638000
_cell_angle_alpha   90.00000000
_cell_angle_beta   90.00000000
_cell_angle_gamma   119.99999881
_symmetry_Int_Tables_number   1
_chemical_formula_structural   CsNdH12Ir2Pb
_chemical_formula_sum   'Cs1 Nd1 H12 Ir2 Pb1'
_cell_volume   229.13152400
_cell_formula_units_Z   1
loop_
 _symmetry_equiv_pos_site_id
 _symmetry_equiv_pos_as_xyz
  1  'x, y, z'
loop_
 _atom_site_type_symbol
 _atom_site_label
 _atom_site_symmetry_multiplicity
 _atom_site_fract_x
 _atom_site_fract_y
 _atom_site_fract_z
 _atom_site_occupancy
  Cs  Cs0  1  0.000000  0.000000  0.010688  1
  Nd  Nd1  1  0.333333  0.666667  0.619438  1
  H  H2  1  0.179725  0.820275  0.396853  1
  H  H3  1  0.640550  0.820275  0.396853  1
  H  H4  1  0.179725  0.359450  0.396853  1
  H  H5  1  0.827920  0.172080  0.616331  1
  H  H6  1  0.344159  0.172080  0.616331  1
  H  H7  1  0.827920  0.655841  0.616331  1
  H  H8  1  0.523258  0.046517  0.813203  1
  H  H9  1  0.523258  0.476742  0.813203  1
  H  H10  1  0.953483  0.476742  0.813203  1
  H  H11  1  0.467077  0.934155  0.176482  1
  H  H12  1  0.467077  0.532923  0.176482  1
  H  H13  1  0.065845  0.532923  0.176482  1
  Ir  Ir14  1  0.666667  0.333333  0.702979  1
  Ir  Ir15  1  0.333333  0.666667  0.295856  1
  Pb  Pb16  1  0.666667  0.333333  0.362434  1
