# generated using pymatgen
data_TaNbCr3Si
_symmetry_space_group_name_H-M   'P 1'
_cell_length_a   4.86530600
_cell_length_b   4.86530549
_cell_length_c   8.10550200
_cell_angle_alpha   90.00000000
_cell_angle_beta   90.00000000
_cell_angle_gamma   120.00000349
_symmetry_Int_Tables_number   1
_chemical_formula_structural   TaNbCr3Si
_chemical_formula_sum   'Ta2 Nb2 Cr6 Si2'
_cell_volume   166.16165456
_cell_formula_units_Z   2
loop_
 _symmetry_equiv_pos_site_id
 _symmetry_equiv_pos_as_xyz
  1  'x, y, z'
loop_
 _atom_site_type_symbol
 _atom_site_label
 _atom_site_symmetry_multiplicity
 _atom_site_fract_x
 _atom_site_fract_y
 _atom_site_fract_z
 _atom_site_occupancy
  Ta  Ta0  1  0.666667  0.333333  0.935416  1
  Ta  Ta1  1  0.333333  0.666667  0.064584  1
  Nb  Nb2  1  0.333333  0.666667  0.435499  1
  Nb  Nb3  1  0.666667  0.333333  0.564501  1
  Cr  Cr4  1  0.827446  0.172554  0.248937  1
  Cr  Cr5  1  0.827446  0.654892  0.248937  1
  Cr  Cr6  1  0.345108  0.172554  0.248937  1
  Cr  Cr7  1  0.172554  0.827446  0.751063  1
  Cr  Cr8  1  0.172554  0.345108  0.751063  1
  Cr  Cr9  1  0.654892  0.827446  0.751063  1
  Si  Si10  1  0.000000  0.000000  0.500000  1
  Si  Si11  1  0.000000  0.000000  0.000000  1
