# generated using pymatgen
data_NaY6IrI12
_symmetry_space_group_name_H-M   'P 1'
_cell_length_a   9.81432018
_cell_length_b   9.81431979
_cell_length_c   9.81431946
_cell_angle_alpha   106.99620461
_cell_angle_beta   106.99620383
_cell_angle_gamma   106.99619677
_symmetry_Int_Tables_number   1
_chemical_formula_structural   NaY6IrI12
_chemical_formula_sum   'Na1 Y6 Ir1 I12'
_cell_volume   787.35631228
_cell_formula_units_Z   1
loop_
 _symmetry_equiv_pos_site_id
 _symmetry_equiv_pos_as_xyz
  1  'x, y, z'
loop_
 _atom_site_type_symbol
 _atom_site_label
 _atom_site_symmetry_multiplicity
 _atom_site_fract_x
 _atom_site_fract_y
 _atom_site_fract_z
 _atom_site_occupancy
  Na  Na0  1  0.500000  0.500000  0.500000  1
  Y  Y1  1  0.099510  0.028161  0.304081  1
  Y  Y2  1  0.304081  0.099510  0.028161  1
  Y  Y3  1  0.028161  0.304081  0.099510  1
  Y  Y4  1  0.900490  0.971839  0.695919  1
  Y  Y5  1  0.695919  0.900490  0.971839  1
  Y  Y6  1  0.971839  0.695919  0.900490  1
  Ir  Ir7  1  0.000000  0.000000  0.000000  1
  I  I8  1  0.072888  0.680516  0.223878  1
  I  I9  1  0.223878  0.072888  0.680516  1
  I  I10  1  0.680516  0.223878  0.072888  1
  I  I11  1  0.927112  0.319484  0.776122  1
  I  I12  1  0.776122  0.927112  0.319484  1
  I  I13  1  0.319484  0.776122  0.927112  1
  I  I14  1  0.450117  0.141247  0.371792  1
  I  I15  1  0.371792  0.450117  0.141247  1
  I  I16  1  0.141247  0.371792  0.450117  1
  I  I17  1  0.549883  0.858753  0.628208  1
  I  I18  1  0.628208  0.549883  0.858753  1
  I  I19  1  0.858753  0.628208  0.549883  1
