# generated using pymatgen
data_Li4Hf6FeBr18
_symmetry_space_group_name_H-M   'P 1'
_cell_length_a   10.43369856
_cell_length_b   10.34665128
_cell_length_c   10.16642338
_cell_angle_alpha   107.21311421
_cell_angle_beta   102.19017397
_cell_angle_gamma   108.55195673
_symmetry_Int_Tables_number   1
_chemical_formula_structural   Li4Hf6FeBr18
_chemical_formula_sum   'Li4 Hf6 Fe1 Br18'
_cell_volume   935.68230133
_cell_formula_units_Z   1
loop_
 _symmetry_equiv_pos_site_id
 _symmetry_equiv_pos_as_xyz
  1  'x, y, z'
loop_
 _atom_site_type_symbol
 _atom_site_label
 _atom_site_symmetry_multiplicity
 _atom_site_fract_x
 _atom_site_fract_y
 _atom_site_fract_z
 _atom_site_occupancy
  Li  Li0  1  0.513836  0.405399  0.107547  1
  Li  Li1  1  0.486164  0.594601  0.892453  1
  Li  Li2  1  0.578924  0.077790  0.392908  1
  Li  Li3  1  0.421076  0.922210  0.607092  1
  Hf  Hf4  1  0.167897  0.037497  0.225263  1
  Hf  Hf5  1  0.832103  0.962503  0.774737  1
  Hf  Hf6  1  0.872470  0.113505  0.138620  1
  Hf  Hf7  1  0.127530  0.886495  0.861380  1
  Hf  Hf8  1  0.145185  0.241305  0.015357  1
  Hf  Hf9  1  0.854815  0.758695  0.984643  1
  Fe  Fe10  1  0.000000  0.000000  0.000000  1
  Br  Br11  1  0.025469  0.392529  0.172600  1
  Br  Br12  1  0.974531  0.607471  0.827400  1
  Br  Br13  1  0.357533  0.316807  0.271114  1
  Br  Br14  1  0.642467  0.683193  0.728886  1
  Br  Br15  1  0.335711  0.522366  0.043241  1
  Br  Br16  1  0.664289  0.477634  0.956759  1
  Br  Br17  1  0.022719  0.774824  0.232999  1
  Br  Br18  1  0.977281  0.225176  0.767001  1
  Br  Br19  1  0.722719  0.242702  0.294924  1
  Br  Br20  1  0.277281  0.757298  0.705076  1
  Br  Br21  1  0.312712  0.147972  0.869486  1
  Br  Br22  1  0.687288  0.852028  0.130514  1
  Br  Br23  1  0.046095  0.165600  0.402164  1
  Br  Br24  1  0.953905  0.834400  0.597836  1
  Br  Br25  1  0.330644  0.919198  0.100069  1
  Br  Br26  1  0.669356  0.080802  0.899931  1
  Br  Br27  1  0.377271  0.098633  0.490479  1
  Br  Br28  1  0.622729  0.901367  0.509521  1
