# generated using pymatgen
data_Dy5Nb3(P3Rh4)4
_symmetry_space_group_name_H-M   'P 1'
_cell_length_a   12.77254600
_cell_length_b   12.77254610
_cell_length_c   3.93477200
_cell_angle_alpha   90.00000000
_cell_angle_beta   90.00000000
_cell_angle_gamma   119.99999456
_symmetry_Int_Tables_number   1
_chemical_formula_structural   Dy5Nb3(P3Rh4)4
_chemical_formula_sum   'Dy5 Nb3 P12 Rh16'
_cell_volume   555.91089047
_cell_formula_units_Z   1
loop_
 _symmetry_equiv_pos_site_id
 _symmetry_equiv_pos_as_xyz
  1  'x, y, z'
loop_
 _atom_site_type_symbol
 _atom_site_label
 _atom_site_symmetry_multiplicity
 _atom_site_fract_x
 _atom_site_fract_y
 _atom_site_fract_z
 _atom_site_occupancy
  Dy  Dy0  1  0.813252  0.000000  0.500000  1
  Dy  Dy1  1  0.000000  0.813252  0.500000  1
  Dy  Dy2  1  0.186748  0.186748  0.500000  1
  Dy  Dy3  1  0.333333  0.666667  0.000000  1
  Dy  Dy4  1  0.666667  0.333333  0.000000  1
  Nb  Nb5  1  0.449815  0.000000  0.000000  1
  Nb  Nb6  1  0.000000  0.449815  0.000000  1
  Nb  Nb7  1  0.550185  0.550185  0.000000  1
  P  P8  1  0.176469  0.000000  0.000000  1
  P  P9  1  0.000000  0.176469  0.000000  1
  P  P10  1  0.823531  0.823531  0.000000  1
  P  P11  1  0.517733  0.682834  0.500000  1
  P  P12  1  0.317166  0.834899  0.500000  1
  P  P13  1  0.165101  0.482267  0.500000  1
  P  P14  1  0.482267  0.165101  0.500000  1
  P  P15  1  0.682834  0.517733  0.500000  1
  P  P16  1  0.834899  0.317166  0.500000  1
  P  P17  1  0.640862  0.000000  0.000000  1
  P  P18  1  0.000000  0.640862  0.000000  1
  P  P19  1  0.359138  0.359138  0.000000  1
  Rh  Rh20  1  0.279490  0.000000  0.500000  1
  Rh  Rh21  1  0.000000  0.279490  0.500000  1
  Rh  Rh22  1  0.720510  0.720510  0.500000  1
  Rh  Rh23  1  0.626022  0.803428  0.000000  1
  Rh  Rh24  1  0.196572  0.822594  0.000000  1
  Rh  Rh25  1  0.177406  0.373978  0.000000  1
  Rh  Rh26  1  0.373978  0.177406  0.000000  1
  Rh  Rh27  1  0.803428  0.626022  0.000000  1
  Rh  Rh28  1  0.822594  0.196572  0.000000  1
  Rh  Rh29  1  0.512131  0.866156  0.500000  1
  Rh  Rh30  1  0.133844  0.645976  0.500000  1
  Rh  Rh31  1  0.354024  0.487869  0.500000  1
  Rh  Rh32  1  0.487869  0.354024  0.500000  1
  Rh  Rh33  1  0.866156  0.512131  0.500000  1
  Rh  Rh34  1  0.645976  0.133844  0.500000  1
  Rh  Rh35  1  0.000000  0.000000  0.000000  1
