# generated using pymatgen
data_ZrPaAlCo2
_symmetry_space_group_name_H-M   'P 1'
_cell_length_a   7.18620500
_cell_length_b   6.94398000
_cell_length_c   3.42909300
_cell_angle_alpha   90.00000000
_cell_angle_beta   90.00000000
_cell_angle_gamma   90.00000000
_symmetry_Int_Tables_number   1
_chemical_formula_structural   ZrPaAlCo2
_chemical_formula_sum   'Zr2 Pa2 Al2 Co4'
_cell_volume   171.11470274
_cell_formula_units_Z   2
loop_
 _symmetry_equiv_pos_site_id
 _symmetry_equiv_pos_as_xyz
  1  'x, y, z'
loop_
 _atom_site_type_symbol
 _atom_site_label
 _atom_site_symmetry_multiplicity
 _atom_site_fract_x
 _atom_site_fract_y
 _atom_site_fract_z
 _atom_site_occupancy
  Zr  Zr0  1  0.822098  0.676277  0.500000  1
  Zr  Zr1  1  0.322098  0.823723  0.500000  1
  Pa  Pa2  1  0.681529  0.165069  0.500000  1
  Pa  Pa3  1  0.181529  0.334931  0.500000  1
  Al  Al4  1  0.009730  0.980451  0.000000  1
  Al  Al5  1  0.509730  0.519549  0.000000  1
  Co  Co6  1  0.354070  0.143074  0.000000  1
  Co  Co7  1  0.132573  0.602420  0.000000  1
  Co  Co8  1  0.632573  0.897580  0.000000  1
  Co  Co9  1  0.854070  0.356926  0.000000  1
