# generated using pymatgen
data_Er3TmMoRu7
_symmetry_space_group_name_H-M   'P 1'
_cell_length_a   5.45554128
_cell_length_b   5.17753729
_cell_length_c   8.99685200
_cell_angle_alpha   89.99839758
_cell_angle_beta   90.00267564
_cell_angle_gamma   122.03981642
_symmetry_Int_Tables_number   1
_chemical_formula_structural   Er3TmMoRu7
_chemical_formula_sum   'Er3 Tm1 Mo1 Ru7'
_cell_volume   215.41870361
_cell_formula_units_Z   1
loop_
 _symmetry_equiv_pos_site_id
 _symmetry_equiv_pos_as_xyz
  1  'x, y, z'
loop_
 _atom_site_type_symbol
 _atom_site_label
 _atom_site_symmetry_multiplicity
 _atom_site_fract_x
 _atom_site_fract_y
 _atom_site_fract_z
 _atom_site_occupancy
  Er  Er0  1  0.672385  0.345563  0.563405  1
  Er  Er1  1  0.334593  0.669442  0.431850  1
  Er  Er2  1  0.334699  0.669636  0.067995  1
  Tm  Tm3  1  0.672656  0.346082  0.936430  1
  Mo  Mo4  1  0.161568  0.324073  0.750276  1
  Ru  Ru5  1  0.008699  0.017579  0.498378  1
  Ru  Ru6  1  0.008642  0.017415  0.001664  1
  Ru  Ru7  1  0.171109  0.820670  0.750409  1
  Ru  Ru8  1  0.650992  0.820962  0.750404  1
  Ru  Ru9  1  0.821222  0.642365  0.249663  1
  Ru  Ru10  1  0.831458  0.162718  0.249760  1
  Ru  Ru11  1  0.331979  0.163496  0.249765  1
