# generated using pymatgen
data_Sm3ThGa20Pt11
_symmetry_space_group_name_H-M   'P 1'
_cell_length_a   4.30572133
_cell_length_b   10.97951810
_cell_length_c   13.68749004
_cell_angle_alpha   81.50634475
_cell_angle_beta   80.95055937
_cell_angle_gamma   78.69219473
_symmetry_Int_Tables_number   1
_chemical_formula_structural   Sm3ThGa20Pt11
_chemical_formula_sum   'Sm3 Th1 Ga20 Pt11'
_cell_volume   622.03460943
_cell_formula_units_Z   1
loop_
 _symmetry_equiv_pos_site_id
 _symmetry_equiv_pos_as_xyz
  1  'x, y, z'
loop_
 _atom_site_type_symbol
 _atom_site_label
 _atom_site_symmetry_multiplicity
 _atom_site_fract_x
 _atom_site_fract_y
 _atom_site_fract_z
 _atom_site_occupancy
  Sm  Sm0  1  0.877720  0.909313  0.335246  1
  Sm  Sm1  1  0.774566  0.630093  0.820772  1
  Sm  Sm2  1  0.226049  0.368841  0.179062  1
  Th  Th3  1  0.122451  0.089524  0.665576  1
  Ga  Ga4  1  0.005716  0.074410  0.914159  1
  Ga  Ga5  1  0.992949  0.924970  0.089132  1
  Ga  Ga6  1  0.064654  0.676946  0.193747  1
  Ga  Ga7  1  0.933521  0.325878  0.807079  1
  Ga  Ga8  1  0.102269  0.342514  0.452945  1
  Ga  Ga9  1  0.897118  0.659502  0.546263  1
  Ga  Ga10  1  0.201782  0.604742  0.991692  1
  Ga  Ga11  1  0.798425  0.395099  0.008051  1
  Ga  Ga12  1  0.259542  0.781064  0.699854  1
  Ga  Ga13  1  0.742906  0.215563  0.298624  1
  Ga  Ga14  1  0.303663  0.895785  0.496889  1
  Ga  Ga15  1  0.698403  0.103243  0.499950  1
  Ga  Ga16  1  0.387152  0.525855  0.699842  1
  Ga  Ga17  1  0.612525  0.474667  0.300283  1
  Ga  Ga18  1  0.398136  0.201885  0.001843  1
  Ga  Ga19  1  0.602302  0.797324  0.998074  1
  Ga  Ga20  1  0.541654  0.290099  0.626593  1
  Ga  Ga21  1  0.456895  0.714593  0.371616  1
  Ga  Ga22  1  0.635070  0.931497  0.798364  1
  Ga  Ga23  1  0.364486  0.065090  0.205937  1
  Pt  Pt24  1  0.499078  0.501878  0.499965  1
  Pt  Pt25  1  0.027248  0.574338  0.371164  1
  Pt  Pt26  1  0.972787  0.426059  0.628369  1
  Pt  Pt27  1  0.137145  0.836991  0.888718  1
  Pt  Pt28  1  0.863638  0.162461  0.110263  1
  Pt  Pt29  1  0.239549  0.128352  0.392550  1
  Pt  Pt30  1  0.758538  0.873394  0.609530  1
  Pt  Pt31  1  0.344773  0.418112  0.892342  1
  Pt  Pt32  1  0.655830  0.580810  0.107530  1
  Pt  Pt33  1  0.507793  0.168797  0.815618  1
  Pt  Pt34  1  0.493666  0.830309  0.182357  1
