# generated using pymatgen
data_TbNd(NiIr)2
_symmetry_space_group_name_H-M   'P 1'
_cell_length_a   5.25964401
_cell_length_b   5.25964420
_cell_length_c   5.15588600
_cell_angle_alpha   60.65044127
_cell_angle_beta   60.65044013
_cell_angle_gamma   62.03864798
_symmetry_Int_Tables_number   1
_chemical_formula_structural   TbNd(NiIr)2
_chemical_formula_sum   'Tb1 Nd1 Ni2 Ir2'
_cell_volume   103.34326823
_cell_formula_units_Z   1
loop_
 _symmetry_equiv_pos_site_id
 _symmetry_equiv_pos_as_xyz
  1  'x, y, z'
loop_
 _atom_site_type_symbol
 _atom_site_label
 _atom_site_symmetry_multiplicity
 _atom_site_fract_x
 _atom_site_fract_y
 _atom_site_fract_z
 _atom_site_occupancy
  Tb  Tb0  1  0.748484  0.748484  0.751518  1
  Nd  Nd1  1  0.001773  0.001773  0.998227  1
  Ni  Ni2  1  0.375327  0.375327  0.375156  1
  Ni  Ni3  1  0.375327  0.375327  0.874191  1
  Ir  Ir4  1  0.873581  0.375510  0.375455  1
  Ir  Ir5  1  0.375510  0.873581  0.375455  1
