# generated using pymatgen
data_TmPaB6W
_symmetry_space_group_name_H-M   'P 1'
_cell_length_a   3.72475800
_cell_length_b   9.16639900
_cell_length_c   11.53412700
_cell_angle_alpha   90.00000000
_cell_angle_beta   90.00000000
_cell_angle_gamma   90.00000000
_symmetry_Int_Tables_number   1
_chemical_formula_structural   TmPaB6W
_chemical_formula_sum   'Tm4 Pa4 B24 W4'
_cell_volume   393.80529220
_cell_formula_units_Z   4
loop_
 _symmetry_equiv_pos_site_id
 _symmetry_equiv_pos_as_xyz
  1  'x, y, z'
loop_
 _atom_site_type_symbol
 _atom_site_label
 _atom_site_symmetry_multiplicity
 _atom_site_fract_x
 _atom_site_fract_y
 _atom_site_fract_z
 _atom_site_occupancy
  Tm  Tm0  1  0.000000  0.945572  0.373940  1
  Tm  Tm1  1  0.000000  0.054428  0.626060  1
  Tm  Tm2  1  0.000000  0.445572  0.126060  1
  Tm  Tm3  1  0.000000  0.554428  0.873940  1
  Pa  Pa4  1  0.000000  0.321266  0.413449  1
  Pa  Pa5  1  0.000000  0.678734  0.586551  1
  Pa  Pa6  1  0.000000  0.821266  0.086551  1
  Pa  Pa7  1  0.000000  0.178734  0.913449  1
  B  B8  1  0.500000  0.553331  0.433240  1
  B  B9  1  0.500000  0.446669  0.566760  1
  B  B10  1  0.500000  0.053331  0.066760  1
  B  B11  1  0.500000  0.946669  0.933240  1
  B  B12  1  0.500000  0.750136  0.420409  1
  B  B13  1  0.500000  0.249864  0.579591  1
  B  B14  1  0.500000  0.250136  0.079591  1
  B  B15  1  0.500000  0.749864  0.920409  1
  B  B16  1  0.500000  0.793936  0.264544  1
  B  B17  1  0.500000  0.206064  0.735456  1
  B  B18  1  0.500000  0.293936  0.235456  1
  B  B19  1  0.500000  0.706064  0.764544  1
  B  B20  1  0.500000  0.632073  0.184264  1
  B  B21  1  0.500000  0.367927  0.815736  1
  B  B22  1  0.500000  0.132073  0.315736  1
  B  B23  1  0.500000  0.867927  0.684264  1
  B  B24  1  0.500000  0.981442  0.213145  1
  B  B25  1  0.500000  0.018558  0.786855  1
  B  B26  1  0.500000  0.481442  0.286855  1
  B  B27  1  0.500000  0.518558  0.713145  1
  B  B28  1  0.500000  0.607267  0.029776  1
  B  B29  1  0.500000  0.392733  0.970224  1
  B  B30  1  0.500000  0.107267  0.470224  1
  B  B31  1  0.500000  0.892733  0.529776  1
  W  W32  1  0.000000  0.638918  0.321307  1
  W  W33  1  0.000000  0.361082  0.678693  1
  W  W34  1  0.000000  0.138918  0.178693  1
  W  W35  1  0.000000  0.861082  0.821307  1
