# generated using pymatgen
data_Zr3In3CoPt2
_symmetry_space_group_name_H-M   'P 1'
_cell_length_a   7.50580600
_cell_length_b   7.50580542
_cell_length_c   3.52936900
_cell_angle_alpha   90.00000000
_cell_angle_beta   90.00000000
_cell_angle_gamma   120.00000256
_symmetry_Int_Tables_number   1
_chemical_formula_structural   Zr3In3CoPt2
_chemical_formula_sum   'Zr3 In3 Co1 Pt2'
_cell_volume   172.19570859
_cell_formula_units_Z   1
loop_
 _symmetry_equiv_pos_site_id
 _symmetry_equiv_pos_as_xyz
  1  'x, y, z'
loop_
 _atom_site_type_symbol
 _atom_site_label
 _atom_site_symmetry_multiplicity
 _atom_site_fract_x
 _atom_site_fract_y
 _atom_site_fract_z
 _atom_site_occupancy
  Zr  Zr0  1  0.000000  0.606191  0.500000  1
  Zr  Zr1  1  0.606191  0.000000  0.500000  1
  Zr  Zr2  1  0.393809  0.393809  0.500000  1
  In  In3  1  0.000000  0.259007  0.000000  1
  In  In4  1  0.259007  0.000000  0.000000  1
  In  In5  1  0.740993  0.740993  0.000000  1
  Co  Co6  1  0.000000  0.000000  0.500000  1
  Pt  Pt7  1  0.666667  0.333333  0.000000  1
  Pt  Pt8  1  0.333333  0.666667  0.000000  1
