# generated using pymatgen
data_DyEr15(MgSn4)4
_symmetry_space_group_name_H-M   'P 1'
_cell_length_a   7.62376300
_cell_length_b   8.18979200
_cell_length_c   15.18365801
_cell_angle_alpha   90.00300975
_cell_angle_beta   89.99726243
_cell_angle_gamma   89.99842037
_symmetry_Int_Tables_number   1
_chemical_formula_structural   DyEr15(MgSn4)4
_chemical_formula_sum   'Dy1 Er15 Mg4 Sn16'
_cell_volume   948.02255768
_cell_formula_units_Z   1
loop_
 _symmetry_equiv_pos_site_id
 _symmetry_equiv_pos_as_xyz
  1  'x, y, z'
loop_
 _atom_site_type_symbol
 _atom_site_label
 _atom_site_symmetry_multiplicity
 _atom_site_fract_x
 _atom_site_fract_y
 _atom_site_fract_z
 _atom_site_occupancy
  Dy  Dy0  1  0.998918  0.184785  0.090650  1
  Er  Er1  1  0.001025  0.815161  0.909373  1
  Er  Er2  1  0.501051  0.684825  0.909385  1
  Er  Er3  1  0.001048  0.815155  0.590625  1
  Er  Er4  1  0.498958  0.315208  0.090620  1
  Er  Er5  1  0.998938  0.184814  0.409320  1
  Er  Er6  1  0.498950  0.315177  0.409370  1
  Er  Er7  1  0.501043  0.684827  0.590625  1
  Er  Er8  1  0.335101  0.169016  0.628747  1
  Er  Er9  1  0.664941  0.830988  0.371271  1
  Er  Er10  1  0.164916  0.669011  0.371270  1
  Er  Er11  1  0.664867  0.830935  0.128730  1
  Er  Er12  1  0.835070  0.331008  0.628743  1
  Er  Er13  1  0.335080  0.168995  0.871232  1
  Er  Er14  1  0.835054  0.331015  0.871218  1
  Er  Er15  1  0.164937  0.669009  0.128728  1
  Mg  Mg16  1  0.159253  0.505411  0.750002  1
  Mg  Mg17  1  0.840726  0.494623  0.250001  1
  Mg  Mg18  1  0.340746  0.005390  0.250000  1
  Mg  Mg19  1  0.659246  0.994596  0.750009  1
  Sn  Sn20  1  0.021387  0.091715  0.749999  1
  Sn  Sn21  1  0.978565  0.908146  0.250048  1
  Sn  Sn22  1  0.478624  0.591707  0.249995  1
  Sn  Sn23  1  0.521388  0.408302  0.750001  1
  Sn  Sn24  1  0.182660  0.463029  0.538493  1
  Sn  Sn25  1  0.817347  0.536973  0.461524  1
  Sn  Sn26  1  0.317324  0.963026  0.461523  1
  Sn  Sn27  1  0.817300  0.537101  0.038447  1
  Sn  Sn28  1  0.682653  0.036967  0.538488  1
  Sn  Sn29  1  0.182700  0.463126  0.961496  1
  Sn  Sn30  1  0.682524  0.036935  0.961486  1
  Sn  Sn31  1  0.317592  0.962889  0.038422  1
  Sn  Sn32  1  0.302672  0.846693  0.750010  1
  Sn  Sn33  1  0.697217  0.153291  0.250056  1
  Sn  Sn34  1  0.197501  0.346838  0.250094  1
  Sn  Sn35  1  0.802680  0.653308  0.750000  1
