# generated using pymatgen
data_Pr6GaSiBr6
_symmetry_space_group_name_H-M   'P 1'
_cell_length_a   10.58432406
_cell_length_b   10.58432358
_cell_length_c   10.50950431
_cell_angle_alpha   109.48178453
_cell_angle_beta   109.48178395
_cell_angle_gamma   109.73685613
_symmetry_Int_Tables_number   1
_chemical_formula_structural   Pr6GaSiBr6
_chemical_formula_sum   'Pr12 Ga2 Si2 Br12'
_cell_volume   903.10421722
_cell_formula_units_Z   2
loop_
 _symmetry_equiv_pos_site_id
 _symmetry_equiv_pos_as_xyz
  1  'x, y, z'
loop_
 _atom_site_type_symbol
 _atom_site_label
 _atom_site_symmetry_multiplicity
 _atom_site_fract_x
 _atom_site_fract_y
 _atom_site_fract_z
 _atom_site_occupancy
  Pr  Pr0  1  0.479743  0.491875  0.237973  1
  Pr  Pr1  1  0.753902  0.241771  0.262027  1
  Pr  Pr2  1  0.754038  0.011227  0.493102  1
  Pr  Pr3  1  0.239064  0.481875  0.493102  1
  Pr  Pr4  1  0.258229  0.746098  0.237973  1
  Pr  Pr5  1  0.018125  0.260936  0.006898  1
  Pr  Pr6  1  0.008125  0.020257  0.262027  1
  Pr  Pr7  1  0.488773  0.745962  0.006898  1
  Pr  Pr8  1  0.491766  0.241766  0.483532  1
  Pr  Pr9  1  0.011072  0.488928  0.750000  1
  Pr  Pr10  1  0.258234  0.008234  0.016468  1
  Pr  Pr11  1  0.238928  0.261072  0.750000  1
  Ga  Ga12  1  0.250306  0.249694  0.250000  1
  Ga  Ga13  1  0.499694  0.000306  0.250000  1
  Si  Si14  1  0.999556  0.249556  0.499111  1
  Si  Si15  1  0.250444  0.500444  0.000889  1
  Br  Br16  1  0.249956  0.753522  0.745969  1
  Br  Br17  1  0.507553  0.503987  0.754031  1
  Br  Br18  1  0.991814  0.745670  0.995777  1
  Br  Br19  1  0.746478  0.250044  0.754031  1
  Br  Br20  1  0.996013  0.992446  0.745969  1
  Br  Br21  1  0.249893  0.996037  0.504223  1
  Br  Br22  1  0.754330  0.508185  0.504223  1
  Br  Br23  1  0.503963  0.250107  0.995777  1
  Br  Br24  1  0.754151  0.745849  0.250000  1
  Br  Br25  1  0.746333  0.996333  0.992666  1
  Br  Br26  1  0.995849  0.504151  0.250000  1
  Br  Br27  1  0.503667  0.753667  0.507334  1
