# generated using pymatgen
data_Ho4Er12Ga6FeCo
_symmetry_space_group_name_H-M   'P 1'
_cell_length_a   9.92259800
_cell_length_b   9.92223693
_cell_length_c   6.90455900
_cell_angle_alpha   90.00145337
_cell_angle_beta   90.00013553
_cell_angle_gamma   120.00234716
_symmetry_Int_Tables_number   1
_chemical_formula_structural   Ho4Er12Ga6FeCo
_chemical_formula_sum   'Ho4 Er12 Ga6 Fe1 Co1'
_cell_volume   588.69628404
_cell_formula_units_Z   1
loop_
 _symmetry_equiv_pos_site_id
 _symmetry_equiv_pos_as_xyz
  1  'x, y, z'
loop_
 _atom_site_type_symbol
 _atom_site_label
 _atom_site_symmetry_multiplicity
 _atom_site_fract_x
 _atom_site_fract_y
 _atom_site_fract_z
 _atom_site_occupancy
  Ho  Ho0  1  0.927930  0.463992  0.707211  1
  Ho  Ho1  1  0.536009  0.072087  0.707202  1
  Ho  Ho2  1  0.999983  0.000040  0.231797  1
  Ho  Ho3  1  0.000017  0.999943  0.732728  1
  Er  Er4  1  0.173175  0.826839  0.510195  1
  Er  Er5  1  0.653614  0.826717  0.510246  1
  Er  Er6  1  0.173290  0.346402  0.510246  1
  Er  Er7  1  0.826778  0.173231  0.011782  1
  Er  Er8  1  0.346587  0.173336  0.011674  1
  Er  Er9  1  0.826626  0.653349  0.011653  1
  Er  Er10  1  0.333386  0.666601  0.830357  1
  Er  Er11  1  0.666623  0.333355  0.329261  1
  Er  Er12  1  0.462685  0.537331  0.207826  1
  Er  Er13  1  0.074698  0.537378  0.207901  1
  Er  Er14  1  0.462612  0.925271  0.207914  1
  Er  Er15  1  0.536079  0.463917  0.707190  1
  Ga  Ga16  1  0.163344  0.836673  0.958476  1
  Ga  Ga17  1  0.673335  0.836688  0.958446  1
  Ga  Ga18  1  0.163336  0.326688  0.958422  1
  Ga  Ga19  1  0.836165  0.163842  0.458043  1
  Ga  Ga20  1  0.327755  0.163942  0.458139  1
  Ga  Ga21  1  0.836059  0.672243  0.458118  1
  Fe  Fe22  1  0.333348  0.666696  0.445531  1
  Co  Co23  1  0.666567  0.333440  0.943685  1
