# generated using pymatgen
data_Ba3BiPb4
_symmetry_space_group_name_H-M   'P 1'
_cell_length_a   9.60060971
_cell_length_b   9.60061048
_cell_length_c   9.60061009
_cell_angle_alpha   120.59750309
_cell_angle_beta   120.59750786
_cell_angle_gamma   88.96817238
_symmetry_Int_Tables_number   1
_chemical_formula_structural   Ba3BiPb4
_chemical_formula_sum   'Ba6 Bi2 Pb8'
_cell_volume   619.96198098
_cell_formula_units_Z   2
loop_
 _symmetry_equiv_pos_site_id
 _symmetry_equiv_pos_as_xyz
  1  'x, y, z'
loop_
 _atom_site_type_symbol
 _atom_site_label
 _atom_site_symmetry_multiplicity
 _atom_site_fract_x
 _atom_site_fract_y
 _atom_site_fract_z
 _atom_site_occupancy
  Ba  Ba0  1  0.250000  0.250000  0.000000  1
  Ba  Ba1  1  0.750000  0.750000  0.000000  1
  Ba  Ba2  1  0.163479  0.663479  0.826959  1
  Ba  Ba3  1  0.836521  0.336521  0.173041  1
  Ba  Ba4  1  0.663479  0.836521  0.500000  1
  Ba  Ba5  1  0.336521  0.163479  0.500000  1
  Bi  Bi6  1  0.000000  0.000000  0.000000  1
  Bi  Bi7  1  0.500000  0.500000  0.000000  1
  Pb  Pb8  1  0.829868  0.329868  0.783793  1
  Pb  Pb9  1  0.170132  0.670132  0.216207  1
  Pb  Pb10  1  0.546076  0.046076  0.216207  1
  Pb  Pb11  1  0.329868  0.546076  0.500000  1
  Pb  Pb12  1  0.953924  0.170132  0.500000  1
  Pb  Pb13  1  0.453924  0.953924  0.783793  1
  Pb  Pb14  1  0.670132  0.453924  0.500000  1
  Pb  Pb15  1  0.046076  0.829868  0.500000  1
