# generated using pymatgen
data_Tb2Dy2TmSi3
_symmetry_space_group_name_H-M   'P 1'
_cell_length_a   8.44742907
_cell_length_b   8.44550139
_cell_length_c   6.34021300
_cell_angle_alpha   90.00146126
_cell_angle_beta   89.99927235
_cell_angle_gamma   119.99246793
_symmetry_Int_Tables_number   1
_chemical_formula_structural   Tb2Dy2TmSi3
_chemical_formula_sum   'Tb4 Dy4 Tm2 Si6'
_cell_volume   391.75759860
_cell_formula_units_Z   2
loop_
 _symmetry_equiv_pos_site_id
 _symmetry_equiv_pos_as_xyz
  1  'x, y, z'
loop_
 _atom_site_type_symbol
 _atom_site_label
 _atom_site_symmetry_multiplicity
 _atom_site_fract_x
 _atom_site_fract_y
 _atom_site_fract_z
 _atom_site_occupancy
  Tb  Tb0  1  0.000000  0.244587  0.248113  1
  Tb  Tb1  1  0.244691  0.244635  0.751888  1
  Tb  Tb2  1  0.755309  0.999944  0.751888  1
  Tb  Tb3  1  0.000000  0.755418  0.751888  1
  Dy  Dy4  1  0.666622  0.333336  0.499964  1
  Dy  Dy5  1  0.333378  0.666715  0.499964  1
  Dy  Dy6  1  0.755340  0.755314  0.248081  1
  Dy  Dy7  1  0.244660  0.999974  0.248081  1
  Tm  Tm8  1  0.333372  0.666716  0.000050  1
  Tm  Tm9  1  0.666628  0.333343  0.000050  1
  Si  Si10  1  0.394584  0.394479  0.244784  1
  Si  Si11  1  0.605416  0.999895  0.244784  1
  Si  Si12  1  0.000000  0.605687  0.244786  1
  Si  Si13  1  0.605470  0.605454  0.755231  1
  Si  Si14  1  0.394530  0.999983  0.755231  1
  Si  Si15  1  0.000000  0.394518  0.755217  1
