# generated using pymatgen
data_CeDy7(AgIr)2
_symmetry_space_group_name_H-M   'P 1'
_cell_length_a   9.56384337
_cell_length_b   9.56384476
_cell_length_c   9.54645800
_cell_angle_alpha   60.06011968
_cell_angle_beta   60.06011487
_cell_angle_gamma   60.09145579
_symmetry_Int_Tables_number   1
_chemical_formula_structural   CeDy7(AgIr)2
_chemical_formula_sum   'Ce2 Dy14 Ag4 Ir4'
_cell_volume   618.42365904
_cell_formula_units_Z   2
loop_
 _symmetry_equiv_pos_site_id
 _symmetry_equiv_pos_as_xyz
  1  'x, y, z'
loop_
 _atom_site_type_symbol
 _atom_site_label
 _atom_site_symmetry_multiplicity
 _atom_site_fract_x
 _atom_site_fract_y
 _atom_site_fract_z
 _atom_site_occupancy
  Ce  Ce0  1  0.600310  0.600310  0.602387  1
  Ce  Ce1  1  0.600310  0.600310  0.196992  1
  Dy  Dy2  1  0.603898  0.189540  0.603281  1
  Dy  Dy3  1  0.189540  0.603898  0.603281  1
  Dy  Dy4  1  0.061987  0.438151  0.440816  1
  Dy  Dy5  1  0.438151  0.061987  0.059045  1
  Dy  Dy6  1  0.438151  0.061987  0.440816  1
  Dy  Dy7  1  0.061987  0.438151  0.059045  1
  Dy  Dy8  1  0.437199  0.437199  0.062801  1
  Dy  Dy9  1  0.059805  0.059805  0.440195  1
  Dy  Dy10  1  0.186354  0.813064  0.813086  1
  Dy  Dy11  1  0.813064  0.186354  0.187496  1
  Dy  Dy12  1  0.813064  0.186354  0.813086  1
  Dy  Dy13  1  0.186354  0.813064  0.187496  1
  Dy  Dy14  1  0.812324  0.812324  0.187676  1
  Dy  Dy15  1  0.187644  0.187644  0.812356  1
  Ag  Ag16  1  0.833344  0.833344  0.830787  1
  Ag  Ag17  1  0.833344  0.833344  0.502525  1
  Ag  Ag18  1  0.833305  0.501501  0.832597  1
  Ag  Ag19  1  0.501501  0.833305  0.832597  1
  Ir  Ir20  1  0.394674  0.394674  0.390590  1
  Ir  Ir21  1  0.394674  0.394674  0.820064  1
  Ir  Ir22  1  0.397986  0.821028  0.390493  1
  Ir  Ir23  1  0.821028  0.397986  0.390493  1
