# generated using pymatgen
data_Tb17Dy2CdIr12
_symmetry_space_group_name_H-M   'P 1'
_cell_length_a   10.92534500
_cell_length_b   10.92534500
_cell_length_c   6.33117500
_cell_angle_alpha   90.00000000
_cell_angle_beta   90.00000000
_cell_angle_gamma   90.00000000
_symmetry_Int_Tables_number   1
_chemical_formula_structural   Tb17Dy2CdIr12
_chemical_formula_sum   'Tb17 Dy2 Cd1 Ir12'
_cell_volume   755.70907584
_cell_formula_units_Z   1
loop_
 _symmetry_equiv_pos_site_id
 _symmetry_equiv_pos_as_xyz
  1  'x, y, z'
loop_
 _atom_site_type_symbol
 _atom_site_label
 _atom_site_symmetry_multiplicity
 _atom_site_fract_x
 _atom_site_fract_y
 _atom_site_fract_z
 _atom_site_occupancy
  Tb  Tb0  1  0.282037  0.083919  0.380337  1
  Tb  Tb1  1  0.291530  0.911452  0.879295  1
  Tb  Tb2  1  0.708470  0.088548  0.879295  1
  Tb  Tb3  1  0.717963  0.916081  0.380337  1
  Tb  Tb4  1  0.588751  0.791834  0.882074  1
  Tb  Tb5  1  0.587229  0.208030  0.378268  1
  Tb  Tb6  1  0.412771  0.791970  0.378268  1
  Tb  Tb7  1  0.411249  0.208166  0.882074  1
  Tb  Tb8  1  0.208030  0.412771  0.621732  1
  Tb  Tb9  1  0.208166  0.588751  0.117926  1
  Tb  Tb10  1  0.791834  0.411249  0.117926  1
  Tb  Tb11  1  0.791970  0.587229  0.621732  1
  Tb  Tb12  1  0.911452  0.708470  0.120705  1
  Tb  Tb13  1  0.916081  0.282037  0.619663  1
  Tb  Tb14  1  0.083919  0.717963  0.619663  1
  Tb  Tb15  1  0.088548  0.291530  0.120705  1
  Tb  Tb16  1  0.000000  0.000000  0.000000  1
  Dy  Dy17  1  0.500000  0.500000  0.000000  1
  Dy  Dy18  1  0.500000  0.500000  0.500000  1
  Cd  Cd19  1  0.000000  0.000000  0.500000  1
  Ir  Ir20  1  0.843997  0.157797  0.241410  1
  Ir  Ir21  1  0.842203  0.843997  0.758590  1
  Ir  Ir22  1  0.157797  0.156003  0.758590  1
  Ir  Ir23  1  0.156003  0.842203  0.241410  1
  Ir  Ir24  1  0.654859  0.346650  0.746525  1
  Ir  Ir25  1  0.653350  0.654859  0.253475  1
  Ir  Ir26  1  0.346650  0.345141  0.253475  1
  Ir  Ir27  1  0.345141  0.653350  0.746525  1
  Ir  Ir28  1  0.500000  0.000000  0.125617  1
  Ir  Ir29  1  0.500000  0.000000  0.619542  1
  Ir  Ir30  1  0.000000  0.500000  0.874383  1
  Ir  Ir31  1  0.000000  0.500000  0.380458  1
