# generated using pymatgen
data_Li2Nb4Co16Mo2As5P7
_symmetry_space_group_name_H-M   'P 1'
_cell_length_a   12.19672400
_cell_length_b   12.16684714
_cell_length_c   3.63815800
_cell_angle_alpha   90.00000000
_cell_angle_beta   90.00000000
_cell_angle_gamma   120.14330735
_symmetry_Int_Tables_number   1
_chemical_formula_structural   Li2Nb4Co16Mo2As5P7
_chemical_formula_sum   'Li2 Nb4 Co16 Mo2 As5 P7'
_cell_volume   466.87914571
_cell_formula_units_Z   1
loop_
 _symmetry_equiv_pos_site_id
 _symmetry_equiv_pos_as_xyz
  1  'x, y, z'
loop_
 _atom_site_type_symbol
 _atom_site_label
 _atom_site_symmetry_multiplicity
 _atom_site_fract_x
 _atom_site_fract_y
 _atom_site_fract_z
 _atom_site_occupancy
  Li  Li0  1  0.333778  0.666735  0.000000  1
  Li  Li1  1  0.691168  0.330213  0.000000  1
  Nb  Nb2  1  0.821630  0.999974  0.500000  1
  Nb  Nb3  1  0.998549  0.821723  0.500000  1
  Nb  Nb4  1  0.175905  0.177159  0.500000  1
  Nb  Nb5  1  0.555331  0.555791  0.000000  1
  Co  Co6  1  0.272448  0.000814  0.500000  1
  Co  Co7  1  0.997082  0.272787  0.500000  1
  Co  Co8  1  0.728480  0.727640  0.500000  1
  Co  Co9  1  0.643410  0.817322  0.000000  1
  Co  Co10  1  0.184646  0.827917  0.000000  1
  Co  Co11  1  0.169277  0.357046  0.000000  1
  Co  Co12  1  0.355592  0.171884  0.000000  1
  Co  Co13  1  0.815059  0.639640  0.000000  1
  Co  Co14  1  0.828057  0.190670  0.000000  1
  Co  Co15  1  0.533706  0.885399  0.500000  1
  Co  Co16  1  0.116481  0.651273  0.500000  1
  Co  Co17  1  0.345955  0.469092  0.500000  1
  Co  Co18  1  0.462900  0.347520  0.500000  1
  Co  Co19  1  0.875960  0.518190  0.500000  1
  Co  Co20  1  0.657012  0.128220  0.500000  1
  Co  Co21  1  0.999708  0.000265  0.000000  1
  Mo  Mo22  1  0.448782  0.003298  0.000000  1
  Mo  Mo23  1  0.995076  0.443783  0.000000  1
  As  As24  1  0.509877  0.686958  0.500000  1
  As  As25  1  0.316786  0.829166  0.500000  1
  As  As26  1  0.169480  0.490176  0.500000  1
  As  As27  1  0.491088  0.175035  0.500000  1
  As  As28  1  0.683185  0.504864  0.500000  1
  P  P29  1  0.170099  0.999282  0.000000  1
  P  P30  1  0.997411  0.170564  0.000000  1
  P  P31  1  0.828877  0.827970  0.000000  1
  P  P32  1  0.834389  0.314089  0.500000  1
  P  P33  1  0.646020  0.004242  0.000000  1
  P  P34  1  0.999120  0.642969  0.000000  1
  P  P35  1  0.347674  0.350326  0.000000  1
