# generated using pymatgen
data_CuBi3IrRu3O14
_symmetry_space_group_name_H-M   'P 1'
_cell_length_a   7.34599202
_cell_length_b   7.34599307
_cell_length_c   7.19460403
_cell_angle_alpha   59.30146688
_cell_angle_beta   59.30146700
_cell_angle_gamma   60.00000266
_symmetry_Int_Tables_number   1
_chemical_formula_structural   CuBi3IrRu3O14
_chemical_formula_sum   'Cu1 Bi3 Ir1 Ru3 O14'
_cell_volume   271.59754270
_cell_formula_units_Z   1
loop_
 _symmetry_equiv_pos_site_id
 _symmetry_equiv_pos_as_xyz
  1  'x, y, z'
loop_
 _atom_site_type_symbol
 _atom_site_label
 _atom_site_symmetry_multiplicity
 _atom_site_fract_x
 _atom_site_fract_y
 _atom_site_fract_z
 _atom_site_occupancy
  Cu  Cu0  1  0.125000  0.125000  0.625000  1
  Bi  Bi1  1  0.125000  0.625000  0.125000  1
  Bi  Bi2  1  0.625000  0.125000  0.125000  1
  Bi  Bi3  1  0.125000  0.125000  0.125000  1
  Ir  Ir4  1  0.625000  0.625000  0.125000  1
  Ru  Ru5  1  0.625000  0.125000  0.625000  1
  Ru  Ru6  1  0.125000  0.625000  0.625000  1
  Ru  Ru7  1  0.625000  0.625000  0.625000  1
  O  O8  1  0.234062  0.234062  0.297815  1
  O  O9  1  0.015938  0.015938  0.952185  1
  O  O10  1  0.562864  0.945898  0.545341  1
  O  O11  1  0.294338  0.708388  0.288885  1
  O  O12  1  0.541612  0.541612  0.961115  1
  O  O13  1  0.945898  0.562864  0.545341  1
  O  O14  1  0.541612  0.955662  0.961115  1
  O  O15  1  0.945898  0.945898  0.545341  1
  O  O16  1  0.955662  0.541612  0.961115  1
  O  O17  1  0.708388  0.294338  0.288885  1
  O  O18  1  0.304102  0.687136  0.704659  1
  O  O19  1  0.687136  0.304102  0.704659  1
  O  O20  1  0.304102  0.304102  0.704659  1
  O  O21  1  0.708388  0.708388  0.288885  1
