# generated using pymatgen
data_Cu3Ag2SbO8
_symmetry_space_group_name_H-M   'P 1'
_cell_length_a   6.12744624
_cell_length_b   6.32158749
_cell_length_c   10.62536900
_cell_angle_alpha   106.28291676
_cell_angle_beta   89.98405709
_cell_angle_gamma   61.01788199
_symmetry_Int_Tables_number   1
_chemical_formula_structural   Cu3Ag2SbO8
_chemical_formula_sum   'Cu6 Ag4 Sb2 O16'
_cell_volume   341.02100598
_cell_formula_units_Z   2
loop_
 _symmetry_equiv_pos_site_id
 _symmetry_equiv_pos_as_xyz
  1  'x, y, z'
loop_
 _atom_site_type_symbol
 _atom_site_label
 _atom_site_symmetry_multiplicity
 _atom_site_fract_x
 _atom_site_fract_y
 _atom_site_fract_z
 _atom_site_occupancy
  Cu  Cu0  1  0.249857  0.000127  0.750061  1
  Cu  Cu1  1  0.750048  0.000221  0.250074  1
  Cu  Cu2  1  0.999614  0.000288  0.500134  1
  Cu  Cu3  1  0.749834  0.999801  0.749753  1
  Cu  Cu4  1  0.250138  0.000087  0.250111  1
  Cu  Cu5  1  0.500497  0.999335  0.999926  1
  Ag  Ag6  1  0.279915  0.440498  0.573141  1
  Ag  Ag7  1  0.779913  0.440353  0.073324  1
  Ag  Ag8  1  0.219878  0.559515  0.926740  1
  Ag  Ag9  1  0.719926  0.559911  0.426815  1
  Sb  Sb10  1  0.749905  0.500062  0.749986  1
  Sb  Sb11  1  0.250036  0.500015  0.249910  1
  O  O12  1  0.060429  0.879017  0.646420  1
  O  O13  1  0.560870  0.878741  0.146419  1
  O  O14  1  0.439504  0.120945  0.853652  1
  O  O15  1  0.939530  0.121357  0.353722  1
  O  O16  1  0.956873  0.278735  0.857520  1
  O  O17  1  0.456908  0.278798  0.357407  1
  O  O18  1  0.595777  0.278347  0.688881  1
  O  O19  1  0.095996  0.278380  0.189094  1
  O  O20  1  0.029565  0.278347  0.592893  1
  O  O21  1  0.529567  0.277979  0.092667  1
  O  O22  1  0.470624  0.721116  0.907103  1
  O  O23  1  0.970444  0.721775  0.407077  1
  O  O24  1  0.903877  0.721604  0.810918  1
  O  O25  1  0.404216  0.721483  0.310975  1
  O  O26  1  0.543014  0.721439  0.642660  1
  O  O27  1  0.043245  0.721731  0.142618  1
