# generated using pymatgen
data_Y5Ho15Cd6TcRu
_symmetry_space_group_name_H-M   'P 1'
_cell_length_a   9.55432915
_cell_length_b   9.55432872
_cell_length_c   9.87600800
_cell_angle_alpha   90.00000000
_cell_angle_beta   90.00000000
_cell_angle_gamma   120.02003257
_symmetry_Int_Tables_number   1
_chemical_formula_structural   Y5Ho15Cd6TcRu
_chemical_formula_sum   'Y5 Ho15 Cd6 Tc1 Ru1'
_cell_volume   780.59315722
_cell_formula_units_Z   1
loop_
 _symmetry_equiv_pos_site_id
 _symmetry_equiv_pos_as_xyz
  1  'x, y, z'
loop_
 _atom_site_type_symbol
 _atom_site_label
 _atom_site_symmetry_multiplicity
 _atom_site_fract_x
 _atom_site_fract_y
 _atom_site_fract_z
 _atom_site_occupancy
  Y  Y0  1  0.539956  0.460044  0.250000  1
  Y  Y1  1  0.539992  0.079962  0.250000  1
  Y  Y2  1  0.920038  0.460008  0.250000  1
  Y  Y3  1  0.458891  0.917542  0.750000  1
  Y  Y4  1  0.082458  0.541109  0.750000  1
  Ho  Ho5  1  0.999969  0.000031  0.500176  1
  Ho  Ho6  1  0.999969  0.000031  0.999824  1
  Ho  Ho7  1  0.209966  0.790034  0.441135  1
  Ho  Ho8  1  0.210136  0.420037  0.441243  1
  Ho  Ho9  1  0.579963  0.789864  0.441243  1
  Ho  Ho10  1  0.789821  0.210179  0.559350  1
  Ho  Ho11  1  0.789635  0.579601  0.559393  1
  Ho  Ho12  1  0.420399  0.210365  0.559393  1
  Ho  Ho13  1  0.789821  0.210179  0.940650  1
  Ho  Ho14  1  0.789635  0.579601  0.940607  1
  Ho  Ho15  1  0.420399  0.210365  0.940607  1
  Ho  Ho16  1  0.209966  0.790034  0.058865  1
  Ho  Ho17  1  0.210136  0.420037  0.058757  1
  Ho  Ho18  1  0.579963  0.789864  0.058757  1
  Ho  Ho19  1  0.458996  0.541004  0.750000  1
  Cd  Cd20  1  0.885521  0.114479  0.250000  1
  Cd  Cd21  1  0.885573  0.771089  0.250000  1
  Cd  Cd22  1  0.228911  0.114427  0.250000  1
  Cd  Cd23  1  0.114271  0.885729  0.750000  1
  Cd  Cd24  1  0.114472  0.228754  0.750000  1
  Cd  Cd25  1  0.771246  0.885528  0.750000  1
  Tc  Tc26  1  0.333344  0.666656  0.250000  1
  Ru  Ru27  1  0.666554  0.333446  0.750000  1
