# generated using pymatgen
data_Ba2CeSmF10
_symmetry_space_group_name_H-M   'P 1'
_cell_length_a   8.63440743
_cell_length_b   8.63440794
_cell_length_c   6.12843416
_cell_angle_alpha   89.20182077
_cell_angle_beta   89.20182003
_cell_angle_gamma   149.46338348
_symmetry_Int_Tables_number   1
_chemical_formula_structural   Ba2CeSmF10
_chemical_formula_sum   'Ba2 Ce1 Sm1 F10'
_cell_volume   231.81729982
_cell_formula_units_Z   1
loop_
 _symmetry_equiv_pos_site_id
 _symmetry_equiv_pos_as_xyz
  1  'x, y, z'
loop_
 _atom_site_type_symbol
 _atom_site_label
 _atom_site_symmetry_multiplicity
 _atom_site_fract_x
 _atom_site_fract_y
 _atom_site_fract_z
 _atom_site_occupancy
  Ba  Ba0  1  0.325220  0.674780  0.750000  1
  Ba  Ba1  1  0.675139  0.324861  0.250000  1
  Ce  Ce2  1  0.073558  0.926442  0.750000  1
  Sm  Sm3  1  0.924951  0.075049  0.250000  1
  F  F4  1  0.734517  0.811957  0.591998  1
  F  F5  1  0.806856  0.735593  0.102524  1
  F  F6  1  0.803484  0.173944  0.009595  1
  F  F7  1  0.621641  0.378359  0.750000  1
  F  F8  1  0.826056  0.196516  0.490405  1
  F  F9  1  0.176213  0.801612  0.504726  1
  F  F10  1  0.381528  0.618472  0.250000  1
  F  F11  1  0.198388  0.823787  0.995274  1
  F  F12  1  0.188043  0.265483  0.908002  1
  F  F13  1  0.264407  0.193144  0.397476  1
