# generated using pymatgen
data_Y8Er3TmIn20
_symmetry_space_group_name_H-M   'P 1'
_cell_length_a   6.51634125
_cell_length_b   10.41670000
_cell_length_c   12.26968000
_cell_angle_alpha   90.00000000
_cell_angle_beta   90.01619926
_cell_angle_gamma   90.00000000
_symmetry_Int_Tables_number   1
_chemical_formula_structural   Y8Er3TmIn20
_chemical_formula_sum   'Y8 Er3 Tm1 In20'
_cell_volume   832.85077721
_cell_formula_units_Z   1
loop_
 _symmetry_equiv_pos_site_id
 _symmetry_equiv_pos_as_xyz
  1  'x, y, z'
loop_
 _atom_site_type_symbol
 _atom_site_label
 _atom_site_symmetry_multiplicity
 _atom_site_fract_x
 _atom_site_fract_y
 _atom_site_fract_z
 _atom_site_occupancy
  Y  Y0  1  0.890070  0.492452  0.142051  1
  Y  Y1  1  0.609784  0.007297  0.642229  1
  Y  Y2  1  0.110027  0.992219  0.858220  1
  Y  Y3  1  0.389869  0.507134  0.358031  1
  Y  Y4  1  0.110027  0.507781  0.858220  1
  Y  Y5  1  0.389869  0.992866  0.358031  1
  Y  Y6  1  0.890070  0.007548  0.142051  1
  Y  Y7  1  0.609784  0.492703  0.642229  1
  Er  Er8  1  0.350207  0.750000  0.055479  1
  Er  Er9  1  0.149728  0.750000  0.555840  1
  Er  Er10  1  0.649811  0.250000  0.944546  1
  Tm  Tm11  1  0.850570  0.250000  0.443792  1
  In  In12  1  0.614528  0.750000  0.505122  1
  In  In13  1  0.885115  0.750000  0.005264  1
  In  In14  1  0.384515  0.250000  0.495361  1
  In  In15  1  0.115140  0.250000  0.994395  1
  In  In16  1  0.650991  0.750000  0.244463  1
  In  In17  1  0.848960  0.750000  0.744874  1
  In  In18  1  0.349027  0.250000  0.755600  1
  In  In19  1  0.152197  0.250000  0.254603  1
  In  In20  1  0.124858  0.750000  0.283230  1
  In  In21  1  0.375887  0.750000  0.783460  1
  In  In22  1  0.875529  0.250000  0.716904  1
  In  In23  1  0.624625  0.250000  0.215697  1
  In  In24  1  0.875079  0.544243  0.401250  1
  In  In25  1  0.624825  0.956236  0.901291  1
  In  In26  1  0.124419  0.043643  0.599136  1
  In  In27  1  0.375085  0.456423  0.098477  1
  In  In28  1  0.124419  0.456357  0.599136  1
  In  In29  1  0.375085  0.043577  0.098477  1
  In  In30  1  0.875079  0.955757  0.401250  1
  In  In31  1  0.624825  0.543764  0.901291  1
