# generated using pymatgen
data_Rb14TaNbP8
_symmetry_space_group_name_H-M   'P 1'
_cell_length_a   8.56358801
_cell_length_b   9.42351201
_cell_length_c   10.54914800
_cell_angle_alpha   90.00000000
_cell_angle_beta   90.00000000
_cell_angle_gamma   90.00512770
_symmetry_Int_Tables_number   1
_chemical_formula_structural   Rb14TaNbP8
_chemical_formula_sum   'Rb14 Ta1 Nb1 P8'
_cell_volume   851.30647635
_cell_formula_units_Z   1
loop_
 _symmetry_equiv_pos_site_id
 _symmetry_equiv_pos_as_xyz
  1  'x, y, z'
loop_
 _atom_site_type_symbol
 _atom_site_label
 _atom_site_symmetry_multiplicity
 _atom_site_fract_x
 _atom_site_fract_y
 _atom_site_fract_z
 _atom_site_occupancy
  Rb  Rb0  1  0.877661  0.030058  0.000000  1
  Rb  Rb1  1  0.708089  0.832604  0.715080  1
  Rb  Rb2  1  0.392346  0.888640  0.000000  1
  Rb  Rb3  1  0.378117  0.970595  0.500000  1
  Rb  Rb4  1  0.873601  0.467504  0.289281  1
  Rb  Rb5  1  0.891978  0.111277  0.500000  1
  Rb  Rb6  1  0.663732  0.340178  0.000000  1
  Rb  Rb7  1  0.163626  0.659983  0.500000  1
  Rb  Rb8  1  0.207915  0.167369  0.214781  1
  Rb  Rb9  1  0.373637  0.532445  0.210702  1
  Rb  Rb10  1  0.373637  0.532445  0.789298  1
  Rb  Rb11  1  0.873601  0.467504  0.710719  1
  Rb  Rb12  1  0.708089  0.832604  0.284920  1
  Rb  Rb13  1  0.207915  0.167369  0.785219  1
  Ta  Ta14  1  0.997895  0.672519  0.000000  1
  Nb  Nb15  1  0.497986  0.327487  0.500000  1
  P  P16  1  0.715594  0.683171  0.000000  1
  P  P17  1  0.214888  0.316819  0.500000  1
  P  P18  1  0.073550  0.423043  0.000000  1
  P  P19  1  0.573413  0.577741  0.500000  1
  P  P20  1  0.088677  0.798495  0.191203  1
  P  P21  1  0.588789  0.200829  0.307929  1
  P  P22  1  0.588789  0.200829  0.692071  1
  P  P23  1  0.088677  0.798495  0.808797  1
