# generated using pymatgen
data_Th2UFe2Si6Ge
_symmetry_space_group_name_H-M   'P 1'
_cell_length_a   12.42088717
_cell_length_b   12.42088766
_cell_length_c   4.12067400
_cell_angle_alpha   90.00000000
_cell_angle_beta   90.00000000
_cell_angle_gamma   160.76850039
_symmetry_Int_Tables_number   1
_chemical_formula_structural   Th2UFe2Si6Ge
_chemical_formula_sum   'Th2 U1 Fe2 Si6 Ge1'
_cell_volume   209.40081395
_cell_formula_units_Z   1
loop_
 _symmetry_equiv_pos_site_id
 _symmetry_equiv_pos_as_xyz
  1  'x, y, z'
loop_
 _atom_site_type_symbol
 _atom_site_label
 _atom_site_symmetry_multiplicity
 _atom_site_fract_x
 _atom_site_fract_y
 _atom_site_fract_z
 _atom_site_occupancy
  Th  Th0  1  0.317674  0.682326  0.000000  1
  Th  Th1  1  0.682326  0.317674  0.000000  1
  U  U2  1  0.000000  0.000000  0.500000  1
  Fe  Fe3  1  0.124725  0.875275  0.500000  1
  Fe  Fe4  1  0.875275  0.124725  0.500000  1
  Si  Si5  1  0.221622  0.778378  0.500000  1
  Si  Si6  1  0.778378  0.221622  0.500000  1
  Si  Si7  1  0.084880  0.915120  0.000000  1
  Si  Si8  1  0.915120  0.084880  0.000000  1
  Si  Si9  1  0.414775  0.585225  0.500000  1
  Si  Si10  1  0.585225  0.414775  0.500000  1
  Ge  Ge11  1  0.500000  0.500000  0.000000  1
