# generated using pymatgen
data_Lu2GaRe2Os
_symmetry_space_group_name_H-M   'P 1'
_cell_length_a   5.32631854
_cell_length_b   5.33835521
_cell_length_c   8.80197900
_cell_angle_alpha   90.00000000
_cell_angle_beta   90.00000000
_cell_angle_gamma   120.07478832
_symmetry_Int_Tables_number   1
_chemical_formula_structural   Lu2GaRe2Os
_chemical_formula_sum   'Lu4 Ga2 Re4 Os2'
_cell_volume   216.57971525
_cell_formula_units_Z   2
loop_
 _symmetry_equiv_pos_site_id
 _symmetry_equiv_pos_as_xyz
  1  'x, y, z'
loop_
 _atom_site_type_symbol
 _atom_site_label
 _atom_site_symmetry_multiplicity
 _atom_site_fract_x
 _atom_site_fract_y
 _atom_site_fract_z
 _atom_site_occupancy
  Lu  Lu0  1  0.670144  0.335073  0.065383  1
  Lu  Lu1  1  0.670144  0.335073  0.434618  1
  Lu  Lu2  1  0.344697  0.672348  0.555287  1
  Lu  Lu3  1  0.344697  0.672348  0.944713  1
  Ga  Ga4  1  0.810250  0.160835  0.749999  1
  Ga  Ga5  1  0.810248  0.649415  0.749999  1
  Re  Re6  1  0.168923  0.339417  0.250000  1
  Re  Re7  1  0.168923  0.829507  0.250000  1
  Re  Re8  1  0.653811  0.826906  0.250000  1
  Re  Re9  1  0.315792  0.157896  0.749999  1
  Os  Os10  1  0.021185  0.010592  0.994548  1
  Os  Os11  1  0.021185  0.010592  0.505452  1
