# generated using pymatgen
data_La7Nd(Dy3Si4)4
_symmetry_space_group_name_H-M   'P 1'
_cell_length_a   7.86570402
_cell_length_b   7.86765998
_cell_length_c   14.49349400
_cell_angle_alpha   90.06084482
_cell_angle_beta   89.99562945
_cell_angle_gamma   89.95392862
_symmetry_Int_Tables_number   1
_chemical_formula_structural   La7Nd(Dy3Si4)4
_chemical_formula_sum   'La7 Nd1 Dy12 Si16'
_cell_volume   896.92450885
_cell_formula_units_Z   1
loop_
 _symmetry_equiv_pos_site_id
 _symmetry_equiv_pos_as_xyz
  1  'x, y, z'
loop_
 _atom_site_type_symbol
 _atom_site_label
 _atom_site_symmetry_multiplicity
 _atom_site_fract_x
 _atom_site_fract_y
 _atom_site_fract_z
 _atom_site_occupancy
  La  La0  1  0.642739  0.992807  0.458921  1
  La  La1  1  0.357173  0.007052  0.958996  1
  La  La2  1  0.992799  0.642684  0.541211  1
  La  La3  1  0.493065  0.857138  0.208847  1
  La  La4  1  0.507211  0.142677  0.708779  1
  La  La5  1  0.857383  0.492556  0.791119  1
  La  La6  1  0.142603  0.507100  0.291092  1
  Nd  Nd7  1  0.006403  0.358062  0.041287  1
  Dy  Dy8  1  0.492536  0.359927  0.124237  1
  Dy  Dy9  1  0.992831  0.140145  0.625708  1
  Dy  Dy10  1  0.860291  0.006964  0.874644  1
  Dy  Dy11  1  0.140201  0.993331  0.374253  1
  Dy  Dy12  1  0.506824  0.639920  0.624330  1
  Dy  Dy13  1  0.359914  0.492545  0.875754  1
  Dy  Dy14  1  0.640301  0.507138  0.375549  1
  Dy  Dy15  1  0.006866  0.860473  0.125481  1
  Dy  Dy16  1  0.317897  0.317872  0.500154  1
  Dy  Dy17  1  0.181931  0.817774  0.749979  1
  Dy  Dy18  1  0.818223  0.182509  0.249917  1
  Dy  Dy19  1  0.682781  0.681354  0.999973  1
  Si  Si20  1  0.289159  0.936057  0.561390  1
  Si  Si21  1  0.711561  0.064916  0.061358  1
  Si  Si22  1  0.935894  0.289572  0.438608  1
  Si  Si23  1  0.435805  0.210986  0.311315  1
  Si  Si24  1  0.563813  0.789500  0.811381  1
  Si  Si25  1  0.210601  0.436430  0.688607  1
  Si  Si26  1  0.790117  0.562750  0.188043  1
  Si  Si27  1  0.063214  0.708860  0.939011  1
  Si  Si28  1  0.794936  0.848548  0.689825  1
  Si  Si29  1  0.203672  0.152554  0.188658  1
  Si  Si30  1  0.848792  0.794910  0.310277  1
  Si  Si31  1  0.348427  0.705246  0.439821  1
  Si  Si32  1  0.653368  0.295745  0.940197  1
  Si  Si33  1  0.705099  0.348466  0.560256  1
  Si  Si34  1  0.294154  0.650474  0.060151  1
  Si  Si35  1  0.151415  0.204957  0.810875  1
