# generated using pymatgen
data_Ce3Ga3CuRuRh
_symmetry_space_group_name_H-M   'P 1'
_cell_length_a   7.13342700
_cell_length_b   7.13342725
_cell_length_c   3.97693900
_cell_angle_alpha   90.00000000
_cell_angle_beta   90.00000000
_cell_angle_gamma   120.00000347
_symmetry_Int_Tables_number   1
_chemical_formula_structural   Ce3Ga3CuRuRh
_chemical_formula_sum   'Ce3 Ga3 Cu1 Ru1 Rh1'
_cell_volume   175.25725450
_cell_formula_units_Z   1
loop_
 _symmetry_equiv_pos_site_id
 _symmetry_equiv_pos_as_xyz
  1  'x, y, z'
loop_
 _atom_site_type_symbol
 _atom_site_label
 _atom_site_symmetry_multiplicity
 _atom_site_fract_x
 _atom_site_fract_y
 _atom_site_fract_z
 _atom_site_occupancy
  Ce  Ce0  1  0.003658  0.420737  0.500000  1
  Ce  Ce1  1  0.579263  0.582921  0.500000  1
  Ce  Ce2  1  0.417079  0.996342  0.500000  1
  Ga  Ga3  1  0.000646  0.761360  0.000000  1
  Ga  Ga4  1  0.238640  0.239286  0.000000  1
  Ga  Ga5  1  0.760714  0.999354  0.000000  1
  Cu  Cu6  1  0.000000  0.000000  0.500000  1
  Ru  Ru7  1  0.333333  0.666667  0.000000  1
  Rh  Rh8  1  0.666667  0.333333  0.000000  1
