# generated using pymatgen
data_Co3Bi5PbO18
_symmetry_space_group_name_H-M   'P 1'
_cell_length_a   8.91931869
_cell_length_b   8.92209531
_cell_length_c   4.97450342
_cell_angle_alpha   89.99999822
_cell_angle_beta   90.04046929
_cell_angle_gamma   120.01030425
_symmetry_Int_Tables_number   1
_chemical_formula_structural   Co3Bi5PbO18
_chemical_formula_sum   'Co3 Bi5 Pb1 O18'
_cell_volume   342.79435224
_cell_formula_units_Z   1
loop_
 _symmetry_equiv_pos_site_id
 _symmetry_equiv_pos_as_xyz
  1  'x, y, z'
loop_
 _atom_site_type_symbol
 _atom_site_label
 _atom_site_symmetry_multiplicity
 _atom_site_fract_x
 _atom_site_fract_y
 _atom_site_fract_z
 _atom_site_occupancy
  Co  Co0  1  0.000000  0.999894  0.500000  1
  Co  Co1  1  0.332916  0.665979  0.997031  1
  Co  Co2  1  0.667084  0.333061  0.002969  1
  Bi  Bi3  1  0.290364  0.292305  0.000743  1
  Bi  Bi4  1  0.000000  0.705649  0.000000  1
  Bi  Bi5  1  0.625587  0.625811  0.499962  1
  Bi  Bi6  1  0.374413  0.000225  0.500038  1
  Bi  Bi7  1  0.709636  0.001941  0.999257  1
  Pb  Pb8  1  0.000000  0.373827  0.500000  1
  O  O9  1  0.081012  0.200473  0.717042  1
  O  O10  1  0.231451  0.464823  0.223675  1
  O  O11  1  0.133875  0.596250  0.771890  1
  O  O12  1  0.401393  0.537350  0.779022  1
  O  O13  1  0.233259  0.768323  0.217620  1
  O  O14  1  0.118557  0.918677  0.719724  1
  O  O15  1  0.536247  0.767475  0.218342  1
  O  O16  1  0.199115  0.081080  0.280742  1
  O  O17  1  0.462794  0.865053  0.778624  1
  O  O18  1  0.800885  0.881966  0.719258  1
  O  O19  1  0.463753  0.231228  0.781658  1
  O  O20  1  0.598607  0.135957  0.220978  1
  O  O21  1  0.537206  0.402259  0.221376  1
  O  O22  1  0.768549  0.233372  0.776325  1
  O  O23  1  0.918988  0.119462  0.282958  1
  O  O24  1  0.766741  0.535064  0.782380  1
  O  O25  1  0.866125  0.462376  0.228110  1
  O  O26  1  0.881443  0.800121  0.280276  1
