# generated using pymatgen
data_Sc6Ti4Al12Ir2Ru3Rh2
_symmetry_space_group_name_H-M   'P 1'
_cell_length_a   8.81422030
_cell_length_b   8.81747967
_cell_length_c   8.82367062
_cell_angle_alpha   59.87163522
_cell_angle_beta   60.05466925
_cell_angle_gamma   60.03779284
_symmetry_Int_Tables_number   1
_chemical_formula_structural   Sc6Ti4Al12Ir2Ru3Rh2
_chemical_formula_sum   'Sc6 Ti4 Al12 Ir2 Ru3 Rh2'
_cell_volume   484.77709202
_cell_formula_units_Z   1
loop_
 _symmetry_equiv_pos_site_id
 _symmetry_equiv_pos_as_xyz
  1  'x, y, z'
loop_
 _atom_site_type_symbol
 _atom_site_label
 _atom_site_symmetry_multiplicity
 _atom_site_fract_x
 _atom_site_fract_y
 _atom_site_fract_z
 _atom_site_occupancy
  Sc  Sc0  1  0.707356  0.287260  0.290184  1
  Sc  Sc1  1  0.708410  0.289088  0.713215  1
  Sc  Sc2  1  0.705575  0.712544  0.292239  1
  Sc  Sc3  1  0.293577  0.712093  0.708771  1
  Sc  Sc4  1  0.293086  0.710079  0.287787  1
  Sc  Sc5  1  0.295114  0.287000  0.707824  1
  Ti  Ti6  1  0.642331  0.118194  0.119366  1
  Ti  Ti7  1  0.118953  0.642733  0.120069  1
  Ti  Ti8  1  0.119545  0.120163  0.642911  1
  Ti  Ti9  1  0.120639  0.118230  0.117489  1
  Al  Al10  1  0.358015  0.881391  0.880526  1
  Al  Al11  1  0.881381  0.358440  0.880108  1
  Al  Al12  1  0.880467  0.880284  0.358033  1
  Al  Al13  1  0.880056  0.880619  0.881559  1
  Al  Al14  1  0.995882  0.334152  0.333736  1
  Al  Al15  1  0.332012  0.002371  0.332783  1
  Al  Al16  1  0.332122  0.333381  0.999334  1
  Al  Al17  1  0.333149  0.332413  0.334016  1
  Al  Al18  1  0.008817  0.664297  0.664181  1
  Al  Al19  1  0.666061  0.001552  0.666563  1
  Al  Al20  1  0.665790  0.665840  0.004682  1
  Al  Al21  1  0.665377  0.666322  0.664537  1
  Ir  Ir22  1  0.498734  0.500221  0.000624  1
  Ir  Ir23  1  0.000493  0.499961  0.499390  1
  Ru  Ru24  1  0.999828  0.999988  0.999967  1
  Ru  Ru25  1  0.498297  0.000594  0.000601  1
  Ru  Ru26  1  0.498968  0.000808  0.500103  1
  Rh  Rh27  1  0.999963  0.500232  0.999471  1
  Rh  Rh28  1  0.000003  0.999753  0.499932  1
