# generated using pymatgen
data_Tb3Nd16InIr12
_symmetry_space_group_name_H-M   'P 1'
_cell_length_a   11.22130600
_cell_length_b   11.22130600
_cell_length_c   6.44472600
_cell_angle_alpha   90.00000000
_cell_angle_beta   90.00000000
_cell_angle_gamma   90.00000000
_symmetry_Int_Tables_number   1
_chemical_formula_structural   Tb3Nd16InIr12
_chemical_formula_sum   'Tb3 Nd16 In1 Ir12'
_cell_volume   811.50512884
_cell_formula_units_Z   1
loop_
 _symmetry_equiv_pos_site_id
 _symmetry_equiv_pos_as_xyz
  1  'x, y, z'
loop_
 _atom_site_type_symbol
 _atom_site_label
 _atom_site_symmetry_multiplicity
 _atom_site_fract_x
 _atom_site_fract_y
 _atom_site_fract_z
 _atom_site_occupancy
  Tb  Tb0  1  0.000000  0.000000  0.000000  1
  Tb  Tb1  1  0.500000  0.500000  0.000000  1
  Tb  Tb2  1  0.500000  0.500000  0.500000  1
  Nd  Nd3  1  0.280974  0.085368  0.382691  1
  Nd  Nd4  1  0.289380  0.911899  0.882318  1
  Nd  Nd5  1  0.710620  0.088101  0.882318  1
  Nd  Nd6  1  0.719026  0.914632  0.382691  1
  Nd  Nd7  1  0.588565  0.789827  0.884062  1
  Nd  Nd8  1  0.587734  0.209806  0.380304  1
  Nd  Nd9  1  0.412266  0.790194  0.380304  1
  Nd  Nd10  1  0.411435  0.210173  0.884062  1
  Nd  Nd11  1  0.209806  0.412266  0.619696  1
  Nd  Nd12  1  0.210173  0.588565  0.115938  1
  Nd  Nd13  1  0.789827  0.411435  0.115938  1
  Nd  Nd14  1  0.790194  0.587734  0.619696  1
  Nd  Nd15  1  0.911899  0.710620  0.117682  1
  Nd  Nd16  1  0.914632  0.280974  0.617309  1
  Nd  Nd17  1  0.085368  0.719026  0.617309  1
  Nd  Nd18  1  0.088101  0.289380  0.117682  1
  In  In19  1  0.000000  0.000000  0.500000  1
  Ir  Ir20  1  0.849382  0.152823  0.244354  1
  Ir  Ir21  1  0.847177  0.849382  0.755646  1
  Ir  Ir22  1  0.152823  0.150618  0.755646  1
  Ir  Ir23  1  0.150618  0.847177  0.244354  1
  Ir  Ir24  1  0.650955  0.350287  0.746984  1
  Ir  Ir25  1  0.649713  0.650955  0.253016  1
  Ir  Ir26  1  0.350287  0.349045  0.253016  1
  Ir  Ir27  1  0.349045  0.649713  0.746984  1
  Ir  Ir28  1  0.500000  0.000000  0.122879  1
  Ir  Ir29  1  0.500000  0.000000  0.617814  1
  Ir  Ir30  1  0.000000  0.500000  0.877121  1
  Ir  Ir31  1  0.000000  0.500000  0.382186  1
