# generated using pymatgen
data_La4TbYIrI10
_symmetry_space_group_name_H-M   'P 1'
_cell_length_a   7.99220608
_cell_length_b   10.04420795
_cell_length_c   10.12456807
_cell_angle_alpha   107.85832856
_cell_angle_beta   96.09875377
_cell_angle_gamma   104.53181053
_symmetry_Int_Tables_number   1
_chemical_formula_structural   La4TbYIrI10
_chemical_formula_sum   'La4 Tb1 Y1 Ir1 I10'
_cell_volume   733.89427140
_cell_formula_units_Z   1
loop_
 _symmetry_equiv_pos_site_id
 _symmetry_equiv_pos_as_xyz
  1  'x, y, z'
loop_
 _atom_site_type_symbol
 _atom_site_label
 _atom_site_symmetry_multiplicity
 _atom_site_fract_x
 _atom_site_fract_y
 _atom_site_fract_z
 _atom_site_occupancy
  La  La0  1  0.119786  0.042583  0.752445  1
  La  La1  1  0.879831  0.957379  0.247495  1
  La  La2  1  0.968354  0.280831  0.086370  1
  La  La3  1  0.031259  0.719038  0.913499  1
  Tb  Tb4  1  0.347761  0.123962  0.164367  1
  Y  Y5  1  0.652534  0.875982  0.835710  1
  Ir  Ir6  1  0.000170  0.000100  0.000118  1
  I  I7  1  0.358118  0.443011  0.270742  1
  I  I8  1  0.641821  0.557278  0.729320  1
  I  I9  1  0.266744  0.088945  0.452949  1
  I  I10  1  0.733136  0.911037  0.547153  1
  I  I11  1  0.086655  0.372604  0.818233  1
  I  I12  1  0.913260  0.627407  0.181752  1
  I  I13  1  0.454674  0.823997  0.086079  1
  I  I14  1  0.545463  0.175790  0.913705  1
  I  I15  1  0.760960  0.254449  0.345069  1
  I  I16  1  0.239473  0.745608  0.654994  1
