# generated using pymatgen
data_TbY7Re3B24Os
_symmetry_space_group_name_H-M   'P 1'
_cell_length_a   3.68114400
_cell_length_b   9.18687465
_cell_length_c   11.57720100
_cell_angle_alpha   89.92225977
_cell_angle_beta   90.00000000
_cell_angle_gamma   90.00000000
_symmetry_Int_Tables_number   1
_chemical_formula_structural   TbY7Re3B24Os
_chemical_formula_sum   'Tb1 Y7 Re3 B24 Os1'
_cell_volume   391.51983689
_cell_formula_units_Z   1
loop_
 _symmetry_equiv_pos_site_id
 _symmetry_equiv_pos_as_xyz
  1  'x, y, z'
loop_
 _atom_site_type_symbol
 _atom_site_label
 _atom_site_symmetry_multiplicity
 _atom_site_fract_x
 _atom_site_fract_y
 _atom_site_fract_z
 _atom_site_occupancy
  Tb  Tb0  1  0.000000  0.822027  0.085746  1
  Y  Y1  1  0.000000  0.177469  0.912501  1
  Y  Y2  1  0.000000  0.324453  0.415692  1
  Y  Y3  1  0.000000  0.676621  0.586321  1
  Y  Y4  1  0.000000  0.442392  0.129928  1
  Y  Y5  1  0.000000  0.556808  0.870640  1
  Y  Y6  1  0.000000  0.942443  0.370279  1
  Y  Y7  1  0.000000  0.057191  0.629103  1
  Re  Re8  1  0.000000  0.862553  0.821802  1
  Re  Re9  1  0.000000  0.637952  0.320524  1
  Re  Re10  1  0.000000  0.362071  0.679096  1
  B  B11  1  0.500000  0.053690  0.067391  1
  B  B12  1  0.500000  0.947072  0.932916  1
  B  B13  1  0.500000  0.553037  0.432968  1
  B  B14  1  0.500000  0.447005  0.567246  1
  B  B15  1  0.500000  0.248008  0.081785  1
  B  B16  1  0.500000  0.751331  0.918415  1
  B  B17  1  0.500000  0.748533  0.418435  1
  B  B18  1  0.500000  0.251822  0.581514  1
  B  B19  1  0.500000  0.290318  0.234403  1
  B  B20  1  0.500000  0.708719  0.765700  1
  B  B21  1  0.500000  0.791034  0.265247  1
  B  B22  1  0.500000  0.208581  0.734202  1
  B  B23  1  0.500000  0.131070  0.313877  1
  B  B24  1  0.500000  0.869585  0.686223  1
  B  B25  1  0.500000  0.630878  0.185484  1
  B  B26  1  0.500000  0.369038  0.814090  1
  B  B27  1  0.500000  0.482455  0.288197  1
  B  B28  1  0.500000  0.517704  0.712120  1
  B  B29  1  0.500000  0.983303  0.211762  1
  B  B30  1  0.500000  0.018158  0.788085  1
  B  B31  1  0.500000  0.102004  0.471077  1
  B  B32  1  0.500000  0.898210  0.528199  1
  B  B33  1  0.500000  0.601119  0.028592  1
  B  B34  1  0.500000  0.397468  0.971684  1
  Os  Os35  1  0.000000  0.137879  0.178757  1
