# generated using pymatgen
data_YbYAl20IrOs3
_symmetry_space_group_name_H-M   'P 1'
_cell_length_a   6.87676162
_cell_length_b   6.87576081
_cell_length_c   9.16892444
_cell_angle_alpha   90.21825345
_cell_angle_beta   90.06002208
_cell_angle_gamma   96.47222664
_symmetry_Int_Tables_number   1
_chemical_formula_structural   YbYAl20IrOs3
_chemical_formula_sum   'Yb1 Y1 Al20 Ir1 Os3'
_cell_volume   430.76728007
_cell_formula_units_Z   1
loop_
 _symmetry_equiv_pos_site_id
 _symmetry_equiv_pos_as_xyz
  1  'x, y, z'
loop_
 _atom_site_type_symbol
 _atom_site_label
 _atom_site_symmetry_multiplicity
 _atom_site_fract_x
 _atom_site_fract_y
 _atom_site_fract_z
 _atom_site_occupancy
  Yb  Yb0  1  0.371751  0.625858  0.250299  1
  Y  Y1  1  0.629877  0.373336  0.749801  1
  Al  Al2  1  0.280613  0.018018  0.747818  1
  Al  Al3  1  0.019839  0.282777  0.249259  1
  Al  Al4  1  0.718925  0.980004  0.252256  1
  Al  Al5  1  0.982369  0.718686  0.750539  1
  Al  Al6  1  0.878783  0.123972  0.949831  1
  Al  Al7  1  0.121524  0.875328  0.046570  1
  Al  Al8  1  0.876778  0.123591  0.548647  1
  Al  Al9  1  0.123891  0.875499  0.454624  1
  Al  Al10  1  0.646309  0.917128  0.749151  1
  Al  Al11  1  0.916099  0.646388  0.250312  1
  Al  Al12  1  0.352835  0.084064  0.251074  1
  Al  Al13  1  0.083686  0.354837  0.749659  1
  Al  Al14  1  0.342530  0.654883  0.897190  1
  Al  Al15  1  0.659760  0.342038  0.103001  1
  Al  Al16  1  0.344526  0.656362  0.600626  1
  Al  Al17  1  0.658265  0.340514  0.398981  1
  Al  Al18  1  0.723630  0.723690  0.998959  1
  Al  Al19  1  0.722639  0.724011  0.500545  1
  Al  Al20  1  0.274811  0.278118  0.000990  1
  Al  Al21  1  0.275392  0.277668  0.499823  1
  Ir  Ir22  1  0.499001  0.001270  0.999618  1
  Os  Os23  1  0.998410  0.500247  0.999564  1
  Os  Os24  1  0.499427  0.001362  0.500477  1
  Os  Os25  1  0.998328  0.500349  0.500386  1
