# generated using pymatgen
data_Li2Dy3Er3(Co4P3)4
_symmetry_space_group_name_H-M   'P 1'
_cell_length_a   3.71075700
_cell_length_b   10.56524535
_cell_length_c   12.16005841
_cell_angle_alpha   90.02971047
_cell_angle_beta   90.00000000
_cell_angle_gamma   90.00000000
_symmetry_Int_Tables_number   1
_chemical_formula_structural   Li2Dy3Er3(Co4P3)4
_chemical_formula_sum   'Li2 Dy3 Er3 Co16 P12'
_cell_volume   476.73573303
_cell_formula_units_Z   1
loop_
 _symmetry_equiv_pos_site_id
 _symmetry_equiv_pos_as_xyz
  1  'x, y, z'
loop_
 _atom_site_type_symbol
 _atom_site_label
 _atom_site_symmetry_multiplicity
 _atom_site_fract_x
 _atom_site_fract_y
 _atom_site_fract_z
 _atom_site_occupancy
  Li  Li0  1  0.250000  0.250227  0.846814  1
  Li  Li1  1  0.750000  0.749966  0.153059  1
  Dy  Dy2  1  0.750000  0.250209  0.477153  1
  Dy  Dy3  1  0.250000  0.749768  0.523057  1
  Dy  Dy4  1  0.250000  0.929964  0.793872  1
  Er  Er5  1  0.250000  0.569523  0.793835  1
  Er  Er6  1  0.750000  0.070444  0.205895  1
  Er  Er7  1  0.750000  0.429893  0.206330  1
  Co  Co8  1  0.250000  0.250162  0.294856  1
  Co  Co9  1  0.750000  0.749278  0.704857  1
  Co  Co10  1  0.750000  0.250343  0.012862  1
  Co  Co11  1  0.250000  0.749570  0.987803  1
  Co  Co12  1  0.250000  0.417169  0.002964  1
  Co  Co13  1  0.250000  0.083178  0.003318  1
  Co  Co14  1  0.750000  0.582395  0.997253  1
  Co  Co15  1  0.750000  0.917176  0.997314  1
  Co  Co16  1  0.250000  0.453496  0.569006  1
  Co  Co17  1  0.250000  0.046650  0.568474  1
  Co  Co18  1  0.750000  0.546159  0.430917  1
  Co  Co19  1  0.750000  0.953812  0.430406  1
  Co  Co20  1  0.250000  0.871862  0.292957  1
  Co  Co21  1  0.250000  0.628127  0.293154  1
  Co  Co22  1  0.750000  0.128775  0.706616  1
  Co  Co23  1  0.750000  0.371895  0.707130  1
  P  P24  1  0.250000  0.250294  0.115108  1
  P  P25  1  0.750000  0.749221  0.885395  1
  P  P26  1  0.250000  0.249999  0.654005  1
  P  P27  1  0.750000  0.749944  0.346071  1
  P  P28  1  0.250000  0.439928  0.383594  1
  P  P29  1  0.250000  0.060283  0.383229  1
  P  P30  1  0.750000  0.559645  0.616401  1
  P  P31  1  0.750000  0.940332  0.615608  1
  P  P32  1  0.250000  0.907408  0.107093  1
  P  P33  1  0.250000  0.592405  0.107359  1
  P  P34  1  0.750000  0.093347  0.893387  1
  P  P35  1  0.750000  0.407152  0.892846  1
