# generated using pymatgen
data_YTh5(SnRh)6
_symmetry_space_group_name_H-M   'P 1'
_cell_length_a   7.56162259
_cell_length_b   7.53818891
_cell_length_c   8.25518800
_cell_angle_alpha   90.00000000
_cell_angle_beta   90.00000000
_cell_angle_gamma   119.89436244
_symmetry_Int_Tables_number   1
_chemical_formula_structural   YTh5(SnRh)6
_chemical_formula_sum   'Y1 Th5 Sn6 Rh6'
_cell_volume   407.94435342
_cell_formula_units_Z   1
loop_
 _symmetry_equiv_pos_site_id
 _symmetry_equiv_pos_as_xyz
  1  'x, y, z'
loop_
 _atom_site_type_symbol
 _atom_site_label
 _atom_site_symmetry_multiplicity
 _atom_site_fract_x
 _atom_site_fract_y
 _atom_site_fract_z
 _atom_site_occupancy
  Y  Y0  1  0.999350  0.406947  0.250000  1
  Th  Th1  1  0.000368  0.415569  0.750000  1
  Th  Th2  1  0.584332  0.588344  0.750000  1
  Th  Th3  1  0.414900  0.002447  0.750000  1
  Th  Th4  1  0.586250  0.582653  0.250000  1
  Th  Th5  1  0.414123  0.997413  0.250000  1
  Sn  Sn6  1  0.245885  0.250791  0.497484  1
  Sn  Sn7  1  0.999905  0.744306  0.497359  1
  Sn  Sn8  1  0.999905  0.744306  0.002641  1
  Sn  Sn9  1  0.754180  0.004995  0.497449  1
  Sn  Sn10  1  0.754180  0.004995  0.002551  1
  Sn  Sn11  1  0.245885  0.250791  0.002516  1
  Rh  Rh12  1  0.340354  0.673539  0.499199  1
  Rh  Rh13  1  0.660053  0.333256  0.502890  1
  Rh  Rh14  1  0.340354  0.673539  0.000801  1
  Rh  Rh15  1  0.999948  0.999897  0.750000  1
  Rh  Rh16  1  0.999981  0.992960  0.250000  1
  Rh  Rh17  1  0.660053  0.333256  0.997110  1
