# generated using pymatgen
data_K6CrMoS8
_symmetry_space_group_name_H-M   'P 1'
_cell_length_a   9.66068900
_cell_length_b   9.52622900
_cell_length_c   11.09776400
_cell_angle_alpha   90.00000000
_cell_angle_beta   90.00000000
_cell_angle_gamma   90.00000000
_symmetry_Int_Tables_number   1
_chemical_formula_structural   K6CrMoS8
_chemical_formula_sum   'K12 Cr2 Mo2 S16'
_cell_volume   1021.32650746
_cell_formula_units_Z   2
loop_
 _symmetry_equiv_pos_site_id
 _symmetry_equiv_pos_as_xyz
  1  'x, y, z'
loop_
 _atom_site_type_symbol
 _atom_site_label
 _atom_site_symmetry_multiplicity
 _atom_site_fract_x
 _atom_site_fract_y
 _atom_site_fract_z
 _atom_site_occupancy
  K  K0  1  0.426102  0.861051  0.750000  1
  K  K1  1  0.574647  0.144099  0.250000  1
  K  K2  1  0.073898  0.361051  0.750000  1
  K  K3  1  0.714056  0.548389  0.934821  1
  K  K4  1  0.294852  0.450982  0.026477  1
  K  K5  1  0.925353  0.644099  0.250000  1
  K  K6  1  0.205148  0.950982  0.026477  1
  K  K7  1  0.294852  0.450982  0.473523  1
  K  K8  1  0.205148  0.950982  0.473523  1
  K  K9  1  0.714056  0.548389  0.565179  1
  K  K10  1  0.785944  0.048389  0.565179  1
  K  K11  1  0.785944  0.048389  0.934821  1
  Cr  Cr12  1  0.982957  0.776252  0.750000  1
  Cr  Cr13  1  0.517043  0.276252  0.750000  1
  Mo  Mo14  1  0.014158  0.222149  0.250000  1
  Mo  Mo15  1  0.485842  0.722149  0.250000  1
  S  S16  1  0.579230  0.507993  0.250000  1
  S  S17  1  0.074512  0.985826  0.750000  1
  S  S18  1  0.453899  0.165139  0.912890  1
  S  S19  1  0.046101  0.665139  0.587110  1
  S  S20  1  0.425488  0.485826  0.750000  1
  S  S21  1  0.947580  0.335956  0.085746  1
  S  S22  1  0.552420  0.835956  0.414254  1
  S  S23  1  0.756539  0.795929  0.750000  1
  S  S24  1  0.046101  0.665139  0.912890  1
  S  S25  1  0.255633  0.705767  0.250000  1
  S  S26  1  0.552420  0.835956  0.085746  1
  S  S27  1  0.244367  0.205767  0.250000  1
  S  S28  1  0.743461  0.295929  0.750000  1
  S  S29  1  0.453899  0.165139  0.587110  1
  S  S30  1  0.920770  0.007993  0.250000  1
  S  S31  1  0.947580  0.335956  0.414254  1
