# generated using pymatgen
data_Sm2TaNbN4
_symmetry_space_group_name_H-M   'P 1'
_cell_length_a   3.34708900
_cell_length_b   5.77466177
_cell_length_c   11.04350604
_cell_angle_alpha   90.16198646
_cell_angle_beta   90.00000000
_cell_angle_gamma   90.00000000
_symmetry_Int_Tables_number   1
_chemical_formula_structural   Sm2TaNbN4
_chemical_formula_sum   'Sm4 Ta2 Nb2 N8'
_cell_volume   213.45142068
_cell_formula_units_Z   2
loop_
 _symmetry_equiv_pos_site_id
 _symmetry_equiv_pos_as_xyz
  1  'x, y, z'
loop_
 _atom_site_type_symbol
 _atom_site_label
 _atom_site_symmetry_multiplicity
 _atom_site_fract_x
 _atom_site_fract_y
 _atom_site_fract_z
 _atom_site_occupancy
  Sm  Sm0  1  0.250000  0.588204  0.860376  1
  Sm  Sm1  1  0.750000  0.411796  0.139624  1
  Sm  Sm2  1  0.750000  0.914608  0.362755  1
  Sm  Sm3  1  0.250000  0.085392  0.637245  1
  Ta  Ta4  1  0.250000  0.915357  0.111237  1
  Ta  Ta5  1  0.750000  0.084643  0.888763  1
  Nb  Nb6  1  0.750000  0.581567  0.606765  1
  Nb  Nb7  1  0.250000  0.418433  0.393235  1
  N  N8  1  0.250000  0.663299  0.242943  1
  N  N9  1  0.750000  0.336701  0.757057  1
  N  N10  1  0.750000  0.840517  0.749229  1
  N  N11  1  0.250000  0.159483  0.250771  1
  N  N12  1  0.250000  0.738836  0.509278  1
  N  N13  1  0.750000  0.261164  0.490722  1
  N  N14  1  0.750000  0.770227  0.011971  1
  N  N15  1  0.250000  0.229773  0.988029  1
