# generated using pymatgen
data_HfScMn6(Co2P3)2
_symmetry_space_group_name_H-M   'P 1'
_cell_length_a   3.54942100
_cell_length_b   10.26913109
_cell_length_c   11.94864407
_cell_angle_alpha   89.79310620
_cell_angle_beta   90.00000000
_cell_angle_gamma   90.00000000
_symmetry_Int_Tables_number   1
_chemical_formula_structural   HfScMn6(Co2P3)2
_chemical_formula_sum   'Hf2 Sc2 Mn12 Co8 P12'
_cell_volume   435.51889866
_cell_formula_units_Z   2
loop_
 _symmetry_equiv_pos_site_id
 _symmetry_equiv_pos_as_xyz
  1  'x, y, z'
loop_
 _atom_site_type_symbol
 _atom_site_label
 _atom_site_symmetry_multiplicity
 _atom_site_fract_x
 _atom_site_fract_y
 _atom_site_fract_z
 _atom_site_occupancy
  Hf  Hf0  1  0.250000  0.583016  0.708834  1
  Hf  Hf1  1  0.250000  0.915145  0.208406  1
  Sc  Sc2  1  0.750000  0.421557  0.293026  1
  Sc  Sc3  1  0.750000  0.081114  0.790649  1
  Mn  Mn4  1  0.250000  0.710952  0.989580  1
  Mn  Mn5  1  0.250000  0.788068  0.491587  1
  Mn  Mn6  1  0.750000  0.285522  0.009464  1
  Mn  Mn7  1  0.750000  0.216765  0.510550  1
  Mn  Mn8  1  0.250000  0.411703  0.493343  1
  Mn  Mn9  1  0.250000  0.089557  0.988981  1
  Mn  Mn10  1  0.750000  0.594012  0.511585  1
  Mn  Mn11  1  0.750000  0.904507  0.008462  1
  Mn  Mn12  1  0.250000  0.217024  0.176991  1
  Mn  Mn13  1  0.750000  0.778299  0.824102  1
  Mn  Mn14  1  0.750000  0.721004  0.324538  1
  Mn  Mn15  1  0.750000  0.122660  0.301737  1
  Co  Co16  1  0.250000  0.277316  0.678067  1
  Co  Co17  1  0.250000  0.883986  0.696204  1
  Co  Co18  1  0.250000  0.616403  0.196202  1
  Co  Co19  1  0.750000  0.383206  0.802215  1
  Co  Co20  1  0.250000  0.463128  0.931020  1
  Co  Co21  1  0.250000  0.036657  0.431963  1
  Co  Co22  1  0.750000  0.534788  0.065923  1
  Co  Co23  1  0.750000  0.965533  0.566536  1
  P  P24  1  0.250000  0.420428  0.114051  1
  P  P25  1  0.250000  0.080646  0.613641  1
  P  P26  1  0.750000  0.580203  0.884847  1
  P  P27  1  0.750000  0.918968  0.385393  1
  P  P28  1  0.250000  0.262708  0.865868  1
  P  P29  1  0.250000  0.241851  0.371194  1
  P  P30  1  0.750000  0.733817  0.135044  1
  P  P31  1  0.750000  0.765962  0.635632  1
  P  P32  1  0.250000  0.596901  0.381048  1
  P  P33  1  0.250000  0.903917  0.879695  1
  P  P34  1  0.750000  0.404116  0.619196  1
  P  P35  1  0.750000  0.088564  0.114424  1
