# generated using pymatgen
data_Lu2CI3
_symmetry_space_group_name_H-M   'P 1'
_cell_length_a   13.47101400
_cell_length_b   8.29785295
_cell_length_c   16.41872100
_cell_angle_alpha   59.77007216
_cell_angle_beta   90.00000000
_cell_angle_gamma   90.00000000
_symmetry_Int_Tables_number   1
_chemical_formula_structural   Lu2CI3
_chemical_formula_sum   'Lu16 C8 I24'
_cell_volume   1585.71482834
_cell_formula_units_Z   8
loop_
 _symmetry_equiv_pos_site_id
 _symmetry_equiv_pos_as_xyz
  1  'x, y, z'
loop_
 _atom_site_type_symbol
 _atom_site_label
 _atom_site_symmetry_multiplicity
 _atom_site_fract_x
 _atom_site_fract_y
 _atom_site_fract_z
 _atom_site_occupancy
  Lu  Lu0  1  0.595932  0.139214  0.572345  1
  Lu  Lu1  1  0.409711  0.276630  0.431980  1
  Lu  Lu2  1  0.095932  0.860786  0.927655  1
  Lu  Lu3  1  0.909711  0.723370  0.068020  1
  Lu  Lu4  1  0.404068  0.860786  0.427655  1
  Lu  Lu5  1  0.590289  0.723370  0.568020  1
  Lu  Lu6  1  0.904068  0.139214  0.072345  1
  Lu  Lu7  1  0.090289  0.276630  0.931980  1
  Lu  Lu8  1  0.601788  0.621100  0.378224  1
  Lu  Lu9  1  0.398212  0.378900  0.621776  1
  Lu  Lu10  1  0.101788  0.378900  0.121776  1
  Lu  Lu11  1  0.898212  0.621100  0.878224  1
  Lu  Lu12  1  0.367428  0.841736  0.658455  1
  Lu  Lu13  1  0.632572  0.158264  0.341545  1
  Lu  Lu14  1  0.867428  0.158264  0.841545  1
  Lu  Lu15  1  0.132572  0.841736  0.158455  1
  C  C16  1  0.466960  0.960708  0.539453  1
  C  C17  1  0.533040  0.039292  0.460547  1
  C  C18  1  0.966960  0.039292  0.960547  1
  C  C19  1  0.033040  0.960708  0.039453  1
  C  C20  1  0.517384  0.407928  0.512925  1
  C  C21  1  0.017384  0.592072  0.987075  1
  C  C22  1  0.482616  0.592072  0.487075  1
  C  C23  1  0.982616  0.407928  0.012925  1
  I  I24  1  0.764178  0.327293  0.425879  1
  I  I25  1  0.238277  0.186936  0.572183  1
  I  I26  1  0.264178  0.672707  0.074121  1
  I  I27  1  0.738277  0.813064  0.927817  1
  I  I28  1  0.235822  0.672707  0.574121  1
  I  I29  1  0.761723  0.813064  0.427817  1
  I  I30  1  0.735822  0.327293  0.925879  1
  I  I31  1  0.261723  0.186936  0.072183  1
  I  I32  1  0.725736  0.334798  0.666407  1
  I  I33  1  0.274264  0.665202  0.333593  1
  I  I34  1  0.225736  0.665202  0.833593  1
  I  I35  1  0.774264  0.334798  0.166407  1
  I  I36  1  0.483433  0.992666  0.761469  1
  I  I37  1  0.513814  0.515619  0.241802  1
  I  I38  1  0.983433  0.007334  0.738531  1
  I  I39  1  0.013814  0.484381  0.258198  1
  I  I40  1  0.516567  0.007334  0.238531  1
  I  I41  1  0.486186  0.484381  0.758198  1
  I  I42  1  0.016567  0.992666  0.261469  1
  I  I43  1  0.986186  0.515619  0.741802  1
  I  I44  1  0.739713  0.819449  0.675319  1
  I  I45  1  0.260287  0.180551  0.324681  1
  I  I46  1  0.239713  0.180551  0.824681  1
  I  I47  1  0.760287  0.819449  0.175319  1
