# generated using pymatgen
data_Nd2Pa(AlPt)3
_symmetry_space_group_name_H-M   'P 1'
_cell_length_a   7.29590827
_cell_length_b   7.29590806
_cell_length_c   4.09767000
_cell_angle_alpha   90.00000000
_cell_angle_beta   90.00000000
_cell_angle_gamma   120.15320061
_symmetry_Int_Tables_number   1
_chemical_formula_structural   Nd2Pa(AlPt)3
_chemical_formula_sum   'Nd2 Pa1 Al3 Pt3'
_cell_volume   188.60526600
_cell_formula_units_Z   1
loop_
 _symmetry_equiv_pos_site_id
 _symmetry_equiv_pos_as_xyz
  1  'x, y, z'
loop_
 _atom_site_type_symbol
 _atom_site_label
 _atom_site_symmetry_multiplicity
 _atom_site_fract_x
 _atom_site_fract_y
 _atom_site_fract_z
 _atom_site_occupancy
  Nd  Nd0  1  0.997043  0.580746  0.500000  1
  Nd  Nd1  1  0.580746  0.997043  0.500000  1
  Pa  Pa2  1  0.420550  0.420550  0.500000  1
  Al  Al3  1  0.771082  0.771082  0.000000  1
  Al  Al4  1  0.236455  0.000704  0.000000  1
  Al  Al5  1  0.000704  0.236455  0.000000  1
  Pt  Pt6  1  0.640898  0.335922  0.000000  1
  Pt  Pt7  1  0.335922  0.640898  0.000000  1
  Pt  Pt8  1  0.016602  0.016602  0.500000  1
