# generated using pymatgen
data_Nb6Co6Ge
_symmetry_space_group_name_H-M   'P 1'
_cell_length_a   4.93481817
_cell_length_b   4.93481856
_cell_length_c   9.13796841
_cell_angle_alpha   74.33470165
_cell_angle_beta   74.33469799
_cell_angle_gamma   59.99999340
_symmetry_Int_Tables_number   1
_chemical_formula_structural   Nb6Co6Ge
_chemical_formula_sum   'Nb6 Co6 Ge1'
_cell_volume   183.11139405
_cell_formula_units_Z   1
loop_
 _symmetry_equiv_pos_site_id
 _symmetry_equiv_pos_as_xyz
  1  'x, y, z'
loop_
 _atom_site_type_symbol
 _atom_site_label
 _atom_site_symmetry_multiplicity
 _atom_site_fract_x
 _atom_site_fract_y
 _atom_site_fract_z
 _atom_site_occupancy
  Nb  Nb0  1  0.169699  0.169699  0.490901  1
  Nb  Nb1  1  0.830301  0.830301  0.509099  1
  Nb  Nb2  1  0.347247  0.347247  0.958258  1
  Nb  Nb3  1  0.652753  0.652753  0.041742  1
  Nb  Nb4  1  0.449888  0.449888  0.650335  1
  Nb  Nb5  1  0.550112  0.550112  0.349665  1
  Co  Co6  1  0.588344  0.090172  0.231311  1
  Co  Co7  1  0.090172  0.090172  0.231311  1
  Co  Co8  1  0.090172  0.588344  0.231311  1
  Co  Co9  1  0.411656  0.909828  0.768689  1
  Co  Co10  1  0.909828  0.909828  0.768689  1
  Co  Co11  1  0.909828  0.411656  0.768689  1
  Ge  Ge12  1  0.000000  0.000000  0.000000  1
