# generated using pymatgen
data_NdDy(Ga3Pd)2
_symmetry_space_group_name_H-M   'P 1'
_cell_length_a   6.07788800
_cell_length_b   6.07788792
_cell_length_c   5.84528400
_cell_angle_alpha   90.00000000
_cell_angle_beta   90.00000000
_cell_angle_gamma   116.45838595
_symmetry_Int_Tables_number   1
_chemical_formula_structural   NdDy(Ga3Pd)2
_chemical_formula_sum   'Nd1 Dy1 Ga6 Pd2'
_cell_volume   193.31221826
_cell_formula_units_Z   1
loop_
 _symmetry_equiv_pos_site_id
 _symmetry_equiv_pos_as_xyz
  1  'x, y, z'
loop_
 _atom_site_type_symbol
 _atom_site_label
 _atom_site_symmetry_multiplicity
 _atom_site_fract_x
 _atom_site_fract_y
 _atom_site_fract_z
 _atom_site_occupancy
  Nd  Nd0  1  0.234883  0.765117  0.750000  1
  Dy  Dy1  1  0.768461  0.231539  0.250000  1
  Ga  Ga2  1  0.667892  0.332108  0.750000  1
  Ga  Ga3  1  0.331764  0.668236  0.250000  1
  Ga  Ga4  1  0.713911  0.714118  0.999745  1
  Ga  Ga5  1  0.713911  0.714118  0.500255  1
  Ga  Ga6  1  0.285882  0.286089  0.999745  1
  Ga  Ga7  1  0.285882  0.286089  0.500255  1
  Pd  Pd8  1  0.905126  0.094874  0.750000  1
  Pd  Pd9  1  0.092287  0.907713  0.250000  1
