# generated using pymatgen
data_Ca3(PdPb)2
_symmetry_space_group_name_H-M   'P 1'
_cell_length_a   5.95910000
_cell_length_b   8.68558000
_cell_length_c   14.17619300
_cell_angle_alpha   90.00000000
_cell_angle_beta   90.00000000
_cell_angle_gamma   90.00000000
_symmetry_Int_Tables_number   1
_chemical_formula_structural   Ca3(PdPb)2
_chemical_formula_sum   'Ca12 Pd8 Pb8'
_cell_volume   733.73479643
_cell_formula_units_Z   4
loop_
 _symmetry_equiv_pos_site_id
 _symmetry_equiv_pos_as_xyz
  1  'x, y, z'
loop_
 _atom_site_type_symbol
 _atom_site_label
 _atom_site_symmetry_multiplicity
 _atom_site_fract_x
 _atom_site_fract_y
 _atom_site_fract_z
 _atom_site_occupancy
  Ca  Ca0  1  0.161383  0.603665  0.096732  1
  Ca  Ca1  1  0.161383  0.896335  0.903268  1
  Ca  Ca2  1  0.838617  0.103665  0.403268  1
  Ca  Ca3  1  0.838617  0.396335  0.596732  1
  Ca  Ca4  1  0.838617  0.396335  0.903268  1
  Ca  Ca5  1  0.838617  0.103665  0.096732  1
  Ca  Ca6  1  0.161383  0.896335  0.596732  1
  Ca  Ca7  1  0.161383  0.603665  0.403268  1
  Ca  Ca8  1  0.367722  0.242464  0.250000  1
  Ca  Ca9  1  0.367722  0.257536  0.750000  1
  Ca  Ca10  1  0.632278  0.742464  0.250000  1
  Ca  Ca11  1  0.632278  0.757536  0.750000  1
  Pd  Pd12  1  0.620506  0.458346  0.090141  1
  Pd  Pd13  1  0.620506  0.041654  0.909859  1
  Pd  Pd14  1  0.379494  0.958346  0.409859  1
  Pd  Pd15  1  0.379494  0.541654  0.590141  1
  Pd  Pd16  1  0.379494  0.541654  0.909859  1
  Pd  Pd17  1  0.379494  0.958346  0.090141  1
  Pd  Pd18  1  0.620506  0.041654  0.590141  1
  Pd  Pd19  1  0.620506  0.458346  0.409859  1
  Pb  Pb20  1  0.323990  0.250000  0.000000  1
  Pb  Pb21  1  0.676010  0.750000  0.500000  1
  Pb  Pb22  1  0.676010  0.750000  0.000000  1
  Pb  Pb23  1  0.323990  0.250000  0.500000  1
  Pb  Pb24  1  0.875847  0.398132  0.250000  1
  Pb  Pb25  1  0.875847  0.101868  0.750000  1
  Pb  Pb26  1  0.124153  0.898132  0.250000  1
  Pb  Pb27  1  0.124153  0.601868  0.750000  1
