# generated using pymatgen
data_Lu8Sc4TlCo4Os
_symmetry_space_group_name_H-M   'P 1'
_cell_length_a   7.97033243
_cell_length_b   7.97041713
_cell_length_c   7.97032953
_cell_angle_alpha   111.14190296
_cell_angle_beta   111.46893256
_cell_angle_gamma   105.86177066
_symmetry_Int_Tables_number   1
_chemical_formula_structural   Lu8Sc4TlCo4Os
_chemical_formula_sum   'Lu8 Sc4 Tl1 Co4 Os1'
_cell_volume   388.62109473
_cell_formula_units_Z   1
loop_
 _symmetry_equiv_pos_site_id
 _symmetry_equiv_pos_as_xyz
  1  'x, y, z'
loop_
 _atom_site_type_symbol
 _atom_site_label
 _atom_site_symmetry_multiplicity
 _atom_site_fract_x
 _atom_site_fract_y
 _atom_site_fract_z
 _atom_site_occupancy
  Lu  Lu0  1  0.185335  0.277616  0.462957  1
  Lu  Lu1  1  0.814665  0.722384  0.537043  1
  Lu  Lu2  1  0.185340  0.722384  0.907719  1
  Lu  Lu3  1  0.814660  0.277616  0.092281  1
  Lu  Lu4  1  0.312381  0.615829  0.303448  1
  Lu  Lu5  1  0.687619  0.384171  0.696552  1
  Lu  Lu6  1  0.312401  0.008963  0.696562  1
  Lu  Lu7  1  0.687599  0.991037  0.303438  1
  Sc  Sc8  1  0.414318  0.219909  0.194430  1
  Sc  Sc9  1  0.585682  0.780091  0.805570  1
  Sc  Sc10  1  0.025479  0.219909  0.805591  1
  Sc  Sc11  1  0.974521  0.780091  0.194409  1
  Tl  Tl12  1  0.500000  0.500000  0.000000  1
  Co  Co13  1  0.369011  0.000000  0.369011  1
  Co  Co14  1  0.630989  0.000000  0.630989  1
  Co  Co15  1  0.113396  0.613393  0.499997  1
  Co  Co16  1  0.886604  0.386607  0.500003  1
  Os  Os17  1  0.000000  0.000000  0.000000  1
