# generated using pymatgen
data_Tm2Pa3O10
_symmetry_space_group_name_H-M   'P 1'
_cell_length_a   6.60370434
_cell_length_b   6.60370523
_cell_length_c   8.50719210
_cell_angle_alpha   49.66875400
_cell_angle_beta   49.66874858
_cell_angle_gamma   48.08405630
_symmetry_Int_Tables_number   1
_chemical_formula_structural   Tm2Pa3O10
_chemical_formula_sum   'Tm2 Pa3 O10'
_cell_volume   194.76879957
_cell_formula_units_Z   1
loop_
 _symmetry_equiv_pos_site_id
 _symmetry_equiv_pos_as_xyz
  1  'x, y, z'
loop_
 _atom_site_type_symbol
 _atom_site_label
 _atom_site_symmetry_multiplicity
 _atom_site_fract_x
 _atom_site_fract_y
 _atom_site_fract_z
 _atom_site_occupancy
  Tm  Tm0  1  0.301579  0.301579  0.095770  1
  Tm  Tm1  1  0.698421  0.698421  0.904230  1
  Pa  Pa2  1  0.095150  0.095150  0.705541  1
  Pa  Pa3  1  0.500000  0.500000  0.500000  1
  Pa  Pa4  1  0.904850  0.904850  0.294459  1
  O  O5  1  0.652718  0.152954  0.794911  1
  O  O6  1  0.152954  0.652718  0.794911  1
  O  O7  1  0.452214  0.947560  0.402449  1
  O  O8  1  0.947560  0.452214  0.402449  1
  O  O9  1  0.847046  0.347282  0.205089  1
  O  O10  1  0.245062  0.754938  0.000000  1
  O  O11  1  0.347282  0.847046  0.205089  1
  O  O12  1  0.754938  0.245062  0.000000  1
  O  O13  1  0.052440  0.547786  0.597551  1
  O  O14  1  0.547786  0.052440  0.597551  1
