# generated using pymatgen
data_YErB6Ir
_symmetry_space_group_name_H-M   'P 1'
_cell_length_a   3.63599200
_cell_length_b   9.16577400
_cell_length_c   11.52172400
_cell_angle_alpha   90.00000000
_cell_angle_beta   90.00000000
_cell_angle_gamma   90.00000000
_symmetry_Int_Tables_number   1
_chemical_formula_structural   YErB6Ir
_chemical_formula_sum   'Y4 Er4 B24 Ir4'
_cell_volume   383.98081960
_cell_formula_units_Z   4
loop_
 _symmetry_equiv_pos_site_id
 _symmetry_equiv_pos_as_xyz
  1  'x, y, z'
loop_
 _atom_site_type_symbol
 _atom_site_label
 _atom_site_symmetry_multiplicity
 _atom_site_fract_x
 _atom_site_fract_y
 _atom_site_fract_z
 _atom_site_occupancy
  Y  Y0  1  0.000000  0.321364  0.413295  1
  Y  Y1  1  0.000000  0.678636  0.586705  1
  Y  Y2  1  0.000000  0.821364  0.086705  1
  Y  Y3  1  0.000000  0.178636  0.913295  1
  Er  Er4  1  0.000000  0.944169  0.374160  1
  Er  Er5  1  0.000000  0.055831  0.625840  1
  Er  Er6  1  0.000000  0.444169  0.125840  1
  Er  Er7  1  0.000000  0.555831  0.874160  1
  B  B8  1  0.500000  0.553467  0.433646  1
  B  B9  1  0.500000  0.446533  0.566354  1
  B  B10  1  0.500000  0.053467  0.066354  1
  B  B11  1  0.500000  0.946533  0.933646  1
  B  B12  1  0.500000  0.750035  0.420459  1
  B  B13  1  0.500000  0.249965  0.579541  1
  B  B14  1  0.500000  0.250035  0.079541  1
  B  B15  1  0.500000  0.749965  0.920459  1
  B  B16  1  0.500000  0.793087  0.265709  1
  B  B17  1  0.500000  0.206913  0.734291  1
  B  B18  1  0.500000  0.293087  0.234291  1
  B  B19  1  0.500000  0.706913  0.765709  1
  B  B20  1  0.500000  0.631615  0.184215  1
  B  B21  1  0.500000  0.368385  0.815785  1
  B  B22  1  0.500000  0.131615  0.315785  1
  B  B23  1  0.500000  0.868385  0.684215  1
  B  B24  1  0.500000  0.982019  0.213485  1
  B  B25  1  0.500000  0.017981  0.786515  1
  B  B26  1  0.500000  0.482019  0.286515  1
  B  B27  1  0.500000  0.517981  0.713485  1
  B  B28  1  0.500000  0.608398  0.029715  1
  B  B29  1  0.500000  0.391602  0.970285  1
  B  B30  1  0.500000  0.108398  0.470285  1
  B  B31  1  0.500000  0.891602  0.529715  1
  Ir  Ir32  1  0.000000  0.638605  0.320971  1
  Ir  Ir33  1  0.000000  0.361395  0.679029  1
  Ir  Ir34  1  0.000000  0.138605  0.179029  1
  Ir  Ir35  1  0.000000  0.861395  0.820971  1
