# generated using pymatgen
data_NaYbSm2(Al3Pd)6
_symmetry_space_group_name_H-M   'P 1'
_cell_length_a   7.69091034
_cell_length_b   7.64834313
_cell_length_c   9.47918400
_cell_angle_alpha   90.00000000
_cell_angle_beta   90.00000000
_cell_angle_gamma   119.49494235
_symmetry_Int_Tables_number   1
_chemical_formula_structural   NaYbSm2(Al3Pd)6
_chemical_formula_sum   'Na1 Yb1 Sm2 Al18 Pd6'
_cell_volume   485.32708491
_cell_formula_units_Z   1
loop_
 _symmetry_equiv_pos_site_id
 _symmetry_equiv_pos_as_xyz
  1  'x, y, z'
loop_
 _atom_site_type_symbol
 _atom_site_label
 _atom_site_symmetry_multiplicity
 _atom_site_fract_x
 _atom_site_fract_y
 _atom_site_fract_z
 _atom_site_occupancy
  Na  Na0  1  0.987799  0.672676  0.250000  1
  Yb  Yb1  1  0.008703  0.332520  0.750000  1
  Sm  Sm2  1  0.673288  0.999075  0.250000  1
  Sm  Sm3  1  0.326013  0.999339  0.750000  1
  Al  Al4  1  0.128278  0.135249  0.250000  1
  Al  Al5  1  0.871015  0.865396  0.750000  1
  Al  Al6  1  0.002053  0.341903  0.079722  1
  Al  Al7  1  0.996514  0.662876  0.930488  1
  Al  Al8  1  0.996514  0.662876  0.569512  1
  Al  Al9  1  0.329443  0.994728  0.417385  1
  Al  Al10  1  0.002053  0.341903  0.420278  1
  Al  Al11  1  0.667851  0.999729  0.577400  1
  Al  Al12  1  0.667851  0.999729  0.922600  1
  Al  Al13  1  0.329443  0.994728  0.082615  1
  Al  Al14  1  0.333873  0.333343  0.547927  1
  Al  Al15  1  0.668450  0.666989  0.441468  1
  Al  Al16  1  0.668450  0.666989  0.058532  1
  Al  Al17  1  0.333873  0.333343  0.952073  1
  Al  Al18  1  0.345623  0.552841  0.250000  1
  Al  Al19  1  0.660262  0.449919  0.750000  1
  Al  Al20  1  0.542947  0.336174  0.250000  1
  Al  Al21  1  0.459267  0.657960  0.750000  1
  Pd  Pd22  1  0.669550  0.325089  0.000376  1
  Pd  Pd23  1  0.330235  0.672467  0.997573  1
  Pd  Pd24  1  0.330235  0.672467  0.502427  1
  Pd  Pd25  1  0.669550  0.325089  0.499624  1
  Pd  Pd26  1  0.000435  0.002301  0.999420  1
  Pd  Pd27  1  0.000435  0.002301  0.500580  1
