# generated using pymatgen
data_TiNb5Si6Mo5Ir
_symmetry_space_group_name_H-M   'P 1'
_cell_length_a   7.69799782
_cell_length_b   7.67462927
_cell_length_c   7.69888800
_cell_angle_alpha   126.34276522
_cell_angle_beta   128.52206457
_cell_angle_gamma   77.62434085
_symmetry_Int_Tables_number   1
_chemical_formula_structural   TiNb5Si6Mo5Ir
_chemical_formula_sum   'Ti1 Nb5 Si6 Mo5 Ir1'
_cell_volume   277.85839169
_cell_formula_units_Z   1
loop_
 _symmetry_equiv_pos_site_id
 _symmetry_equiv_pos_as_xyz
  1  'x, y, z'
loop_
 _atom_site_type_symbol
 _atom_site_label
 _atom_site_symmetry_multiplicity
 _atom_site_fract_x
 _atom_site_fract_y
 _atom_site_fract_z
 _atom_site_occupancy
  Ti  Ti0  1  0.551230  0.084998  0.037567  1
  Nb  Nb1  1  0.447650  0.494826  0.553492  1
  Nb  Nb2  1  0.943057  0.496295  0.046957  1
  Nb  Nb3  1  0.046000  0.082125  0.531517  1
  Nb  Nb4  1  0.758829  0.912099  0.657851  1
  Nb  Nb5  1  0.249919  0.907668  0.151064  1
  Si  Si6  1  0.748273  0.496568  0.250673  1
  Si  Si7  1  0.246184  0.496830  0.749134  1
  Si  Si8  1  0.337384  0.822660  0.492445  1
  Si  Si9  1  0.665796  0.165294  0.493021  1
  Si  Si10  1  0.829629  0.828705  0.990949  1
  Si  Si11  1  0.175891  0.170870  0.000734  1
  Mo  Mo12  1  0.498529  0.238138  0.740248  1
  Mo  Mo13  1  0.000652  0.240013  0.237645  1
  Mo  Mo14  1  0.130548  0.757556  0.627878  1
  Mo  Mo15  1  0.869442  0.497584  0.628967  1
  Mo  Mo16  1  0.628151  0.754203  0.125968  1
  Ir  Ir17  1  0.372836  0.495771  0.126090  1
