# generated using pymatgen
data_Ca6ReWO12
_symmetry_space_group_name_H-M   'P 1'
_cell_length_a   6.59494646
_cell_length_b   6.59494525
_cell_length_c   6.59494685
_cell_angle_alpha   91.85618013
_cell_angle_beta   91.85617467
_cell_angle_gamma   91.85618747
_symmetry_Int_Tables_number   1
_chemical_formula_structural   Ca6ReWO12
_chemical_formula_sum   'Ca6 Re1 W1 O12'
_cell_volume   286.37454753
_cell_formula_units_Z   1
loop_
 _symmetry_equiv_pos_site_id
 _symmetry_equiv_pos_as_xyz
  1  'x, y, z'
loop_
 _atom_site_type_symbol
 _atom_site_label
 _atom_site_symmetry_multiplicity
 _atom_site_fract_x
 _atom_site_fract_y
 _atom_site_fract_z
 _atom_site_occupancy
  Ca  Ca0  1  0.931349  0.435851  0.745955  1
  Ca  Ca1  1  0.745955  0.931349  0.435851  1
  Ca  Ca2  1  0.564149  0.254045  0.068651  1
  Ca  Ca3  1  0.435851  0.745955  0.931349  1
  Ca  Ca4  1  0.254045  0.068651  0.564149  1
  Ca  Ca5  1  0.068651  0.564149  0.254045  1
  Re  Re6  1  0.500000  0.500000  0.500000  1
  W  W7  1  0.000000  0.000000  0.000000  1
  O  O8  1  0.938540  0.283631  0.068235  1
  O  O9  1  0.931765  0.061460  0.716369  1
  O  O10  1  0.782141  0.578109  0.452542  1
  O  O11  1  0.716369  0.931765  0.061460  1
  O  O12  1  0.578109  0.452542  0.782141  1
  O  O13  1  0.547458  0.217859  0.421891  1
  O  O14  1  0.452542  0.782141  0.578109  1
  O  O15  1  0.421891  0.547458  0.217859  1
  O  O16  1  0.283631  0.068235  0.938540  1
  O  O17  1  0.217859  0.421891  0.547458  1
  O  O18  1  0.068235  0.938540  0.283631  1
  O  O19  1  0.061460  0.716369  0.931765  1
