# generated using pymatgen
data_Sc8Ta5Nb6VSi16
_symmetry_space_group_name_H-M   'P 1'
_cell_length_a   6.88824805
_cell_length_b   6.88932652
_cell_length_c   12.69742125
_cell_angle_alpha   90.11753900
_cell_angle_beta   89.87565967
_cell_angle_gamma   90.01936213
_symmetry_Int_Tables_number   1
_chemical_formula_structural   Sc8Ta5Nb6VSi16
_chemical_formula_sum   'Sc8 Ta5 Nb6 V1 Si16'
_cell_volume   602.55835724
_cell_formula_units_Z   1
loop_
 _symmetry_equiv_pos_site_id
 _symmetry_equiv_pos_as_xyz
  1  'x, y, z'
loop_
 _atom_site_type_symbol
 _atom_site_label
 _atom_site_symmetry_multiplicity
 _atom_site_fract_x
 _atom_site_fract_y
 _atom_site_fract_z
 _atom_site_occupancy
  Sc  Sc0  1  0.999513  0.659536  0.032535  1
  Sc  Sc1  1  0.841444  0.501611  0.281189  1
  Sc  Sc2  1  0.158545  0.499959  0.781244  1
  Sc  Sc3  1  0.501493  0.842244  0.717321  1
  Sc  Sc4  1  0.498624  0.157676  0.219698  1
  Sc  Sc5  1  0.999950  0.342447  0.530141  1
  Sc  Sc6  1  0.658493  0.000793  0.969262  1
  Sc  Sc7  1  0.340738  0.000162  0.468760  1
  Ta  Ta8  1  0.328083  0.328516  0.000552  1
  Ta  Ta9  1  0.170140  0.830829  0.251163  1
  Ta  Ta10  1  0.828623  0.171186  0.748971  1
  Ta  Ta11  1  0.673205  0.670647  0.498886  1
  Ta  Ta12  1  0.005736  0.151479  0.126930  1
  Nb  Nb13  1  0.349374  0.505033  0.376730  1
  Nb  Nb14  1  0.651077  0.493793  0.876939  1
  Nb  Nb15  1  0.508262  0.347141  0.621795  1
  Nb  Nb16  1  0.494466  0.652818  0.124404  1
  Nb  Nb17  1  0.994650  0.848791  0.626779  1
  Nb  Nb18  1  0.150849  0.006294  0.873591  1
  V  V19  1  0.847802  0.990000  0.373106  1
  Si  Si20  1  0.301172  0.955959  0.064169  1
  Si  Si21  1  0.548100  0.803831  0.315472  1
  Si  Si22  1  0.456014  0.198663  0.813008  1
  Si  Si23  1  0.801280  0.544157  0.686109  1
  Si  Si24  1  0.199209  0.455318  0.187698  1
  Si  Si25  1  0.702790  0.042565  0.559188  1
  Si  Si26  1  0.955500  0.301793  0.936646  1
  Si  Si27  1  0.041670  0.704981  0.435268  1
  Si  Si28  1  0.704544  0.360954  0.072797  1
  Si  Si29  1  0.129201  0.201532  0.323876  1
  Si  Si30  1  0.860265  0.795327  0.821662  1
  Si  Si31  1  0.205425  0.139710  0.677565  1
  Si  Si32  1  0.796104  0.863133  0.181917  1
  Si  Si33  1  0.295066  0.638085  0.570998  1
  Si  Si34  1  0.360567  0.705010  0.928518  1
  Si  Si35  1  0.642023  0.288026  0.425108  1
