# generated using pymatgen
data_La5Yb3GaPd24
_symmetry_space_group_name_H-M   'P 1'
_cell_length_a   8.47542958
_cell_length_b   8.47542958
_cell_length_c   8.47542958
_cell_angle_alpha   89.95051235
_cell_angle_beta   89.95051235
_cell_angle_gamma   90.04948765
_symmetry_Int_Tables_number   1
_chemical_formula_structural   La5Yb3GaPd24
_chemical_formula_sum   'La5 Yb3 Ga1 Pd24'
_cell_volume   608.81405975
_cell_formula_units_Z   1
loop_
 _symmetry_equiv_pos_site_id
 _symmetry_equiv_pos_as_xyz
  1  'x, y, z'
loop_
 _atom_site_type_symbol
 _atom_site_label
 _atom_site_symmetry_multiplicity
 _atom_site_fract_x
 _atom_site_fract_y
 _atom_site_fract_z
 _atom_site_occupancy
  La  La0  1  0.252755  0.252755  0.747245  1
  La  La1  1  0.252053  0.748232  0.251768  1
  La  La2  1  0.748232  0.252053  0.251768  1
  La  La3  1  0.748232  0.748232  0.747947  1
  La  La4  1  0.747062  0.747062  0.252938  1
  Yb  Yb5  1  0.748109  0.251489  0.748511  1
  Yb  Yb6  1  0.251489  0.748109  0.748511  1
  Yb  Yb7  1  0.251489  0.251489  0.251891  1
  Ga  Ga8  1  0.000356  0.000356  0.999644  1
  Pd  Pd9  1  0.500528  0.500528  0.746356  1
  Pd  Pd10  1  0.500528  0.253644  0.499472  1
  Pd  Pd11  1  0.253644  0.500528  0.499472  1
  Pd  Pd12  1  0.496867  0.496867  0.253706  1
  Pd  Pd13  1  0.496867  0.746294  0.503133  1
  Pd  Pd14  1  0.746294  0.496867  0.503133  1
  Pd  Pd15  1  0.999800  0.999800  0.705196  1
  Pd  Pd16  1  0.999800  0.294804  0.000200  1
  Pd  Pd17  1  0.294804  0.999800  0.000200  1
  Pd  Pd18  1  0.003058  0.003058  0.295453  1
  Pd  Pd19  1  0.003058  0.704547  0.996942  1
  Pd  Pd20  1  0.704547  0.003058  0.996942  1
  Pd  Pd21  1  0.999356  0.499905  0.738429  1
  Pd  Pd22  1  0.499905  0.261571  0.000644  1
  Pd  Pd23  1  0.261571  0.999356  0.500095  1
  Pd  Pd24  1  0.999356  0.261571  0.500095  1
  Pd  Pd25  1  0.499905  0.999356  0.738429  1
  Pd  Pd26  1  0.261571  0.499905  0.000644  1
  Pd  Pd27  1  0.003163  0.497656  0.261437  1
  Pd  Pd28  1  0.497656  0.738563  0.996837  1
  Pd  Pd29  1  0.003163  0.738563  0.502344  1
  Pd  Pd30  1  0.497656  0.003163  0.261437  1
  Pd  Pd31  1  0.738563  0.003163  0.502344  1
  Pd  Pd32  1  0.738563  0.497656  0.996837  1
