# generated using pymatgen
data_LaTbTc5(PRh)7
_symmetry_space_group_name_H-M   'P 1'
_cell_length_a   3.96305600
_cell_length_b   9.52887094
_cell_length_c   9.54606394
_cell_angle_alpha   119.60610584
_cell_angle_beta   89.99981344
_cell_angle_gamma   90.00184572
_symmetry_Int_Tables_number   1
_chemical_formula_structural   LaTbTc5(PRh)7
_chemical_formula_sum   'La1 Tb1 Tc5 P7 Rh7'
_cell_volume   313.42724971
_cell_formula_units_Z   1
loop_
 _symmetry_equiv_pos_site_id
 _symmetry_equiv_pos_as_xyz
  1  'x, y, z'
loop_
 _atom_site_type_symbol
 _atom_site_label
 _atom_site_symmetry_multiplicity
 _atom_site_fract_x
 _atom_site_fract_y
 _atom_site_fract_z
 _atom_site_occupancy
  La  La0  1  0.261915  0.668330  0.333545  1
  Tb  Tb1  1  0.761980  0.333417  0.666676  1
  Tc  Tc2  1  0.761912  0.093370  0.873296  1
  Tc  Tc3  1  0.761897  0.125239  0.217127  1
  Tc  Tc4  1  0.761907  0.782392  0.906497  1
  Tc  Tc5  1  0.261901  0.886810  0.158723  1
  Tc  Tc6  1  0.261945  0.841869  0.727783  1
  P  P7  1  0.261748  0.996533  0.997280  1
  P  P8  1  0.761928  0.886258  0.604446  1
  P  P9  1  0.761873  0.397324  0.287003  1
  P  P10  1  0.761866  0.719321  0.115609  1
  P  P11  1  0.261962  0.113531  0.411031  1
  P  P12  1  0.261913  0.587648  0.702033  1
  P  P13  1  0.261900  0.297470  0.883573  1
  Rh  Rh14  1  0.261873  0.271360  0.112135  1
  Rh  Rh15  1  0.761923  0.606009  0.561073  1
  Rh  Rh16  1  0.761889  0.437888  0.048352  1
  Rh  Rh17  1  0.761911  0.953950  0.394008  1
  Rh  Rh18  1  0.261921  0.365314  0.434328  1
  Rh  Rh19  1  0.261903  0.563843  0.930048  1
  Rh  Rh20  1  0.261933  0.072124  0.635437  1
