# generated using pymatgen
data_RbSnH3
_symmetry_space_group_name_H-M   'P 1'
_cell_length_a   7.54465300
_cell_length_b   5.88153900
_cell_length_c   9.66557400
_cell_angle_alpha   90.00001567
_cell_angle_beta   90.00001945
_cell_angle_gamma   90.00001734
_symmetry_Int_Tables_number   1
_chemical_formula_structural   RbSnH3
_chemical_formula_sum   'Rb4 Sn4 H12'
_cell_volume   428.90183215
_cell_formula_units_Z   4
loop_
 _symmetry_equiv_pos_site_id
 _symmetry_equiv_pos_as_xyz
  1  'x, y, z'
loop_
 _atom_site_type_symbol
 _atom_site_label
 _atom_site_symmetry_multiplicity
 _atom_site_fract_x
 _atom_site_fract_y
 _atom_site_fract_z
 _atom_site_occupancy
  Rb  Rb0  1  0.150242  0.499999  0.185465  1
  Rb  Rb1  1  0.650242  0.000000  0.314537  1
  Rb  Rb2  1  0.349757  0.499998  0.685464  1
  Rb  Rb3  1  0.849757  0.000000  0.814535  1
  Sn  Sn4  1  0.643879  0.500001  0.048631  1
  Sn  Sn5  1  0.143878  0.000000  0.451370  1
  Sn  Sn6  1  0.856120  0.500000  0.548631  1
  Sn  Sn7  1  0.356120  0.000000  0.951370  1
  H  H8  1  0.809034  0.280150  0.080764  1
  H  H9  1  0.809034  0.719851  0.080764  1
  H  H10  1  0.299729  0.000000  0.133479  1
  H  H11  1  0.799728  0.499999  0.366522  1
  H  H12  1  0.309034  0.219850  0.419236  1
  H  H13  1  0.309034  0.780152  0.419236  1
  H  H14  1  0.690966  0.280150  0.580765  1
  H  H15  1  0.690966  0.719851  0.580765  1
  H  H16  1  0.200271  0.000000  0.633478  1
  H  H17  1  0.700270  0.499999  0.866521  1
  H  H18  1  0.190966  0.219849  0.919236  1
  H  H19  1  0.190966  0.780152  0.919236  1
