# generated using pymatgen
data_CeNp(SeI)4
_symmetry_space_group_name_H-M   'P 1'
_cell_length_a   7.81429993
_cell_length_b   7.81429908
_cell_length_c   8.56944766
_cell_angle_alpha   78.89701691
_cell_angle_beta   78.89702086
_cell_angle_gamma   120.11489363
_symmetry_Int_Tables_number   1
_chemical_formula_structural   CeNp(SeI)4
_chemical_formula_sum   'Ce1 Np1 Se4 I4'
_cell_volume   417.60105377
_cell_formula_units_Z   1
loop_
 _symmetry_equiv_pos_site_id
 _symmetry_equiv_pos_as_xyz
  1  'x, y, z'
loop_
 _atom_site_type_symbol
 _atom_site_label
 _atom_site_symmetry_multiplicity
 _atom_site_fract_x
 _atom_site_fract_y
 _atom_site_fract_z
 _atom_site_occupancy
  Ce  Ce0  1  0.144627  0.855373  0.000000  1
  Np  Np1  1  0.856873  0.143127  0.000000  1
  Se  Se2  1  0.871815  0.874326  0.277095  1
  Se  Se3  1  0.125674  0.128185  0.722905  1
  Se  Se4  1  0.696085  0.699101  0.108994  1
  Se  Se5  1  0.300899  0.303915  0.891006  1
  I  I6  1  0.426578  0.029808  0.228347  1
  I  I7  1  0.583347  0.976089  0.769781  1
  I  I8  1  0.970192  0.573422  0.771653  1
  I  I9  1  0.023911  0.416653  0.230219  1
