# generated using pymatgen
data_Y7Tm13Cd3Ni2Au3
_symmetry_space_group_name_H-M   'P 1'
_cell_length_a   9.54150534
_cell_length_b   9.53854607
_cell_length_c   9.45347152
_cell_angle_alpha   89.99817478
_cell_angle_beta   90.07339973
_cell_angle_gamma   119.98034715
_symmetry_Int_Tables_number   1
_chemical_formula_structural   Y7Tm13Cd3Ni2Au3
_chemical_formula_sum   'Y7 Tm13 Cd3 Ni2 Au3'
_cell_volume   745.25781579
_cell_formula_units_Z   1
loop_
 _symmetry_equiv_pos_site_id
 _symmetry_equiv_pos_as_xyz
  1  'x, y, z'
loop_
 _atom_site_type_symbol
 _atom_site_label
 _atom_site_symmetry_multiplicity
 _atom_site_fract_x
 _atom_site_fract_y
 _atom_site_fract_z
 _atom_site_occupancy
  Y  Y0  1  0.457964  0.542784  0.747636  1
  Y  Y1  1  0.458022  0.915202  0.747638  1
  Y  Y2  1  0.083905  0.541957  0.748183  1
  Y  Y3  1  0.420022  0.210016  0.941036  1
  Y  Y4  1  0.207909  0.790813  0.063937  1
  Y  Y5  1  0.207860  0.417082  0.063942  1
  Y  Y6  1  0.582523  0.791254  0.063444  1
  Tm  Tm7  1  0.999534  0.999751  0.458296  1
  Tm  Tm8  1  0.998755  0.999363  0.041374  1
  Tm  Tm9  1  0.542797  0.457974  0.252075  1
  Tm  Tm10  1  0.542836  0.084823  0.252072  1
  Tm  Tm11  1  0.914511  0.457309  0.251417  1
  Tm  Tm12  1  0.209798  0.789903  0.437390  1
  Tm  Tm13  1  0.209755  0.419887  0.437382  1
  Tm  Tm14  1  0.580293  0.790133  0.437355  1
  Tm  Tm15  1  0.790428  0.209681  0.557825  1
  Tm  Tm16  1  0.790401  0.580729  0.557840  1
  Tm  Tm17  1  0.419223  0.209615  0.556741  1
  Tm  Tm18  1  0.790741  0.210472  0.941459  1
  Tm  Tm19  1  0.790726  0.580269  0.941433  1
  Cd  Cd20  1  0.108847  0.890768  0.749307  1
  Cd  Cd21  1  0.108842  0.218070  0.749300  1
  Cd  Cd22  1  0.781952  0.890956  0.749430  1
  Ni  Ni23  1  0.333497  0.666756  0.253772  1
  Ni  Ni24  1  0.669229  0.334611  0.747930  1
  Au  Au25  1  0.869271  0.130967  0.250187  1
  Au  Au26  1  0.869209  0.738298  0.250196  1
  Au  Au27  1  0.261149  0.130559  0.251402  1
