# generated using pymatgen
data_PrEu3(Ga12Pd)2
_symmetry_space_group_name_H-M   'P 1'
_cell_length_a   6.16703202
_cell_length_b   6.16703202
_cell_length_c   15.74930400
_cell_angle_alpha   90.00000000
_cell_angle_beta   90.00000000
_cell_angle_gamma   89.73081225
_symmetry_Int_Tables_number   1
_chemical_formula_structural   PrEu3(Ga12Pd)2
_chemical_formula_sum   'Pr1 Eu3 Ga24 Pd2'
_cell_volume   598.97538998
_cell_formula_units_Z   1
loop_
 _symmetry_equiv_pos_site_id
 _symmetry_equiv_pos_as_xyz
  1  'x, y, z'
loop_
 _atom_site_type_symbol
 _atom_site_label
 _atom_site_symmetry_multiplicity
 _atom_site_fract_x
 _atom_site_fract_y
 _atom_site_fract_z
 _atom_site_occupancy
  Pr  Pr0  1  0.750000  0.250000  0.757257  1
  Eu  Eu1  1  0.750000  0.250000  0.244533  1
  Eu  Eu2  1  0.250000  0.750000  0.243765  1
  Eu  Eu3  1  0.250000  0.750000  0.755126  1
  Ga  Ga4  1  0.250000  0.250000  0.187528  1
  Ga  Ga5  1  0.750000  0.750000  0.187528  1
  Ga  Ga6  1  0.750000  0.750000  0.812065  1
  Ga  Ga7  1  0.250000  0.250000  0.812065  1
  Ga  Ga8  1  0.250000  0.250000  0.345515  1
  Ga  Ga9  1  0.750000  0.750000  0.345515  1
  Ga  Ga10  1  0.750000  0.750000  0.654427  1
  Ga  Ga11  1  0.250000  0.250000  0.654427  1
  Ga  Ga12  1  0.498541  0.998541  0.911151  1
  Ga  Ga13  1  0.001202  0.998798  0.910618  1
  Ga  Ga14  1  0.498798  0.501202  0.910618  1
  Ga  Ga15  1  0.001459  0.501459  0.911151  1
  Ga  Ga16  1  0.501016  0.001016  0.089049  1
  Ga  Ga17  1  0.999452  0.000548  0.089538  1
  Ga  Ga18  1  0.500548  0.499452  0.089538  1
  Ga  Ga19  1  0.998984  0.498984  0.089049  1
  Ga  Ga20  1  0.579715  0.079715  0.431921  1
  Ga  Ga21  1  0.078430  0.921570  0.431025  1
  Ga  Ga22  1  0.421570  0.578430  0.431025  1
  Ga  Ga23  1  0.920285  0.420285  0.431921  1
  Ga  Ga24  1  0.418849  0.918849  0.568577  1
  Ga  Ga25  1  0.919600  0.080400  0.569239  1
  Ga  Ga26  1  0.580400  0.419600  0.569239  1
  Ga  Ga27  1  0.081151  0.581151  0.568577  1
  Pd  Pd28  1  0.750000  0.250000  0.998215  1
  Pd  Pd29  1  0.250000  0.750000  0.999799  1
