# generated using pymatgen
data_Tm5Sc5(GaBi)3
_symmetry_space_group_name_H-M   'P 1'
_cell_length_a   8.59160200
_cell_length_b   8.56549940
_cell_length_c   6.18701100
_cell_angle_alpha   90.00000000
_cell_angle_beta   90.00000000
_cell_angle_gamma   120.10086660
_symmetry_Int_Tables_number   1
_chemical_formula_structural   Tm5Sc5(GaBi)3
_chemical_formula_sum   'Tm5 Sc5 Ga3 Bi3'
_cell_volume   393.90912818
_cell_formula_units_Z   1
loop_
 _symmetry_equiv_pos_site_id
 _symmetry_equiv_pos_as_xyz
  1  'x, y, z'
loop_
 _atom_site_type_symbol
 _atom_site_label
 _atom_site_symmetry_multiplicity
 _atom_site_fract_x
 _atom_site_fract_y
 _atom_site_fract_z
 _atom_site_occupancy
  Tm  Tm0  1  0.234841  0.000000  0.250000  1
  Tm  Tm1  1  0.242734  0.227135  0.750000  1
  Tm  Tm2  1  0.015599  0.772865  0.750000  1
  Tm  Tm3  1  0.017037  0.250082  0.250000  1
  Tm  Tm4  1  0.766955  0.749918  0.250000  1
  Sc  Sc5  1  0.324799  0.666916  0.005138  1
  Sc  Sc6  1  0.657884  0.333084  0.494862  1
  Sc  Sc7  1  0.657884  0.333084  0.005138  1
  Sc  Sc8  1  0.324799  0.666916  0.494862  1
  Sc  Sc9  1  0.752835  0.000000  0.750000  1
  Ga  Ga10  1  0.998565  0.599192  0.250000  1
  Ga  Ga11  1  0.399373  0.400808  0.250000  1
  Ga  Ga12  1  0.404948  0.000000  0.750000  1
  Bi  Bi13  1  0.607319  0.000000  0.250000  1
  Bi  Bi14  1  0.601650  0.608872  0.750000  1
  Bi  Bi15  1  0.992778  0.391128  0.750000  1
