# generated using pymatgen
data_TbTmFe3Tc14C3
_symmetry_space_group_name_H-M   'P 1'
_cell_length_a   6.89322800
_cell_length_b   6.89322699
_cell_length_c   6.89322716
_cell_angle_alpha   82.40200618
_cell_angle_beta   82.40200136
_cell_angle_gamma   82.40200781
_symmetry_Int_Tables_number   1
_chemical_formula_structural   TbTmFe3Tc14C3
_chemical_formula_sum   'Tb1 Tm1 Fe3 Tc14 C3'
_cell_volume   319.61436945
_cell_formula_units_Z   1
loop_
 _symmetry_equiv_pos_site_id
 _symmetry_equiv_pos_as_xyz
  1  'x, y, z'
loop_
 _atom_site_type_symbol
 _atom_site_label
 _atom_site_symmetry_multiplicity
 _atom_site_fract_x
 _atom_site_fract_y
 _atom_site_fract_z
 _atom_site_occupancy
  Tb  Tb0  1  0.349071  0.349071  0.349071  1
  Tm  Tm1  1  0.651823  0.651823  0.651823  1
  Fe  Fe2  1  0.000201  0.000201  0.499790  1
  Fe  Fe3  1  0.499790  0.000201  0.000201  1
  Fe  Fe4  1  0.000201  0.499790  0.000201  1
  Tc  Tc5  1  0.724267  0.275939  0.999803  1
  Tc  Tc6  1  0.999803  0.724267  0.275939  1
  Tc  Tc7  1  0.275939  0.999803  0.724267  1
  Tc  Tc8  1  0.999803  0.275939  0.724267  1
  Tc  Tc9  1  0.724267  0.999803  0.275939  1
  Tc  Tc10  1  0.275939  0.724267  0.999803  1
  Tc  Tc11  1  0.348895  0.348895  0.859353  1
  Tc  Tc12  1  0.859353  0.348895  0.348895  1
  Tc  Tc13  1  0.348895  0.859353  0.348895  1
  Tc  Tc14  1  0.651880  0.651880  0.138622  1
  Tc  Tc15  1  0.138622  0.651880  0.651880  1
  Tc  Tc16  1  0.651880  0.138622  0.651880  1
  Tc  Tc17  1  0.898616  0.898616  0.898616  1
  Tc  Tc18  1  0.101122  0.101122  0.101122  1
  C  C19  1  0.501517  0.501517  0.996597  1
  C  C20  1  0.996597  0.501517  0.501517  1
  C  C21  1  0.501517  0.996597  0.501517  1
