# generated using pymatgen
data_Gd20Ir7Ru4Pt
_symmetry_space_group_name_H-M   'P 1'
_cell_length_a   10.96412920
_cell_length_b   10.96412941
_cell_length_c   6.48952600
_cell_angle_alpha   89.90780208
_cell_angle_beta   89.90780208
_cell_angle_gamma   90.01121240
_symmetry_Int_Tables_number   1
_chemical_formula_structural   Gd20Ir7Ru4Pt
_chemical_formula_sum   'Gd20 Ir7 Ru4 Pt1'
_cell_volume   780.11771669
_cell_formula_units_Z   1
loop_
 _symmetry_equiv_pos_site_id
 _symmetry_equiv_pos_as_xyz
  1  'x, y, z'
loop_
 _atom_site_type_symbol
 _atom_site_label
 _atom_site_symmetry_multiplicity
 _atom_site_fract_x
 _atom_site_fract_y
 _atom_site_fract_z
 _atom_site_occupancy
  Gd  Gd0  1  0.087276  0.293049  0.116302  1
  Gd  Gd1  1  0.793389  0.411397  0.116121  1
  Gd  Gd2  1  0.206046  0.584041  0.116234  1
  Gd  Gd3  1  0.908954  0.705058  0.115493  1
  Gd  Gd4  1  0.415710  0.793438  0.383398  1
  Gd  Gd5  1  0.589260  0.206659  0.383396  1
  Gd  Gd6  1  0.294783  0.091545  0.384613  1
  Gd  Gd7  1  0.707671  0.912477  0.383466  1
  Gd  Gd8  1  0.412514  0.207112  0.883902  1
  Gd  Gd9  1  0.705802  0.088255  0.883364  1
  Gd  Gd10  1  0.295786  0.913579  0.877522  1
  Gd  Gd11  1  0.589152  0.793359  0.884104  1
  Gd  Gd12  1  0.085781  0.703736  0.622106  1
  Gd  Gd13  1  0.911768  0.294233  0.616622  1
  Gd  Gd14  1  0.206461  0.411648  0.615912  1
  Gd  Gd15  1  0.793162  0.587635  0.616111  1
  Gd  Gd16  1  0.997943  0.001258  0.999144  1
  Gd  Gd17  1  0.500420  0.499882  0.999768  1
  Gd  Gd18  1  0.500122  0.499292  0.500567  1
  Gd  Gd19  1  0.998525  0.001662  0.501399  1
  Ir  Ir20  1  0.347798  0.348133  0.249806  1
  Ir  Ir21  1  0.652040  0.652179  0.250320  1
  Ir  Ir22  1  0.847438  0.152643  0.250284  1
  Ir  Ir23  1  0.347016  0.652951  0.750305  1
  Ir  Ir24  1  0.151463  0.151380  0.749829  1
  Ir  Ir25  1  0.848369  0.848309  0.750116  1
  Ir  Ir26  1  0.652828  0.347427  0.749931  1
  Ru  Ru27  1  0.999710  0.500405  0.375561  1
  Ru  Ru28  1  0.500099  0.000233  0.124255  1
  Ru  Ru29  1  0.500023  0.000196  0.623706  1
  Ru  Ru30  1  0.999631  0.500309  0.876312  1
  Pt  Pt31  1  0.153065  0.846512  0.250031  1
