# generated using pymatgen
data_Y10Sn6SCl
_symmetry_space_group_name_H-M   'P 1'
_cell_length_a   9.08762200
_cell_length_b   9.08762192
_cell_length_c   6.64251500
_cell_angle_alpha   90.00000000
_cell_angle_beta   90.00000000
_cell_angle_gamma   119.99999300
_symmetry_Int_Tables_number   1
_chemical_formula_structural   Y10Sn6SCl
_chemical_formula_sum   'Y10 Sn6 S1 Cl1'
_cell_volume   475.07667793
_cell_formula_units_Z   1
loop_
 _symmetry_equiv_pos_site_id
 _symmetry_equiv_pos_as_xyz
  1  'x, y, z'
loop_
 _atom_site_type_symbol
 _atom_site_label
 _atom_site_symmetry_multiplicity
 _atom_site_fract_x
 _atom_site_fract_y
 _atom_site_fract_z
 _atom_site_occupancy
  Y  Y0  1  0.666667  0.333333  0.000000  1
  Y  Y1  1  0.333333  0.666667  0.000000  1
  Y  Y2  1  0.333333  0.666667  0.500000  1
  Y  Y3  1  0.666667  0.333333  0.500000  1
  Y  Y4  1  0.747387  0.747387  0.741945  1
  Y  Y5  1  0.252613  0.000000  0.741945  1
  Y  Y6  1  0.000000  0.252613  0.741945  1
  Y  Y7  1  0.252613  0.252613  0.258055  1
  Y  Y8  1  0.747387  0.000000  0.258055  1
  Y  Y9  1  0.000000  0.747387  0.258055  1
  Sn  Sn10  1  0.395068  0.395068  0.750038  1
  Sn  Sn11  1  0.604932  0.000000  0.750038  1
  Sn  Sn12  1  0.000000  0.604932  0.750038  1
  Sn  Sn13  1  0.604932  0.604932  0.249962  1
  Sn  Sn14  1  0.395068  0.000000  0.249962  1
  Sn  Sn15  1  0.000000  0.395068  0.249962  1
  S  S16  1  0.000000  0.000000  0.500000  1
  Cl  Cl17  1  0.000000  0.000000  0.000000  1
