# generated using pymatgen
data_HfScInN
_symmetry_space_group_name_H-M   'P 1'
_cell_length_a   3.27794300
_cell_length_b   3.27794419
_cell_length_c   14.80773500
_cell_angle_alpha   90.00000000
_cell_angle_beta   90.00000000
_cell_angle_gamma   119.99999804
_symmetry_Int_Tables_number   1
_chemical_formula_structural   HfScInN
_chemical_formula_sum   'Hf2 Sc2 In2 N2'
_cell_volume   137.79143621
_cell_formula_units_Z   2
loop_
 _symmetry_equiv_pos_site_id
 _symmetry_equiv_pos_as_xyz
  1  'x, y, z'
loop_
 _atom_site_type_symbol
 _atom_site_label
 _atom_site_symmetry_multiplicity
 _atom_site_fract_x
 _atom_site_fract_y
 _atom_site_fract_z
 _atom_site_occupancy
  Hf  Hf0  1  0.666665  0.333333  0.583668  1
  Hf  Hf1  1  0.666665  0.333333  0.916332  1
  Sc  Sc2  1  0.333333  0.666666  0.078090  1
  Sc  Sc3  1  0.333333  0.666666  0.421910  1
  In  In4  1  0.666665  0.333333  0.250000  1
  In  In5  1  0.333333  0.666666  0.750000  1
  N  N6  1  0.000000  0.000000  0.997299  1
  N  N7  1  0.000000  0.000000  0.502701  1
