# generated using pymatgen
data_Yb3DyMgRu
_symmetry_space_group_name_H-M   'P 1'
_cell_length_a   9.94033247
_cell_length_b   9.94033305
_cell_length_c   9.94033300
_cell_angle_alpha   59.99999683
_cell_angle_beta   59.99999491
_cell_angle_gamma   60.00000237
_symmetry_Int_Tables_number   1
_chemical_formula_structural   Yb3DyMgRu
_chemical_formula_sum   'Yb12 Dy4 Mg4 Ru4'
_cell_volume   694.52480637
_cell_formula_units_Z   4
loop_
 _symmetry_equiv_pos_site_id
 _symmetry_equiv_pos_as_xyz
  1  'x, y, z'
loop_
 _atom_site_type_symbol
 _atom_site_label
 _atom_site_symmetry_multiplicity
 _atom_site_fract_x
 _atom_site_fract_y
 _atom_site_fract_z
 _atom_site_occupancy
  Yb  Yb0  1  0.953469  0.546531  0.546531  1
  Yb  Yb1  1  0.546531  0.953469  0.953469  1
  Yb  Yb2  1  0.546531  0.953469  0.546531  1
  Yb  Yb3  1  0.953469  0.546531  0.953469  1
  Yb  Yb4  1  0.546531  0.546531  0.953469  1
  Yb  Yb5  1  0.953469  0.953469  0.546531  1
  Yb  Yb6  1  0.808903  0.191097  0.191097  1
  Yb  Yb7  1  0.191097  0.808903  0.808903  1
  Yb  Yb8  1  0.191097  0.808903  0.191097  1
  Yb  Yb9  1  0.808903  0.191097  0.808903  1
  Yb  Yb10  1  0.191097  0.191097  0.808903  1
  Yb  Yb11  1  0.808903  0.808903  0.191097  1
  Dy  Dy12  1  0.338218  0.338218  0.338218  1
  Dy  Dy13  1  0.338218  0.338218  0.985344  1
  Dy  Dy14  1  0.338218  0.985344  0.338218  1
  Dy  Dy15  1  0.985344  0.338218  0.338218  1
  Mg  Mg16  1  0.577147  0.577147  0.577147  1
  Mg  Mg17  1  0.577147  0.577147  0.268560  1
  Mg  Mg18  1  0.577147  0.268560  0.577147  1
  Mg  Mg19  1  0.268560  0.577147  0.577147  1
  Ru  Ru20  1  0.138944  0.138944  0.138944  1
  Ru  Ru21  1  0.138944  0.138944  0.583167  1
  Ru  Ru22  1  0.138944  0.583167  0.138944  1
  Ru  Ru23  1  0.583167  0.138944  0.138944  1
