# generated using pymatgen
data_Ho4TmIn4PtRh
_symmetry_space_group_name_H-M   'P 1'
_cell_length_a   3.60192800
_cell_length_b   8.10626854
_cell_length_c   18.20608017
_cell_angle_alpha   90.12428058
_cell_angle_beta   90.00000000
_cell_angle_gamma   90.00000000
_symmetry_Int_Tables_number   1
_chemical_formula_structural   Ho4TmIn4PtRh
_chemical_formula_sum   'Ho8 Tm2 In8 Pt2 Rh2'
_cell_volume   531.58343997
_cell_formula_units_Z   2
loop_
 _symmetry_equiv_pos_site_id
 _symmetry_equiv_pos_as_xyz
  1  'x, y, z'
loop_
 _atom_site_type_symbol
 _atom_site_label
 _atom_site_symmetry_multiplicity
 _atom_site_fract_x
 _atom_site_fract_y
 _atom_site_fract_z
 _atom_site_occupancy
  Ho  Ho0  1  0.000000  0.382916  0.914387  1
  Ho  Ho1  1  0.000000  0.617084  0.085613  1
  Ho  Ho2  1  0.000000  0.238766  0.221329  1
  Ho  Ho3  1  0.000000  0.761234  0.778671  1
  Ho  Ho4  1  0.000000  0.250800  0.720055  1
  Ho  Ho5  1  0.000000  0.749200  0.279945  1
  Ho  Ho6  1  0.000000  0.000000  0.000000  1
  Ho  Ho7  1  0.000000  0.500000  0.500000  1
  Tm  Tm8  1  0.000000  0.115368  0.411904  1
  Tm  Tm9  1  0.000000  0.884632  0.588096  1
  In  In10  1  0.500000  0.422650  0.351157  1
  In  In11  1  0.500000  0.577350  0.648843  1
  In  In12  1  0.500000  0.074015  0.850049  1
  In  In13  1  0.500000  0.925985  0.149951  1
  In  In14  1  0.500000  0.292032  0.066496  1
  In  In15  1  0.500000  0.707968  0.933504  1
  In  In16  1  0.500000  0.205631  0.567381  1
  In  In17  1  0.500000  0.794369  0.432619  1
  Pt  Pt18  1  0.500000  0.476568  0.803294  1
  Pt  Pt19  1  0.500000  0.523432  0.196706  1
  Rh  Rh20  1  0.500000  0.023190  0.304764  1
  Rh  Rh21  1  0.500000  0.976810  0.695236  1
