# generated using pymatgen
data_Ce3NdTa2(B2Ru5)2
_symmetry_space_group_name_H-M   'P 1'
_cell_length_a   9.79049336
_cell_length_b   9.79049336
_cell_length_c   3.14040600
_cell_angle_alpha   90.00000000
_cell_angle_beta   90.00000000
_cell_angle_gamma   90.20300070
_symmetry_Int_Tables_number   1
_chemical_formula_structural   Ce3NdTa2(B2Ru5)2
_chemical_formula_sum   'Ce3 Nd1 Ta2 B4 Ru10'
_cell_volume   301.01783456
_cell_formula_units_Z   1
loop_
 _symmetry_equiv_pos_site_id
 _symmetry_equiv_pos_as_xyz
  1  'x, y, z'
loop_
 _atom_site_type_symbol
 _atom_site_label
 _atom_site_symmetry_multiplicity
 _atom_site_fract_x
 _atom_site_fract_y
 _atom_site_fract_z
 _atom_site_occupancy
  Ce  Ce0  1  0.175470  0.324530  0.000000  1
  Ce  Ce1  1  0.324561  0.824687  0.000000  1
  Ce  Ce2  1  0.675313  0.175439  0.000000  1
  Nd  Nd3  1  0.824573  0.675427  0.000000  1
  Ta  Ta4  1  0.501980  0.501226  0.000000  1
  Ta  Ta5  1  0.998774  0.998020  0.000000  1
  B  B6  1  0.620567  0.879433  0.000000  1
  B  B7  1  0.378415  0.121585  0.000000  1
  B  B8  1  0.121457  0.619701  0.000000  1
  B  B9  1  0.880299  0.378543  0.000000  1
  Ru  Ru10  1  0.564728  0.721658  0.500000  1
  Ru  Ru11  1  0.428645  0.281794  0.500000  1
  Ru  Ru12  1  0.075255  0.781071  0.500000  1
  Ru  Ru13  1  0.929851  0.217483  0.500000  1
  Ru  Ru14  1  0.282517  0.570149  0.500000  1
  Ru  Ru15  1  0.718929  0.424745  0.500000  1
  Ru  Ru16  1  0.218206  0.071355  0.500000  1
  Ru  Ru17  1  0.778342  0.935272  0.500000  1
  Ru  Ru18  1  0.498155  0.001845  0.500000  1
  Ru  Ru19  1  0.003963  0.496037  0.500000  1
