# generated using pymatgen
data_SmDy5C2Cl7
_symmetry_space_group_name_H-M   'P 1'
_cell_length_a   10.18152683
_cell_length_b   10.18152714
_cell_length_c   11.59258289
_cell_angle_alpha   56.58371772
_cell_angle_beta   56.58372315
_cell_angle_gamma   21.15840874
_symmetry_Int_Tables_number   1
_chemical_formula_structural   SmDy5C2Cl7
_chemical_formula_sum   'Sm1 Dy5 C2 Cl7'
_cell_volume   359.29698705
_cell_formula_units_Z   1
loop_
 _symmetry_equiv_pos_site_id
 _symmetry_equiv_pos_as_xyz
  1  'x, y, z'
loop_
 _atom_site_type_symbol
 _atom_site_label
 _atom_site_symmetry_multiplicity
 _atom_site_fract_x
 _atom_site_fract_y
 _atom_site_fract_z
 _atom_site_occupancy
  Sm  Sm0  1  0.224512  0.224512  0.853117  1
  Dy  Dy1  1  0.317923  0.317923  0.359216  1
  Dy  Dy2  1  0.128014  0.128014  0.442046  1
  Dy  Dy3  1  0.871466  0.871466  0.558994  1
  Dy  Dy4  1  0.682778  0.682778  0.640863  1
  Dy  Dy5  1  0.774624  0.774624  0.150917  1
  C  C6  1  0.279914  0.279914  0.606812  1
  C  C7  1  0.720953  0.720953  0.388811  1
  Cl  Cl8  1  0.168818  0.168818  0.164499  1
  Cl  Cl9  1  0.836202  0.836202  0.836068  1
  Cl  Cl10  1  0.059320  0.059320  0.714370  1
  Cl  Cl11  1  0.941001  0.941001  0.284377  1
  Cl  Cl12  1  0.500487  0.500487  0.499240  1
  Cl  Cl13  1  0.388683  0.388683  0.067598  1
  Cl  Cl14  1  0.605304  0.605304  0.933073  1
