# generated using pymatgen
data_Zr8Ti12Si15Ge
_symmetry_space_group_name_H-M   'P 1'
_cell_length_a   6.86110501
_cell_length_b   6.85653059
_cell_length_c   12.58211522
_cell_angle_alpha   90.00221133
_cell_angle_beta   89.95751155
_cell_angle_gamma   89.98617126
_symmetry_Int_Tables_number   1
_chemical_formula_structural   Zr8Ti12Si15Ge
_chemical_formula_sum   'Zr8 Ti12 Si15 Ge1'
_cell_volume   591.90500167
_cell_formula_units_Z   1
loop_
 _symmetry_equiv_pos_site_id
 _symmetry_equiv_pos_as_xyz
  1  'x, y, z'
loop_
 _atom_site_type_symbol
 _atom_site_label
 _atom_site_symmetry_multiplicity
 _atom_site_fract_x
 _atom_site_fract_y
 _atom_site_fract_z
 _atom_site_occupancy
  Zr  Zr0  1  0.345374  0.998307  0.465830  1
  Zr  Zr1  1  0.502500  0.842754  0.717972  1
  Zr  Zr2  1  0.499686  0.155607  0.217491  1
  Zr  Zr3  1  0.844130  0.500387  0.282394  1
  Zr  Zr4  1  0.155835  0.501676  0.783293  1
  Zr  Zr5  1  0.656488  0.999910  0.967862  1
  Zr  Zr6  1  0.996708  0.346608  0.530989  1
  Zr  Zr7  1  0.000630  0.655702  0.032714  1
  Ti  Ti8  1  0.328018  0.328411  0.000219  1
  Ti  Ti9  1  0.172018  0.828395  0.249933  1
  Ti  Ti10  1  0.825676  0.171781  0.750488  1
  Ti  Ti11  1  0.671715  0.671779  0.499957  1
  Ti  Ti12  1  0.152890  0.004112  0.875190  1
  Ti  Ti13  1  0.496094  0.652462  0.123872  1
  Ti  Ti14  1  0.505772  0.348722  0.624171  1
  Ti  Ti15  1  0.653056  0.496666  0.876718  1
  Ti  Ti16  1  0.347074  0.504078  0.375957  1
  Ti  Ti17  1  0.847063  0.996117  0.373639  1
  Ti  Ti18  1  0.004116  0.152641  0.126124  1
  Ti  Ti19  1  0.992980  0.844104  0.625263  1
  Si  Si20  1  0.365331  0.705498  0.928364  1
  Si  Si21  1  0.634432  0.295077  0.427863  1
  Si  Si22  1  0.705270  0.364785  0.072129  1
  Si  Si23  1  0.294993  0.635280  0.571812  1
  Si  Si24  1  0.795118  0.864863  0.178132  1
  Si  Si25  1  0.134865  0.205138  0.321873  1
  Si  Si26  1  0.865663  0.795272  0.822093  1
  Si  Si27  1  0.293405  0.953695  0.064582  1
  Si  Si28  1  0.546884  0.792436  0.313778  1
  Si  Si29  1  0.456319  0.207270  0.815943  1
  Si  Si30  1  0.793601  0.545636  0.686388  1
  Si  Si31  1  0.206970  0.453699  0.185905  1
  Si  Si32  1  0.706212  0.046380  0.563981  1
  Si  Si33  1  0.953917  0.293324  0.935829  1
  Si  Si34  1  0.046401  0.707439  0.435307  1
  Ge  Ge35  1  0.202793  0.133990  0.675950  1
