# generated using pymatgen
data_KRb3(UTe3)2
_symmetry_space_group_name_H-M   'P 1'
_cell_length_a   8.12808943
_cell_length_b   8.12808927
_cell_length_c   8.99345653
_cell_angle_alpha   81.38825979
_cell_angle_beta   81.38825617
_cell_angle_gamma   120.04893128
_symmetry_Int_Tables_number   1
_chemical_formula_structural   KRb3(UTe3)2
_chemical_formula_sum   'K1 Rb3 U2 Te6'
_cell_volume   490.66358234
_cell_formula_units_Z   1
loop_
 _symmetry_equiv_pos_site_id
 _symmetry_equiv_pos_as_xyz
  1  'x, y, z'
loop_
 _atom_site_type_symbol
 _atom_site_label
 _atom_site_symmetry_multiplicity
 _atom_site_fract_x
 _atom_site_fract_y
 _atom_site_fract_z
 _atom_site_occupancy
  K  K0  1  0.500000  0.500000  0.000000  1
  Rb  Rb1  1  0.655454  0.344546  0.500000  1
  Rb  Rb2  1  0.344546  0.655454  0.500000  1
  Rb  Rb3  1  0.000000  0.000000  0.500000  1
  U  U4  1  0.832265  0.167735  0.000000  1
  U  U5  1  0.167735  0.832265  0.000000  1
  Te  Te6  1  0.806156  0.806156  0.200964  1
  Te  Te7  1  0.193844  0.193844  0.799036  1
  Te  Te8  1  0.431828  0.056456  0.204865  1
  Te  Te9  1  0.568172  0.943544  0.795135  1
  Te  Te10  1  0.943544  0.568172  0.795135  1
  Te  Te11  1  0.056456  0.431828  0.204865  1
