# generated using pymatgen
data_Gd4AsBrO8
_symmetry_space_group_name_H-M   'P 1'
_cell_length_a   8.14940900
_cell_length_b   8.14940900
_cell_length_c   12.94266000
_cell_angle_alpha   90.00000000
_cell_angle_beta   90.00000000
_cell_angle_gamma   90.00000000
_symmetry_Int_Tables_number   1
_chemical_formula_structural   Gd4AsBrO8
_chemical_formula_sum   'Gd16 As4 Br4 O32'
_cell_volume   859.55915784
_cell_formula_units_Z   4
loop_
 _symmetry_equiv_pos_site_id
 _symmetry_equiv_pos_as_xyz
  1  'x, y, z'
loop_
 _atom_site_type_symbol
 _atom_site_label
 _atom_site_symmetry_multiplicity
 _atom_site_fract_x
 _atom_site_fract_y
 _atom_site_fract_z
 _atom_site_occupancy
  Gd  Gd0  1  0.014779  0.245278  0.169578  1
  Gd  Gd1  1  0.985221  0.754722  0.169578  1
  Gd  Gd2  1  0.480918  0.245564  0.169864  1
  Gd  Gd3  1  0.519082  0.754435  0.169864  1
  Gd  Gd4  1  0.754435  0.480918  0.330136  1
  Gd  Gd5  1  0.245564  0.519082  0.330136  1
  Gd  Gd6  1  0.754722  0.014779  0.330422  1
  Gd  Gd7  1  0.245278  0.985221  0.330422  1
  Gd  Gd8  1  0.754722  0.014779  0.669578  1
  Gd  Gd9  1  0.245278  0.985221  0.669578  1
  Gd  Gd10  1  0.754435  0.480918  0.669863  1
  Gd  Gd11  1  0.245564  0.519082  0.669863  1
  Gd  Gd12  1  0.480918  0.245564  0.830136  1
  Gd  Gd13  1  0.519082  0.754435  0.830136  1
  Gd  Gd14  1  0.014779  0.245278  0.830422  1
  Gd  Gd15  1  0.985221  0.754722  0.830422  1
  As  As16  1  0.748173  0.045109  0.000000  1
  As  As17  1  0.251827  0.954891  0.000000  1
  As  As18  1  0.045109  0.251827  0.500000  1
  As  As19  1  0.954891  0.748173  0.500000  1
  Br  Br20  1  0.253380  0.443976  0.000000  1
  Br  Br21  1  0.746620  0.556024  0.000000  1
  Br  Br22  1  0.556024  0.253380  0.500000  1
  Br  Br23  1  0.443976  0.746620  0.500000  1
  O  O24  1  0.576051  0.169743  0.000000  1
  O  O25  1  0.920509  0.169755  0.000000  1
  O  O26  1  0.079490  0.830244  0.000000  1
  O  O27  1  0.423949  0.830257  0.000000  1
  O  O28  1  0.251778  0.074435  0.108204  1
  O  O29  1  0.748221  0.925565  0.108204  1
  O  O30  1  0.742310  0.249202  0.227183  1
  O  O31  1  0.257690  0.750798  0.227183  1
  O  O32  1  0.000000  0.500000  0.237770  1
  O  O33  1  0.000000  0.000000  0.250000  1
  O  O34  1  0.500000  0.500000  0.250000  1
  O  O35  1  0.500000  0.000000  0.262230  1
  O  O36  1  0.249202  0.257690  0.272818  1
  O  O37  1  0.750798  0.742310  0.272818  1
  O  O38  1  0.925565  0.251778  0.391796  1
  O  O39  1  0.074435  0.748221  0.391796  1
  O  O40  1  0.169755  0.079490  0.500000  1
  O  O41  1  0.169743  0.423949  0.500000  1
  O  O42  1  0.830257  0.576051  0.500000  1
  O  O43  1  0.830244  0.920509  0.500000  1
  O  O44  1  0.925565  0.251778  0.608204  1
  O  O45  1  0.074435  0.748221  0.608204  1
  O  O46  1  0.249202  0.257690  0.727183  1
  O  O47  1  0.750798  0.742310  0.727183  1
  O  O48  1  0.500000  0.000000  0.737770  1
  O  O49  1  0.000000  0.000000  0.750000  1
  O  O50  1  0.500000  0.500000  0.750000  1
  O  O51  1  0.000000  0.500000  0.762231  1
  O  O52  1  0.742310  0.249202  0.772818  1
  O  O53  1  0.257690  0.750798  0.772818  1
  O  O54  1  0.251778  0.074435  0.891796  1
  O  O55  1  0.748221  0.925565  0.891796  1
