# generated using pymatgen
data_La17Yb3(SiSb2)4
_symmetry_space_group_name_H-M   'P 1'
_cell_length_a   8.33612997
_cell_length_b   9.49768600
_cell_length_c   12.64404589
_cell_angle_alpha   90.00000000
_cell_angle_beta   90.44110479
_cell_angle_gamma   90.00000000
_symmetry_Int_Tables_number   1
_chemical_formula_structural   La17Yb3(SiSb2)4
_chemical_formula_sum   'La17 Yb3 Si4 Sb8'
_cell_volume   1001.04932523
_cell_formula_units_Z   1
loop_
 _symmetry_equiv_pos_site_id
 _symmetry_equiv_pos_as_xyz
  1  'x, y, z'
loop_
 _atom_site_type_symbol
 _atom_site_label
 _atom_site_symmetry_multiplicity
 _atom_site_fract_x
 _atom_site_fract_y
 _atom_site_fract_z
 _atom_site_occupancy
  La  La0  1  0.472753  0.750000  0.001448  1
  La  La1  1  0.862909  0.750000  0.790762  1
  La  La2  1  0.134801  0.250000  0.210502  1
  La  La3  1  0.363516  0.250000  0.708364  1
  La  La4  1  0.636244  0.750000  0.291677  1
  La  La5  1  0.691783  0.541342  0.562505  1
  La  La6  1  0.307248  0.460782  0.436566  1
  La  La7  1  0.191264  0.459749  0.935598  1
  La  La8  1  0.307248  0.039218  0.436566  1
  La  La9  1  0.805779  0.542352  0.062011  1
  La  La10  1  0.691783  0.958658  0.562505  1
  La  La11  1  0.805779  0.957648  0.062011  1
  La  La12  1  0.191264  0.040251  0.935598  1
  La  La13  1  0.339398  0.750000  0.712413  1
  La  La14  1  0.660976  0.250000  0.287942  1
  La  La15  1  0.840993  0.250000  0.786621  1
  La  La16  1  0.159799  0.750000  0.213517  1
  Yb  Yb17  1  0.040588  0.750000  0.499949  1
  Yb  Yb18  1  0.957977  0.250000  0.500751  1
  Yb  Yb19  1  0.543386  0.250000  0.000273  1
  Si  Si20  1  0.070464  0.750000  0.983309  1
  Si  Si21  1  0.927796  0.250000  0.018855  1
  Si  Si22  1  0.570239  0.250000  0.518084  1
  Si  Si23  1  0.428880  0.750000  0.482839  1
  Sb  Sb24  1  0.574249  0.506715  0.827509  1
  Sb  Sb25  1  0.424455  0.489683  0.172256  1
  Sb  Sb26  1  0.073020  0.491060  0.669877  1
  Sb  Sb27  1  0.424455  0.010317  0.172256  1
  Sb  Sb28  1  0.926841  0.508315  0.330024  1
  Sb  Sb29  1  0.574249  0.993285  0.827509  1
  Sb  Sb30  1  0.926841  0.991685  0.330024  1
  Sb  Sb31  1  0.073020  0.008940  0.669877  1
