# generated using pymatgen
data_Tb5GaIrO12
_symmetry_space_group_name_H-M   'P 1'
_cell_length_a   6.88050715
_cell_length_b   6.88050743
_cell_length_c   7.32051959
_cell_angle_alpha   74.45961487
_cell_angle_beta   74.45961539
_cell_angle_gamma   51.10250232
_symmetry_Int_Tables_number   1
_chemical_formula_structural   Tb5GaIrO12
_chemical_formula_sum   'Tb5 Ga1 Ir1 O12'
_cell_volume   257.55305385
_cell_formula_units_Z   1
loop_
 _symmetry_equiv_pos_site_id
 _symmetry_equiv_pos_as_xyz
  1  'x, y, z'
loop_
 _atom_site_type_symbol
 _atom_site_label
 _atom_site_symmetry_multiplicity
 _atom_site_fract_x
 _atom_site_fract_y
 _atom_site_fract_z
 _atom_site_occupancy
  Tb  Tb0  1  0.695852  0.691007  0.667848  1
  Tb  Tb1  1  0.690557  0.705168  0.140109  1
  Tb  Tb2  1  0.994658  0.005342  0.000000  1
  Tb  Tb3  1  0.294832  0.309443  0.859891  1
  Tb  Tb4  1  0.308993  0.304148  0.332152  1
  Ga  Ga5  1  0.246287  0.753713  0.500000  1
  Ir  Ir6  1  0.757999  0.242001  0.500000  1
  O  O7  1  0.399684  0.906822  0.923756  1
  O  O8  1  0.575621  0.096169  0.583284  1
  O  O9  1  0.903831  0.424379  0.416716  1
  O  O10  1  0.093178  0.600316  0.076244  1
  O  O11  1  0.992429  0.007744  0.316908  1
  O  O12  1  0.515255  0.485211  0.685282  1
  O  O13  1  0.899812  0.405496  0.926044  1
  O  O14  1  0.102707  0.573245  0.581371  1
  O  O15  1  0.426755  0.897293  0.418629  1
  O  O16  1  0.594504  0.100188  0.073956  1
  O  O17  1  0.514789  0.484745  0.314718  1
  O  O18  1  0.992256  0.007571  0.683092  1
