# generated using pymatgen
data_Tm4Sn3Sb3Rh7
_symmetry_space_group_name_H-M   'P 1'
_cell_length_a   7.56504967
_cell_length_b   7.57470152
_cell_length_c   7.56504877
_cell_angle_alpha   109.49707359
_cell_angle_beta   109.44537039
_cell_angle_gamma   109.49706234
_symmetry_Int_Tables_number   1
_chemical_formula_structural   Tm4Sn3Sb3Rh7
_chemical_formula_sum   'Tm4 Sn3 Sb3 Rh7'
_cell_volume   333.60185969
_cell_formula_units_Z   1
loop_
 _symmetry_equiv_pos_site_id
 _symmetry_equiv_pos_as_xyz
  1  'x, y, z'
loop_
 _atom_site_type_symbol
 _atom_site_label
 _atom_site_symmetry_multiplicity
 _atom_site_fract_x
 _atom_site_fract_y
 _atom_site_fract_z
 _atom_site_occupancy
  Tm  Tm0  1  0.501778  0.997589  0.000000  1
  Tm  Tm1  1  0.000000  0.491999  0.000000  1
  Tm  Tm2  1  0.000000  0.997589  0.501778  1
  Tm  Tm3  1  0.498222  0.495811  0.498222  1
  Sn  Sn4  1  0.308668  0.995855  0.308668  1
  Sn  Sn5  1  0.000000  0.687187  0.691332  1
  Sn  Sn6  1  0.691332  0.687187  0.000000  1
  Sb  Sb7  1  0.677734  0.996220  0.677734  1
  Sb  Sb8  1  0.000000  0.318485  0.322266  1
  Sb  Sb9  1  0.322266  0.318485  0.000000  1
  Rh  Rh10  1  0.252154  0.501460  0.752146  1
  Rh  Rh11  1  0.499992  0.249306  0.747846  1
  Rh  Rh12  1  0.747846  0.249306  0.499992  1
  Rh  Rh13  1  0.500008  0.749314  0.247854  1
  Rh  Rh14  1  0.000000  0.013431  0.000000  1
  Rh  Rh15  1  0.247854  0.749314  0.500008  1
  Rh  Rh16  1  0.752146  0.501460  0.252154  1
