# generated using pymatgen
data_Ti3Nb3Al3Zn(AuC)2
_symmetry_space_group_name_H-M   'P 1'
_cell_length_a   8.38351546
_cell_length_b   8.38393568
_cell_length_c   8.38283400
_cell_angle_alpha   60.00467021
_cell_angle_beta   60.00201810
_cell_angle_gamma   60.01443172
_symmetry_Int_Tables_number   1
_chemical_formula_structural   Ti3Nb3Al3Zn(AuC)2
_chemical_formula_sum   'Ti6 Nb6 Al6 Zn2 Au4 C4'
_cell_volume   416.69594605
_cell_formula_units_Z   2
loop_
 _symmetry_equiv_pos_site_id
 _symmetry_equiv_pos_as_xyz
  1  'x, y, z'
loop_
 _atom_site_type_symbol
 _atom_site_label
 _atom_site_symmetry_multiplicity
 _atom_site_fract_x
 _atom_site_fract_y
 _atom_site_fract_z
 _atom_site_occupancy
  Ti  Ti0  1  0.571246  0.928626  0.569771  1
  Ti  Ti1  1  0.570123  0.929628  0.931293  1
  Ti  Ti2  1  0.930049  0.570767  0.567951  1
  Ti  Ti3  1  0.931201  0.569592  0.932059  1
  Ti  Ti4  1  0.318775  0.319017  0.681529  1
  Ti  Ti5  1  0.568579  0.569335  0.931060  1
  Nb  Nb6  1  0.929241  0.928535  0.571056  1
  Nb  Nb7  1  0.681697  0.318494  0.319916  1
  Nb  Nb8  1  0.319541  0.681193  0.678940  1
  Nb  Nb9  1  0.679028  0.678214  0.322071  1
  Nb  Nb10  1  0.682815  0.318434  0.679848  1
  Nb  Nb11  1  0.320031  0.679644  0.321664  1
  Al  Al12  1  0.997328  0.334668  0.331988  1
  Al  Al13  1  0.336466  0.336713  0.333091  1
  Al  Al14  1  0.260043  0.914346  0.912297  1
  Al  Al15  1  0.913270  0.916985  0.912657  1
  Al  Al16  1  0.912194  0.915880  0.258893  1
  Al  Al17  1  0.334905  0.995735  0.332563  1
  Zn  Zn18  1  0.909152  0.268017  0.910736  1
  Zn  Zn19  1  0.336725  0.337553  0.988213  1
  Au  Au20  1  0.122145  0.628670  0.126781  1
  Au  Au21  1  0.129976  0.125379  0.622446  1
  Au  Au22  1  0.624665  0.120600  0.129403  1
  Au  Au23  1  0.126495  0.122179  0.124010  1
  C  C24  1  0.615872  0.123348  0.631342  1
  C  C25  1  0.628867  0.627045  0.114807  1
  C  C26  1  0.121752  0.615136  0.632561  1
  C  C27  1  0.627819  0.626269  0.631053  1
