# generated using pymatgen
data_Tb5Dy15(IrPt5)2
_symmetry_space_group_name_H-M   'P 1'
_cell_length_a   11.05563106
_cell_length_b   11.05458201
_cell_length_c   6.42588003
_cell_angle_alpha   89.99617957
_cell_angle_beta   89.98888433
_cell_angle_gamma   90.00413564
_symmetry_Int_Tables_number   1
_chemical_formula_structural   Tb5Dy15(IrPt5)2
_chemical_formula_sum   'Tb5 Dy15 Ir2 Pt10'
_cell_volume   785.34135322
_cell_formula_units_Z   1
loop_
 _symmetry_equiv_pos_site_id
 _symmetry_equiv_pos_as_xyz
  1  'x, y, z'
loop_
 _atom_site_type_symbol
 _atom_site_label
 _atom_site_symmetry_multiplicity
 _atom_site_fract_x
 _atom_site_fract_y
 _atom_site_fract_z
 _atom_site_occupancy
  Tb  Tb0  1  0.292514  0.088783  0.376908  1
  Tb  Tb1  1  0.292388  0.911242  0.876907  1
  Tb  Tb2  1  0.707504  0.088944  0.876939  1
  Tb  Tb3  1  0.707564  0.911305  0.376910  1
  Tb  Tb4  1  0.588623  0.792240  0.876888  1
  Dy  Dy5  1  0.588617  0.207508  0.377192  1
  Dy  Dy6  1  0.411289  0.792468  0.377076  1
  Dy  Dy7  1  0.411394  0.207515  0.877144  1
  Dy  Dy8  1  0.204856  0.412060  0.623408  1
  Dy  Dy9  1  0.204843  0.587925  0.123451  1
  Dy  Dy10  1  0.795160  0.412052  0.123390  1
  Dy  Dy11  1  0.795192  0.587869  0.623327  1
  Dy  Dy12  1  0.912141  0.704788  0.123340  1
  Dy  Dy13  1  0.912138  0.295223  0.623290  1
  Dy  Dy14  1  0.087867  0.704804  0.623327  1
  Dy  Dy15  1  0.087916  0.295200  0.123309  1
  Dy  Dy16  1  0.000023  0.000006  0.500634  1
  Dy  Dy17  1  0.999990  0.000007  0.000663  1
  Dy  Dy18  1  0.499950  0.499879  0.000727  1
  Dy  Dy19  1  0.499987  0.499961  0.500625  1
  Ir  Ir20  1  0.000023  0.499983  0.878030  1
  Ir  Ir21  1  0.000006  0.499988  0.378076  1
  Pt  Pt22  1  0.846188  0.153192  0.250305  1
  Pt  Pt23  1  0.846424  0.846892  0.750173  1
  Pt  Pt24  1  0.153819  0.153169  0.750312  1
  Pt  Pt25  1  0.153815  0.846806  0.250296  1
  Pt  Pt26  1  0.652825  0.346197  0.749816  1
  Pt  Pt27  1  0.652919  0.653656  0.250287  1
  Pt  Pt28  1  0.347179  0.346173  0.249796  1
  Pt  Pt29  1  0.347009  0.653751  0.749719  1
  Pt  Pt30  1  0.499904  0.000236  0.119059  1
  Pt  Pt31  1  0.499934  0.000178  0.618680  1
