# generated using pymatgen
data_La7PaZn8Ir5Rh3
_symmetry_space_group_name_H-M   'P 1'
_cell_length_a   4.00031600
_cell_length_b   7.52336983
_cell_length_c   16.74100798
_cell_angle_alpha   89.89799488
_cell_angle_beta   90.00000000
_cell_angle_gamma   90.00000000
_symmetry_Int_Tables_number   1
_chemical_formula_structural   La7PaZn8Ir5Rh3
_chemical_formula_sum   'La7 Pa1 Zn8 Ir5 Rh3'
_cell_volume   503.83417870
_cell_formula_units_Z   1
loop_
 _symmetry_equiv_pos_site_id
 _symmetry_equiv_pos_as_xyz
  1  'x, y, z'
loop_
 _atom_site_type_symbol
 _atom_site_label
 _atom_site_symmetry_multiplicity
 _atom_site_fract_x
 _atom_site_fract_y
 _atom_site_fract_z
 _atom_site_occupancy
  La  La0  1  0.250000  0.053038  0.715901  1
  La  La1  1  0.250000  0.549544  0.783608  1
  La  La2  1  0.250000  0.672926  0.560550  1
  La  La3  1  0.750000  0.826552  0.059604  1
  La  La4  1  0.250000  0.172918  0.939645  1
  La  La5  1  0.750000  0.451230  0.216981  1
  La  La6  1  0.750000  0.945346  0.284557  1
  Pa  Pa7  1  0.750000  0.324831  0.441013  1
  Zn  Zn8  1  0.250000  0.119486  0.149843  1
  Zn  Zn9  1  0.250000  0.989708  0.439173  1
  Zn  Zn10  1  0.750000  0.877574  0.850015  1
  Zn  Zn11  1  0.750000  0.001864  0.556544  1
  Zn  Zn12  1  0.250000  0.498884  0.059041  1
  Zn  Zn13  1  0.750000  0.376861  0.647779  1
  Zn  Zn14  1  0.750000  0.502453  0.940914  1
  Zn  Zn15  1  0.250000  0.616273  0.350184  1
  Ir  Ir16  1  0.750000  0.254942  0.812435  1
  Ir  Ir17  1  0.250000  0.257599  0.330834  1
  Ir  Ir18  1  0.250000  0.741307  0.933970  1
  Ir  Ir19  1  0.250000  0.255249  0.552503  1
  Ir  Ir20  1  0.250000  0.750062  0.186533  1
  Rh  Rh21  1  0.750000  0.740141  0.436007  1
  Rh  Rh22  1  0.750000  0.261435  0.067677  1
  Rh  Rh23  1  0.750000  0.759778  0.684688  1
