# generated using pymatgen
data_Pr6SmPI12
_symmetry_space_group_name_H-M   'P 1'
_cell_length_a   10.00600807
_cell_length_b   10.00600804
_cell_length_c   10.00600760
_cell_angle_alpha   107.94297691
_cell_angle_beta   107.94296910
_cell_angle_gamma   107.94296951
_symmetry_Int_Tables_number   1
_chemical_formula_structural   Pr6SmPI12
_chemical_formula_sum   'Pr6 Sm1 P1 I12'
_cell_volume   811.89479703
_cell_formula_units_Z   1
loop_
 _symmetry_equiv_pos_site_id
 _symmetry_equiv_pos_as_xyz
  1  'x, y, z'
loop_
 _atom_site_type_symbol
 _atom_site_label
 _atom_site_symmetry_multiplicity
 _atom_site_fract_x
 _atom_site_fract_y
 _atom_site_fract_z
 _atom_site_occupancy
  Pr  Pr0  1  0.969351  0.898176  0.693214  1
  Pr  Pr1  1  0.030649  0.101824  0.306786  1
  Pr  Pr2  1  0.101824  0.306786  0.030649  1
  Pr  Pr3  1  0.306786  0.030649  0.101824  1
  Pr  Pr4  1  0.898176  0.693214  0.969351  1
  Pr  Pr5  1  0.693214  0.969351  0.898176  1
  Sm  Sm6  1  0.500000  0.500000  0.500000  1
  P  P7  1  0.000000  0.000000  0.000000  1
  I  I8  1  0.529290  0.610845  0.841964  1
  I  I9  1  0.470710  0.389155  0.158036  1
  I  I10  1  0.313846  0.923832  0.769296  1
  I  I11  1  0.389155  0.158036  0.470710  1
  I  I12  1  0.923832  0.769296  0.313846  1
  I  I13  1  0.686154  0.076168  0.230704  1
  I  I14  1  0.076168  0.230704  0.686154  1
  I  I15  1  0.769296  0.313846  0.923832  1
  I  I16  1  0.230704  0.686154  0.076168  1
  I  I17  1  0.841964  0.529290  0.610845  1
  I  I18  1  0.158036  0.470710  0.389155  1
  I  I19  1  0.610845  0.841964  0.529290  1
