# generated using pymatgen
data_Sc8V10ReSi16Rh
_symmetry_space_group_name_H-M   'P 1'
_cell_length_a   6.63422481
_cell_length_b   6.63422435
_cell_length_c   12.26609432
_cell_angle_alpha   89.86924258
_cell_angle_beta   90.13075457
_cell_angle_gamma   89.45575076
_symmetry_Int_Tables_number   1
_chemical_formula_structural   Sc8V10ReSi16Rh
_chemical_formula_sum   'Sc8 V10 Re1 Si16 Rh1'
_cell_volume   539.83962719
_cell_formula_units_Z   1
loop_
 _symmetry_equiv_pos_site_id
 _symmetry_equiv_pos_as_xyz
  1  'x, y, z'
loop_
 _atom_site_type_symbol
 _atom_site_label
 _atom_site_symmetry_multiplicity
 _atom_site_fract_x
 _atom_site_fract_y
 _atom_site_fract_z
 _atom_site_occupancy
  Sc  Sc0  1  0.001251  0.662443  0.028713  1
  Sc  Sc1  1  0.000744  0.336141  0.528462  1
  Sc  Sc2  1  0.336141  0.000744  0.471538  1
  Sc  Sc3  1  0.164930  0.496958  0.779856  1
  Sc  Sc4  1  0.835338  0.501501  0.279332  1
  Sc  Sc5  1  0.496958  0.164930  0.220144  1
  Sc  Sc6  1  0.501501  0.835338  0.720668  1
  Sc  Sc7  1  0.662443  0.001251  0.971287  1
  V  V8  1  0.166512  0.834010  0.249910  1
  V  V9  1  0.002035  0.845053  0.627672  1
  V  V10  1  0.001955  0.155385  0.128542  1
  V  V11  1  0.845053  0.002035  0.372328  1
  V  V12  1  0.333862  0.504198  0.374596  1
  V  V13  1  0.661256  0.493667  0.874290  1
  V  V14  1  0.504198  0.333862  0.625404  1
  V  V15  1  0.493667  0.661256  0.125710  1
  V  V16  1  0.155385  0.001955  0.871458  1
  V  V17  1  0.834010  0.166512  0.750090  1
  Re  Re18  1  0.333140  0.333140  0.000000  1
  Si  Si19  1  0.039314  0.712189  0.436294  1
  Si  Si20  1  0.624736  0.296875  0.430071  1
  Si  Si21  1  0.373107  0.704367  0.928816  1
  Si  Si22  1  0.204992  0.129268  0.680654  1
  Si  Si23  1  0.296875  0.624736  0.569929  1
  Si  Si24  1  0.704367  0.373107  0.071184  1
  Si  Si25  1  0.794887  0.869581  0.181104  1
  Si  Si26  1  0.129268  0.204992  0.319346  1
  Si  Si27  1  0.961131  0.291199  0.935543  1
  Si  Si28  1  0.712189  0.039314  0.563706  1
  Si  Si29  1  0.202931  0.462666  0.184810  1
  Si  Si30  1  0.796222  0.538723  0.683636  1
  Si  Si31  1  0.462666  0.202931  0.815190  1
  Si  Si32  1  0.538723  0.796222  0.316364  1
  Si  Si33  1  0.291199  0.961131  0.064457  1
  Si  Si34  1  0.869581  0.794887  0.818896  1
  Rh  Rh35  1  0.667435  0.667435  0.500000  1
