# generated using pymatgen
data_Ho10Tl7InPd3Rh
_symmetry_space_group_name_H-M   'P 1'
_cell_length_a   3.61960000
_cell_length_b   8.17270531
_cell_length_c   18.32830287
_cell_angle_alpha   89.94685651
_cell_angle_beta   90.00000000
_cell_angle_gamma   90.00000000
_symmetry_Int_Tables_number   1
_chemical_formula_structural   Ho10Tl7InPd3Rh
_chemical_formula_sum   'Ho10 Tl7 In1 Pd3 Rh1'
_cell_volume   542.18623229
_cell_formula_units_Z   1
loop_
 _symmetry_equiv_pos_site_id
 _symmetry_equiv_pos_as_xyz
  1  'x, y, z'
loop_
 _atom_site_type_symbol
 _atom_site_label
 _atom_site_symmetry_multiplicity
 _atom_site_fract_x
 _atom_site_fract_y
 _atom_site_fract_z
 _atom_site_occupancy
  Ho  Ho0  1  0.000000  0.500182  0.499864  1
  Ho  Ho1  1  0.000000  0.000499  0.999922  1
  Ho  Ho2  1  0.000000  0.731948  0.277839  1
  Ho  Ho3  1  0.000000  0.259914  0.720357  1
  Ho  Ho4  1  0.000000  0.760094  0.780002  1
  Ho  Ho5  1  0.000000  0.252375  0.219876  1
  Ho  Ho6  1  0.000000  0.613005  0.087925  1
  Ho  Ho7  1  0.000000  0.383460  0.915548  1
  Ho  Ho8  1  0.000000  0.884380  0.584627  1
  Ho  Ho9  1  0.000000  0.115622  0.414238  1
  Tl  Tl10  1  0.500000  0.710477  0.932852  1
  Tl  Tl11  1  0.500000  0.290742  0.067791  1
  Tl  Tl12  1  0.500000  0.790977  0.432405  1
  Tl  Tl13  1  0.500000  0.209142  0.566986  1
  Tl  Tl14  1  0.500000  0.582173  0.649125  1
  Tl  Tl15  1  0.500000  0.419428  0.350780  1
  Tl  Tl16  1  0.500000  0.918360  0.149544  1
  In  In17  1  0.500000  0.081444  0.850344  1
  Pd  Pd18  1  0.500000  0.474044  0.804413  1
  Pd  Pd19  1  0.500000  0.976361  0.696822  1
  Pd  Pd20  1  0.500000  0.022679  0.303797  1
  Rh  Rh21  1  0.500000  0.522694  0.194943  1
