# generated using pymatgen
data_Tb3HoAl18Pd5W
_symmetry_space_group_name_H-M   'P 1'
_cell_length_a   7.63465923
_cell_length_b   7.63666790
_cell_length_c   9.53477506
_cell_angle_alpha   89.64307288
_cell_angle_beta   89.62292880
_cell_angle_gamma   118.85069079
_symmetry_Int_Tables_number   1
_chemical_formula_structural   Tb3HoAl18Pd5W
_chemical_formula_sum   'Tb3 Ho1 Al18 Pd5 W1'
_cell_volume   486.87137078
_cell_formula_units_Z   1
loop_
 _symmetry_equiv_pos_site_id
 _symmetry_equiv_pos_as_xyz
  1  'x, y, z'
loop_
 _atom_site_type_symbol
 _atom_site_label
 _atom_site_symmetry_multiplicity
 _atom_site_fract_x
 _atom_site_fract_y
 _atom_site_fract_z
 _atom_site_occupancy
  Tb  Tb0  1  0.995317  0.679406  0.246900  1
  Tb  Tb1  1  0.004978  0.320538  0.753012  1
  Tb  Tb2  1  0.679202  0.995099  0.247020  1
  Ho  Ho3  1  0.319977  0.004901  0.753462  1
  Al  Al4  1  0.136526  0.136422  0.249170  1
  Al  Al5  1  0.863919  0.863623  0.750674  1
  Al  Al6  1  0.003481  0.335944  0.076504  1
  Al  Al7  1  0.997116  0.664465  0.923014  1
  Al  Al8  1  0.998531  0.660931  0.578558  1
  Al  Al9  1  0.339321  0.001772  0.422195  1
  Al  Al10  1  0.001837  0.339446  0.421828  1
  Al  Al11  1  0.660088  0.998166  0.578609  1
  Al  Al12  1  0.663642  0.996595  0.923094  1
  Al  Al13  1  0.336048  0.003440  0.076081  1
  Al  Al14  1  0.333600  0.333220  0.554500  1
  Al  Al15  1  0.666432  0.666424  0.446055  1
  Al  Al16  1  0.666656  0.666639  0.051525  1
  Al  Al17  1  0.333520  0.333072  0.947939  1
  Al  Al18  1  0.342876  0.551400  0.250274  1
  Al  Al19  1  0.656783  0.448088  0.749704  1
  Al  Al20  1  0.551384  0.342735  0.250307  1
  Al  Al21  1  0.448432  0.657455  0.749686  1
  Pd  Pd22  1  0.672470  0.327627  0.999885  1
  Pd  Pd23  1  0.327589  0.672438  0.999862  1
  Pd  Pd24  1  0.327926  0.672156  0.500133  1
  Pd  Pd25  1  0.671938  0.327825  0.500130  1
  Pd  Pd26  1  0.000204  0.000037  0.500210  1
  W  W27  1  0.000209  0.000137  0.999668  1
