# generated using pymatgen
data_Ho12Ga9Si9Ge2
_symmetry_space_group_name_H-M   'P 1'
_cell_length_a   5.94019488
_cell_length_b   5.94019512
_cell_length_c   18.62229400
_cell_angle_alpha   90.00000000
_cell_angle_beta   90.00000000
_cell_angle_gamma   102.86930461
_symmetry_Int_Tables_number   1
_chemical_formula_structural   Ho12Ga9Si9Ge2
_chemical_formula_sum   'Ho12 Ga9 Si9 Ge2'
_cell_volume   640.59867523
_cell_formula_units_Z   1
loop_
 _symmetry_equiv_pos_site_id
 _symmetry_equiv_pos_as_xyz
  1  'x, y, z'
loop_
 _atom_site_type_symbol
 _atom_site_label
 _atom_site_symmetry_multiplicity
 _atom_site_fract_x
 _atom_site_fract_y
 _atom_site_fract_z
 _atom_site_occupancy
  Ho  Ho0  1  0.651956  0.651956  0.000000  1
  Ho  Ho1  1  0.659409  0.659409  0.500000  1
  Ho  Ho2  1  0.341442  0.341442  0.250402  1
  Ho  Ho3  1  0.341442  0.341442  0.749598  1
  Ho  Ho4  1  0.200402  0.802020  0.127853  1
  Ho  Ho5  1  0.198616  0.801578  0.625093  1
  Ho  Ho6  1  0.200402  0.802020  0.872147  1
  Ho  Ho7  1  0.198616  0.801578  0.374907  1
  Ho  Ho8  1  0.802020  0.200402  0.127853  1
  Ho  Ho9  1  0.801578  0.198616  0.625093  1
  Ho  Ho10  1  0.801578  0.198616  0.374907  1
  Ho  Ho11  1  0.802020  0.200402  0.872147  1
  Ga  Ga12  1  0.317607  0.317607  0.902125  1
  Ga  Ga13  1  0.322927  0.322927  0.402162  1
  Ga  Ga14  1  0.678142  0.678142  0.347886  1
  Ga  Ga15  1  0.678069  0.678069  0.847894  1
  Ga  Ga16  1  0.317607  0.317607  0.097875  1
  Ga  Ga17  1  0.322927  0.322927  0.597838  1
  Ga  Ga18  1  0.678069  0.678069  0.152106  1
  Ga  Ga19  1  0.678142  0.678142  0.652114  1
  Ga  Ga20  1  0.038839  0.038839  0.000000  1
  Si  Si21  1  0.484125  0.087876  0.500000  1
  Si  Si22  1  0.913182  0.516889  0.250370  1
  Si  Si23  1  0.913182  0.516889  0.749630  1
  Si  Si24  1  0.516889  0.913182  0.250370  1
  Si  Si25  1  0.516889  0.913182  0.749630  1
  Si  Si26  1  0.087876  0.484125  0.500000  1
  Si  Si27  1  0.051573  0.051573  0.500000  1
  Si  Si28  1  0.949621  0.949621  0.250631  1
  Si  Si29  1  0.949621  0.949621  0.749369  1
  Ge  Ge30  1  0.498314  0.086923  0.000000  1
  Ge  Ge31  1  0.086923  0.498314  0.000000  1
