# generated using pymatgen
data_TbDyTm2(ReC2)2
_symmetry_space_group_name_H-M   'P 1'
_cell_length_a   5.08262600
_cell_length_b   6.57187900
_cell_length_c   9.79917900
_cell_angle_alpha   90.00000000
_cell_angle_beta   90.00000000
_cell_angle_gamma   90.00000000
_symmetry_Int_Tables_number   1
_chemical_formula_structural   TbDyTm2(ReC2)2
_chemical_formula_sum   'Tb2 Dy2 Tm4 Re4 C8'
_cell_volume   327.31612675
_cell_formula_units_Z   2
loop_
 _symmetry_equiv_pos_site_id
 _symmetry_equiv_pos_as_xyz
  1  'x, y, z'
loop_
 _atom_site_type_symbol
 _atom_site_label
 _atom_site_symmetry_multiplicity
 _atom_site_fract_x
 _atom_site_fract_y
 _atom_site_fract_z
 _atom_site_occupancy
  Tb  Tb0  1  0.250000  0.465911  0.214444  1
  Tb  Tb1  1  0.250000  0.965911  0.285556  1
  Dy  Dy2  1  0.750000  0.534408  0.785161  1
  Dy  Dy3  1  0.750000  0.034408  0.714839  1
  Tm  Tm4  1  0.250000  0.824454  0.942160  1
  Tm  Tm5  1  0.250000  0.324454  0.557840  1
  Tm  Tm6  1  0.750000  0.175493  0.057464  1
  Tm  Tm7  1  0.750000  0.675493  0.442536  1
  Re  Re8  1  0.250000  0.279605  0.866758  1
  Re  Re9  1  0.250000  0.779605  0.633242  1
  Re  Re10  1  0.750000  0.720608  0.132963  1
  Re  Re11  1  0.750000  0.220608  0.367037  1
  C  C12  1  0.250000  0.047921  0.739954  1
  C  C13  1  0.250000  0.547921  0.760046  1
  C  C14  1  0.750000  0.952275  0.259812  1
  C  C15  1  0.750000  0.452275  0.240188  1
  C  C16  1  0.250000  0.671908  0.450349  1
  C  C17  1  0.250000  0.171908  0.049651  1
  C  C18  1  0.750000  0.327416  0.550344  1
  C  C19  1  0.750000  0.827416  0.949656  1
