# generated using pymatgen
data_Er6SbRuO14
_symmetry_space_group_name_H-M   'P 1'
_cell_length_a   6.41353571
_cell_length_b   6.41353560
_cell_length_c   7.39988968
_cell_angle_alpha   90.28112168
_cell_angle_beta   89.71887759
_cell_angle_gamma   109.07607564
_symmetry_Int_Tables_number   1
_chemical_formula_structural   Er6SbRuO14
_chemical_formula_sum   'Er6 Sb1 Ru1 O14'
_cell_volume   287.66264884
_cell_formula_units_Z   1
loop_
 _symmetry_equiv_pos_site_id
 _symmetry_equiv_pos_as_xyz
  1  'x, y, z'
loop_
 _atom_site_type_symbol
 _atom_site_label
 _atom_site_symmetry_multiplicity
 _atom_site_fract_x
 _atom_site_fract_y
 _atom_site_fract_z
 _atom_site_occupancy
  Er  Er0  1  0.000941  0.466231  0.745046  1
  Er  Er1  1  0.000844  0.534311  0.247159  1
  Er  Er2  1  0.534311  0.000844  0.752841  1
  Er  Er3  1  0.466231  0.000941  0.254954  1
  Er  Er4  1  0.528982  0.528982  0.500000  1
  Er  Er5  1  0.487033  0.487033  0.000000  1
  Sb  Sb6  1  0.000059  0.000059  0.000000  1
  Ru  Ru7  1  0.000190  0.000190  0.500000  1
  O  O8  1  0.637941  0.362375  0.747930  1
  O  O9  1  0.362375  0.637941  0.252070  1
  O  O10  1  0.926464  0.072877  0.748532  1
  O  O11  1  0.072877  0.926464  0.251468  1
  O  O12  1  0.918931  0.673225  0.527175  1
  O  O13  1  0.078717  0.327155  0.027338  1
  O  O14  1  0.327155  0.078717  0.972662  1
  O  O15  1  0.673225  0.918931  0.472825  1
  O  O16  1  0.370204  0.630769  0.749910  1
  O  O17  1  0.630769  0.370204  0.250090  1
  O  O18  1  0.932866  0.678003  0.966452  1
  O  O19  1  0.059628  0.312254  0.463433  1
  O  O20  1  0.312254  0.059628  0.536567  1
  O  O21  1  0.678003  0.932866  0.033548  1
