# generated using pymatgen
data_TbTm3LuCoSb2
_symmetry_space_group_name_H-M   'P 1'
_cell_length_a   7.75549300
_cell_length_b   8.75009700
_cell_length_c   12.03906600
_cell_angle_alpha   90.00000000
_cell_angle_beta   90.00000000
_cell_angle_gamma   90.00000000
_symmetry_Int_Tables_number   1
_chemical_formula_structural   TbTm3LuCoSb2
_chemical_formula_sum   'Tb4 Tm12 Lu4 Co4 Sb8'
_cell_volume   816.98686257
_cell_formula_units_Z   4
loop_
 _symmetry_equiv_pos_site_id
 _symmetry_equiv_pos_as_xyz
  1  'x, y, z'
loop_
 _atom_site_type_symbol
 _atom_site_label
 _atom_site_symmetry_multiplicity
 _atom_site_fract_x
 _atom_site_fract_y
 _atom_site_fract_z
 _atom_site_occupancy
  Tb  Tb0  1  0.623572  0.749774  0.307223  1
  Tb  Tb1  1  0.123572  0.250226  0.192777  1
  Tb  Tb2  1  0.376428  0.249774  0.692777  1
  Tb  Tb3  1  0.876428  0.750226  0.807223  1
  Tm  Tm4  1  0.155059  0.750174  0.204264  1
  Tm  Tm5  1  0.655059  0.249826  0.295736  1
  Tm  Tm6  1  0.844941  0.250174  0.795736  1
  Tm  Tm7  1  0.344941  0.749826  0.704264  1
  Tm  Tm8  1  0.447776  0.749796  0.997679  1
  Tm  Tm9  1  0.947776  0.250204  0.502321  1
  Tm  Tm10  1  0.552224  0.249796  0.002321  1
  Tm  Tm11  1  0.052224  0.750204  0.497679  1
  Tm  Tm12  1  0.177062  0.036859  0.934124  1
  Tm  Tm13  1  0.677062  0.963141  0.565876  1
  Tm  Tm14  1  0.822938  0.536859  0.065876  1
  Tm  Tm15  1  0.322938  0.463141  0.434124  1
  Lu  Lu16  1  0.824723  0.963189  0.065674  1
  Lu  Lu17  1  0.324723  0.036811  0.434326  1
  Lu  Lu18  1  0.175277  0.463189  0.934326  1
  Lu  Lu19  1  0.675277  0.536811  0.565674  1
  Co  Co20  1  0.433018  0.749851  0.491695  1
  Co  Co21  1  0.933018  0.250149  0.008305  1
  Co  Co22  1  0.566982  0.249851  0.508305  1
  Co  Co23  1  0.066982  0.750149  0.991695  1
  Sb  Sb24  1  0.931137  0.991976  0.328715  1
  Sb  Sb25  1  0.431137  0.008024  0.171285  1
  Sb  Sb26  1  0.068863  0.491976  0.671285  1
  Sb  Sb27  1  0.568863  0.508024  0.828715  1
  Sb  Sb28  1  0.069435  0.008275  0.671299  1
  Sb  Sb29  1  0.569435  0.991725  0.828701  1
  Sb  Sb30  1  0.930565  0.508275  0.328701  1
  Sb  Sb31  1  0.430565  0.491725  0.171299  1
