# generated using pymatgen
data_TmHfMnB6
_symmetry_space_group_name_H-M   'P 1'
_cell_length_a   3.40825100
_cell_length_b   8.91190700
_cell_length_c   11.26212500
_cell_angle_alpha   90.00000000
_cell_angle_beta   90.00000000
_cell_angle_gamma   90.00000000
_symmetry_Int_Tables_number   1
_chemical_formula_structural   TmHfMnB6
_chemical_formula_sum   'Tm4 Hf4 Mn4 B24'
_cell_volume   342.07596432
_cell_formula_units_Z   4
loop_
 _symmetry_equiv_pos_site_id
 _symmetry_equiv_pos_as_xyz
  1  'x, y, z'
loop_
 _atom_site_type_symbol
 _atom_site_label
 _atom_site_symmetry_multiplicity
 _atom_site_fract_x
 _atom_site_fract_y
 _atom_site_fract_z
 _atom_site_occupancy
  Tm  Tm0  1  0.000000  0.822927  0.085938  1
  Tm  Tm1  1  0.000000  0.177073  0.914062  1
  Tm  Tm2  1  0.000000  0.322927  0.414062  1
  Tm  Tm3  1  0.000000  0.677073  0.585938  1
  Hf  Hf4  1  0.000000  0.443599  0.129108  1
  Hf  Hf5  1  0.000000  0.556401  0.870892  1
  Hf  Hf6  1  0.000000  0.943599  0.370892  1
  Hf  Hf7  1  0.000000  0.056401  0.629108  1
  Mn  Mn8  1  0.000000  0.142116  0.182555  1
  Mn  Mn9  1  0.000000  0.857884  0.817445  1
  Mn  Mn10  1  0.000000  0.642116  0.317445  1
  Mn  Mn11  1  0.000000  0.357884  0.682555  1
  B  B12  1  0.500000  0.054245  0.067692  1
  B  B13  1  0.500000  0.945755  0.932308  1
  B  B14  1  0.500000  0.554245  0.432308  1
  B  B15  1  0.500000  0.445755  0.567692  1
  B  B16  1  0.500000  0.250088  0.083004  1
  B  B17  1  0.500000  0.749912  0.916996  1
  B  B18  1  0.500000  0.750088  0.416996  1
  B  B19  1  0.500000  0.249912  0.583004  1
  B  B20  1  0.500000  0.293780  0.235379  1
  B  B21  1  0.500000  0.706220  0.764621  1
  B  B22  1  0.500000  0.793780  0.264621  1
  B  B23  1  0.500000  0.206220  0.735379  1
  B  B24  1  0.500000  0.130971  0.315561  1
  B  B25  1  0.500000  0.869029  0.684439  1
  B  B26  1  0.500000  0.630971  0.184439  1
  B  B27  1  0.500000  0.369029  0.815561  1
  B  B28  1  0.500000  0.484271  0.287911  1
  B  B29  1  0.500000  0.515729  0.712089  1
  B  B30  1  0.500000  0.984271  0.212089  1
  B  B31  1  0.500000  0.015729  0.787911  1
  B  B32  1  0.500000  0.101857  0.472731  1
  B  B33  1  0.500000  0.898143  0.527269  1
  B  B34  1  0.500000  0.601857  0.027269  1
  B  B35  1  0.500000  0.398143  0.972731  1
