# generated using pymatgen
data_Er8Tm5Lu7Pb16
_symmetry_space_group_name_H-M   'P 1'
_cell_length_a   8.12980231
_cell_length_b   8.19034935
_cell_length_c   15.43657608
_cell_angle_alpha   89.98864410
_cell_angle_beta   90.00045037
_cell_angle_gamma   89.96836123
_symmetry_Int_Tables_number   1
_chemical_formula_structural   Er8Tm5Lu7Pb16
_chemical_formula_sum   'Er8 Tm5 Lu7 Pb16'
_cell_volume   1027.85845947
_cell_formula_units_Z   1
loop_
 _symmetry_equiv_pos_site_id
 _symmetry_equiv_pos_as_xyz
  1  'x, y, z'
loop_
 _atom_site_type_symbol
 _atom_site_label
 _atom_site_symmetry_multiplicity
 _atom_site_fract_x
 _atom_site_fract_y
 _atom_site_fract_z
 _atom_site_occupancy
  Er  Er0  1  0.539106  0.323645  0.900458  1
  Er  Er1  1  0.039144  0.176400  0.599473  1
  Er  Er2  1  0.460837  0.676380  0.400525  1
  Er  Er3  1  0.960895  0.823568  0.099465  1
  Er  Er4  1  0.460882  0.676404  0.099546  1
  Er  Er5  1  0.960889  0.823529  0.400457  1
  Er  Er6  1  0.539117  0.323552  0.599534  1
  Er  Er7  1  0.039072  0.176432  0.900477  1
  Tm  Tm8  1  0.377273  0.842869  0.878261  1
  Tm  Tm9  1  0.877251  0.657142  0.621753  1
  Tm  Tm10  1  0.622714  0.157136  0.378254  1
  Tm  Tm11  1  0.122738  0.342821  0.121793  1
  Tm  Tm12  1  0.622741  0.157094  0.121725  1
  Lu  Lu13  1  0.122782  0.342952  0.378235  1
  Lu  Lu14  1  0.377216  0.842927  0.621750  1
  Lu  Lu15  1  0.877185  0.657078  0.878235  1
  Lu  Lu16  1  0.208981  0.505279  0.749988  1
  Lu  Lu17  1  0.708957  0.994684  0.750011  1
  Lu  Lu18  1  0.791114  0.494807  0.250053  1
  Lu  Lu19  1  0.290961  0.005281  0.250058  1
  Pb  Pb20  1  0.281176  0.033799  0.042837  1
  Pb  Pb21  1  0.781412  0.466153  0.457107  1
  Pb  Pb22  1  0.718575  0.966127  0.542850  1
  Pb  Pb23  1  0.218606  0.533856  0.957139  1
  Pb  Pb24  1  0.718948  0.965983  0.957129  1
  Pb  Pb25  1  0.218877  0.533899  0.542720  1
  Pb  Pb26  1  0.281187  0.033910  0.457245  1
  Pb  Pb27  1  0.781279  0.466344  0.042720  1
  Pb  Pb28  1  0.571119  0.627727  0.749942  1
  Pb  Pb29  1  0.071115  0.872278  0.750050  1
  Pb  Pb30  1  0.428799  0.372380  0.250049  1
  Pb  Pb31  1  0.929076  0.127736  0.250108  1
  Pb  Pb32  1  0.349966  0.156053  0.749960  1
  Pb  Pb33  1  0.849940  0.343923  0.750044  1
  Pb  Pb34  1  0.650037  0.843813  0.250001  1
  Pb  Pb35  1  0.150033  0.656041  0.250048  1
