# generated using pymatgen
data_Dy3AlIn2Au3
_symmetry_space_group_name_H-M   'P 1'
_cell_length_a   7.71695351
_cell_length_b   7.71695381
_cell_length_c   3.96115400
_cell_angle_alpha   90.00000000
_cell_angle_beta   90.00000000
_cell_angle_gamma   120.86825137
_symmetry_Int_Tables_number   1
_chemical_formula_structural   Dy3AlIn2Au3
_chemical_formula_sum   'Dy3 Al1 In2 Au3'
_cell_volume   202.47788117
_cell_formula_units_Z   1
loop_
 _symmetry_equiv_pos_site_id
 _symmetry_equiv_pos_as_xyz
  1  'x, y, z'
loop_
 _atom_site_type_symbol
 _atom_site_label
 _atom_site_symmetry_multiplicity
 _atom_site_fract_x
 _atom_site_fract_y
 _atom_site_fract_z
 _atom_site_occupancy
  Dy  Dy0  1  0.595370  0.997345  0.500000  1
  Dy  Dy1  1  0.409876  0.409876  0.500000  1
  Dy  Dy2  1  0.997345  0.595370  0.500000  1
  Al  Al3  1  0.745750  0.745750  0.000000  1
  In  In4  1  0.999078  0.257647  0.000000  1
  In  In5  1  0.257647  0.999078  0.000000  1
  Au  Au6  1  0.349095  0.669803  0.000000  1
  Au  Au7  1  0.669803  0.349095  0.000000  1
  Au  Au8  1  0.976036  0.976036  0.500000  1
