# generated using pymatgen
data_Y2Co9Si4(TcAs)3
_symmetry_space_group_name_H-M   'P 1'
_cell_length_a   3.79752700
_cell_length_b   9.28063640
_cell_length_c   9.28063800
_cell_angle_alpha   119.99999858
_cell_angle_beta   90.00000000
_cell_angle_gamma   90.00000000
_symmetry_Int_Tables_number   1
_chemical_formula_structural   Y2Co9Si4(TcAs)3
_chemical_formula_sum   'Y2 Co9 Si4 Tc3 As3'
_cell_volume   283.26120558
_cell_formula_units_Z   1
loop_
 _symmetry_equiv_pos_site_id
 _symmetry_equiv_pos_as_xyz
  1  'x, y, z'
loop_
 _atom_site_type_symbol
 _atom_site_label
 _atom_site_symmetry_multiplicity
 _atom_site_fract_x
 _atom_site_fract_y
 _atom_site_fract_z
 _atom_site_occupancy
  Y  Y0  1  0.000000  0.666667  0.333333  1
  Y  Y1  1  0.500000  0.333333  0.666667  1
  Co  Co2  1  0.000000  0.573694  0.946922  1
  Co  Co3  1  0.000000  0.373228  0.426306  1
  Co  Co4  1  0.000000  0.053078  0.626772  1
  Co  Co5  1  0.000000  0.873772  0.154555  1
  Co  Co6  1  0.000000  0.280783  0.126228  1
  Co  Co7  1  0.000000  0.845445  0.719217  1
  Co  Co8  1  0.500000  0.945846  0.382653  1
  Co  Co9  1  0.500000  0.436806  0.054154  1
  Co  Co10  1  0.500000  0.617347  0.563194  1
  Si  Si11  1  0.000000  0.000000  0.000000  1
  Si  Si12  1  0.500000  0.709504  0.115140  1
  Si  Si13  1  0.500000  0.405637  0.290496  1
  Si  Si14  1  0.500000  0.884860  0.594363  1
  Tc  Tc15  1  0.500000  0.788287  0.903657  1
  Tc  Tc16  1  0.500000  0.115370  0.211713  1
  Tc  Tc17  1  0.500000  0.096343  0.884630  1
  As  As18  1  0.000000  0.590055  0.701608  1
  As  As19  1  0.000000  0.111553  0.409945  1
  As  As20  1  0.000000  0.298392  0.888447  1
