# generated using pymatgen
data_Ta3Ti(CrB2)2
_symmetry_space_group_name_H-M   'P 1'
_cell_length_a   5.91352896
_cell_length_b   5.91352896
_cell_length_c   3.22108500
_cell_angle_alpha   90.00000000
_cell_angle_beta   90.00000000
_cell_angle_gamma   89.90681184
_symmetry_Int_Tables_number   1
_chemical_formula_structural   Ta3Ti(CrB2)2
_chemical_formula_sum   'Ta3 Ti1 Cr2 B4'
_cell_volume   112.64062883
_cell_formula_units_Z   1
loop_
 _symmetry_equiv_pos_site_id
 _symmetry_equiv_pos_as_xyz
  1  'x, y, z'
loop_
 _atom_site_type_symbol
 _atom_site_label
 _atom_site_symmetry_multiplicity
 _atom_site_fract_x
 _atom_site_fract_y
 _atom_site_fract_z
 _atom_site_occupancy
  Ta  Ta0  1  0.320130  0.820130  0.500000  1
  Ta  Ta1  1  0.180798  0.317811  0.500000  1
  Ta  Ta2  1  0.817811  0.680798  0.500000  1
  Ti  Ti3  1  0.680795  0.180795  0.500000  1
  Cr  Cr4  1  0.500981  0.497496  0.000000  1
  Cr  Cr5  1  0.997496  0.000981  0.000000  1
  B  B6  1  0.110417  0.610417  0.000000  1
  B  B7  1  0.886928  0.386928  0.000000  1
  B  B8  1  0.611361  0.893283  0.000000  1
  B  B9  1  0.393283  0.111361  0.000000  1
