# generated using pymatgen
data_Lu3CuSn3IrRu
_symmetry_space_group_name_H-M   'P 1'
_cell_length_a   7.49752200
_cell_length_b   7.49752242
_cell_length_c   3.80487300
_cell_angle_alpha   90.00000000
_cell_angle_beta   90.00000000
_cell_angle_gamma   119.99999816
_symmetry_Int_Tables_number   1
_chemical_formula_structural   Lu3CuSn3IrRu
_chemical_formula_sum   'Lu3 Cu1 Sn3 Ir1 Ru1'
_cell_volume   185.22786755
_cell_formula_units_Z   1
loop_
 _symmetry_equiv_pos_site_id
 _symmetry_equiv_pos_as_xyz
  1  'x, y, z'
loop_
 _atom_site_type_symbol
 _atom_site_label
 _atom_site_symmetry_multiplicity
 _atom_site_fract_x
 _atom_site_fract_y
 _atom_site_fract_z
 _atom_site_occupancy
  Lu  Lu0  1  0.981232  0.388659  0.500000  1
  Lu  Lu1  1  0.611341  0.592572  0.500000  1
  Lu  Lu2  1  0.407428  0.018768  0.500000  1
  Cu  Cu3  1  0.333333  0.666667  0.000000  1
  Sn  Sn4  1  0.009803  0.737995  0.000000  1
  Sn  Sn5  1  0.262005  0.271808  0.000000  1
  Sn  Sn6  1  0.728192  0.990197  0.000000  1
  Ir  Ir7  1  0.666667  0.333333  0.000000  1
  Ru  Ru8  1  0.000000  0.000000  0.500000  1
