# generated using pymatgen
data_Mn(SeBr6)2
_symmetry_space_group_name_H-M   'P 1'
_cell_length_a   9.38099224
_cell_length_b   9.38099167
_cell_length_c   7.00358528
_cell_angle_alpha   71.98458889
_cell_angle_beta   71.98458656
_cell_angle_gamma   79.43829612
_symmetry_Int_Tables_number   1
_chemical_formula_structural   Mn(SeBr6)2
_chemical_formula_sum   'Mn1 Se2 Br12'
_cell_volume   554.76042474
_cell_formula_units_Z   1
loop_
 _symmetry_equiv_pos_site_id
 _symmetry_equiv_pos_as_xyz
  1  'x, y, z'
loop_
 _atom_site_type_symbol
 _atom_site_label
 _atom_site_symmetry_multiplicity
 _atom_site_fract_x
 _atom_site_fract_y
 _atom_site_fract_z
 _atom_site_occupancy
  Mn  Mn0  1  0.000000  0.000000  0.000000  1
  Se  Se1  1  0.271644  0.271644  0.737066  1
  Se  Se2  1  0.728356  0.728356  0.262934  1
  Br  Br3  1  0.959365  0.246864  0.757082  1
  Br  Br4  1  0.246864  0.959365  0.757082  1
  Br  Br5  1  0.040635  0.753136  0.242918  1
  Br  Br6  1  0.753136  0.040635  0.242918  1
  Br  Br7  1  0.214884  0.516887  0.794768  1
  Br  Br8  1  0.516887  0.214884  0.794768  1
  Br  Br9  1  0.785116  0.483113  0.205232  1
  Br  Br10  1  0.483113  0.785116  0.205232  1
  Br  Br11  1  0.121210  0.121210  0.165575  1
  Br  Br12  1  0.878790  0.878790  0.834425  1
  Br  Br13  1  0.651719  0.651719  0.637943  1
  Br  Br14  1  0.348281  0.348281  0.362057  1
