# generated using pymatgen
data_DyHo2Tm(Mo2O7)2
_symmetry_space_group_name_H-M   'P 1'
_cell_length_a   7.28468363
_cell_length_b   7.31697304
_cell_length_c   7.39180597
_cell_angle_alpha   60.27803129
_cell_angle_beta   60.47822778
_cell_angle_gamma   60.14585896
_symmetry_Int_Tables_number   1
_chemical_formula_structural   DyHo2Tm(Mo2O7)2
_chemical_formula_sum   'Dy1 Ho2 Tm1 Mo4 O14'
_cell_volume   280.48885042
_cell_formula_units_Z   1
loop_
 _symmetry_equiv_pos_site_id
 _symmetry_equiv_pos_as_xyz
  1  'x, y, z'
loop_
 _atom_site_type_symbol
 _atom_site_label
 _atom_site_symmetry_multiplicity
 _atom_site_fract_x
 _atom_site_fract_y
 _atom_site_fract_z
 _atom_site_occupancy
  Dy  Dy0  1  0.125000  0.125000  0.625000  1
  Ho  Ho1  1  0.125000  0.125000  0.125000  1
  Ho  Ho2  1  0.625000  0.125000  0.125000  1
  Tm  Tm3  1  0.125000  0.625000  0.125000  1
  Mo  Mo4  1  0.625000  0.625000  0.625000  1
  Mo  Mo5  1  0.125000  0.625000  0.625000  1
  Mo  Mo6  1  0.625000  0.625000  0.125000  1
  Mo  Mo7  1  0.625000  0.125000  0.625000  1
  O  O8  1  0.002809  0.996935  0.997447  1
  O  O9  1  0.247191  0.253065  0.252553  1
  O  O10  1  0.285000  0.287364  0.715493  1
  O  O11  1  0.536603  0.533535  0.965560  1
  O  O12  1  0.712142  0.287364  0.715493  1
  O  O13  1  0.720100  0.276925  0.282874  1
  O  O14  1  0.283415  0.707033  0.726137  1
  O  O15  1  0.285698  0.716465  0.284440  1
  O  O16  1  0.713397  0.716465  0.284440  1
  O  O17  1  0.966585  0.542967  0.523863  1
  O  O18  1  0.529900  0.973075  0.967126  1
  O  O19  1  0.965000  0.962636  0.534507  1
  O  O20  1  0.964302  0.533535  0.965560  1
  O  O21  1  0.537858  0.962636  0.534507  1
