# generated using pymatgen
data_Y6LuCrO12
_symmetry_space_group_name_H-M   'P 1'
_cell_length_a   6.62563501
_cell_length_b   6.62563425
_cell_length_c   6.62563400
_cell_angle_alpha   93.07114062
_cell_angle_beta   93.07116625
_cell_angle_gamma   93.07114833
_symmetry_Int_Tables_number   1
_chemical_formula_structural   Y6LuCrO12
_chemical_formula_sum   'Y6 Lu1 Cr1 O12'
_cell_volume   289.55898019
_cell_formula_units_Z   1
loop_
 _symmetry_equiv_pos_site_id
 _symmetry_equiv_pos_as_xyz
  1  'x, y, z'
loop_
 _atom_site_type_symbol
 _atom_site_label
 _atom_site_symmetry_multiplicity
 _atom_site_fract_x
 _atom_site_fract_y
 _atom_site_fract_z
 _atom_site_occupancy
  Y  Y0  1  0.740580  0.924909  0.435844  1
  Y  Y1  1  0.924909  0.435844  0.740580  1
  Y  Y2  1  0.435844  0.740580  0.924909  1
  Y  Y3  1  0.259420  0.075091  0.564156  1
  Y  Y4  1  0.075091  0.564156  0.259420  1
  Y  Y5  1  0.564156  0.259420  0.075091  1
  Lu  Lu6  1  0.000000  0.000000  0.000000  1
  Cr  Cr7  1  0.500000  0.500000  0.500000  1
  O  O8  1  0.587529  0.461184  0.798152  1
  O  O9  1  0.461184  0.798152  0.587529  1
  O  O10  1  0.798152  0.587529  0.461184  1
  O  O11  1  0.412471  0.538816  0.201848  1
  O  O12  1  0.538816  0.201848  0.412471  1
  O  O13  1  0.201848  0.412471  0.538816  1
  O  O14  1  0.067678  0.911232  0.313849  1
  O  O15  1  0.911232  0.313849  0.067678  1
  O  O16  1  0.686151  0.932322  0.088768  1
  O  O17  1  0.088768  0.686151  0.932322  1
  O  O18  1  0.932322  0.088768  0.686151  1
  O  O19  1  0.313849  0.067678  0.911232  1
