# generated using pymatgen
data_Hf8Ti2AlSn5
_symmetry_space_group_name_H-M   'P 1'
_cell_length_a   8.33125758
_cell_length_b   8.33125735
_cell_length_c   5.61338014
_cell_angle_alpha   90.03643860
_cell_angle_beta   90.03643465
_cell_angle_gamma   120.12756542
_symmetry_Int_Tables_number   1
_chemical_formula_structural   Hf8Ti2AlSn5
_chemical_formula_sum   'Hf8 Ti2 Al1 Sn5'
_cell_volume   336.98933081
_cell_formula_units_Z   1
loop_
 _symmetry_equiv_pos_site_id
 _symmetry_equiv_pos_as_xyz
  1  'x, y, z'
loop_
 _atom_site_type_symbol
 _atom_site_label
 _atom_site_symmetry_multiplicity
 _atom_site_fract_x
 _atom_site_fract_y
 _atom_site_fract_z
 _atom_site_occupancy
  Hf  Hf0  1  0.749070  0.749070  0.744197  1
  Hf  Hf1  1  0.243743  0.011442  0.746171  1
  Hf  Hf2  1  0.011442  0.243743  0.746171  1
  Hf  Hf3  1  0.240259  0.240259  0.253062  1
  Hf  Hf4  1  0.761390  0.998858  0.254659  1
  Hf  Hf5  1  0.998858  0.761390  0.254659  1
  Hf  Hf6  1  0.335131  0.662112  0.503759  1
  Hf  Hf7  1  0.662112  0.335131  0.503759  1
  Ti  Ti8  1  0.662762  0.334700  0.997594  1
  Ti  Ti9  1  0.334700  0.662762  0.997594  1
  Al  Al10  1  0.397801  0.397801  0.760410  1
  Sn  Sn11  1  0.607117  0.002340  0.759217  1
  Sn  Sn12  1  0.002340  0.607117  0.759217  1
  Sn  Sn13  1  0.599441  0.599441  0.237134  1
  Sn  Sn14  1  0.396537  0.997297  0.241199  1
  Sn  Sn15  1  0.997297  0.396537  0.241199  1
