# generated using pymatgen
data_Tb2Ni16GeH3
_symmetry_space_group_name_H-M   'P 1'
_cell_length_a   6.28744821
_cell_length_b   6.28744866
_cell_length_c   6.31043116
_cell_angle_alpha   83.81461086
_cell_angle_beta   83.81460815
_cell_angle_gamma   83.15169079
_symmetry_Int_Tables_number   1
_chemical_formula_structural   Tb2Ni16GeH3
_chemical_formula_sum   'Tb2 Ni16 Ge1 H3'
_cell_volume   245.10163606
_cell_formula_units_Z   1
loop_
 _symmetry_equiv_pos_site_id
 _symmetry_equiv_pos_as_xyz
  1  'x, y, z'
loop_
 _atom_site_type_symbol
 _atom_site_label
 _atom_site_symmetry_multiplicity
 _atom_site_fract_x
 _atom_site_fract_y
 _atom_site_fract_z
 _atom_site_occupancy
  Tb  Tb0  1  0.655001  0.655001  0.661962  1
  Tb  Tb1  1  0.344999  0.344999  0.338038  1
  Ni  Ni2  1  0.000000  0.500000  0.000000  1
  Ni  Ni3  1  0.500000  0.000000  0.000000  1
  Ni  Ni4  1  0.288636  0.711364  0.000000  1
  Ni  Ni5  1  0.708589  0.001020  0.289413  1
  Ni  Ni6  1  0.998980  0.291411  0.710587  1
  Ni  Ni7  1  0.291411  0.998980  0.710587  1
  Ni  Ni8  1  0.001020  0.708589  0.289413  1
  Ni  Ni9  1  0.711364  0.288636  0.000000  1
  Ni  Ni10  1  0.346274  0.346274  0.851409  1
  Ni  Ni11  1  0.349343  0.851765  0.344936  1
  Ni  Ni12  1  0.851765  0.349343  0.344936  1
  Ni  Ni13  1  0.653726  0.653726  0.148591  1
  Ni  Ni14  1  0.650657  0.148235  0.655064  1
  Ni  Ni15  1  0.148235  0.650657  0.655064  1
  Ni  Ni16  1  0.898028  0.898028  0.905218  1
  Ni  Ni17  1  0.101972  0.101972  0.094782  1
  Ge  Ge18  1  0.000000  0.000000  0.500000  1
  H  H19  1  0.500000  0.500000  0.000000  1
  H  H20  1  0.500000  0.000000  0.500000  1
  H  H21  1  0.000000  0.500000  0.500000  1
