# generated using pymatgen
data_Pr2Er6Si12Ni3Rh
_symmetry_space_group_name_H-M   'P 1'
_cell_length_a   8.08124500
_cell_length_b   8.08124581
_cell_length_c   8.08956200
_cell_angle_alpha   89.99994328
_cell_angle_beta   90.00000000
_cell_angle_gamma   119.99995984
_symmetry_Int_Tables_number   1
_chemical_formula_structural   Pr2Er6Si12Ni3Rh
_chemical_formula_sum   'Pr2 Er6 Si12 Ni3 Rh1'
_cell_volume   457.52244669
_cell_formula_units_Z   1
loop_
 _symmetry_equiv_pos_site_id
 _symmetry_equiv_pos_as_xyz
  1  'x, y, z'
loop_
 _atom_site_type_symbol
 _atom_site_label
 _atom_site_symmetry_multiplicity
 _atom_site_fract_x
 _atom_site_fract_y
 _atom_site_fract_z
 _atom_site_occupancy
  Pr  Pr0  1  0.000000  0.000000  0.248437  1
  Pr  Pr1  1  0.000000  0.000000  0.751457  1
  Er  Er2  1  0.000045  0.500022  0.250868  1
  Er  Er3  1  0.499978  0.500021  0.250867  1
  Er  Er4  1  0.500184  0.000368  0.749150  1
  Er  Er5  1  0.499978  0.999955  0.250867  1
  Er  Er6  1  0.500184  0.499817  0.749149  1
  Er  Er7  1  0.999632  0.499816  0.749150  1
  Si  Si8  1  0.172614  0.345229  0.000035  1
  Si  Si9  1  0.654771  0.827386  0.000034  1
  Si  Si10  1  0.172849  0.345697  0.499950  1
  Si  Si11  1  0.344961  0.172480  0.999924  1
  Si  Si12  1  0.172614  0.827385  0.000035  1
  Si  Si13  1  0.654303  0.827151  0.499949  1
  Si  Si14  1  0.827519  0.655039  0.999924  1
  Si  Si15  1  0.336214  0.168107  0.500045  1
  Si  Si16  1  0.172849  0.827151  0.499950  1
  Si  Si17  1  0.831893  0.663786  0.500046  1
  Si  Si18  1  0.827519  0.172480  0.999924  1
  Si  Si19  1  0.831893  0.168107  0.500046  1
  Ni  Ni20  1  0.333333  0.666667  0.999062  1
  Ni  Ni21  1  0.333333  0.666667  0.500684  1
  Ni  Ni22  1  0.666667  0.333334  0.000886  1
  Rh  Rh23  1  0.666667  0.333333  0.499556  1
