# generated using pymatgen
data_YbDy7Ga3Co
_symmetry_space_group_name_H-M   'P 1'
_cell_length_a   10.06630901
_cell_length_b   10.06630892
_cell_length_c   6.91629800
_cell_angle_alpha   90.00000000
_cell_angle_beta   90.00000000
_cell_angle_gamma   120.00777081
_symmetry_Int_Tables_number   1
_chemical_formula_structural   YbDy7Ga3Co
_chemical_formula_sum   'Yb2 Dy14 Ga6 Co2'
_cell_volume   606.89118402
_cell_formula_units_Z   2
loop_
 _symmetry_equiv_pos_site_id
 _symmetry_equiv_pos_as_xyz
  1  'x, y, z'
loop_
 _atom_site_type_symbol
 _atom_site_label
 _atom_site_symmetry_multiplicity
 _atom_site_fract_x
 _atom_site_fract_y
 _atom_site_fract_z
 _atom_site_occupancy
  Yb  Yb0  1  0.999972  0.000026  0.270850  1
  Yb  Yb1  1  0.000028  0.999975  0.770852  1
  Dy  Dy2  1  0.171357  0.828642  0.988487  1
  Dy  Dy3  1  0.828643  0.171358  0.488487  1
  Dy  Dy4  1  0.171332  0.342703  0.988482  1
  Dy  Dy5  1  0.657297  0.828669  0.988482  1
  Dy  Dy6  1  0.342703  0.171331  0.488483  1
  Dy  Dy7  1  0.828668  0.657296  0.488483  1
  Dy  Dy8  1  0.462812  0.537188  0.292432  1
  Dy  Dy9  1  0.537189  0.462812  0.792431  1
  Dy  Dy10  1  0.462773  0.925586  0.292423  1
  Dy  Dy11  1  0.074415  0.537227  0.292423  1
  Dy  Dy12  1  0.925585  0.462774  0.792423  1
  Dy  Dy13  1  0.537226  0.074414  0.792423  1
  Dy  Dy14  1  0.333346  0.666655  0.673663  1
  Dy  Dy15  1  0.666654  0.333345  0.173662  1
  Ga  Ga16  1  0.165539  0.834462  0.540579  1
  Ga  Ga17  1  0.834461  0.165538  0.040580  1
  Ga  Ga18  1  0.165554  0.331096  0.540481  1
  Ga  Ga19  1  0.668906  0.834447  0.540481  1
  Ga  Ga20  1  0.331094  0.165553  0.040480  1
  Ga  Ga21  1  0.834447  0.668905  0.040480  1
  Co  Co22  1  0.333358  0.666644  0.054215  1
  Co  Co23  1  0.666643  0.333357  0.554216  1
