# generated using pymatgen
data_YHo15In4Ir3Pd
_symmetry_space_group_name_H-M   'P 1'
_cell_length_a   9.64235716
_cell_length_b   9.65337192
_cell_length_c   9.64675500
_cell_angle_alpha   60.02266856
_cell_angle_beta   59.98490788
_cell_angle_gamma   59.97642121
_symmetry_Int_Tables_number   1
_chemical_formula_structural   YHo15In4Ir3Pd
_chemical_formula_sum   'Y1 Ho15 In4 Ir3 Pd1'
_cell_volume   634.85685873
_cell_formula_units_Z   1
loop_
 _symmetry_equiv_pos_site_id
 _symmetry_equiv_pos_as_xyz
  1  'x, y, z'
loop_
 _atom_site_type_symbol
 _atom_site_label
 _atom_site_symmetry_multiplicity
 _atom_site_fract_x
 _atom_site_fract_y
 _atom_site_fract_z
 _atom_site_occupancy
  Y  Y0  1  0.440862  0.435688  0.061726  1
  Ho  Ho1  1  0.654136  0.647701  0.049898  1
  Ho  Ho2  1  0.185984  0.809998  0.194862  1
  Ho  Ho3  1  0.060790  0.439158  0.060000  1
  Ho  Ho4  1  0.185984  0.809998  0.809156  1
  Ho  Ho5  1  0.060790  0.439158  0.440052  1
  Ho  Ho6  1  0.810590  0.190339  0.189855  1
  Ho  Ho7  1  0.654136  0.647701  0.648266  1
  Ho  Ho8  1  0.810590  0.190339  0.809217  1
  Ho  Ho9  1  0.185837  0.195133  0.809515  1
  Ho  Ho10  1  0.046741  0.650427  0.651417  1
  Ho  Ho11  1  0.441054  0.061010  0.061410  1
  Ho  Ho12  1  0.061034  0.059887  0.439540  1
  Ho  Ho13  1  0.653286  0.051100  0.647808  1
  Ho  Ho14  1  0.810402  0.809626  0.189987  1
  Ho  Ho15  1  0.441054  0.061010  0.436527  1
  In  In16  1  0.416536  0.416929  0.417119  1
  In  In17  1  0.416536  0.416929  0.749417  1
  In  In18  1  0.416587  0.749304  0.417055  1
  In  In19  1  0.749501  0.416777  0.416862  1
  Ir  Ir20  1  0.857016  0.858834  0.858559  1
  Ir  Ir21  1  0.857284  0.425781  0.858466  1
  Ir  Ir22  1  0.857016  0.858834  0.425589  1
  Pd  Pd23  1  0.426261  0.858340  0.857699  1
