# generated using pymatgen
data_Ba6Sc2ReO12
_symmetry_space_group_name_H-M   'P 1'
_cell_length_a   9.27558952
_cell_length_b   9.27558910
_cell_length_c   7.41055775
_cell_angle_alpha   68.05108037
_cell_angle_beta   68.05108286
_cell_angle_gamma   36.91244564
_symmetry_Int_Tables_number   1
_chemical_formula_structural   Ba6Sc2ReO12
_chemical_formula_sum   'Ba6 Sc2 Re1 O12'
_cell_volume   351.94350939
_cell_formula_units_Z   1
loop_
 _symmetry_equiv_pos_site_id
 _symmetry_equiv_pos_as_xyz
  1  'x, y, z'
loop_
 _atom_site_type_symbol
 _atom_site_label
 _atom_site_symmetry_multiplicity
 _atom_site_fract_x
 _atom_site_fract_y
 _atom_site_fract_z
 _atom_site_occupancy
  Ba  Ba0  1  0.875951  0.875951  0.713862  1
  Ba  Ba1  1  0.219904  0.219904  0.707544  1
  Ba  Ba2  1  0.548669  0.548669  0.704781  1
  Ba  Ba3  1  0.451331  0.451331  0.295219  1
  Ba  Ba4  1  0.780096  0.780096  0.292456  1
  Ba  Ba5  1  0.124049  0.124049  0.286138  1
  Sc  Sc6  1  0.668484  0.668484  0.998836  1
  Sc  Sc7  1  0.331516  0.331516  0.001164  1
  Re  Re8  1  0.000000  0.000000  0.000000  1
  O  O9  1  0.951920  0.951920  0.290229  1
  O  O10  1  0.283519  0.283519  0.315022  1
  O  O11  1  0.610798  0.610798  0.316314  1
  O  O12  1  0.389202  0.389202  0.683686  1
  O  O13  1  0.716481  0.716481  0.684978  1
  O  O14  1  0.048080  0.048080  0.709771  1
  O  O15  1  0.500000  0.000000  0.000000  1
  O  O16  1  0.840823  0.313576  0.000733  1
  O  O17  1  0.159177  0.686424  0.999267  1
  O  O18  1  0.000000  0.500000  0.000000  1
  O  O19  1  0.313576  0.840823  0.000733  1
  O  O20  1  0.686424  0.159177  0.999267  1
