# generated using pymatgen
data_Sm3YAl18CuRh5
_symmetry_space_group_name_H-M   'P 1'
_cell_length_a   7.59565760
_cell_length_b   7.59763321
_cell_length_c   9.50265854
_cell_angle_alpha   90.05734717
_cell_angle_beta   90.06011966
_cell_angle_gamma   119.57218501
_symmetry_Int_Tables_number   1
_chemical_formula_structural   Sm3YAl18CuRh5
_chemical_formula_sum   'Sm3 Y1 Al18 Cu1 Rh5'
_cell_volume   476.95200872
_cell_formula_units_Z   1
loop_
 _symmetry_equiv_pos_site_id
 _symmetry_equiv_pos_as_xyz
  1  'x, y, z'
loop_
 _atom_site_type_symbol
 _atom_site_label
 _atom_site_symmetry_multiplicity
 _atom_site_fract_x
 _atom_site_fract_y
 _atom_site_fract_z
 _atom_site_occupancy
  Sm  Sm0  1  0.994968  0.672285  0.249257  1
  Sm  Sm1  1  0.005155  0.327648  0.750712  1
  Sm  Sm2  1  0.672029  0.994790  0.249214  1
  Y  Y3  1  0.327730  0.005152  0.750372  1
  Al  Al4  1  0.131502  0.130932  0.252275  1
  Al  Al5  1  0.870150  0.869302  0.747973  1
  Al  Al6  1  0.002255  0.338911  0.075789  1
  Al  Al7  1  0.998941  0.662467  0.922972  1
  Al  Al8  1  0.000340  0.666046  0.573889  1
  Al  Al9  1  0.335021  0.000714  0.428342  1
  Al  Al10  1  0.000871  0.334973  0.427328  1
  Al  Al11  1  0.664189  0.999238  0.573909  1
  Al  Al12  1  0.660101  0.997943  0.922696  1
  Al  Al13  1  0.338473  0.001999  0.074566  1
  Al  Al14  1  0.333733  0.332977  0.549904  1
  Al  Al15  1  0.666446  0.666291  0.451973  1
  Al  Al16  1  0.662760  0.662702  0.049837  1
  Al  Al17  1  0.337025  0.336202  0.948139  1
  Al  Al18  1  0.339395  0.548348  0.250410  1
  Al  Al19  1  0.659595  0.450356  0.749438  1
  Al  Al20  1  0.548118  0.338906  0.250362  1
  Al  Al21  1  0.451582  0.661634  0.749466  1
  Cu  Cu22  1  0.999108  0.000156  0.000980  1
  Rh  Rh23  1  0.671426  0.328129  0.999152  1
  Rh  Rh24  1  0.328282  0.671601  0.999382  1
  Rh  Rh25  1  0.328484  0.671249  0.500377  1
  Rh  Rh26  1  0.671398  0.328340  0.500623  1
  Rh  Rh27  1  0.000924  0.000708  0.500663  1
