# generated using pymatgen
data_La5Ge2Ru
_symmetry_space_group_name_H-M   'P 1'
_cell_length_a   12.44112200
_cell_length_b   9.03673500
_cell_length_c   8.20482400
_cell_angle_alpha   90.00000000
_cell_angle_beta   90.00000000
_cell_angle_gamma   90.00000000
_symmetry_Int_Tables_number   1
_chemical_formula_structural   La5Ge2Ru
_chemical_formula_sum   'La20 Ge8 Ru4'
_cell_volume   922.44475390
_cell_formula_units_Z   4
loop_
 _symmetry_equiv_pos_site_id
 _symmetry_equiv_pos_as_xyz
  1  'x, y, z'
loop_
 _atom_site_type_symbol
 _atom_site_label
 _atom_site_symmetry_multiplicity
 _atom_site_fract_x
 _atom_site_fract_y
 _atom_site_fract_z
 _atom_site_occupancy
  La  La0  1  0.001150  0.249999  0.039483  1
  La  La1  1  0.297545  0.750000  0.139431  1
  La  La2  1  0.288496  0.249999  0.164247  1
  La  La3  1  0.572161  0.531105  0.180927  1
  La  La4  1  0.572161  0.968894  0.180927  1
  La  La5  1  0.072161  0.531105  0.319072  1
  La  La6  1  0.072161  0.968894  0.319072  1
  La  La7  1  0.788497  0.249999  0.335753  1
  La  La8  1  0.797545  0.750000  0.360570  1
  La  La9  1  0.501151  0.249999  0.460519  1
  La  La10  1  0.498849  0.750000  0.539482  1
  La  La11  1  0.202455  0.249999  0.639430  1
  La  La12  1  0.211503  0.750000  0.664248  1
  La  La13  1  0.927840  0.031105  0.680929  1
  La  La14  1  0.927840  0.468895  0.680929  1
  La  La15  1  0.427839  0.031105  0.819073  1
  La  La16  1  0.427839  0.468895  0.819073  1
  La  La17  1  0.711503  0.750000  0.835754  1
  La  La18  1  0.702455  0.249999  0.860570  1
  La  La19  1  0.998849  0.750000  0.960519  1
  Ge  Ge20  1  0.828674  0.505813  0.065706  1
  Ge  Ge21  1  0.828674  0.994187  0.065706  1
  Ge  Ge22  1  0.328674  0.505813  0.434294  1
  Ge  Ge23  1  0.328674  0.994187  0.434294  1
  Ge  Ge24  1  0.671327  0.005812  0.565706  1
  Ge  Ge25  1  0.671327  0.494187  0.565706  1
  Ge  Ge26  1  0.171327  0.005812  0.934294  1
  Ge  Ge27  1  0.171327  0.494187  0.934294  1
  Ru  Ru28  1  0.518696  0.249999  0.078862  1
  Ru  Ru29  1  0.018696  0.249999  0.421138  1
  Ru  Ru30  1  0.981304  0.750000  0.578861  1
  Ru  Ru31  1  0.481304  0.750000  0.921139  1
