# generated using pymatgen
data_Li2Ho5Er(Co4P3)4
_symmetry_space_group_name_H-M   'P 1'
_cell_length_a   3.70688600
_cell_length_b   10.55236001
_cell_length_c   12.16726901
_cell_angle_alpha   90.00423374
_cell_angle_beta   90.00000000
_cell_angle_gamma   90.00000000
_symmetry_Int_Tables_number   1
_chemical_formula_structural   Li2Ho5Er(Co4P3)4
_chemical_formula_sum   'Li2 Ho5 Er1 Co16 P12'
_cell_volume   475.93970633
_cell_formula_units_Z   1
loop_
 _symmetry_equiv_pos_site_id
 _symmetry_equiv_pos_as_xyz
  1  'x, y, z'
loop_
 _atom_site_type_symbol
 _atom_site_label
 _atom_site_symmetry_multiplicity
 _atom_site_fract_x
 _atom_site_fract_y
 _atom_site_fract_z
 _atom_site_occupancy
  Li  Li0  1  0.250000  0.249930  0.846642  1
  Li  Li1  1  0.750000  0.749926  0.153526  1
  Ho  Ho2  1  0.750000  0.250085  0.477074  1
  Ho  Ho3  1  0.250000  0.750032  0.522645  1
  Ho  Ho4  1  0.250000  0.929914  0.793840  1
  Ho  Ho5  1  0.250000  0.570020  0.793672  1
  Ho  Ho6  1  0.750000  0.069960  0.206323  1
  Er  Er7  1  0.750000  0.430080  0.206207  1
  Co  Co8  1  0.250000  0.250400  0.295371  1
  Co  Co9  1  0.750000  0.749928  0.704537  1
  Co  Co10  1  0.750000  0.250173  0.012726  1
  Co  Co11  1  0.250000  0.749830  0.987696  1
  Co  Co12  1  0.250000  0.417238  0.003157  1
  Co  Co13  1  0.250000  0.082940  0.003125  1
  Co  Co14  1  0.750000  0.582679  0.997310  1
  Co  Co15  1  0.750000  0.917163  0.997144  1
  Co  Co16  1  0.250000  0.453429  0.568642  1
  Co  Co17  1  0.250000  0.046598  0.568836  1
  Co  Co18  1  0.750000  0.546576  0.430791  1
  Co  Co19  1  0.750000  0.953326  0.431019  1
  Co  Co20  1  0.250000  0.871550  0.293525  1
  Co  Co21  1  0.250000  0.628195  0.293241  1
  Co  Co22  1  0.750000  0.128352  0.706528  1
  Co  Co23  1  0.750000  0.371629  0.706367  1
  P  P24  1  0.250000  0.250365  0.115087  1
  P  P25  1  0.750000  0.749877  0.885250  1
  P  P26  1  0.250000  0.250006  0.653389  1
  P  P27  1  0.750000  0.750115  0.346478  1
  P  P28  1  0.250000  0.439907  0.383465  1
  P  P29  1  0.250000  0.060075  0.383879  1
  P  P30  1  0.750000  0.560067  0.615903  1
  P  P31  1  0.750000  0.939825  0.616006  1
  P  P32  1  0.250000  0.907173  0.107081  1
  P  P33  1  0.250000  0.592576  0.107286  1
  P  P34  1  0.750000  0.092845  0.893175  1
  P  P35  1  0.750000  0.407214  0.893056  1
