# generated using pymatgen
data_Ac10Zn3Si15Au2
_symmetry_space_group_name_H-M   'P 1'
_cell_length_a   4.41537128
_cell_length_b   4.43873776
_cell_length_c   37.47737500
_cell_angle_alpha   86.64227582
_cell_angle_beta   86.46810836
_cell_angle_gamma   90.00970051
_symmetry_Int_Tables_number   1
_chemical_formula_structural   Ac10Zn3Si15Au2
_chemical_formula_sum   'Ac10 Zn3 Si15 Au2'
_cell_volume   731.84804271
_cell_formula_units_Z   1
loop_
 _symmetry_equiv_pos_site_id
 _symmetry_equiv_pos_as_xyz
  1  'x, y, z'
loop_
 _atom_site_type_symbol
 _atom_site_label
 _atom_site_symmetry_multiplicity
 _atom_site_fract_x
 _atom_site_fract_y
 _atom_site_fract_z
 _atom_site_occupancy
  Ac  Ac0  1  0.949065  0.448844  0.101895  1
  Ac  Ac1  1  0.349492  0.849353  0.300814  1
  Ac  Ac2  1  0.750577  0.250336  0.498597  1
  Ac  Ac3  1  0.149766  0.649544  0.700903  1
  Ac  Ac4  1  0.548094  0.048383  0.903443  1
  Ac  Ac5  1  0.000305  0.000592  0.998869  1
  Ac  Ac6  1  0.400843  0.400848  0.198456  1
  Ac  Ac7  1  0.801477  0.801172  0.397292  1
  Ac  Ac8  1  0.201021  0.201159  0.597909  1
  Ac  Ac9  1  0.600539  0.601679  0.798173  1
  Zn  Zn10  1  0.466906  0.966744  0.066371  1
  Zn  Zn11  1  0.867020  0.367336  0.265475  1
  Zn  Zn12  1  0.267369  0.767721  0.463948  1
  Si  Si13  1  0.666492  0.166175  0.667538  1
  Si  Si14  1  0.065182  0.565672  0.869431  1
  Si  Si15  1  0.917563  0.916969  0.166756  1
  Si  Si16  1  0.318225  0.317159  0.365567  1
  Si  Si17  1  0.720351  0.718017  0.563688  1
  Si  Si18  1  0.117980  0.117499  0.765517  1
  Si  Si19  1  0.516213  0.516238  0.968126  1
  Si  Si20  1  0.432587  0.933042  0.133569  1
  Si  Si21  1  0.833023  0.333606  0.332588  1
  Si  Si22  1  0.233020  0.734255  0.531109  1
  Si  Si23  1  0.633157  0.133874  0.732547  1
  Si  Si24  1  0.031945  0.532556  0.934173  1
  Si  Si25  1  0.483525  0.483443  0.032859  1
  Si  Si26  1  0.884414  0.884161  0.231855  1
  Si  Si27  1  0.284833  0.284439  0.430509  1
  Au  Au28  1  0.683681  0.683455  0.632778  1
  Au  Au29  1  0.082537  0.082930  0.834849  1
