# generated using pymatgen
data_SrPr2Y(Pt2O7)2
_symmetry_space_group_name_H-M   'P 1'
_cell_length_a   7.45013237
_cell_length_b   7.42782285
_cell_length_c   7.43140003
_cell_angle_alpha   59.98814380
_cell_angle_beta   59.91658498
_cell_angle_gamma   59.90059441
_symmetry_Int_Tables_number   1
_chemical_formula_structural   SrPr2Y(Pt2O7)2
_chemical_formula_sum   'Sr1 Pr2 Y1 Pt4 O14'
_cell_volume   290.36274680
_cell_formula_units_Z   1
loop_
 _symmetry_equiv_pos_site_id
 _symmetry_equiv_pos_as_xyz
  1  'x, y, z'
loop_
 _atom_site_type_symbol
 _atom_site_label
 _atom_site_symmetry_multiplicity
 _atom_site_fract_x
 _atom_site_fract_y
 _atom_site_fract_z
 _atom_site_occupancy
  Sr  Sr0  1  0.125000  0.625000  0.125000  1
  Pr  Pr1  1  0.625000  0.125000  0.125000  1
  Pr  Pr2  1  0.125000  0.125000  0.125000  1
  Y  Y3  1  0.125000  0.125000  0.625000  1
  Pt  Pt4  1  0.625000  0.625000  0.625000  1
  Pt  Pt5  1  0.125000  0.625000  0.625000  1
  Pt  Pt6  1  0.625000  0.625000  0.125000  1
  Pt  Pt7  1  0.625000  0.125000  0.625000  1
  O  O8  1  0.294085  0.719224  0.692606  1
  O  O9  1  0.541352  0.959566  0.957732  1
  O  O10  1  0.698111  0.711930  0.295389  1
  O  O11  1  0.291204  0.289914  0.703855  1
  O  O12  1  0.001648  0.013511  0.983192  1
  O  O13  1  0.294570  0.711930  0.295389  1
  O  O14  1  0.715026  0.289914  0.703855  1
  O  O15  1  0.955430  0.538070  0.954611  1
  O  O16  1  0.551889  0.538070  0.954611  1
  O  O17  1  0.958796  0.960086  0.546145  1
  O  O18  1  0.248352  0.236489  0.266808  1
  O  O19  1  0.534974  0.960086  0.546145  1
  O  O20  1  0.708648  0.290434  0.292268  1
  O  O21  1  0.955915  0.530776  0.557394  1
