# generated using pymatgen
data_Mn5GaPt10
_symmetry_space_group_name_H-M   'P 1'
_cell_length_a   4.03862400
_cell_length_b   5.51336741
_cell_length_c   10.91729442
_cell_angle_alpha   89.36509403
_cell_angle_beta   90.00000000
_cell_angle_gamma   90.00000000
_symmetry_Int_Tables_number   1
_chemical_formula_structural   Mn5GaPt10
_chemical_formula_sum   'Mn5 Ga1 Pt10'
_cell_volume   243.07411589
_cell_formula_units_Z   1
loop_
 _symmetry_equiv_pos_site_id
 _symmetry_equiv_pos_as_xyz
  1  'x, y, z'
loop_
 _atom_site_type_symbol
 _atom_site_label
 _atom_site_symmetry_multiplicity
 _atom_site_fract_x
 _atom_site_fract_y
 _atom_site_fract_z
 _atom_site_occupancy
  Mn  Mn0  1  0.500000  0.204376  0.634424  1
  Mn  Mn1  1  0.500000  0.795624  0.365576  1
  Mn  Mn2  1  0.500000  0.700022  0.863972  1
  Mn  Mn3  1  0.500000  0.299978  0.136028  1
  Mn  Mn4  1  0.000000  0.500000  0.500000  1
  Ga  Ga5  1  0.000000  0.000000  0.000000  1
  Pt  Pt6  1  0.500000  0.286413  0.385568  1
  Pt  Pt7  1  0.500000  0.713587  0.614432  1
  Pt  Pt8  1  0.500000  0.792365  0.111503  1
  Pt  Pt9  1  0.500000  0.207635  0.888497  1
  Pt  Pt10  1  0.000000  0.449118  0.743135  1
  Pt  Pt11  1  0.000000  0.550882  0.256865  1
  Pt  Pt12  1  0.000000  0.950890  0.757406  1
  Pt  Pt13  1  0.000000  0.049110  0.242594  1
  Pt  Pt14  1  0.000000  0.500000  0.000000  1
  Pt  Pt15  1  0.000000  0.000000  0.500000  1
