# generated using pymatgen
data_PuBrF8
_symmetry_space_group_name_H-M   'P 1'
_cell_length_a   6.27960000
_cell_length_b   8.80428811
_cell_length_c   11.16414900
_cell_angle_alpha   40.54758571
_cell_angle_beta   90.00000000
_cell_angle_gamma   90.00000000
_symmetry_Int_Tables_number   1
_chemical_formula_structural   PuBrF8
_chemical_formula_sum   'Pu2 Br2 F16'
_cell_volume   401.25294202
_cell_formula_units_Z   2
loop_
 _symmetry_equiv_pos_site_id
 _symmetry_equiv_pos_as_xyz
  1  'x, y, z'
loop_
 _atom_site_type_symbol
 _atom_site_label
 _atom_site_symmetry_multiplicity
 _atom_site_fract_x
 _atom_site_fract_y
 _atom_site_fract_z
 _atom_site_occupancy
  Pu  Pu0  1  0.549611  0.000000  0.750000  1
  Pu  Pu1  1  0.450389  0.000000  0.250000  1
  Br  Br2  1  0.816840  0.500000  0.250000  1
  Br  Br3  1  0.183160  0.500000  0.750000  1
  F  F4  1  0.014648  0.644472  0.073901  1
  F  F5  1  0.985352  0.355528  0.926099  1
  F  F6  1  0.014648  0.355528  0.426099  1
  F  F7  1  0.985352  0.644472  0.573901  1
  F  F8  1  0.567253  0.663155  0.050201  1
  F  F9  1  0.321688  0.122239  0.787407  1
  F  F10  1  0.321688  0.877761  0.712593  1
  F  F11  1  0.432747  0.336845  0.949799  1
  F  F12  1  0.773712  0.877202  0.711236  1
  F  F13  1  0.567253  0.336845  0.449799  1
  F  F14  1  0.678312  0.122239  0.287407  1
  F  F15  1  0.226288  0.877202  0.211236  1
  F  F16  1  0.432747  0.663155  0.550201  1
  F  F17  1  0.773712  0.122798  0.788764  1
  F  F18  1  0.678312  0.877761  0.212593  1
  F  F19  1  0.226288  0.122798  0.288764  1
