# generated using pymatgen
data_ErZrMn6Co6P7
_symmetry_space_group_name_H-M   'P 1'
_cell_length_a   9.04196200
_cell_length_b   9.04196268
_cell_length_c   3.60134400
_cell_angle_alpha   90.00000000
_cell_angle_beta   90.00000000
_cell_angle_gamma   120.00000483
_symmetry_Int_Tables_number   1
_chemical_formula_structural   ErZrMn6Co6P7
_chemical_formula_sum   'Er1 Zr1 Mn6 Co6 P7'
_cell_volume   254.98850659
_cell_formula_units_Z   1
loop_
 _symmetry_equiv_pos_site_id
 _symmetry_equiv_pos_as_xyz
  1  'x, y, z'
loop_
 _atom_site_type_symbol
 _atom_site_label
 _atom_site_symmetry_multiplicity
 _atom_site_fract_x
 _atom_site_fract_y
 _atom_site_fract_z
 _atom_site_occupancy
  Er  Er0  1  0.000000  0.000000  0.500000  1
  Zr  Zr1  1  0.333333  0.666667  0.000000  1
  Mn  Mn2  1  0.545218  0.053547  0.000000  1
  Mn  Mn3  1  0.946453  0.491672  0.000000  1
  Mn  Mn4  1  0.508328  0.454782  0.000000  1
  Mn  Mn5  1  0.789335  0.227436  0.500000  1
  Mn  Mn6  1  0.772564  0.561899  0.500000  1
  Mn  Mn7  1  0.438101  0.210665  0.500000  1
  Co  Co8  1  0.037259  0.272808  0.000000  1
  Co  Co9  1  0.727192  0.764449  0.000000  1
  Co  Co10  1  0.235551  0.962741  0.000000  1
  Co  Co11  1  0.612630  0.891228  0.500000  1
  Co  Co12  1  0.108772  0.721402  0.500000  1
  Co  Co13  1  0.278598  0.387370  0.500000  1
  P  P14  1  0.779668  0.033172  0.000000  1
  P  P15  1  0.966828  0.746496  0.000000  1
  P  P16  1  0.253504  0.220332  0.000000  1
  P  P17  1  0.379247  0.923777  0.500000  1
  P  P18  1  0.076223  0.455471  0.500000  1
  P  P19  1  0.544529  0.620753  0.500000  1
  P  P20  1  0.666667  0.333333  0.000000  1
