# generated using pymatgen
data_Sr2Zn3(AgAu)3
_symmetry_space_group_name_H-M   'P 1'
_cell_length_a   8.93351034
_cell_length_b   8.93351031
_cell_length_c   8.93350963
_cell_angle_alpha   57.41760430
_cell_angle_beta   57.41760744
_cell_angle_gamma   57.41760383
_symmetry_Int_Tables_number   1
_chemical_formula_structural   Sr2Zn3(AgAu)3
_chemical_formula_sum   'Sr4 Zn6 Ag6 Au6'
_cell_volume   474.18481293
_cell_formula_units_Z   2
loop_
 _symmetry_equiv_pos_site_id
 _symmetry_equiv_pos_as_xyz
  1  'x, y, z'
loop_
 _atom_site_type_symbol
 _atom_site_label
 _atom_site_symmetry_multiplicity
 _atom_site_fract_x
 _atom_site_fract_y
 _atom_site_fract_z
 _atom_site_occupancy
  Sr  Sr0  1  0.907106  0.907106  0.907106  1
  Sr  Sr1  1  0.407106  0.407106  0.407106  1
  Sr  Sr2  1  0.092876  0.092876  0.092876  1
  Sr  Sr3  1  0.592876  0.592876  0.592876  1
  Zn  Zn4  1  0.560140  0.749298  0.940404  1
  Zn  Zn5  1  0.940404  0.560140  0.749298  1
  Zn  Zn6  1  0.749298  0.940404  0.560140  1
  Zn  Zn7  1  0.440404  0.249298  0.060140  1
  Zn  Zn8  1  0.060140  0.440404  0.249298  1
  Zn  Zn9  1  0.249298  0.060140  0.440404  1
  Ag  Ag10  1  0.480778  0.862318  0.206239  1
  Ag  Ag11  1  0.206239  0.480778  0.862318  1
  Ag  Ag12  1  0.862318  0.206239  0.480778  1
  Ag  Ag13  1  0.706239  0.362318  0.980778  1
  Ag  Ag14  1  0.980778  0.706239  0.362318  1
  Ag  Ag15  1  0.362318  0.980778  0.706239  1
  Au  Au16  1  0.519584  0.136218  0.795038  1
  Au  Au17  1  0.795038  0.519584  0.136218  1
  Au  Au18  1  0.136218  0.795038  0.519584  1
  Au  Au19  1  0.295038  0.636218  0.019584  1
  Au  Au20  1  0.019584  0.295038  0.636218  1
  Au  Au21  1  0.636218  0.019584  0.295038  1
