# generated using pymatgen
data_CsRbNb2(CuSe2)4
_symmetry_space_group_name_H-M   'P 1'
_cell_length_a   10.33984190
_cell_length_b   10.34215336
_cell_length_c   7.88862900
_cell_angle_alpha   90.00000000
_cell_angle_beta   90.00000000
_cell_angle_gamma   147.64540808
_symmetry_Int_Tables_number   1
_chemical_formula_structural   CsRbNb2(CuSe2)4
_chemical_formula_sum   'Cs1 Rb1 Nb2 Cu4 Se8'
_cell_volume   451.44828027
_cell_formula_units_Z   1
loop_
 _symmetry_equiv_pos_site_id
 _symmetry_equiv_pos_as_xyz
  1  'x, y, z'
loop_
 _atom_site_type_symbol
 _atom_site_label
 _atom_site_symmetry_multiplicity
 _atom_site_fract_x
 _atom_site_fract_y
 _atom_site_fract_z
 _atom_site_occupancy
  Cs  Cs0  1  0.820004  0.185227  0.250000  1
  Rb  Rb1  1  0.184933  0.819913  0.750000  1
  Nb  Nb2  1  0.645406  0.857070  0.750000  1
  Nb  Nb3  1  0.856994  0.645394  0.250000  1
  Cu  Cu4  1  0.147533  0.355995  0.750000  1
  Cu  Cu5  1  0.355987  0.147464  0.250000  1
  Cu  Cu6  1  0.736189  0.736167  0.999992  1
  Cu  Cu7  1  0.736189  0.736167  0.500008  1
  Se  Se8  1  0.992152  0.999161  0.750000  1
  Se  Se9  1  0.999307  0.991964  0.250000  1
  Se  Se10  1  0.400332  0.607129  0.001845  1
  Se  Se11  1  0.607312  0.400297  0.997751  1
  Se  Se12  1  0.400332  0.607129  0.498155  1
  Se  Se13  1  0.607312  0.400297  0.502249  1
  Se  Se14  1  0.798892  0.207246  0.750000  1
  Se  Se15  1  0.207326  0.799582  0.250000  1
