# generated using pymatgen
data_YErBr6
_symmetry_space_group_name_H-M   'P 1'
_cell_length_a   7.21787101
_cell_length_b   7.21935434
_cell_length_c   22.70088621
_cell_angle_alpha   89.98515278
_cell_angle_beta   90.00003845
_cell_angle_gamma   119.99963818
_symmetry_Int_Tables_number   1
_chemical_formula_structural   YErBr6
_chemical_formula_sum   'Y3 Er3 Br18'
_cell_volume   1024.43045863
_cell_formula_units_Z   3
loop_
 _symmetry_equiv_pos_site_id
 _symmetry_equiv_pos_as_xyz
  1  'x, y, z'
loop_
 _atom_site_type_symbol
 _atom_site_label
 _atom_site_symmetry_multiplicity
 _atom_site_fract_x
 _atom_site_fract_y
 _atom_site_fract_z
 _atom_site_occupancy
  Y  Y0  1  0.889495  0.778922  0.333247  1
  Y  Y1  1  0.889356  0.110693  0.666721  1
  Y  Y2  1  0.222412  0.777543  0.666716  1
  Er  Er3  1  0.221310  0.110631  0.000034  1
  Er  Er4  1  0.555000  0.777483  0.000043  1
  Er  Er5  1  0.222462  0.444926  0.333242  1
  Br  Br6  1  0.521611  0.444041  0.070619  1
  Br  Br7  1  0.888200  0.077774  0.070514  1
  Br  Br8  1  0.254822  0.810730  0.070682  1
  Br  Br9  1  0.192436  0.745492  0.262187  1
  Br  Br10  1  0.921512  0.114723  0.262328  1
  Br  Br11  1  0.553186  0.475189  0.262244  1
  Br  Br12  1  0.922060  0.475146  0.404258  1
  Br  Br13  1  0.193208  0.114663  0.404137  1
  Br  Br14  1  0.553064  0.745513  0.404292  1
  Br  Br15  1  0.556055  0.806846  0.595280  1
  Br  Br16  1  0.193756  0.081955  0.595395  1
  Br  Br17  1  0.918487  0.444162  0.595325  1
  Br  Br18  1  0.555782  0.081437  0.738137  1
  Br  Br19  1  0.917976  0.806229  0.738036  1
  Br  Br20  1  0.193149  0.444002  0.738160  1
  Br  Br21  1  0.254785  0.444077  0.929399  1
  Br  Br22  1  0.888237  0.810352  0.929568  1
  Br  Br23  1  0.521638  0.077473  0.929433  1
