# generated using pymatgen
data_Tb8Ho11Si16Ag
_symmetry_space_group_name_H-M   'P 1'
_cell_length_a   7.65761770
_cell_length_b   7.65761810
_cell_length_c   13.95840482
_cell_angle_alpha   89.70647259
_cell_angle_beta   90.29352887
_cell_angle_gamma   90.14751872
_symmetry_Int_Tables_number   1
_chemical_formula_structural   Tb8Ho11Si16Ag
_chemical_formula_sum   'Tb8 Ho11 Si16 Ag1'
_cell_volume   818.48432252
_cell_formula_units_Z   1
loop_
 _symmetry_equiv_pos_site_id
 _symmetry_equiv_pos_as_xyz
  1  'x, y, z'
loop_
 _atom_site_type_symbol
 _atom_site_label
 _atom_site_symmetry_multiplicity
 _atom_site_fract_x
 _atom_site_fract_y
 _atom_site_fract_z
 _atom_site_occupancy
  Tb  Tb0  1  0.998723  0.356991  0.202648  1
  Tb  Tb1  1  0.007966  0.643152  0.713252  1
  Tb  Tb2  1  0.140210  0.493128  0.458119  1
  Tb  Tb3  1  0.499830  0.866061  0.038437  1
  Tb  Tb4  1  0.866061  0.499830  0.961563  1
  Tb  Tb5  1  0.493128  0.140210  0.541881  1
  Tb  Tb6  1  0.356991  0.998723  0.797352  1
  Tb  Tb7  1  0.643152  0.007966  0.286748  1
  Ho  Ho8  1  0.815710  0.815710  0.500000  1
  Ho  Ho9  1  0.317470  0.685534  0.248221  1
  Ho  Ho10  1  0.685534  0.317470  0.751779  1
  Ho  Ho11  1  0.134313  0.008208  0.374632  1
  Ho  Ho12  1  0.869662  0.998372  0.880485  1
  Ho  Ho13  1  0.492334  0.638939  0.627691  1
  Ho  Ho14  1  0.361083  0.497616  0.877274  1
  Ho  Ho15  1  0.497616  0.361083  0.122726  1
  Ho  Ho16  1  0.638939  0.492334  0.372309  1
  Ho  Ho17  1  0.008208  0.134313  0.625368  1
  Ho  Ho18  1  0.998372  0.869662  0.119515  1
  Si  Si19  1  0.345373  0.295810  0.312012  1
  Si  Si20  1  0.652350  0.708045  0.818479  1
  Si  Si21  1  0.204052  0.846101  0.564506  1
  Si  Si22  1  0.145935  0.778354  0.929886  1
  Si  Si23  1  0.778354  0.145935  0.070114  1
  Si  Si24  1  0.846101  0.204052  0.435494  1
  Si  Si25  1  0.295810  0.345373  0.687988  1
  Si  Si26  1  0.708045  0.652350  0.181521  1
  Si  Si27  1  0.292073  0.065811  0.187948  1
  Si  Si28  1  0.703048  0.936810  0.692286  1
  Si  Si29  1  0.437100  0.794213  0.438182  1
  Si  Si30  1  0.209463  0.576176  0.061764  1
  Si  Si31  1  0.576176  0.209463  0.938236  1
  Si  Si32  1  0.794213  0.437100  0.561818  1
  Si  Si33  1  0.065811  0.292073  0.812052  1
  Si  Si34  1  0.936810  0.703048  0.307714  1
  Ag  Ag35  1  0.183984  0.183984  0.000000  1
