# generated using pymatgen
data_TaMn8MoOs2
_symmetry_space_group_name_H-M   'P 1'
_cell_length_a   4.69350600
_cell_length_b   4.69350563
_cell_length_c   7.72336500
_cell_angle_alpha   90.00000000
_cell_angle_beta   90.00000000
_cell_angle_gamma   120.00000262
_symmetry_Int_Tables_number   1
_chemical_formula_structural   TaMn8MoOs2
_chemical_formula_sum   'Ta1 Mn8 Mo1 Os2'
_cell_volume   147.34381162
_cell_formula_units_Z   1
loop_
 _symmetry_equiv_pos_site_id
 _symmetry_equiv_pos_as_xyz
  1  'x, y, z'
loop_
 _atom_site_type_symbol
 _atom_site_label
 _atom_site_symmetry_multiplicity
 _atom_site_fract_x
 _atom_site_fract_y
 _atom_site_fract_z
 _atom_site_occupancy
  Ta  Ta0  1  0.333333  0.666667  0.437147  1
  Mn  Mn1  1  0.000000  0.000000  0.998308  1
  Mn  Mn2  1  0.000000  0.000000  0.499148  1
  Mn  Mn3  1  0.826494  0.652987  0.246332  1
  Mn  Mn4  1  0.173231  0.826769  0.750968  1
  Mn  Mn5  1  0.653537  0.826769  0.750968  1
  Mn  Mn6  1  0.347013  0.173506  0.246332  1
  Mn  Mn7  1  0.826494  0.173506  0.246332  1
  Mn  Mn8  1  0.173231  0.346463  0.750968  1
  Mo  Mo9  1  0.666667  0.333333  0.933594  1
  Os  Os10  1  0.333333  0.666667  0.067939  1
  Os  Os11  1  0.666667  0.333333  0.571966  1
