# generated using pymatgen
data_Nd2Al20IrRu3
_symmetry_space_group_name_H-M   'P 1'
_cell_length_a   6.87540149
_cell_length_b   6.87765114
_cell_length_c   9.18311273
_cell_angle_alpha   90.04751119
_cell_angle_beta   90.06836037
_cell_angle_gamma   96.76524542
_symmetry_Int_Tables_number   1
_chemical_formula_structural   Nd2Al20IrRu3
_chemical_formula_sum   'Nd2 Al20 Ir1 Ru3'
_cell_volume   431.21424715
_cell_formula_units_Z   1
loop_
 _symmetry_equiv_pos_site_id
 _symmetry_equiv_pos_as_xyz
  1  'x, y, z'
loop_
 _atom_site_type_symbol
 _atom_site_label
 _atom_site_symmetry_multiplicity
 _atom_site_fract_x
 _atom_site_fract_y
 _atom_site_fract_z
 _atom_site_occupancy
  Nd  Nd0  1  0.873746  0.124896  0.750214  1
  Nd  Nd1  1  0.126254  0.875104  0.249786  1
  Al  Al2  1  0.620133  0.376147  0.551296  1
  Al  Al3  1  0.379867  0.623853  0.448704  1
  Al  Al4  1  0.377604  0.623105  0.050515  1
  Al  Al5  1  0.622396  0.376895  0.949485  1
  Al  Al6  1  0.228903  0.225830  0.498872  1
  Al  Al7  1  0.771097  0.774170  0.501128  1
  Al  Al8  1  0.771913  0.772716  0.000490  1
  Al  Al9  1  0.228087  0.227284  0.999510  1
  Al  Al10  1  0.840920  0.159652  0.101493  1
  Al  Al11  1  0.159080  0.840348  0.898507  1
  Al  Al12  1  0.160634  0.842572  0.602884  1
  Al  Al13  1  0.839366  0.157428  0.397116  1
  Al  Al14  1  0.858510  0.588862  0.751561  1
  Al  Al15  1  0.141490  0.411138  0.248439  1
  Al  Al16  1  0.412395  0.140685  0.750573  1
  Al  Al17  1  0.587605  0.859315  0.249427  1
  Al  Al18  1  0.222480  0.482631  0.752299  1
  Al  Al19  1  0.777520  0.517369  0.247701  1
  Al  Al20  1  0.517326  0.778747  0.749656  1
  Al  Al21  1  0.482674  0.221253  0.250344  1
  Ir  Ir22  1  0.000000  0.500000  0.500000  1
  Ru  Ru23  1  0.000000  0.500000  0.000000  1
  Ru  Ru24  1  0.500000  0.000000  0.000000  1
  Ru  Ru25  1  0.500000  0.000000  0.500000  1
