# generated using pymatgen
data_Dy7Er2LuSn6
_symmetry_space_group_name_H-M   'P 1'
_cell_length_a   8.94051900
_cell_length_b   8.94051775
_cell_length_c   6.50738200
_cell_angle_alpha   90.00000000
_cell_angle_beta   90.00000000
_cell_angle_gamma   119.99999352
_symmetry_Int_Tables_number   1
_chemical_formula_structural   Dy7Er2LuSn6
_chemical_formula_sum   'Dy7 Er2 Lu1 Sn6'
_cell_volume   450.46635764
_cell_formula_units_Z   1
loop_
 _symmetry_equiv_pos_site_id
 _symmetry_equiv_pos_as_xyz
  1  'x, y, z'
loop_
 _atom_site_type_symbol
 _atom_site_label
 _atom_site_symmetry_multiplicity
 _atom_site_fract_x
 _atom_site_fract_y
 _atom_site_fract_z
 _atom_site_occupancy
  Dy  Dy0  1  0.999913  0.761010  0.749750  1
  Dy  Dy1  1  0.999913  0.238903  0.250250  1
  Dy  Dy2  1  0.761097  0.761010  0.250250  1
  Dy  Dy3  1  0.761097  0.000087  0.749750  1
  Dy  Dy4  1  0.238990  0.238903  0.749750  1
  Dy  Dy5  1  0.238990  0.000087  0.250250  1
  Dy  Dy6  1  0.333333  0.666667  0.000000  1
  Er  Er7  1  0.333333  0.666667  0.500000  1
  Er  Er8  1  0.666667  0.333333  0.000000  1
  Lu  Lu9  1  0.666667  0.333333  0.500000  1
  Sn  Sn10  1  0.397009  0.001481  0.748555  1
  Sn  Sn11  1  0.397009  0.395529  0.251445  1
  Sn  Sn12  1  0.998519  0.602991  0.251445  1
  Sn  Sn13  1  0.998519  0.395529  0.748555  1
  Sn  Sn14  1  0.604471  0.602991  0.748555  1
  Sn  Sn15  1  0.604471  0.001481  0.251445  1
