# generated using pymatgen
data_Tb2Y17InIr12
_symmetry_space_group_name_H-M   'P 1'
_cell_length_a   10.92473400
_cell_length_b   10.92473400
_cell_length_c   6.34503400
_cell_angle_alpha   90.00000000
_cell_angle_beta   90.00000000
_cell_angle_gamma   90.00000000
_symmetry_Int_Tables_number   1
_chemical_formula_structural   Tb2Y17InIr12
_chemical_formula_sum   'Tb2 Y17 In1 Ir12'
_cell_volume   757.27862119
_cell_formula_units_Z   1
loop_
 _symmetry_equiv_pos_site_id
 _symmetry_equiv_pos_as_xyz
  1  'x, y, z'
loop_
 _atom_site_type_symbol
 _atom_site_label
 _atom_site_symmetry_multiplicity
 _atom_site_fract_x
 _atom_site_fract_y
 _atom_site_fract_z
 _atom_site_occupancy
  Tb  Tb0  1  0.500000  0.500000  0.000000  1
  Tb  Tb1  1  0.500000  0.500000  0.500000  1
  Y  Y2  1  0.283078  0.084385  0.380213  1
  Y  Y3  1  0.291227  0.911318  0.881006  1
  Y  Y4  1  0.708773  0.088682  0.881006  1
  Y  Y5  1  0.716922  0.915615  0.380213  1
  Y  Y6  1  0.588635  0.792103  0.881263  1
  Y  Y7  1  0.587671  0.207884  0.377911  1
  Y  Y8  1  0.412329  0.792116  0.377911  1
  Y  Y9  1  0.411365  0.207897  0.881263  1
  Y  Y10  1  0.207884  0.412329  0.622089  1
  Y  Y11  1  0.207897  0.588635  0.118737  1
  Y  Y12  1  0.792103  0.411365  0.118737  1
  Y  Y13  1  0.792116  0.587671  0.622089  1
  Y  Y14  1  0.911318  0.708773  0.118994  1
  Y  Y15  1  0.915615  0.283078  0.619787  1
  Y  Y16  1  0.084385  0.716922  0.619787  1
  Y  Y17  1  0.088682  0.291227  0.118994  1
  Y  Y18  1  0.000000  0.000000  0.000000  1
  In  In19  1  0.000000  0.000000  0.500000  1
  Ir  Ir20  1  0.846120  0.155620  0.245825  1
  Ir  Ir21  1  0.844380  0.846120  0.754175  1
  Ir  Ir22  1  0.155620  0.153880  0.754175  1
  Ir  Ir23  1  0.153880  0.844380  0.245825  1
  Ir  Ir24  1  0.654846  0.346015  0.747011  1
  Ir  Ir25  1  0.653985  0.654846  0.252989  1
  Ir  Ir26  1  0.346015  0.345154  0.252989  1
  Ir  Ir27  1  0.345154  0.653985  0.747011  1
  Ir  Ir28  1  0.500000  0.000000  0.127661  1
  Ir  Ir29  1  0.500000  0.000000  0.621819  1
  Ir  Ir30  1  0.000000  0.500000  0.872339  1
  Ir  Ir31  1  0.000000  0.500000  0.378181  1
