# generated using pymatgen
data_Ho8ZnCo2Si12Rh
_symmetry_space_group_name_H-M   'P 1'
_cell_length_a   8.06112900
_cell_length_b   8.06112882
_cell_length_c   7.89271100
_cell_angle_alpha   90.00000000
_cell_angle_beta   90.00000000
_cell_angle_gamma   120.00000484
_symmetry_Int_Tables_number   1
_chemical_formula_structural   Ho8ZnCo2Si12Rh
_chemical_formula_sum   'Ho8 Zn1 Co2 Si12 Rh1'
_cell_volume   444.16930628
_cell_formula_units_Z   1
loop_
 _symmetry_equiv_pos_site_id
 _symmetry_equiv_pos_as_xyz
  1  'x, y, z'
loop_
 _atom_site_type_symbol
 _atom_site_label
 _atom_site_symmetry_multiplicity
 _atom_site_fract_x
 _atom_site_fract_y
 _atom_site_fract_z
 _atom_site_occupancy
  Ho  Ho0  1  0.000000  0.000000  0.250454  1
  Ho  Ho1  1  0.000000  0.000000  0.752125  1
  Ho  Ho2  1  0.510654  0.489346  0.245834  1
  Ho  Ho3  1  0.510654  0.021309  0.245834  1
  Ho  Ho4  1  0.978691  0.489346  0.245834  1
  Ho  Ho5  1  0.497847  0.502153  0.753647  1
  Ho  Ho6  1  0.497847  0.995693  0.753647  1
  Ho  Ho7  1  0.004307  0.502153  0.753647  1
  Zn  Zn8  1  0.333333  0.666667  0.466257  1
  Co  Co9  1  0.666667  0.333333  0.535262  1
  Co  Co10  1  0.666667  0.333333  0.967815  1
  Si  Si11  1  0.163049  0.836951  0.502174  1
  Si  Si12  1  0.163049  0.326097  0.502174  1
  Si  Si13  1  0.673903  0.836951  0.502174  1
  Si  Si14  1  0.826372  0.173628  0.500846  1
  Si  Si15  1  0.826372  0.652746  0.500846  1
  Si  Si16  1  0.347254  0.173628  0.500846  1
  Si  Si17  1  0.828499  0.171501  0.997738  1
  Si  Si18  1  0.828499  0.656997  0.997738  1
  Si  Si19  1  0.343003  0.171501  0.997738  1
  Si  Si20  1  0.166320  0.833680  0.002137  1
  Si  Si21  1  0.166320  0.332637  0.002137  1
  Si  Si22  1  0.667363  0.833680  0.002137  1
  Rh  Rh23  1  0.333333  0.666667  0.020961  1
