# generated using pymatgen
data_Pa5P12Ru19
_symmetry_space_group_name_H-M   'P 1'
_cell_length_a   12.63706700
_cell_length_b   12.63706721
_cell_length_c   3.93660900
_cell_angle_alpha   90.00000000
_cell_angle_beta   90.00000000
_cell_angle_gamma   120.00000208
_symmetry_Int_Tables_number   1
_chemical_formula_structural   Pa5P12Ru19
_chemical_formula_sum   'Pa5 P12 Ru19'
_cell_volume   544.43431050
_cell_formula_units_Z   1
loop_
 _symmetry_equiv_pos_site_id
 _symmetry_equiv_pos_as_xyz
  1  'x, y, z'
loop_
 _atom_site_type_symbol
 _atom_site_label
 _atom_site_symmetry_multiplicity
 _atom_site_fract_x
 _atom_site_fract_y
 _atom_site_fract_z
 _atom_site_occupancy
  Pa  Pa0  1  0.188672  0.188672  0.500000  1
  Pa  Pa1  1  0.811328  0.000000  0.500000  1
  Pa  Pa2  1  0.000000  0.811328  0.500000  1
  Pa  Pa3  1  0.333333  0.666667  0.000000  1
  Pa  Pa4  1  0.666667  0.333333  0.000000  1
  P  P5  1  0.817184  0.817184  0.000000  1
  P  P6  1  0.182816  0.000000  0.000000  1
  P  P7  1  0.000000  0.182816  0.000000  1
  P  P8  1  0.170437  0.477846  0.500000  1
  P  P9  1  0.522154  0.692591  0.500000  1
  P  P10  1  0.307409  0.829563  0.500000  1
  P  P11  1  0.692591  0.522154  0.500000  1
  P  P12  1  0.829563  0.307409  0.500000  1
  P  P13  1  0.477846  0.170437  0.500000  1
  P  P14  1  0.372213  0.372213  0.000000  1
  P  P15  1  0.627787  0.000000  0.000000  1
  P  P16  1  0.000000  0.627787  0.000000  1
  Ru  Ru17  1  0.554376  0.554376  0.000000  1
  Ru  Ru18  1  0.445624  0.000000  0.000000  1
  Ru  Ru19  1  0.000000  0.445624  0.000000  1
  Ru  Ru20  1  0.717018  0.717018  0.500000  1
  Ru  Ru21  1  0.282982  0.000000  0.500000  1
  Ru  Ru22  1  0.000000  0.282982  0.500000  1
  Ru  Ru23  1  0.182756  0.374325  0.000000  1
  Ru  Ru24  1  0.625675  0.808431  0.000000  1
  Ru  Ru25  1  0.191569  0.817244  0.000000  1
  Ru  Ru26  1  0.808431  0.625675  0.000000  1
  Ru  Ru27  1  0.817244  0.191569  0.000000  1
  Ru  Ru28  1  0.374325  0.182756  0.000000  1
  Ru  Ru29  1  0.365242  0.493601  0.500000  1
  Ru  Ru30  1  0.506399  0.871641  0.500000  1
  Ru  Ru31  1  0.128359  0.634758  0.500000  1
  Ru  Ru32  1  0.871641  0.506399  0.500000  1
  Ru  Ru33  1  0.634758  0.128359  0.500000  1
  Ru  Ru34  1  0.493601  0.365242  0.500000  1
  Ru  Ru35  1  0.000000  0.000000  0.000000  1
