# generated using pymatgen
data_RbY6(CI6)2
_symmetry_space_group_name_H-M   'P 1'
_cell_length_a   9.50243747
_cell_length_b   9.50110426
_cell_length_c   9.92082724
_cell_angle_alpha   72.54879144
_cell_angle_beta   71.59153840
_cell_angle_gamma   73.14585462
_symmetry_Int_Tables_number   1
_chemical_formula_structural   RbY6(CI6)2
_chemical_formula_sum   'Rb1 Y6 C2 I12'
_cell_volume   791.65574825
_cell_formula_units_Z   1
loop_
 _symmetry_equiv_pos_site_id
 _symmetry_equiv_pos_as_xyz
  1  'x, y, z'
loop_
 _atom_site_type_symbol
 _atom_site_label
 _atom_site_symmetry_multiplicity
 _atom_site_fract_x
 _atom_site_fract_y
 _atom_site_fract_z
 _atom_site_occupancy
  Rb  Rb0  1  0.000000  0.500001  0.999999  1
  Y  Y1  1  0.473619  0.106905  0.196507  1
  Y  Y2  1  0.762251  0.031099  0.412875  1
  Y  Y3  1  0.586559  0.740481  0.476023  1
  Y  Y4  1  0.413442  0.259519  0.523975  1
  Y  Y5  1  0.237750  0.968901  0.587125  1
  Y  Y6  1  0.526383  0.893094  0.803490  1
  C  C7  1  0.493134  0.024704  0.426697  1
  C  C8  1  0.506868  0.975296  0.573302  1
  I  I9  1  0.797430  0.157164  0.080649  1
  I  I10  1  0.583438  0.782300  0.140160  1
  I  I11  1  0.352932  0.431746  0.221660  1
  I  I12  1  0.136293  0.067954  0.294428  1
  I  I13  1  0.921930  0.720656  0.356215  1
  I  I14  1  0.714017  0.362596  0.432791  1
  I  I15  1  0.285982  0.637405  0.567211  1
  I  I16  1  0.078069  0.279345  0.643786  1
  I  I17  1  0.863705  0.932046  0.705577  1
  I  I18  1  0.647068  0.568254  0.778340  1
  I  I19  1  0.416561  0.217698  0.859840  1
  I  I20  1  0.202571  0.842835  0.919353  1
