# generated using pymatgen
data_TaTi6Nb7As8
_symmetry_space_group_name_H-M   'P 1'
_cell_length_a   3.53154900
_cell_length_b   7.84243763
_cell_length_c   14.13533888
_cell_angle_alpha   103.96486658
_cell_angle_beta   90.00000000
_cell_angle_gamma   103.01207503
_symmetry_Int_Tables_number   1
_chemical_formula_structural   TaTi6Nb7As8
_chemical_formula_sum   'Ta1 Ti6 Nb7 As8'
_cell_volume   369.55361583
_cell_formula_units_Z   1
loop_
 _symmetry_equiv_pos_site_id
 _symmetry_equiv_pos_as_xyz
  1  'x, y, z'
loop_
 _atom_site_type_symbol
 _atom_site_label
 _atom_site_symmetry_multiplicity
 _atom_site_fract_x
 _atom_site_fract_y
 _atom_site_fract_z
 _atom_site_occupancy
  Ta  Ta0  1  0.500000  0.000000  0.500000  1
  Ti  Ti1  1  0.432188  0.864377  0.828204  1
  Ti  Ti2  1  0.567812  0.135623  0.171796  1
  Ti  Ti3  1  0.198060  0.396121  0.308235  1
  Ti  Ti4  1  0.801940  0.603879  0.691765  1
  Ti  Ti5  1  0.211662  0.423324  0.797379  1
  Ti  Ti6  1  0.788338  0.576676  0.202621  1
  Nb  Nb7  1  0.000000  0.000000  0.000000  1
  Nb  Nb8  1  0.334637  0.669272  0.029561  1
  Nb  Nb9  1  0.665363  0.330728  0.970439  1
  Nb  Nb10  1  0.001235  0.002470  0.660052  1
  Nb  Nb11  1  0.998765  0.997530  0.339948  1
  Nb  Nb12  1  0.176713  0.353425  0.545335  1
  Nb  Nb13  1  0.823287  0.646575  0.454665  1
  As  As14  1  0.174558  0.349114  0.114300  1
  As  As15  1  0.825442  0.650886  0.885700  1
  As  As16  1  0.368747  0.737496  0.604705  1
  As  As17  1  0.631253  0.262504  0.395295  1
  As  As18  1  0.368656  0.737312  0.332127  1
  As  As19  1  0.631344  0.262688  0.667873  1
  As  As20  1  0.064504  0.129010  0.846562  1
  As  As21  1  0.935496  0.870990  0.153438  1
