# generated using pymatgen
data_LiTaMoN3
_symmetry_space_group_name_H-M   'P 1'
_cell_length_a   5.11254391
_cell_length_b   5.11254313
_cell_length_c   10.38625300
_cell_angle_alpha   90.00000000
_cell_angle_beta   90.00000000
_cell_angle_gamma   120.15876778
_symmetry_Int_Tables_number   1
_chemical_formula_structural   LiTaMoN3
_chemical_formula_sum   'Li4 Ta4 Mo4 N12'
_cell_volume   234.72888371
_cell_formula_units_Z   4
loop_
 _symmetry_equiv_pos_site_id
 _symmetry_equiv_pos_as_xyz
  1  'x, y, z'
loop_
 _atom_site_type_symbol
 _atom_site_label
 _atom_site_symmetry_multiplicity
 _atom_site_fract_x
 _atom_site_fract_y
 _atom_site_fract_z
 _atom_site_occupancy
  Li  Li0  1  0.333931  0.666069  0.000000  1
  Li  Li1  1  0.333931  0.666069  0.500000  1
  Li  Li2  1  0.666513  0.333487  0.500000  1
  Li  Li3  1  0.666513  0.333487  0.000000  1
  Ta  Ta4  1  0.999850  0.000150  0.500000  1
  Ta  Ta5  1  0.999850  0.000150  0.000000  1
  Ta  Ta6  1  0.338985  0.999834  0.250000  1
  Ta  Ta7  1  0.000166  0.661015  0.750000  1
  Mo  Mo8  1  0.000484  0.338622  0.250000  1
  Mo  Mo9  1  0.661378  0.999516  0.750000  1
  Mo  Mo10  1  0.338489  0.337951  0.750000  1
  Mo  Mo11  1  0.662049  0.661511  0.250000  1
  N  N12  1  0.672765  0.673365  0.623675  1
  N  N13  1  0.672765  0.673365  0.876325  1
  N  N14  1  0.326635  0.327235  0.123675  1
  N  N15  1  0.326635  0.327235  0.376325  1
  N  N16  1  0.327334  0.000510  0.876134  1
  N  N17  1  0.327334  0.000510  0.623866  1
  N  N18  1  0.999490  0.672666  0.376134  1
  N  N19  1  0.999490  0.672666  0.123866  1
  N  N20  1  0.672731  0.000025  0.123526  1
  N  N21  1  0.672731  0.000025  0.376474  1
  N  N22  1  0.999975  0.327269  0.876474  1
  N  N23  1  0.999975  0.327269  0.623526  1
