# generated using pymatgen
data_LaTlPt4
_symmetry_space_group_name_H-M   'P 1'
_cell_length_a   5.51068011
_cell_length_b   5.51068042
_cell_length_c   5.51068100
_cell_angle_alpha   60.00000254
_cell_angle_beta   60.00000066
_cell_angle_gamma   60.00000579
_symmetry_Int_Tables_number   1
_chemical_formula_structural   LaTlPt4
_chemical_formula_sum   'La1 Tl1 Pt4'
_cell_volume   118.33159833
_cell_formula_units_Z   1
loop_
 _symmetry_equiv_pos_site_id
 _symmetry_equiv_pos_as_xyz
  1  'x, y, z'
loop_
 _atom_site_type_symbol
 _atom_site_label
 _atom_site_symmetry_multiplicity
 _atom_site_fract_x
 _atom_site_fract_y
 _atom_site_fract_z
 _atom_site_occupancy
  La  La0  1  0.000000  0.000000  0.000000  1
  Tl  Tl1  1  0.250000  0.250000  0.250000  1
  Pt  Pt2  1  0.624438  0.624438  0.126686  1
  Pt  Pt3  1  0.624438  0.126686  0.624438  1
  Pt  Pt4  1  0.126686  0.624438  0.624438  1
  Pt  Pt5  1  0.624438  0.624438  0.624438  1
