# generated using pymatgen
data_Nd3Th3(Al3Os)8
_symmetry_space_group_name_H-M   'P 1'
_cell_length_a   8.94737900
_cell_length_b   8.94737967
_cell_length_c   9.64160600
_cell_angle_alpha   90.00000000
_cell_angle_beta   90.00000000
_cell_angle_gamma   120.00000121
_symmetry_Int_Tables_number   1
_chemical_formula_structural   Nd3Th3(Al3Os)8
_chemical_formula_sum   'Nd3 Th3 Al24 Os8'
_cell_volume   668.45427819
_cell_formula_units_Z   1
loop_
 _symmetry_equiv_pos_site_id
 _symmetry_equiv_pos_as_xyz
  1  'x, y, z'
loop_
 _atom_site_type_symbol
 _atom_site_label
 _atom_site_symmetry_multiplicity
 _atom_site_fract_x
 _atom_site_fract_y
 _atom_site_fract_z
 _atom_site_occupancy
  Nd  Nd0  1  0.616486  0.808243  0.750000  1
  Nd  Nd1  1  0.191757  0.808243  0.750000  1
  Nd  Nd2  1  0.191757  0.383514  0.750000  1
  Th  Th3  1  0.394187  0.197093  0.250000  1
  Th  Th4  1  0.802907  0.197093  0.250000  1
  Th  Th5  1  0.802907  0.605813  0.250000  1
  Al  Al6  1  0.435341  0.870681  0.250000  1
  Al  Al7  1  0.129319  0.564659  0.250000  1
  Al  Al8  1  0.435341  0.564659  0.250000  1
  Al  Al9  1  0.560686  0.121372  0.750000  1
  Al  Al10  1  0.878628  0.439314  0.750000  1
  Al  Al11  1  0.560686  0.439314  0.750000  1
  Al  Al12  1  0.163213  0.836787  0.425404  1
  Al  Al13  1  0.163213  0.326428  0.425404  1
  Al  Al14  1  0.673572  0.836787  0.425404  1
  Al  Al15  1  0.837169  0.162831  0.577074  1
  Al  Al16  1  0.837169  0.674336  0.577074  1
  Al  Al17  1  0.325664  0.162831  0.577074  1
  Al  Al18  1  0.837169  0.162831  0.922926  1
  Al  Al19  1  0.837169  0.674336  0.922926  1
  Al  Al20  1  0.325664  0.162831  0.922926  1
  Al  Al21  1  0.163213  0.836787  0.074596  1
  Al  Al22  1  0.163213  0.326428  0.074596  1
  Al  Al23  1  0.673572  0.836787  0.074596  1
  Al  Al24  1  0.333333  0.666667  0.512728  1
  Al  Al25  1  0.666667  0.333333  0.492342  1
  Al  Al26  1  0.666667  0.333333  0.007658  1
  Al  Al27  1  0.333333  0.666667  0.987272  1
  Al  Al28  1  0.000000  0.000000  0.250000  1
  Al  Al29  1  0.000000  0.000000  0.750000  1
  Os  Os30  1  0.000000  0.000000  0.500792  1
  Os  Os31  1  0.000000  0.000000  0.999208  1
  Os  Os32  1  0.500992  0.001985  0.495910  1
  Os  Os33  1  0.998015  0.499008  0.495910  1
  Os  Os34  1  0.500992  0.499008  0.495910  1
  Os  Os35  1  0.500992  0.001985  0.004090  1
  Os  Os36  1  0.998015  0.499008  0.004090  1
  Os  Os37  1  0.500992  0.499008  0.004090  1
