# generated using pymatgen
data_Lu4HfPt3F28
_symmetry_space_group_name_H-M   'P 1'
_cell_length_a   5.51755146
_cell_length_b   8.77149560
_cell_length_c   11.85719582
_cell_angle_alpha   62.75007957
_cell_angle_beta   90.08344437
_cell_angle_gamma   90.04629091
_symmetry_Int_Tables_number   1
_chemical_formula_structural   Lu4HfPt3F28
_chemical_formula_sum   'Lu4 Hf1 Pt3 F28'
_cell_volume   510.16658992
_cell_formula_units_Z   1
loop_
 _symmetry_equiv_pos_site_id
 _symmetry_equiv_pos_as_xyz
  1  'x, y, z'
loop_
 _atom_site_type_symbol
 _atom_site_label
 _atom_site_symmetry_multiplicity
 _atom_site_fract_x
 _atom_site_fract_y
 _atom_site_fract_z
 _atom_site_occupancy
  Lu  Lu0  1  0.258753  0.814322  0.269220  1
  Lu  Lu1  1  0.739724  0.184238  0.735857  1
  Lu  Lu2  1  0.761862  0.181266  0.238068  1
  Lu  Lu3  1  0.240665  0.816413  0.762125  1
  Hf  Hf4  1  0.756251  0.725096  0.044009  1
  Pt  Pt5  1  0.238983  0.272361  0.955781  1
  Pt  Pt6  1  0.261191  0.271520  0.457358  1
  Pt  Pt7  1  0.740569  0.726161  0.544806  1
  F  F8  1  0.938002  0.701052  0.416381  1
  F  F9  1  0.060339  0.297858  0.583838  1
  F  F10  1  0.439425  0.298262  0.083312  1
  F  F11  1  0.536863  0.710040  0.915984  1
  F  F12  1  0.477291  0.732486  0.149185  1
  F  F13  1  0.529730  0.276318  0.858718  1
  F  F14  1  0.969006  0.272850  0.361173  1
  F  F15  1  0.034378  0.725953  0.638464  1
  F  F16  1  0.967380  0.750772  0.173550  1
  F  F17  1  0.046300  0.253609  0.822171  1
  F  F18  1  0.457455  0.253935  0.324064  1
  F  F19  1  0.548893  0.744481  0.678365  1
  F  F20  1  0.776829  0.469355  0.142136  1
  F  F21  1  0.219551  0.523561  0.854851  1
  F  F22  1  0.272358  0.523144  0.358209  1
  F  F23  1  0.727494  0.474487  0.644112  1
  F  F24  1  0.938286  0.273898  0.046178  1
  F  F25  1  0.057401  0.726101  0.947715  1
  F  F26  1  0.437471  0.719167  0.458098  1
  F  F27  1  0.561931  0.278978  0.544996  1
  F  F28  1  0.744577  0.977705  0.450260  1
  F  F29  1  0.258459  0.019838  0.550704  1
  F  F30  1  0.247172  0.020961  0.052148  1
  F  F31  1  0.756896  0.980189  0.939908  1
  F  F32  1  0.575956  0.972296  0.236079  1
  F  F33  1  0.421801  0.029468  0.763387  1
  F  F34  1  0.077671  0.026888  0.268985  1
  F  F35  1  0.923084  0.974973  0.729806  1
