# generated using pymatgen
data_Ho2Tm8In8Pt3Rh
_symmetry_space_group_name_H-M   'P 1'
_cell_length_a   3.58202900
_cell_length_b   8.10293459
_cell_length_c   18.14764953
_cell_angle_alpha   90.07162253
_cell_angle_beta   90.00000000
_cell_angle_gamma   90.00000000
_symmetry_Int_Tables_number   1
_chemical_formula_structural   Ho2Tm8In8Pt3Rh
_chemical_formula_sum   'Ho2 Tm8 In8 Pt3 Rh1'
_cell_volume   526.73414851
_cell_formula_units_Z   1
loop_
 _symmetry_equiv_pos_site_id
 _symmetry_equiv_pos_as_xyz
  1  'x, y, z'
loop_
 _atom_site_type_symbol
 _atom_site_label
 _atom_site_symmetry_multiplicity
 _atom_site_fract_x
 _atom_site_fract_y
 _atom_site_fract_z
 _atom_site_occupancy
  Ho  Ho0  1  0.000000  0.999644  0.000004  1
  Ho  Ho1  1  0.000000  0.500163  0.499880  1
  Tm  Tm2  1  0.000000  0.115203  0.411934  1
  Tm  Tm3  1  0.000000  0.882152  0.585159  1
  Tm  Tm4  1  0.000000  0.382852  0.914929  1
  Tm  Tm5  1  0.000000  0.617491  0.086070  1
  Tm  Tm6  1  0.000000  0.238760  0.221902  1
  Tm  Tm7  1  0.000000  0.757618  0.779223  1
  Tm  Tm8  1  0.000000  0.257348  0.721083  1
  Tm  Tm9  1  0.000000  0.749914  0.279266  1
  In  In10  1  0.500000  0.421977  0.350912  1
  In  In11  1  0.500000  0.576762  0.648983  1
  In  In12  1  0.500000  0.076877  0.851132  1
  In  In13  1  0.500000  0.926235  0.150084  1
  In  In14  1  0.500000  0.293252  0.066787  1
  In  In15  1  0.500000  0.706585  0.933543  1
  In  In16  1  0.500000  0.206142  0.566242  1
  In  In17  1  0.500000  0.793869  0.431635  1
  Pt  Pt18  1  0.500000  0.975074  0.696326  1
  Pt  Pt19  1  0.500000  0.475202  0.803472  1
  Pt  Pt20  1  0.500000  0.523540  0.196785  1
  Rh  Rh21  1  0.500000  0.023340  0.304649  1
