# generated using pymatgen
data_Tb5Hf3(P3Ir4)4
_symmetry_space_group_name_H-M   'P 1'
_cell_length_a   12.88122400
_cell_length_b   12.88122381
_cell_length_c   3.98056300
_cell_angle_alpha   90.00000000
_cell_angle_beta   90.00000000
_cell_angle_gamma   120.00000048
_symmetry_Int_Tables_number   1
_chemical_formula_structural   Tb5Hf3(P3Ir4)4
_chemical_formula_sum   'Tb5 Hf3 P12 Ir16'
_cell_volume   571.99125651
_cell_formula_units_Z   1
loop_
 _symmetry_equiv_pos_site_id
 _symmetry_equiv_pos_as_xyz
  1  'x, y, z'
loop_
 _atom_site_type_symbol
 _atom_site_label
 _atom_site_symmetry_multiplicity
 _atom_site_fract_x
 _atom_site_fract_y
 _atom_site_fract_z
 _atom_site_occupancy
  Tb  Tb0  1  0.333333  0.666667  0.000000  1
  Tb  Tb1  1  0.666667  0.333333  0.000000  1
  Tb  Tb2  1  0.815489  0.000000  0.500000  1
  Tb  Tb3  1  0.000000  0.815489  0.500000  1
  Tb  Tb4  1  0.184511  0.184511  0.500000  1
  Hf  Hf5  1  0.449233  0.000000  0.000000  1
  Hf  Hf6  1  0.000000  0.449233  0.000000  1
  Hf  Hf7  1  0.550767  0.550767  0.000000  1
  P  P8  1  0.175638  0.000000  0.000000  1
  P  P9  1  0.000000  0.175638  0.000000  1
  P  P10  1  0.824362  0.824362  0.000000  1
  P  P11  1  0.169512  0.482667  0.500000  1
  P  P12  1  0.517333  0.686843  0.500000  1
  P  P13  1  0.313157  0.830488  0.500000  1
  P  P14  1  0.686843  0.517333  0.500000  1
  P  P15  1  0.830488  0.313157  0.500000  1
  P  P16  1  0.482667  0.169512  0.500000  1
  P  P17  1  0.649765  0.000000  0.000000  1
  P  P18  1  0.000000  0.649765  0.000000  1
  P  P19  1  0.350235  0.350235  0.000000  1
  Ir  Ir20  1  0.357887  0.492436  0.500000  1
  Ir  Ir21  1  0.507564  0.865451  0.500000  1
  Ir  Ir22  1  0.134549  0.642113  0.500000  1
  Ir  Ir23  1  0.865451  0.507564  0.500000  1
  Ir  Ir24  1  0.642113  0.134549  0.500000  1
  Ir  Ir25  1  0.492436  0.357887  0.500000  1
  Ir  Ir26  1  0.177652  0.371738  0.000000  1
  Ir  Ir27  1  0.628262  0.805915  0.000000  1
  Ir  Ir28  1  0.194085  0.822348  0.000000  1
  Ir  Ir29  1  0.805915  0.628262  0.000000  1
  Ir  Ir30  1  0.822348  0.194085  0.000000  1
  Ir  Ir31  1  0.371738  0.177652  0.000000  1
  Ir  Ir32  1  0.281548  0.000000  0.500000  1
  Ir  Ir33  1  0.000000  0.281548  0.500000  1
  Ir  Ir34  1  0.718452  0.718452  0.500000  1
  Ir  Ir35  1  0.000000  0.000000  0.000000  1
