# generated using pymatgen
data_Ca5(GaP3)2
_symmetry_space_group_name_H-M   'P 1'
_cell_length_a   4.03139000
_cell_length_b   11.16189100
_cell_length_c   12.83735700
_cell_angle_alpha   90.00000000
_cell_angle_beta   90.00000000
_cell_angle_gamma   90.00000000
_symmetry_Int_Tables_number   1
_chemical_formula_structural   Ca5(GaP3)2
_chemical_formula_sum   'Ca10 Ga4 P12'
_cell_volume   577.65456559
_cell_formula_units_Z   2
loop_
 _symmetry_equiv_pos_site_id
 _symmetry_equiv_pos_as_xyz
  1  'x, y, z'
loop_
 _atom_site_type_symbol
 _atom_site_label
 _atom_site_symmetry_multiplicity
 _atom_site_fract_x
 _atom_site_fract_y
 _atom_site_fract_z
 _atom_site_occupancy
  Ca  Ca0  1  0.500000  0.087875  0.753494  1
  Ca  Ca1  1  0.500000  0.587875  0.746506  1
  Ca  Ca2  1  0.500000  0.324451  0.514164  1
  Ca  Ca3  1  0.500000  0.675549  0.485836  1
  Ca  Ca4  1  0.500000  0.824451  0.985836  1
  Ca  Ca5  1  0.500000  0.912125  0.246506  1
  Ca  Ca6  1  0.500000  0.175549  0.014164  1
  Ca  Ca7  1  0.500000  0.500000  0.000000  1
  Ca  Ca8  1  0.500000  0.000000  0.500000  1
  Ca  Ca9  1  0.500000  0.412125  0.253494  1
  Ga  Ga10  1  0.000000  0.827421  0.786923  1
  Ga  Ga11  1  0.000000  0.172579  0.213077  1
  Ga  Ga12  1  0.000000  0.672579  0.286923  1
  Ga  Ga13  1  0.000000  0.327421  0.713077  1
  P  P14  1  0.500000  0.839785  0.682773  1
  P  P15  1  0.000000  0.483656  0.412789  1
  P  P16  1  0.500000  0.160215  0.317227  1
  P  P17  1  0.000000  0.016344  0.912789  1
  P  P18  1  0.000000  0.842281  0.400782  1
  P  P19  1  0.000000  0.983656  0.087211  1
  P  P20  1  0.000000  0.342281  0.099218  1
  P  P21  1  0.000000  0.516344  0.587211  1
  P  P22  1  0.000000  0.157719  0.599218  1
  P  P23  1  0.000000  0.657719  0.900782  1
  P  P24  1  0.500000  0.660215  0.182773  1
  P  P25  1  0.500000  0.339785  0.817227  1
