# generated using pymatgen
data_CeSbH
_symmetry_space_group_name_H-M   'P 1'
_cell_length_a   4.07476399
_cell_length_b   4.07480269
_cell_length_c   4.38801262
_cell_angle_alpha   90.01133407
_cell_angle_beta   90.01191902
_cell_angle_gamma   60.12188528
_symmetry_Int_Tables_number   1
_chemical_formula_structural   CeSbH
_chemical_formula_sum   'Ce1 Sb1 H1'
_cell_volume   63.17418111
_cell_formula_units_Z   1
loop_
 _symmetry_equiv_pos_site_id
 _symmetry_equiv_pos_as_xyz
  1  'x, y, z'
loop_
 _atom_site_type_symbol
 _atom_site_label
 _atom_site_symmetry_multiplicity
 _atom_site_fract_x
 _atom_site_fract_y
 _atom_site_fract_z
 _atom_site_occupancy
  Ce  Ce0  1  0.000187  0.666622  0.834308  1
  Sb  Sb1  1  0.665560  0.332381  0.334631  1
  H  H2  1  0.334327  0.000992  0.831060  1
