# generated using pymatgen
data_Th8Sc12Si15Pb
_symmetry_space_group_name_H-M   'P 1'
_cell_length_a   7.33558972
_cell_length_b   7.52010061
_cell_length_c   14.25108100
_cell_angle_alpha   89.91196222
_cell_angle_beta   89.04183760
_cell_angle_gamma   90.06927575
_symmetry_Int_Tables_number   1
_chemical_formula_structural   Th8Sc12Si15Pb
_chemical_formula_sum   'Th8 Sc12 Si15 Pb1'
_cell_volume   786.04049098
_cell_formula_units_Z   1
loop_
 _symmetry_equiv_pos_site_id
 _symmetry_equiv_pos_as_xyz
  1  'x, y, z'
loop_
 _atom_site_type_symbol
 _atom_site_label
 _atom_site_symmetry_multiplicity
 _atom_site_fract_x
 _atom_site_fract_y
 _atom_site_fract_z
 _atom_site_occupancy
  Th  Th0  1  0.005768  0.173934  0.095880  1
  Th  Th1  1  0.994502  0.828178  0.905485  1
  Th  Th2  1  0.496150  0.673311  0.904848  1
  Th  Th3  1  0.998214  0.834863  0.598799  1
  Th  Th4  1  0.504939  0.326925  0.096310  1
  Th  Th5  1  0.994161  0.168489  0.398133  1
  Th  Th6  1  0.507969  0.318934  0.397387  1
  Th  Th7  1  0.513669  0.686354  0.600182  1
  Sc  Sc8  1  0.168113  0.502330  0.757453  1
  Sc  Sc9  1  0.832346  0.499128  0.247994  1
  Sc  Sc10  1  0.332671  0.999449  0.248602  1
  Sc  Sc11  1  0.669295  0.999177  0.753687  1
  Sc  Sc12  1  0.353460  0.154767  0.630325  1
  Sc  Sc13  1  0.653941  0.828781  0.373036  1
  Sc  Sc14  1  0.153176  0.678711  0.368625  1
  Sc  Sc15  1  0.663174  0.824502  0.123304  1
  Sc  Sc16  1  0.827597  0.329216  0.627467  1
  Sc  Sc17  1  0.335220  0.173824  0.876001  1
  Sc  Sc18  1  0.836078  0.326244  0.876119  1
  Sc  Sc19  1  0.164392  0.673786  0.124346  1
  Si  Si20  1  0.041477  0.126481  0.750844  1
  Si  Si21  1  0.956620  0.877474  0.246390  1
  Si  Si22  1  0.458399  0.621804  0.248644  1
  Si  Si23  1  0.537852  0.378670  0.751813  1
  Si  Si24  1  0.296880  0.872091  0.753690  1
  Si  Si25  1  0.702877  0.119615  0.245539  1
  Si  Si26  1  0.202890  0.376758  0.248589  1
  Si  Si27  1  0.801353  0.625805  0.752608  1
  Si  Si28  1  0.819185  0.541706  0.457272  1
  Si  Si29  1  0.323060  0.960106  0.457677  1
  Si  Si30  1  0.837338  0.535105  0.041127  1
  Si  Si31  1  0.677146  0.044204  0.539002  1
  Si  Si32  1  0.162918  0.464042  0.960483  1
  Si  Si33  1  0.660957  0.036441  0.959775  1
  Si  Si34  1  0.338063  0.964156  0.040988  1
  Pb  Pb35  1  0.178139  0.454641  0.541576  1
