# generated using pymatgen
data_K2Zr6Tl2BBr17
_symmetry_space_group_name_H-M   'P 1'
_cell_length_a   12.84288200
_cell_length_b   12.85853300
_cell_length_c   11.80429900
_cell_angle_alpha   90.00000000
_cell_angle_beta   90.00000000
_cell_angle_gamma   90.00000000
_symmetry_Int_Tables_number   1
_chemical_formula_structural   K2Zr6Tl2BBr17
_chemical_formula_sum   'K4 Zr12 Tl4 B2 Br34'
_cell_volume   1949.36927928
_cell_formula_units_Z   2
loop_
 _symmetry_equiv_pos_site_id
 _symmetry_equiv_pos_as_xyz
  1  'x, y, z'
loop_
 _atom_site_type_symbol
 _atom_site_label
 _atom_site_symmetry_multiplicity
 _atom_site_fract_x
 _atom_site_fract_y
 _atom_site_fract_z
 _atom_site_occupancy
  K  K0  1  0.723405  0.486082  0.635838  1
  K  K1  1  0.776595  0.986082  0.364162  1
  K  K2  1  0.276595  0.513918  0.635838  1
  K  K3  1  0.223405  0.013918  0.364162  1
  Zr  Zr4  1  0.590288  0.907470  0.701333  1
  Zr  Zr5  1  0.909712  0.407470  0.298667  1
  Zr  Zr6  1  0.409712  0.092530  0.701333  1
  Zr  Zr7  1  0.090288  0.592530  0.298667  1
  Zr  Zr8  1  0.591450  0.906927  0.982082  1
  Zr  Zr9  1  0.908550  0.406927  0.017918  1
  Zr  Zr10  1  0.408550  0.093073  0.982082  1
  Zr  Zr11  1  0.091450  0.593073  0.017918  1
  Zr  Zr12  1  0.869638  0.627982  0.156259  1
  Zr  Zr13  1  0.630362  0.127982  0.843741  1
  Zr  Zr14  1  0.130362  0.372018  0.156259  1
  Zr  Zr15  1  0.369638  0.872018  0.843741  1
  Tl  Tl16  1  0.522637  0.713618  0.371372  1
  Tl  Tl17  1  0.977363  0.213618  0.628628  1
  Tl  Tl18  1  0.477363  0.286382  0.371372  1
  Tl  Tl19  1  0.022637  0.786382  0.628628  1
  B  B20  1  0.000000  0.500000  0.157148  1
  B  B21  1  0.500000  0.000000  0.842852  1
  Br  Br22  1  0.000000  0.500000  0.833930  1
  Br  Br23  1  0.500000  0.000000  0.166070  1
  Br  Br24  1  0.704214  0.794412  0.166813  1
  Br  Br25  1  0.795786  0.294412  0.833187  1
  Br  Br26  1  0.295786  0.205588  0.166813  1
  Br  Br27  1  0.204214  0.705588  0.833187  1
  Br  Br28  1  0.452876  0.748175  0.680863  1
  Br  Br29  1  0.047124  0.248175  0.319137  1
  Br  Br30  1  0.547124  0.251825  0.680863  1
  Br  Br31  1  0.952876  0.751825  0.319137  1
  Br  Br32  1  0.747382  0.541600  0.319295  1
  Br  Br33  1  0.752618  0.041600  0.680705  1
  Br  Br34  1  0.252618  0.458400  0.319295  1
  Br  Br35  1  0.247382  0.958400  0.680705  1
  Br  Br36  1  0.703271  0.790817  0.530590  1
  Br  Br37  1  0.796729  0.290817  0.469410  1
  Br  Br38  1  0.296729  0.209183  0.530590  1
  Br  Br39  1  0.203271  0.709183  0.469410  1
  Br  Br40  1  0.000000  0.500000  0.485855  1
  Br  Br41  1  0.500000  0.000000  0.514145  1
  Br  Br42  1  0.456678  0.746315  0.000808  1
  Br  Br43  1  0.043322  0.246315  0.999192  1
  Br  Br44  1  0.543322  0.253685  0.000808  1
  Br  Br45  1  0.956678  0.753685  0.999192  1
  Br  Br46  1  0.745348  0.539454  0.998926  1
  Br  Br47  1  0.754652  0.039454  0.001074  1
  Br  Br48  1  0.254652  0.460546  0.998926  1
  Br  Br49  1  0.245348  0.960546  0.001074  1
  Br  Br50  1  0.706598  0.790451  0.839964  1
  Br  Br51  1  0.793402  0.290451  0.160036  1
  Br  Br52  1  0.293402  0.209549  0.839964  1
  Br  Br53  1  0.206598  0.709549  0.160036  1
  Br  Br54  1  0.500000  0.500000  0.505112  1
  Br  Br55  1  0.000000  0.000000  0.494888  1
