# generated using pymatgen
data_ScTi2(Tc2W)3
_symmetry_space_group_name_H-M   'P 1'
_cell_length_a   4.40938900
_cell_length_b   6.28718600
_cell_length_c   13.37946800
_cell_angle_alpha   90.00000000
_cell_angle_beta   90.00015076
_cell_angle_gamma   90.00000000
_symmetry_Int_Tables_number   1
_chemical_formula_structural   ScTi2(Tc2W)3
_chemical_formula_sum   'Sc2 Ti4 Tc12 W6'
_cell_volume   370.91429235
_cell_formula_units_Z   2
loop_
 _symmetry_equiv_pos_site_id
 _symmetry_equiv_pos_as_xyz
  1  'x, y, z'
loop_
 _atom_site_type_symbol
 _atom_site_label
 _atom_site_symmetry_multiplicity
 _atom_site_fract_x
 _atom_site_fract_y
 _atom_site_fract_z
 _atom_site_occupancy
  Sc  Sc0  1  0.000007  0.000000  0.999588  1
  Sc  Sc1  1  0.499929  0.500000  0.167057  1
  Ti  Ti2  1  0.999947  0.000000  0.334296  1
  Ti  Ti3  1  0.499998  0.500000  0.500686  1
  Ti  Ti4  1  0.000055  0.000000  0.665964  1
  Ti  Ti5  1  0.500059  0.500000  0.832413  1
  Tc  Tc6  1  0.500004  0.252476  0.996562  1
  Tc  Tc7  1  0.500004  0.747524  0.996562  1
  Tc  Tc8  1  0.999950  0.247431  0.170092  1
  Tc  Tc9  1  0.999950  0.752569  0.170092  1
  Tc  Tc10  1  0.499952  0.248111  0.337523  1
  Tc  Tc11  1  0.499952  0.751889  0.337523  1
  Tc  Tc12  1  0.999999  0.249266  0.501109  1
  Tc  Tc13  1  0.999999  0.750734  0.501109  1
  Tc  Tc14  1  0.500049  0.250664  0.665559  1
  Tc  Tc15  1  0.500049  0.749336  0.665559  1
  Tc  Tc16  1  0.000051  0.251885  0.829158  1
  Tc  Tc17  1  0.000051  0.748115  0.829158  1
  W  W18  1  0.999997  0.500000  0.998793  1
  W  W19  1  0.499950  0.000000  0.167893  1
  W  W20  1  0.999943  0.500000  0.334699  1
  W  W21  1  0.499998  0.000000  0.499941  1
  W  W22  1  0.000050  0.500000  0.666667  1
  W  W23  1  0.500052  0.000000  0.831998  1
