# generated using pymatgen
data_TbTm2(CuSi)4
_symmetry_space_group_name_H-M   'P 1'
_cell_length_a   7.81386072
_cell_length_b   7.81386109
_cell_length_c   7.81386176
_cell_angle_alpha   149.47169912
_cell_angle_beta   130.45683871
_cell_angle_gamma   59.31928942
_symmetry_Int_Tables_number   1
_chemical_formula_structural   TbTm2(CuSi)4
_chemical_formula_sum   'Tb1 Tm2 Cu4 Si4'
_cell_volume   182.92933287
_cell_formula_units_Z   1
loop_
 _symmetry_equiv_pos_site_id
 _symmetry_equiv_pos_as_xyz
  1  'x, y, z'
loop_
 _atom_site_type_symbol
 _atom_site_label
 _atom_site_symmetry_multiplicity
 _atom_site_fract_x
 _atom_site_fract_y
 _atom_site_fract_z
 _atom_site_occupancy
  Tb  Tb0  1  0.500000  0.000000  0.500000  1
  Tm  Tm1  1  0.871126  0.871126  0.000000  1
  Tm  Tm2  1  0.128874  0.128874  0.000000  1
  Cu  Cu3  1  0.522404  0.330898  0.191506  1
  Cu  Cu4  1  0.860610  0.669102  0.191506  1
  Cu  Cu5  1  0.139390  0.330898  0.808494  1
  Cu  Cu6  1  0.477596  0.669102  0.808494  1
  Si  Si7  1  0.816963  0.500000  0.316963  1
  Si  Si8  1  0.183037  0.500000  0.683037  1
  Si  Si9  1  0.283256  0.783256  0.500000  1
  Si  Si10  1  0.716744  0.216744  0.500000  1
