# generated using pymatgen
data_Er4TmIrRu
_symmetry_space_group_name_H-M   'P 1'
_cell_length_a   6.36318835
_cell_length_b   7.23638072
_cell_length_c   8.38271656
_cell_angle_alpha   96.67016220
_cell_angle_beta   112.30533677
_cell_angle_gamma   90.00000122
_symmetry_Int_Tables_number   1
_chemical_formula_structural   Er4TmIrRu
_chemical_formula_sum   'Er8 Tm2 Ir2 Ru2'
_cell_volume   354.28647716
_cell_formula_units_Z   2
loop_
 _symmetry_equiv_pos_site_id
 _symmetry_equiv_pos_as_xyz
  1  'x, y, z'
loop_
 _atom_site_type_symbol
 _atom_site_label
 _atom_site_symmetry_multiplicity
 _atom_site_fract_x
 _atom_site_fract_y
 _atom_site_fract_z
 _atom_site_occupancy
  Er  Er0  1  0.792692  0.081943  0.815016  1
  Er  Er1  1  0.977676  0.418057  0.184984  1
  Er  Er2  1  0.209015  0.915147  0.183417  1
  Er  Er3  1  0.025598  0.584853  0.816583  1
  Er  Er4  1  0.207767  0.182235  0.563333  1
  Er  Er5  1  0.644434  0.317765  0.436667  1
  Er  Er6  1  0.790704  0.815080  0.438018  1
  Er  Er7  1  0.352686  0.684920  0.561982  1
  Tm  Tm8  1  0.423382  0.250000  0.000000  1
  Tm  Tm9  1  0.576563  0.750000  0.000000  1
  Ir  Ir10  1  0.604345  0.423172  0.779058  1
  Ir  Ir11  1  0.825285  0.076828  0.220942  1
  Ru  Ru12  1  0.394575  0.575095  0.219298  1
  Ru  Ru13  1  0.175278  0.924905  0.780702  1
