# generated using pymatgen
data_Tm3(In2Pd)2
_symmetry_space_group_name_H-M   'P 1'
_cell_length_a   7.84610800
_cell_length_b   7.84610813
_cell_length_c   3.81692500
_cell_angle_alpha   90.00000000
_cell_angle_beta   90.00000000
_cell_angle_gamma   119.99999945
_symmetry_Int_Tables_number   1
_chemical_formula_structural   Tm3(In2Pd)2
_chemical_formula_sum   'Tm3 In4 Pd2'
_cell_volume   203.49457295
_cell_formula_units_Z   1
loop_
 _symmetry_equiv_pos_site_id
 _symmetry_equiv_pos_as_xyz
  1  'x, y, z'
loop_
 _atom_site_type_symbol
 _atom_site_label
 _atom_site_symmetry_multiplicity
 _atom_site_fract_x
 _atom_site_fract_y
 _atom_site_fract_z
 _atom_site_occupancy
  Tm  Tm0  1  0.304733  0.254663  0.500000  1
  Tm  Tm1  1  0.745337  0.050069  0.500000  1
  Tm  Tm2  1  0.949931  0.695267  0.500000  1
  In  In3  1  0.073969  0.408011  0.000000  1
  In  In4  1  0.591989  0.665958  0.000000  1
  In  In5  1  0.334042  0.926031  0.000000  1
  In  In6  1  0.666667  0.333333  0.000000  1
  Pd  Pd7  1  0.333333  0.666667  0.500000  1
  Pd  Pd8  1  0.000000  0.000000  0.000000  1
