# generated using pymatgen
data_DyGa5Cu6
_symmetry_space_group_name_H-M   'P 1'
_cell_length_a   10.32766973
_cell_length_b   8.18352062
_cell_length_c   7.83211006
_cell_angle_alpha   80.27606449
_cell_angle_beta   51.35255197
_cell_angle_gamma   48.37137922
_symmetry_Int_Tables_number   1
_chemical_formula_structural   DyGa5Cu6
_chemical_formula_sum   'Dy2 Ga10 Cu12'
_cell_volume   350.44915183
_cell_formula_units_Z   2
loop_
 _symmetry_equiv_pos_site_id
 _symmetry_equiv_pos_as_xyz
  1  'x, y, z'
loop_
 _atom_site_type_symbol
 _atom_site_label
 _atom_site_symmetry_multiplicity
 _atom_site_fract_x
 _atom_site_fract_y
 _atom_site_fract_z
 _atom_site_occupancy
  Dy  Dy0  1  0.000000  0.000000  0.000000  1
  Dy  Dy1  1  0.250000  0.250000  0.250000  1
  Ga  Ga2  1  0.500000  0.500000  0.500000  1
  Ga  Ga3  1  0.750000  0.750000  0.750000  1
  Ga  Ga4  1  0.752635  0.073294  0.838801  1
  Ga  Ga5  1  0.838801  0.335270  0.752635  1
  Ga  Ga6  1  0.073294  0.752635  0.335270  1
  Ga  Ga7  1  0.335270  0.838801  0.073294  1
  Ga  Ga8  1  0.497365  0.176706  0.411199  1
  Ga  Ga9  1  0.411199  0.914730  0.497365  1
  Ga  Ga10  1  0.176706  0.497365  0.914730  1
  Ga  Ga11  1  0.914730  0.411199  0.176706  1
  Cu  Cu12  1  0.625000  0.125000  0.625000  1
  Cu  Cu13  1  0.625000  0.625000  0.625000  1
  Cu  Cu14  1  0.125000  0.625000  0.625000  1
  Cu  Cu15  1  0.625000  0.625000  0.125000  1
  Cu  Cu16  1  0.490962  0.434663  0.184807  1
  Cu  Cu17  1  0.184807  0.889568  0.490962  1
  Cu  Cu18  1  0.434663  0.490962  0.889568  1
  Cu  Cu19  1  0.889568  0.184807  0.434663  1
  Cu  Cu20  1  0.759038  0.815337  0.065193  1
  Cu  Cu21  1  0.065193  0.360432  0.759038  1
  Cu  Cu22  1  0.815337  0.759038  0.360432  1
  Cu  Cu23  1  0.360432  0.065193  0.815337  1
