# generated using pymatgen
data_Pr4Dy3Y(GeO5)4
_symmetry_space_group_name_H-M   'P 1'
_cell_length_a   8.36300143
_cell_length_b   8.36381326
_cell_length_c   10.88501705
_cell_angle_alpha   61.25100789
_cell_angle_beta   61.24992313
_cell_angle_gamma   49.78957208
_symmetry_Int_Tables_number   1
_chemical_formula_structural   Pr4Dy3Y(GeO5)4
_chemical_formula_sum   'Pr4 Dy3 Y1 Ge4 O20'
_cell_volume   492.96983998
_cell_formula_units_Z   1
loop_
 _symmetry_equiv_pos_site_id
 _symmetry_equiv_pos_as_xyz
  1  'x, y, z'
loop_
 _atom_site_type_symbol
 _atom_site_label
 _atom_site_symmetry_multiplicity
 _atom_site_fract_x
 _atom_site_fract_y
 _atom_site_fract_z
 _atom_site_occupancy
  Pr  Pr0  1  0.721962  0.207339  0.963998  1
  Pr  Pr1  1  0.792636  0.278038  0.536000  1
  Pr  Pr2  1  0.278037  0.792653  0.036003  1
  Pr  Pr3  1  0.207353  0.721964  0.463992  1
  Dy  Dy4  1  0.264427  0.013552  0.662218  1
  Dy  Dy5  1  0.013539  0.264404  0.162229  1
  Dy  Dy6  1  0.735583  0.986456  0.337776  1
  Y  Y7  1  0.986550  0.735486  0.837773  1
  Ge  Ge8  1  0.777879  0.595553  0.690945  1
  Ge  Ge9  1  0.404480  0.222041  0.809050  1
  Ge  Ge10  1  0.222091  0.404431  0.309064  1
  Ge  Ge11  1  0.595559  0.777921  0.190942  1
  O  O12  1  0.784780  0.629154  0.057769  1
  O  O13  1  0.370703  0.215075  0.442422  1
  O  O14  1  0.215237  0.370451  0.942482  1
  O  O15  1  0.629302  0.784914  0.557581  1
  O  O16  1  0.585239  0.587718  0.360076  1
  O  O17  1  0.412284  0.414758  0.139924  1
  O  O18  1  0.414779  0.412270  0.639902  1
  O  O19  1  0.587712  0.585240  0.860077  1
  O  O20  1  0.948438  0.656322  0.682848  1
  O  O21  1  0.343577  0.051553  0.817051  1
  O  O22  1  0.051556  0.343584  0.317051  1
  O  O23  1  0.656410  0.948445  0.182952  1
  O  O24  1  0.886605  0.080571  0.390939  1
  O  O25  1  0.919425  0.113397  0.109061  1
  O  O26  1  0.113510  0.919551  0.608886  1
  O  O27  1  0.080677  0.886760  0.891015  1
  O  O28  1  0.077896  0.674741  0.325070  1
  O  O29  1  0.325245  0.922111  0.174931  1
  O  O30  1  0.922109  0.325253  0.674930  1
  O  O31  1  0.674423  0.078291  0.825042  1
