# generated using pymatgen
data_BaAl2Au5
_symmetry_space_group_name_H-M   'P 1'
_cell_length_a   7.25405300
_cell_length_b   9.12928100
_cell_length_c   10.24198300
_cell_angle_alpha   90.00000000
_cell_angle_beta   90.00000000
_cell_angle_gamma   90.00000000
_symmetry_Int_Tables_number   1
_chemical_formula_structural   BaAl2Au5
_chemical_formula_sum   'Ba4 Al8 Au20'
_cell_volume   678.26803420
_cell_formula_units_Z   4
loop_
 _symmetry_equiv_pos_site_id
 _symmetry_equiv_pos_as_xyz
  1  'x, y, z'
loop_
 _atom_site_type_symbol
 _atom_site_label
 _atom_site_symmetry_multiplicity
 _atom_site_fract_x
 _atom_site_fract_y
 _atom_site_fract_z
 _atom_site_occupancy
  Ba  Ba0  1  0.250000  0.252276  0.127175  1
  Ba  Ba1  1  0.250000  0.752276  0.372825  1
  Ba  Ba2  1  0.750000  0.747724  0.872825  1
  Ba  Ba3  1  0.750000  0.247724  0.627175  1
  Al  Al4  1  0.250000  0.053160  0.622071  1
  Al  Al5  1  0.250000  0.553160  0.877929  1
  Al  Al6  1  0.750000  0.946840  0.377929  1
  Al  Al7  1  0.750000  0.446840  0.122071  1
  Al  Al8  1  0.250000  0.351087  0.486026  1
  Al  Al9  1  0.250000  0.851087  0.013974  1
  Al  Al10  1  0.750000  0.648913  0.513974  1
  Al  Al11  1  0.750000  0.148913  0.986026  1
  Au  Au12  1  0.054242  0.107400  0.402001  1
  Au  Au13  1  0.445758  0.607400  0.097999  1
  Au  Au14  1  0.554242  0.892600  0.597999  1
  Au  Au15  1  0.945758  0.392600  0.902001  1
  Au  Au16  1  0.945758  0.892600  0.597999  1
  Au  Au17  1  0.554242  0.392600  0.902001  1
  Au  Au18  1  0.445758  0.107400  0.402001  1
  Au  Au19  1  0.054242  0.607400  0.097999  1
  Au  Au20  1  0.038951  0.059918  0.865311  1
  Au  Au21  1  0.461049  0.559918  0.634689  1
  Au  Au22  1  0.538951  0.940082  0.134689  1
  Au  Au23  1  0.961049  0.440082  0.365311  1
  Au  Au24  1  0.961049  0.940082  0.134689  1
  Au  Au25  1  0.538951  0.440082  0.365311  1
  Au  Au26  1  0.461049  0.059918  0.865311  1
  Au  Au27  1  0.038951  0.559918  0.634689  1
  Au  Au28  1  0.250000  0.303480  0.734057  1
  Au  Au29  1  0.250000  0.803480  0.765943  1
  Au  Au30  1  0.750000  0.696520  0.265943  1
  Au  Au31  1  0.750000  0.196520  0.234057  1
