# generated using pymatgen
data_TbCdNiPt3
_symmetry_space_group_name_H-M   'P 1'
_cell_length_a   5.19761743
_cell_length_b   5.19761707
_cell_length_c   5.19761710
_cell_angle_alpha   62.85175397
_cell_angle_beta   62.85175873
_cell_angle_gamma   62.85175742
_symmetry_Int_Tables_number   1
_chemical_formula_structural   TbCdNiPt3
_chemical_formula_sum   'Tb1 Cd1 Ni1 Pt3'
_cell_volume   105.58142890
_cell_formula_units_Z   1
loop_
 _symmetry_equiv_pos_site_id
 _symmetry_equiv_pos_as_xyz
  1  'x, y, z'
loop_
 _atom_site_type_symbol
 _atom_site_label
 _atom_site_symmetry_multiplicity
 _atom_site_fract_x
 _atom_site_fract_y
 _atom_site_fract_z
 _atom_site_occupancy
  Tb  Tb0  1  0.250130  0.250130  0.250130  1
  Cd  Cd1  1  0.997571  0.997571  0.997571  1
  Ni  Ni2  1  0.626081  0.626081  0.626081  1
  Pt  Pt3  1  0.626202  0.626202  0.123814  1
  Pt  Pt4  1  0.626202  0.123814  0.626202  1
  Pt  Pt5  1  0.123814  0.626202  0.626202  1
