# generated using pymatgen
data_GdMg3P6N13
_symmetry_space_group_name_H-M   'P 1'
_cell_length_a   7.14786127
_cell_length_b   7.14786247
_cell_length_c   7.14786231
_cell_angle_alpha   109.24903210
_cell_angle_beta   109.24903203
_cell_angle_gamma   109.24904113
_symmetry_Int_Tables_number   1
_chemical_formula_structural   GdMg3P6N13
_chemical_formula_sum   'Gd1 Mg3 P6 N13'
_cell_volume   283.41864779
_cell_formula_units_Z   1
loop_
 _symmetry_equiv_pos_site_id
 _symmetry_equiv_pos_as_xyz
  1  'x, y, z'
loop_
 _atom_site_type_symbol
 _atom_site_label
 _atom_site_symmetry_multiplicity
 _atom_site_fract_x
 _atom_site_fract_y
 _atom_site_fract_z
 _atom_site_occupancy
  Gd  Gd0  1  0.282384  0.282384  0.282384  1
  Mg  Mg1  1  0.989745  0.692340  0.989745  1
  Mg  Mg2  1  0.692340  0.989745  0.989745  1
  Mg  Mg3  1  0.989745  0.989745  0.692340  1
  P  P4  1  0.505126  0.252728  0.757876  1
  P  P5  1  0.505126  0.757876  0.252728  1
  P  P6  1  0.757876  0.252728  0.505126  1
  P  P7  1  0.252728  0.505126  0.757876  1
  P  P8  1  0.757876  0.505126  0.252728  1
  P  P9  1  0.252728  0.757876  0.505126  1
  N  N10  1  0.978378  0.978378  0.978378  1
  N  N11  1  0.002161  0.733826  0.447665  1
  N  N12  1  0.272654  0.717081  0.272654  1
  N  N13  1  0.281487  0.562385  0.562385  1
  N  N14  1  0.562385  0.562385  0.281487  1
  N  N15  1  0.562385  0.281487  0.562385  1
  N  N16  1  0.733826  0.002161  0.447665  1
  N  N17  1  0.447665  0.002161  0.733826  1
  N  N18  1  0.733826  0.447665  0.002161  1
  N  N19  1  0.272654  0.272654  0.717081  1
  N  N20  1  0.717081  0.272654  0.272654  1
  N  N21  1  0.002161  0.447665  0.733826  1
  N  N22  1  0.447665  0.733826  0.002161  1
