# generated using pymatgen
data_Th(FeAs3)4
_symmetry_space_group_name_H-M   'P 1'
_cell_length_a   7.22510237
_cell_length_b   7.22510276
_cell_length_c   7.22510300
_cell_angle_alpha   109.47121570
_cell_angle_beta   109.47121680
_cell_angle_gamma   109.47122337
_symmetry_Int_Tables_number   1
_chemical_formula_structural   Th(FeAs3)4
_chemical_formula_sum   'Th1 Fe4 As12'
_cell_volume   290.34223612
_cell_formula_units_Z   1
loop_
 _symmetry_equiv_pos_site_id
 _symmetry_equiv_pos_as_xyz
  1  'x, y, z'
loop_
 _atom_site_type_symbol
 _atom_site_label
 _atom_site_symmetry_multiplicity
 _atom_site_fract_x
 _atom_site_fract_y
 _atom_site_fract_z
 _atom_site_occupancy
  Th  Th0  1  0.000000  0.000000  0.000000  1
  Fe  Fe1  1  0.500000  0.500000  0.500000  1
  Fe  Fe2  1  0.500000  0.000000  0.000000  1
  Fe  Fe3  1  0.000000  0.500000  0.000000  1
  Fe  Fe4  1  0.000000  0.000000  0.500000  1
  As  As5  1  0.843497  0.657782  0.501277  1
  As  As6  1  0.156503  0.342218  0.498723  1
  As  As7  1  0.156503  0.657782  0.814285  1
  As  As8  1  0.843497  0.342218  0.185715  1
  As  As9  1  0.657782  0.501277  0.843497  1
  As  As10  1  0.342218  0.498723  0.156503  1
  As  As11  1  0.657782  0.814285  0.156503  1
  As  As12  1  0.342218  0.185715  0.843497  1
  As  As13  1  0.501277  0.843497  0.657782  1
  As  As14  1  0.498723  0.156503  0.342218  1
  As  As15  1  0.814285  0.156503  0.657782  1
  As  As16  1  0.185715  0.843497  0.342218  1
