# generated using pymatgen
data_Sm8Lu12Si15Sb
_symmetry_space_group_name_H-M   'P 1'
_cell_length_a   7.46205748
_cell_length_b   7.66788384
_cell_length_c   14.54213743
_cell_angle_alpha   90.06997218
_cell_angle_beta   87.55986711
_cell_angle_gamma   90.11950289
_symmetry_Int_Tables_number   1
_chemical_formula_structural   Sm8Lu12Si15Sb
_chemical_formula_sum   'Sm8 Lu12 Si15 Sb1'
_cell_volume   831.31795871
_cell_formula_units_Z   1
loop_
 _symmetry_equiv_pos_site_id
 _symmetry_equiv_pos_as_xyz
  1  'x, y, z'
loop_
 _atom_site_type_symbol
 _atom_site_label
 _atom_site_symmetry_multiplicity
 _atom_site_fract_x
 _atom_site_fract_y
 _atom_site_fract_z
 _atom_site_occupancy
  Sm  Sm0  1  0.017412  0.179049  0.098951  1
  Sm  Sm1  1  0.982831  0.822694  0.901121  1
  Sm  Sm2  1  0.483543  0.677763  0.901492  1
  Sm  Sm3  1  0.998650  0.826250  0.599452  1
  Sm  Sm4  1  0.517749  0.321925  0.099683  1
  Sm  Sm5  1  0.998538  0.174813  0.399722  1
  Sm  Sm6  1  0.507099  0.317269  0.398428  1
  Sm  Sm7  1  0.509932  0.683893  0.601245  1
  Lu  Lu8  1  0.167332  0.503382  0.752558  1
  Lu  Lu9  1  0.831431  0.496355  0.253276  1
  Lu  Lu10  1  0.331297  0.005585  0.252428  1
  Lu  Lu11  1  0.670923  0.995220  0.749210  1
  Lu  Lu12  1  0.352452  0.155622  0.626098  1
  Lu  Lu13  1  0.652321  0.831057  0.377027  1
  Lu  Lu14  1  0.149115  0.678334  0.372388  1
  Lu  Lu15  1  0.671358  0.823032  0.122623  1
  Lu  Lu16  1  0.835043  0.330265  0.623590  1
  Lu  Lu17  1  0.327109  0.175451  0.876598  1
  Lu  Lu18  1  0.827361  0.323367  0.876603  1
  Lu  Lu19  1  0.171861  0.677286  0.123310  1
  Si  Si20  1  0.040526  0.118811  0.751294  1
  Si  Si21  1  0.956590  0.886014  0.246420  1
  Si  Si22  1  0.457750  0.615746  0.247687  1
  Si  Si23  1  0.538727  0.384149  0.752453  1
  Si  Si24  1  0.291164  0.868782  0.753081  1
  Si  Si25  1  0.711526  0.125236  0.246915  1
  Si  Si26  1  0.210806  0.375329  0.248103  1
  Si  Si27  1  0.792318  0.627661  0.752176  1
  Si  Si28  1  0.806058  0.538965  0.456472  1
  Si  Si29  1  0.312883  0.963249  0.457283  1
  Si  Si30  1  0.850508  0.532122  0.040065  1
  Si  Si31  1  0.688679  0.036883  0.542281  1
  Si  Si32  1  0.148374  0.468395  0.960215  1
  Si  Si33  1  0.648439  0.031850  0.959643  1
  Si  Si34  1  0.350358  0.969494  0.040835  1
  Sb  Sb35  1  0.191935  0.458705  0.539275  1
