# generated using pymatgen
data_Dy9Ho5Tm2(In3Co)2
_symmetry_space_group_name_H-M   'P 1'
_cell_length_a   10.30393700
_cell_length_b   10.30583711
_cell_length_c   7.01770040
_cell_angle_alpha   90.02233968
_cell_angle_beta   90.00000000
_cell_angle_gamma   119.99389158
_symmetry_Int_Tables_number   1
_chemical_formula_structural   Dy9Ho5Tm2(In3Co)2
_chemical_formula_sum   'Dy9 Ho5 Tm2 In6 Co2'
_cell_volume   645.41433681
_cell_formula_units_Z   1
loop_
 _symmetry_equiv_pos_site_id
 _symmetry_equiv_pos_as_xyz
  1  'x, y, z'
loop_
 _atom_site_type_symbol
 _atom_site_label
 _atom_site_symmetry_multiplicity
 _atom_site_fract_x
 _atom_site_fract_y
 _atom_site_fract_z
 _atom_site_occupancy
  Dy  Dy0  1  0.666880  0.333761  0.321948  1
  Dy  Dy1  1  0.464425  0.536416  0.211883  1
  Dy  Dy2  1  0.071989  0.536416  0.211883  1
  Dy  Dy3  1  0.463607  0.927213  0.211814  1
  Dy  Dy4  1  0.536348  0.464751  0.713648  1
  Dy  Dy5  1  0.928403  0.464751  0.713648  1
  Dy  Dy6  1  0.535900  0.071799  0.713191  1
  Dy  Dy7  1  0.999827  0.999653  0.226036  1
  Dy  Dy8  1  0.999584  0.999168  0.725917  1
  Ho  Ho9  1  0.178603  0.821386  0.508061  1
  Ho  Ho10  1  0.642783  0.821386  0.508061  1
  Ho  Ho11  1  0.178588  0.357178  0.507573  1
  Ho  Ho12  1  0.822128  0.177904  0.007154  1
  Ho  Ho13  1  0.355776  0.177904  0.007154  1
  Tm  Tm14  1  0.821596  0.643193  0.008002  1
  Tm  Tm15  1  0.333481  0.666963  0.818879  1
  In  In16  1  0.162258  0.835747  0.963128  1
  In  In17  1  0.673490  0.835747  0.963128  1
  In  In18  1  0.163839  0.327677  0.962793  1
  In  In19  1  0.837409  0.162511  0.464982  1
  In  In20  1  0.325101  0.162511  0.464982  1
  In  In21  1  0.837383  0.674768  0.463385  1
  Co  Co22  1  0.333326  0.666652  0.437820  1
  Co  Co23  1  0.667273  0.334545  0.939768  1
