# generated using pymatgen
data_SmYCo3P7Ru9
_symmetry_space_group_name_H-M   'P 1'
_cell_length_a   9.35047800
_cell_length_b   9.35047795
_cell_length_c   3.84616300
_cell_angle_alpha   90.00000000
_cell_angle_beta   90.00000000
_cell_angle_gamma   120.00000537
_symmetry_Int_Tables_number   1
_chemical_formula_structural   SmYCo3P7Ru9
_chemical_formula_sum   'Sm1 Y1 Co3 P7 Ru9'
_cell_volume   291.22316455
_cell_formula_units_Z   1
loop_
 _symmetry_equiv_pos_site_id
 _symmetry_equiv_pos_as_xyz
  1  'x, y, z'
loop_
 _atom_site_type_symbol
 _atom_site_label
 _atom_site_symmetry_multiplicity
 _atom_site_fract_x
 _atom_site_fract_y
 _atom_site_fract_z
 _atom_site_occupancy
  Sm  Sm0  1  0.000000  0.000000  0.000000  1
  Y  Y1  1  0.333333  0.666667  0.500000  1
  Co  Co2  1  0.825005  0.602188  0.000000  1
  Co  Co3  1  0.397812  0.222817  0.000000  1
  Co  Co4  1  0.777183  0.174995  0.000000  1
  P  P5  1  0.780636  0.731631  0.500000  1
  P  P6  1  0.268369  0.049006  0.500000  1
  P  P7  1  0.950994  0.219364  0.500000  1
  P  P8  1  0.666667  0.333333  0.000000  1
  P  P9  1  0.078767  0.636351  0.000000  1
  P  P10  1  0.363649  0.442416  0.000000  1
  P  P11  1  0.557584  0.921233  0.000000  1
  Ru  Ru12  1  0.090577  0.395172  0.000000  1
  Ru  Ru13  1  0.604828  0.695405  0.000000  1
  Ru  Ru14  1  0.304595  0.909423  0.000000  1
  Ru  Ru15  1  0.050369  0.767298  0.500000  1
  Ru  Ru16  1  0.232702  0.283070  0.500000  1
  Ru  Ru17  1  0.716930  0.949631  0.500000  1
  Ru  Ru18  1  0.871329  0.418311  0.500000  1
  Ru  Ru19  1  0.581689  0.453017  0.500000  1
  Ru  Ru20  1  0.546983  0.128671  0.500000  1
