# generated using pymatgen
data_Zr3Zn11Au
_symmetry_space_group_name_H-M   'P 1'
_cell_length_a   8.85246396
_cell_length_b   8.85246285
_cell_length_c   8.88161400
_cell_angle_alpha   59.89101604
_cell_angle_beta   59.89102021
_cell_angle_gamma   60.19381912
_symmetry_Int_Tables_number   1
_chemical_formula_structural   Zr3Zn11Au
_chemical_formula_sum   'Zr6 Zn22 Au2'
_cell_volume   492.05971831
_cell_formula_units_Z   2
loop_
 _symmetry_equiv_pos_site_id
 _symmetry_equiv_pos_as_xyz
  1  'x, y, z'
loop_
 _atom_site_type_symbol
 _atom_site_label
 _atom_site_symmetry_multiplicity
 _atom_site_fract_x
 _atom_site_fract_y
 _atom_site_fract_z
 _atom_site_occupancy
  Zr  Zr0  1  0.717311  0.282689  0.277535  1
  Zr  Zr1  1  0.282689  0.717311  0.722465  1
  Zr  Zr2  1  0.282689  0.717311  0.277535  1
  Zr  Zr3  1  0.717311  0.282689  0.722465  1
  Zr  Zr4  1  0.276583  0.276583  0.723417  1
  Zr  Zr5  1  0.723417  0.723417  0.276583  1
  Zn  Zn6  1  0.126827  0.126827  0.127841  1
  Zn  Zn7  1  0.873173  0.873173  0.872159  1
  Zn  Zn8  1  0.126827  0.126827  0.618508  1
  Zn  Zn9  1  0.128911  0.618076  0.126507  1
  Zn  Zn10  1  0.873173  0.873173  0.381492  1
  Zn  Zn11  1  0.871089  0.381924  0.873493  1
  Zn  Zn12  1  0.618076  0.128911  0.126507  1
  Zn  Zn13  1  0.381924  0.871089  0.873493  1
  Zn  Zn14  1  0.500000  0.000000  0.000000  1
  Zn  Zn15  1  0.000000  0.500000  0.500000  1
  Zn  Zn16  1  0.000000  0.500000  0.000000  1
  Zn  Zn17  1  0.500000  0.000000  0.500000  1
  Zn  Zn18  1  0.500000  0.500000  0.000000  1
  Zn  Zn19  1  0.344298  0.344298  0.346809  1
  Zn  Zn20  1  0.655702  0.655702  0.653191  1
  Zn  Zn21  1  0.344298  0.344298  0.964596  1
  Zn  Zn22  1  0.353398  0.955634  0.345484  1
  Zn  Zn23  1  0.655702  0.655702  0.035404  1
  Zn  Zn24  1  0.646602  0.044366  0.654516  1
  Zn  Zn25  1  0.955634  0.353398  0.345484  1
  Zn  Zn26  1  0.044366  0.646602  0.654516  1
  Zn  Zn27  1  0.500000  0.500000  0.500000  1
  Au  Au28  1  0.000000  0.000000  0.500000  1
  Au  Au29  1  0.000000  0.000000  0.000000  1
