# generated using pymatgen
data_Nd5In2(HgPd)2
_symmetry_space_group_name_H-M   'P 1'
_cell_length_a   3.79079000
_cell_length_b   8.20319800
_cell_length_c   18.85705200
_cell_angle_alpha   90.00000000
_cell_angle_beta   90.00000000
_cell_angle_gamma   90.00000000
_symmetry_Int_Tables_number   1
_chemical_formula_structural   Nd5In2(HgPd)2
_chemical_formula_sum   'Nd10 In4 Hg4 Pd4'
_cell_volume   586.39022107
_cell_formula_units_Z   2
loop_
 _symmetry_equiv_pos_site_id
 _symmetry_equiv_pos_as_xyz
  1  'x, y, z'
loop_
 _atom_site_type_symbol
 _atom_site_label
 _atom_site_symmetry_multiplicity
 _atom_site_fract_x
 _atom_site_fract_y
 _atom_site_fract_z
 _atom_site_occupancy
  Nd  Nd0  1  0.000000  0.500000  0.500000  1
  Nd  Nd1  1  0.000000  0.000000  0.000000  1
  Nd  Nd2  1  0.000000  0.741118  0.283251  1
  Nd  Nd3  1  0.000000  0.258882  0.716749  1
  Nd  Nd4  1  0.000000  0.758882  0.783251  1
  Nd  Nd5  1  0.000000  0.241118  0.216749  1
  Nd  Nd6  1  0.000000  0.611386  0.082879  1
  Nd  Nd7  1  0.000000  0.388614  0.917121  1
  Nd  Nd8  1  0.000000  0.888614  0.582879  1
  Nd  Nd9  1  0.000000  0.111386  0.417121  1
  In  In10  1  0.500000  0.580055  0.650668  1
  In  In11  1  0.500000  0.419945  0.349332  1
  In  In12  1  0.500000  0.919945  0.150668  1
  In  In13  1  0.500000  0.080055  0.849332  1
  Hg  Hg14  1  0.500000  0.714615  0.930735  1
  Hg  Hg15  1  0.500000  0.285385  0.069265  1
  Hg  Hg16  1  0.500000  0.785385  0.430735  1
  Hg  Hg17  1  0.500000  0.214615  0.569265  1
  Pd  Pd18  1  0.500000  0.528127  0.197785  1
  Pd  Pd19  1  0.500000  0.471873  0.802215  1
  Pd  Pd20  1  0.500000  0.971873  0.697785  1
  Pd  Pd21  1  0.500000  0.028127  0.302215  1
