# generated using pymatgen
data_Rb4Ge2Au7
_symmetry_space_group_name_H-M   'P 1'
_cell_length_a   10.34849361
_cell_length_b   10.34849402
_cell_length_c   10.34849416
_cell_angle_alpha   37.78081966
_cell_angle_beta   37.78081753
_cell_angle_gamma   37.78081979
_symmetry_Int_Tables_number   1
_chemical_formula_structural   Rb4Ge2Au7
_chemical_formula_sum   'Rb4 Ge2 Au7'
_cell_volume   373.22932000
_cell_formula_units_Z   1
loop_
 _symmetry_equiv_pos_site_id
 _symmetry_equiv_pos_as_xyz
  1  'x, y, z'
loop_
 _atom_site_type_symbol
 _atom_site_label
 _atom_site_symmetry_multiplicity
 _atom_site_fract_x
 _atom_site_fract_y
 _atom_site_fract_z
 _atom_site_occupancy
  Rb  Rb0  1  0.683004  0.683004  0.683004  1
  Rb  Rb1  1  0.316996  0.316996  0.316996  1
  Rb  Rb2  1  0.810662  0.810662  0.810662  1
  Rb  Rb3  1  0.189338  0.189338  0.189338  1
  Ge  Ge4  1  0.546100  0.546100  0.546100  1
  Ge  Ge5  1  0.453900  0.453900  0.453900  1
  Au  Au6  1  0.000000  0.000000  0.000000  1
  Au  Au7  1  0.222616  0.222616  0.796803  1
  Au  Au8  1  0.796803  0.222616  0.222616  1
  Au  Au9  1  0.222616  0.796803  0.222616  1
  Au  Au10  1  0.777384  0.203197  0.777384  1
  Au  Au11  1  0.777384  0.777384  0.203197  1
  Au  Au12  1  0.203197  0.777384  0.777384  1
