# generated using pymatgen
data_Yb4CdHgN2
_symmetry_space_group_name_H-M   'P 1'
_cell_length_a   10.22017355
_cell_length_b   10.22017343
_cell_length_c   5.02976300
_cell_angle_alpha   90.00000000
_cell_angle_beta   90.00000000
_cell_angle_gamma   161.08167857
_symmetry_Int_Tables_number   1
_chemical_formula_structural   Yb4CdHgN2
_chemical_formula_sum   'Yb4 Cd1 Hg1 N2'
_cell_volume   170.33494958
_cell_formula_units_Z   1
loop_
 _symmetry_equiv_pos_site_id
 _symmetry_equiv_pos_as_xyz
  1  'x, y, z'
loop_
 _atom_site_type_symbol
 _atom_site_label
 _atom_site_symmetry_multiplicity
 _atom_site_fract_x
 _atom_site_fract_y
 _atom_site_fract_z
 _atom_site_occupancy
  Yb  Yb0  1  0.281228  0.718771  0.249999  1
  Yb  Yb1  1  0.121122  0.878877  0.249999  1
  Yb  Yb2  1  0.877756  0.122243  0.750000  1
  Yb  Yb3  1  0.717870  0.282129  0.750000  1
  Cd  Cd4  1  0.458025  0.541974  0.249999  1
  Hg  Hg5  1  0.544687  0.455312  0.750000  1
  N  N6  1  0.699914  0.300085  0.249999  1
  N  N7  1  0.299392  0.700607  0.750000  1
