# generated using pymatgen
data_Na3P4Ir3Rh
_symmetry_space_group_name_H-M   'P 1'
_cell_length_a   6.33155488
_cell_length_b   6.31672226
_cell_length_c   6.33155417
_cell_angle_alpha   109.42377861
_cell_angle_beta   109.51863688
_cell_angle_gamma   109.42376115
_symmetry_Int_Tables_number   1
_chemical_formula_structural   Na3P4Ir3Rh
_chemical_formula_sum   'Na3 P4 Ir3 Rh1'
_cell_volume   195.04936687
_cell_formula_units_Z   1
loop_
 _symmetry_equiv_pos_site_id
 _symmetry_equiv_pos_as_xyz
  1  'x, y, z'
loop_
 _atom_site_type_symbol
 _atom_site_label
 _atom_site_symmetry_multiplicity
 _atom_site_fract_x
 _atom_site_fract_y
 _atom_site_fract_z
 _atom_site_occupancy
  Na  Na0  1  0.498880  0.998973  0.498880  1
  Na  Na1  1  0.501120  0.500093  0.000000  1
  Na  Na2  1  0.000000  0.500093  0.501120  1
  P  P3  1  0.000000  0.361367  0.000000  1
  P  P4  1  0.634529  0.636581  0.634529  1
  P  P5  1  0.000000  0.002052  0.365471  1
  P  P6  1  0.365471  0.002052  0.000000  1
  Ir  Ir7  1  0.000000  0.998816  0.716989  1
  Ir  Ir8  1  0.283011  0.281827  0.283011  1
  Ir  Ir9  1  0.716989  0.998816  0.000000  1
  Rh  Rh10  1  0.000000  0.719328  0.000000  1
