# generated using pymatgen
data_Zr3Ta3C5
_symmetry_space_group_name_H-M   'P 1'
_cell_length_a   5.61438489
_cell_length_b   5.61438510
_cell_length_c   5.64241891
_cell_angle_alpha   99.68741812
_cell_angle_beta   99.68742098
_cell_angle_gamma   119.65371651
_symmetry_Int_Tables_number   1
_chemical_formula_structural   Zr3Ta3C5
_chemical_formula_sum   'Zr3 Ta3 C5'
_cell_volume   145.64320628
_cell_formula_units_Z   1
loop_
 _symmetry_equiv_pos_site_id
 _symmetry_equiv_pos_as_xyz
  1  'x, y, z'
loop_
 _atom_site_type_symbol
 _atom_site_label
 _atom_site_symmetry_multiplicity
 _atom_site_fract_x
 _atom_site_fract_y
 _atom_site_fract_z
 _atom_site_occupancy
  Zr  Zr0  1  0.428430  0.083399  0.248245  1
  Zr  Zr1  1  0.083399  0.428430  0.248245  1
  Zr  Zr2  1  0.742258  0.742258  0.265069  1
  Ta  Ta3  1  0.269883  0.269883  0.735769  1
  Ta  Ta4  1  0.914009  0.556968  0.745212  1
  Ta  Ta5  1  0.556968  0.914009  0.745212  1
  C  C6  1  0.661837  0.328631  0.984375  1
  C  C7  1  0.328631  0.661837  0.984375  1
  C  C8  1  0.836599  0.172211  0.514510  1
  C  C9  1  0.505781  0.505781  0.514477  1
  C  C10  1  0.172211  0.836599  0.514510  1
