# generated using pymatgen
data_Er15Pa(CdCo)4
_symmetry_space_group_name_H-M   'P 1'
_cell_length_a   9.36881356
_cell_length_b   9.47706707
_cell_length_c   9.36881400
_cell_angle_alpha   60.37715074
_cell_angle_beta   60.00000552
_cell_angle_gamma   60.37714692
_symmetry_Int_Tables_number   1
_chemical_formula_structural   Er15Pa(CdCo)4
_chemical_formula_sum   'Er15 Pa1 Cd4 Co4'
_cell_volume   591.53513904
_cell_formula_units_Z   1
loop_
 _symmetry_equiv_pos_site_id
 _symmetry_equiv_pos_as_xyz
  1  'x, y, z'
loop_
 _atom_site_type_symbol
 _atom_site_label
 _atom_site_symmetry_multiplicity
 _atom_site_fract_x
 _atom_site_fract_y
 _atom_site_fract_z
 _atom_site_occupancy
  Er  Er0  1  0.687124  0.314678  0.687124  1
  Er  Er1  1  0.687124  0.314678  0.311072  1
  Er  Er2  1  0.938594  0.562364  0.560448  1
  Er  Er3  1  0.542189  0.149454  0.154178  1
  Er  Er4  1  0.154178  0.149454  0.542189  1
  Er  Er5  1  0.937270  0.934772  0.563979  1
  Er  Er6  1  0.310663  0.691185  0.310663  1
  Er  Er7  1  0.563979  0.934772  0.937270  1
  Er  Er8  1  0.563979  0.934772  0.563979  1
  Er  Er9  1  0.687489  0.691185  0.310663  1
  Er  Er10  1  0.560448  0.562364  0.938594  1
  Er  Er11  1  0.938594  0.562364  0.938594  1
  Er  Er12  1  0.310663  0.691185  0.687489  1
  Er  Er13  1  0.154178  0.149454  0.154178  1
  Er  Er14  1  0.311072  0.314678  0.687124  1
  Pa  Pa15  1  0.164432  0.506704  0.164432  1
  Cd  Cd16  1  0.919657  0.241030  0.919657  1
  Cd  Cd17  1  0.920453  0.916032  0.920453  1
  Cd  Cd18  1  0.920453  0.916032  0.243061  1
  Cd  Cd19  1  0.243061  0.916032  0.920453  1
  Co  Co20  1  0.344782  0.375122  0.935315  1
  Co  Co21  1  0.359518  0.921446  0.359518  1
  Co  Co22  1  0.935315  0.375122  0.344782  1
  Co  Co23  1  0.344782  0.375122  0.344782  1
