# generated using pymatgen
data_La4Ho6RuRh3
_symmetry_space_group_name_H-M   'P 1'
_cell_length_a   6.52207273
_cell_length_b   7.21866265
_cell_length_c   8.90732090
_cell_angle_alpha   96.50360153
_cell_angle_beta   111.59742599
_cell_angle_gamma   90.05194381
_symmetry_Int_Tables_number   1
_chemical_formula_structural   La4Ho6RuRh3
_chemical_formula_sum   'La4 Ho6 Ru1 Rh3'
_cell_volume   386.99890952
_cell_formula_units_Z   1
loop_
 _symmetry_equiv_pos_site_id
 _symmetry_equiv_pos_as_xyz
  1  'x, y, z'
loop_
 _atom_site_type_symbol
 _atom_site_label
 _atom_site_symmetry_multiplicity
 _atom_site_fract_x
 _atom_site_fract_y
 _atom_site_fract_z
 _atom_site_occupancy
  La  La0  1  0.984747  0.916846  0.197295  1
  La  La1  1  0.784453  0.584113  0.803882  1
  La  La2  1  0.020305  0.084064  0.805172  1
  La  La3  1  0.220762  0.409525  0.197903  1
  Ho  Ho4  1  0.636826  0.814682  0.428656  1
  Ho  Ho5  1  0.205690  0.685335  0.568933  1
  Ho  Ho6  1  0.364215  0.185640  0.568183  1
  Ho  Ho7  1  0.792483  0.313969  0.430347  1
  Ho  Ho8  1  0.427599  0.751934  0.001987  1
  Ho  Ho9  1  0.572918  0.249446  0.999896  1
  Ru  Ru10  1  0.399608  0.080893  0.224140  1
  Rh  Rh11  1  0.817483  0.577648  0.225784  1
  Rh  Rh12  1  0.590490  0.922193  0.775078  1
  Rh  Rh13  1  0.182421  0.423713  0.772745  1
