# generated using pymatgen
data_Tb5Dy5IrPt5
_symmetry_space_group_name_H-M   'P 1'
_cell_length_a   11.06933400
_cell_length_b   11.06628000
_cell_length_c   6.43272200
_cell_angle_alpha   90.00000000
_cell_angle_beta   89.99952141
_cell_angle_gamma   90.00000000
_symmetry_Int_Tables_number   1
_chemical_formula_structural   Tb5Dy5IrPt5
_chemical_formula_sum   'Tb10 Dy10 Ir2 Pt10'
_cell_volume   787.98496206
_cell_formula_units_Z   2
loop_
 _symmetry_equiv_pos_site_id
 _symmetry_equiv_pos_as_xyz
  1  'x, y, z'
loop_
 _atom_site_type_symbol
 _atom_site_label
 _atom_site_symmetry_multiplicity
 _atom_site_fract_x
 _atom_site_fract_y
 _atom_site_fract_z
 _atom_site_occupancy
  Tb  Tb0  1  0.292310  0.088696  0.376899  1
  Tb  Tb1  1  0.292310  0.911304  0.876899  1
  Tb  Tb2  1  0.707680  0.088746  0.876999  1
  Tb  Tb3  1  0.707680  0.911254  0.376999  1
  Tb  Tb4  1  0.588741  0.792356  0.876980  1
  Tb  Tb5  1  0.588741  0.207644  0.376980  1
  Tb  Tb6  1  0.411358  0.792394  0.377004  1
  Tb  Tb7  1  0.411358  0.207606  0.877004  1
  Tb  Tb8  1  0.205017  0.412016  0.623535  1
  Tb  Tb9  1  0.205017  0.587984  0.123535  1
  Dy  Dy10  1  0.795246  0.412139  0.123230  1
  Dy  Dy11  1  0.795246  0.587861  0.623230  1
  Dy  Dy12  1  0.912038  0.704773  0.123259  1
  Dy  Dy13  1  0.912038  0.295227  0.623259  1
  Dy  Dy14  1  0.087674  0.704944  0.623317  1
  Dy  Dy15  1  0.087674  0.295056  0.123317  1
  Dy  Dy16  1  0.999989  0.000021  0.500627  1
  Dy  Dy17  1  0.999989  0.999979  0.000627  1
  Dy  Dy18  1  0.500157  0.499969  0.000635  1
  Dy  Dy19  1  0.500157  0.500031  0.500635  1
  Ir  Ir20  1  0.999611  0.499964  0.878027  1
  Ir  Ir21  1  0.999611  0.500036  0.378027  1
  Pt  Pt22  1  0.846431  0.153088  0.250159  1
  Pt  Pt23  1  0.846431  0.846912  0.750159  1
  Pt  Pt24  1  0.153522  0.152850  0.750287  1
  Pt  Pt25  1  0.153522  0.847150  0.250287  1
  Pt  Pt26  1  0.653061  0.346414  0.750186  1
  Pt  Pt27  1  0.653061  0.653586  0.250186  1
  Pt  Pt28  1  0.347146  0.346188  0.249856  1
  Pt  Pt29  1  0.347146  0.653812  0.749856  1
  Pt  Pt30  1  0.500019  0.000002  0.119002  1
  Pt  Pt31  1  0.500019  0.999998  0.619002  1
