# generated using pymatgen
data_Tm4Al4NiRh3
_symmetry_space_group_name_H-M   'P 1'
_cell_length_a   4.18590700
_cell_length_b   6.76004450
_cell_length_c   7.86253008
_cell_angle_alpha   90.19224069
_cell_angle_beta   90.00000000
_cell_angle_gamma   90.00000000
_symmetry_Int_Tables_number   1
_chemical_formula_structural   Tm4Al4NiRh3
_chemical_formula_sum   'Tm4 Al4 Ni1 Rh3'
_cell_volume   222.48411339
_cell_formula_units_Z   1
loop_
 _symmetry_equiv_pos_site_id
 _symmetry_equiv_pos_as_xyz
  1  'x, y, z'
loop_
 _atom_site_type_symbol
 _atom_site_label
 _atom_site_symmetry_multiplicity
 _atom_site_fract_x
 _atom_site_fract_y
 _atom_site_fract_z
 _atom_site_occupancy
  Tm  Tm0  1  0.250000  0.963393  0.319523  1
  Tm  Tm1  1  0.750000  0.538264  0.824111  1
  Tm  Tm2  1  0.250000  0.467194  0.177431  1
  Tm  Tm3  1  0.750000  0.034531  0.677266  1
  Al  Al4  1  0.750000  0.638046  0.435984  1
  Al  Al5  1  0.750000  0.131232  0.059643  1
  Al  Al6  1  0.250000  0.363512  0.559025  1
  Al  Al7  1  0.250000  0.860284  0.945436  1
  Ni  Ni8  1  0.750000  0.769092  0.125330  1
  Rh  Rh9  1  0.750000  0.261760  0.375716  1
  Rh  Rh10  1  0.250000  0.236355  0.877909  1
  Rh  Rh11  1  0.250000  0.736335  0.622626  1
