# generated using pymatgen
data_Ce2C2Se
_symmetry_space_group_name_H-M   'P 1'
_cell_length_a   7.32254743
_cell_length_b   7.32254756
_cell_length_c   6.76935004
_cell_angle_alpha   78.66681853
_cell_angle_beta   78.66681814
_cell_angle_gamma   32.87728594
_symmetry_Int_Tables_number   1
_chemical_formula_structural   Ce2C2Se
_chemical_formula_sum   'Ce4 C4 Se2'
_cell_volume   192.85541255
_cell_formula_units_Z   2
loop_
 _symmetry_equiv_pos_site_id
 _symmetry_equiv_pos_as_xyz
  1  'x, y, z'
loop_
 _atom_site_type_symbol
 _atom_site_label
 _atom_site_symmetry_multiplicity
 _atom_site_fract_x
 _atom_site_fract_y
 _atom_site_fract_z
 _atom_site_occupancy
  Ce  Ce0  1  0.847281  0.440316  0.352391  1
  Ce  Ce1  1  0.559684  0.152719  0.147609  1
  Ce  Ce2  1  0.152719  0.559684  0.647609  1
  Ce  Ce3  1  0.440316  0.847281  0.852391  1
  C  C4  1  0.353541  0.092322  0.470817  1
  C  C5  1  0.907678  0.646459  0.029183  1
  C  C6  1  0.646459  0.907678  0.529183  1
  C  C7  1  0.092322  0.353541  0.970817  1
  Se  Se8  1  0.210380  0.789620  0.250000  1
  Se  Se9  1  0.789620  0.210380  0.750000  1
