# generated using pymatgen
data_ZrSc(VOs)2
_symmetry_space_group_name_H-M   'P 1'
_cell_length_a   5.15664078
_cell_length_b   5.17711158
_cell_length_c   5.17711152
_cell_angle_alpha   62.67710085
_cell_angle_beta   60.13071774
_cell_angle_gamma   60.13070831
_symmetry_Int_Tables_number   1
_chemical_formula_structural   ZrSc(VOs)2
_chemical_formula_sum   'Zr1 Sc1 V2 Os2'
_cell_volume   99.75639712
_cell_formula_units_Z   1
loop_
 _symmetry_equiv_pos_site_id
 _symmetry_equiv_pos_as_xyz
  1  'x, y, z'
loop_
 _atom_site_type_symbol
 _atom_site_label
 _atom_site_symmetry_multiplicity
 _atom_site_fract_x
 _atom_site_fract_y
 _atom_site_fract_z
 _atom_site_occupancy
  Zr  Zr0  1  0.995394  0.004606  0.004606  1
  Sc  Sc1  1  0.252473  0.247527  0.247527  1
  V  V2  1  0.125936  0.624485  0.624485  1
  V  V3  1  0.625095  0.624485  0.624485  1
  Os  Os4  1  0.625551  0.624125  0.124774  1
  Os  Os5  1  0.625551  0.124774  0.624125  1
