# generated using pymatgen
data_Hf16Co3NiIr4
_symmetry_space_group_name_H-M   'P 1'
_cell_length_a   8.59050296
_cell_length_b   8.59050307
_cell_length_c   8.59050331
_cell_angle_alpha   60.12057662
_cell_angle_beta   60.12057681
_cell_angle_gamma   60.12058234
_symmetry_Int_Tables_number   1
_chemical_formula_structural   Hf16Co3NiIr4
_chemical_formula_sum   'Hf16 Co3 Ni1 Ir4'
_cell_volume   449.49571870
_cell_formula_units_Z   1
loop_
 _symmetry_equiv_pos_site_id
 _symmetry_equiv_pos_as_xyz
  1  'x, y, z'
loop_
 _atom_site_type_symbol
 _atom_site_label
 _atom_site_symmetry_multiplicity
 _atom_site_fract_x
 _atom_site_fract_y
 _atom_site_fract_z
 _atom_site_occupancy
  Hf  Hf0  1  0.680525  0.107387  0.107387  1
  Hf  Hf1  1  0.107387  0.680525  0.107387  1
  Hf  Hf2  1  0.107387  0.107387  0.680525  1
  Hf  Hf3  1  0.104736  0.104736  0.104736  1
  Hf  Hf4  1  0.313539  0.313539  0.686901  1
  Hf  Hf5  1  0.686600  0.686600  0.314126  1
  Hf  Hf6  1  0.313539  0.686901  0.313539  1
  Hf  Hf7  1  0.686600  0.314126  0.686600  1
  Hf  Hf8  1  0.686901  0.313539  0.313539  1
  Hf  Hf9  1  0.314126  0.686600  0.686600  1
  Hf  Hf10  1  0.946761  0.946761  0.549945  1
  Hf  Hf11  1  0.555276  0.555276  0.945145  1
  Hf  Hf12  1  0.946761  0.549945  0.946761  1
  Hf  Hf13  1  0.555276  0.945145  0.555276  1
  Hf  Hf14  1  0.549945  0.946761  0.946761  1
  Hf  Hf15  1  0.945145  0.555276  0.555276  1
  Co  Co16  1  0.320728  0.892545  0.892545  1
  Co  Co17  1  0.892545  0.320728  0.892545  1
  Co  Co18  1  0.892545  0.892545  0.320728  1
  Ni  Ni19  1  0.893666  0.893666  0.893666  1
  Ir  Ir20  1  0.996704  0.334222  0.334222  1
  Ir  Ir21  1  0.334222  0.996704  0.334222  1
  Ir  Ir22  1  0.334222  0.334222  0.996704  1
  Ir  Ir23  1  0.334863  0.334863  0.334863  1
