# generated using pymatgen
data_DyTiCoO5
_symmetry_space_group_name_H-M   'P 1'
_cell_length_a   5.72780000
_cell_length_b   7.35250400
_cell_length_c   8.48613200
_cell_angle_alpha   90.00000000
_cell_angle_beta   90.00000000
_cell_angle_gamma   90.00000000
_symmetry_Int_Tables_number   1
_chemical_formula_structural   DyTiCoO5
_chemical_formula_sum   'Dy4 Ti4 Co4 O20'
_cell_volume   357.38218309
_cell_formula_units_Z   4
loop_
 _symmetry_equiv_pos_site_id
 _symmetry_equiv_pos_as_xyz
  1  'x, y, z'
loop_
 _atom_site_type_symbol
 _atom_site_label
 _atom_site_symmetry_multiplicity
 _atom_site_fract_x
 _atom_site_fract_y
 _atom_site_fract_z
 _atom_site_occupancy
  Dy  Dy0  1  0.500000  0.360872  0.328330  1
  Dy  Dy1  1  0.500000  0.639128  0.671670  1
  Dy  Dy2  1  0.500000  0.139128  0.828330  1
  Dy  Dy3  1  0.500000  0.860872  0.171670  1
  Ti  Ti4  1  0.000000  0.120634  0.147132  1
  Ti  Ti5  1  0.000000  0.879366  0.852868  1
  Ti  Ti6  1  0.000000  0.379366  0.647132  1
  Ti  Ti7  1  0.000000  0.620634  0.352868  1
  Co  Co8  1  0.253710  0.000000  0.500000  1
  Co  Co9  1  0.746290  0.000000  0.500000  1
  Co  Co10  1  0.746290  0.500000  0.000000  1
  Co  Co11  1  0.253710  0.500000  0.000000  1
  O  O12  1  0.224407  0.000000  0.000000  1
  O  O13  1  0.775593  0.000000  0.000000  1
  O  O14  1  0.775593  0.500000  0.500000  1
  O  O15  1  0.224407  0.500000  0.500000  1
  O  O16  1  0.000000  0.347505  0.071789  1
  O  O17  1  0.000000  0.652495  0.928211  1
  O  O18  1  0.000000  0.152495  0.571789  1
  O  O19  1  0.000000  0.847505  0.428211  1
  O  O20  1  0.253738  0.107762  0.292185  1
  O  O21  1  0.746262  0.892238  0.707815  1
  O  O22  1  0.253738  0.892238  0.707815  1
  O  O23  1  0.746262  0.392238  0.792185  1
  O  O24  1  0.746262  0.107762  0.292185  1
  O  O25  1  0.253738  0.607762  0.207815  1
  O  O26  1  0.746262  0.607762  0.207815  1
  O  O27  1  0.253738  0.392238  0.792185  1
  O  O28  1  0.500000  0.339071  0.057169  1
  O  O29  1  0.500000  0.660929  0.942831  1
  O  O30  1  0.500000  0.160929  0.557169  1
  O  O31  1  0.500000  0.839071  0.442831  1
