# generated using pymatgen
data_YAlCo3C
_symmetry_space_group_name_H-M   'P 1'
_cell_length_a   5.14133600
_cell_length_b   5.14133636
_cell_length_c   6.57733400
_cell_angle_alpha   90.00000000
_cell_angle_beta   90.00000000
_cell_angle_gamma   119.99999769
_symmetry_Int_Tables_number   1
_chemical_formula_structural   YAlCo3C
_chemical_formula_sum   'Y2 Al2 Co6 C2'
_cell_volume   150.56795171
_cell_formula_units_Z   2
loop_
 _symmetry_equiv_pos_site_id
 _symmetry_equiv_pos_as_xyz
  1  'x, y, z'
loop_
 _atom_site_type_symbol
 _atom_site_label
 _atom_site_symmetry_multiplicity
 _atom_site_fract_x
 _atom_site_fract_y
 _atom_site_fract_z
 _atom_site_occupancy
  Y  Y0  1  0.000000  0.000000  0.500000  1
  Y  Y1  1  0.000000  0.000000  0.000000  1
  Al  Al2  1  0.333333  0.666667  0.000000  1
  Al  Al3  1  0.666667  0.333333  0.000000  1
  Co  Co4  1  0.500000  0.000000  0.305613  1
  Co  Co5  1  0.500000  0.500000  0.305613  1
  Co  Co6  1  0.000000  0.500000  0.305613  1
  Co  Co7  1  0.500000  0.000000  0.694387  1
  Co  Co8  1  0.500000  0.500000  0.694387  1
  Co  Co9  1  0.000000  0.500000  0.694387  1
  C  C10  1  0.666667  0.333333  0.500000  1
  C  C11  1  0.333333  0.666667  0.500000  1
