# generated using pymatgen
data_NdDy4ErTa2O14
_symmetry_space_group_name_H-M   'P 1'
_cell_length_a   6.49501028
_cell_length_b   6.48604161
_cell_length_c   7.53860698
_cell_angle_alpha   90.11650361
_cell_angle_beta   89.86335587
_cell_angle_gamma   108.99398031
_symmetry_Int_Tables_number   1
_chemical_formula_structural   NdDy4ErTa2O14
_chemical_formula_sum   'Nd1 Dy4 Er1 Ta2 O14'
_cell_volume   300.28582420
_cell_formula_units_Z   1
loop_
 _symmetry_equiv_pos_site_id
 _symmetry_equiv_pos_as_xyz
  1  'x, y, z'
loop_
 _atom_site_type_symbol
 _atom_site_label
 _atom_site_symmetry_multiplicity
 _atom_site_fract_x
 _atom_site_fract_y
 _atom_site_fract_z
 _atom_site_occupancy
  Nd  Nd0  1  0.498647  0.498259  0.000640  1
  Dy  Dy1  1  0.536703  0.534341  0.500017  1
  Dy  Dy2  1  0.000966  0.465469  0.744335  1
  Dy  Dy3  1  0.533600  0.001819  0.750815  1
  Dy  Dy4  1  0.464858  0.000536  0.255957  1
  Er  Er5  1  0.002490  0.533611  0.248794  1
  Ta  Ta6  1  0.002860  0.003466  0.499542  1
  Ta  Ta7  1  0.999312  0.999561  0.000628  1
  O  O8  1  0.934183  0.066420  0.750454  1
  O  O9  1  0.065773  0.931529  0.249704  1
  O  O10  1  0.357378  0.640306  0.259356  1
  O  O11  1  0.641711  0.360228  0.741830  1
  O  O12  1  0.368237  0.632883  0.740999  1
  O  O13  1  0.636787  0.369605  0.257906  1
  O  O14  1  0.320739  0.070499  0.969267  1
  O  O15  1  0.673785  0.918865  0.471630  1
  O  O16  1  0.311462  0.056722  0.537367  1
  O  O17  1  0.679902  0.930856  0.035854  1
  O  O18  1  0.048193  0.309672  0.459264  1
  O  O19  1  0.932239  0.680133  0.965005  1
  O  O20  1  0.921150  0.674269  0.527732  1
  O  O21  1  0.069026  0.320949  0.032905  1
