# generated using pymatgen
data_Dy5RhSeO12
_symmetry_space_group_name_H-M   'P 1'
_cell_length_a   6.86131010
_cell_length_b   6.86130903
_cell_length_c   7.20894605
_cell_angle_alpha   74.52413081
_cell_angle_beta   74.52413413
_cell_angle_gamma   50.67630259
_symmetry_Int_Tables_number   1
_chemical_formula_structural   Dy5RhSeO12
_chemical_formula_sum   'Dy5 Rh1 Se1 O12'
_cell_volume   250.83405770
_cell_formula_units_Z   1
loop_
 _symmetry_equiv_pos_site_id
 _symmetry_equiv_pos_as_xyz
  1  'x, y, z'
loop_
 _atom_site_type_symbol
 _atom_site_label
 _atom_site_symmetry_multiplicity
 _atom_site_fract_x
 _atom_site_fract_y
 _atom_site_fract_z
 _atom_site_occupancy
  Dy  Dy0  1  0.312300  0.288118  0.359085  1
  Dy  Dy1  1  0.711882  0.687700  0.640915  1
  Dy  Dy2  1  0.307806  0.303700  0.833939  1
  Dy  Dy3  1  0.696300  0.692194  0.166061  1
  Dy  Dy4  1  0.015044  0.984956  0.500000  1
  Rh  Rh5  1  0.742858  0.257142  0.000000  1
  Se  Se6  1  0.235362  0.764638  0.000000  1
  O  O7  1  0.906477  0.440067  0.916802  1
  O  O8  1  0.409170  0.898257  0.919413  1
  O  O9  1  0.101743  0.590830  0.080587  1
  O  O10  1  0.559933  0.093523  0.083198  1
  O  O11  1  0.106702  0.593211  0.568501  1
  O  O12  1  0.605195  0.088197  0.577563  1
  O  O13  1  0.911803  0.394805  0.422437  1
  O  O14  1  0.406789  0.893298  0.431499  1
  O  O15  1  0.012715  0.985813  0.824164  1
  O  O16  1  0.014187  0.987285  0.175836  1
  O  O17  1  0.471539  0.527804  0.821233  1
  O  O18  1  0.472196  0.528461  0.178767  1
