# generated using pymatgen
data_Ho8In3Ni
_symmetry_space_group_name_H-M   'P 1'
_cell_length_a   10.40769300
_cell_length_b   10.40769365
_cell_length_c   6.88528600
_cell_angle_alpha   90.00000000
_cell_angle_beta   90.00000000
_cell_angle_gamma   120.00000110
_symmetry_Int_Tables_number   1
_chemical_formula_structural   Ho8In3Ni
_chemical_formula_sum   'Ho16 In6 Ni2'
_cell_volume   645.89449821
_cell_formula_units_Z   2
loop_
 _symmetry_equiv_pos_site_id
 _symmetry_equiv_pos_as_xyz
  1  'x, y, z'
loop_
 _atom_site_type_symbol
 _atom_site_label
 _atom_site_symmetry_multiplicity
 _atom_site_fract_x
 _atom_site_fract_y
 _atom_site_fract_z
 _atom_site_occupancy
  Ho  Ho0  1  0.532121  0.064243  0.507709  1
  Ho  Ho1  1  0.935757  0.467879  0.507709  1
  Ho  Ho2  1  0.532121  0.467879  0.507709  1
  Ho  Ho3  1  0.467879  0.935757  0.007709  1
  Ho  Ho4  1  0.064243  0.532121  0.007709  1
  Ho  Ho5  1  0.467879  0.532121  0.007709  1
  Ho  Ho6  1  0.177252  0.354504  0.715591  1
  Ho  Ho7  1  0.645496  0.822748  0.715591  1
  Ho  Ho8  1  0.177252  0.822748  0.715591  1
  Ho  Ho9  1  0.822748  0.645496  0.215591  1
  Ho  Ho10  1  0.354504  0.177252  0.215591  1
  Ho  Ho11  1  0.822748  0.177252  0.215591  1
  Ho  Ho12  1  0.666667  0.333333  0.892197  1
  Ho  Ho13  1  0.333333  0.666667  0.392197  1
  Ho  Ho14  1  0.000000  0.000000  0.491079  1
  Ho  Ho15  1  0.000000  0.000000  0.991079  1
  In  In16  1  0.837387  0.674775  0.747759  1
  In  In17  1  0.325225  0.162613  0.747759  1
  In  In18  1  0.837387  0.162613  0.747759  1
  In  In19  1  0.162613  0.325225  0.247759  1
  In  In20  1  0.674775  0.837387  0.247759  1
  In  In21  1  0.162613  0.837387  0.247759  1
  Ni  Ni22  1  0.666667  0.333333  0.282566  1
  Ni  Ni23  1  0.333333  0.666667  0.782566  1
