# generated using pymatgen
data_Hf(SCl6)2
_symmetry_space_group_name_H-M   'P 1'
_cell_length_a   8.56214401
_cell_length_b   8.56214449
_cell_length_c   8.56214412
_cell_angle_alpha   78.39145584
_cell_angle_beta   78.39146021
_cell_angle_gamma   78.39144981
_symmetry_Int_Tables_number   1
_chemical_formula_structural   Hf(SCl6)2
_chemical_formula_sum   'Hf1 S2 Cl12'
_cell_volume   593.76692843
_cell_formula_units_Z   1
loop_
 _symmetry_equiv_pos_site_id
 _symmetry_equiv_pos_as_xyz
  1  'x, y, z'
loop_
 _atom_site_type_symbol
 _atom_site_label
 _atom_site_symmetry_multiplicity
 _atom_site_fract_x
 _atom_site_fract_y
 _atom_site_fract_z
 _atom_site_occupancy
  Hf  Hf0  1  0.000000  0.000000  0.000000  1
  S  S1  1  0.209543  0.209543  0.209543  1
  S  S2  1  0.790457  0.790457  0.790457  1
  Cl  Cl3  1  0.834263  0.834263  0.544265  1
  Cl  Cl4  1  0.869699  0.188928  0.188928  1
  Cl  Cl5  1  0.188928  0.188928  0.869699  1
  Cl  Cl6  1  0.188928  0.869699  0.188928  1
  Cl  Cl7  1  0.811072  0.130301  0.811072  1
  Cl  Cl8  1  0.130301  0.811072  0.811072  1
  Cl  Cl9  1  0.811072  0.811072  0.130301  1
  Cl  Cl10  1  0.455735  0.165737  0.165737  1
  Cl  Cl11  1  0.165737  0.165737  0.455735  1
  Cl  Cl12  1  0.165737  0.455735  0.165737  1
  Cl  Cl13  1  0.834263  0.544265  0.834263  1
  Cl  Cl14  1  0.544265  0.834263  0.834263  1
