# generated using pymatgen
data_TmZn3CdRu
_symmetry_space_group_name_H-M   'P 1'
_cell_length_a   5.26616062
_cell_length_b   5.26616013
_cell_length_c   5.26616065
_cell_angle_alpha   59.97946064
_cell_angle_beta   59.97948012
_cell_angle_gamma   59.97945206
_symmetry_Int_Tables_number   1
_chemical_formula_structural   TmZn3CdRu
_chemical_formula_sum   'Tm1 Zn3 Cd1 Ru1'
_cell_volume   103.22026947
_cell_formula_units_Z   1
loop_
 _symmetry_equiv_pos_site_id
 _symmetry_equiv_pos_as_xyz
  1  'x, y, z'
loop_
 _atom_site_type_symbol
 _atom_site_label
 _atom_site_symmetry_multiplicity
 _atom_site_fract_x
 _atom_site_fract_y
 _atom_site_fract_z
 _atom_site_occupancy
  Tm  Tm0  1  0.997018  0.997018  0.997018  1
  Zn  Zn1  1  0.623506  0.623506  0.126100  1
  Zn  Zn2  1  0.623506  0.126100  0.623506  1
  Zn  Zn3  1  0.126100  0.623506  0.623506  1
  Cd  Cd4  1  0.255094  0.255094  0.255094  1
  Ru  Ru5  1  0.624777  0.624777  0.624777  1
