# generated using pymatgen
data_YbEr3(Al8Pt3)3
_symmetry_space_group_name_H-M   'P 1'
_cell_length_a   7.52537207
_cell_length_b   7.52620908
_cell_length_c   13.17330524
_cell_angle_alpha   84.56705869
_cell_angle_beta   100.92171219
_cell_angle_gamma   119.81612832
_symmetry_Int_Tables_number   1
_chemical_formula_structural   YbEr3(Al8Pt3)3
_chemical_formula_sum   'Yb1 Er3 Al24 Pt9'
_cell_volume   635.61299402
_cell_formula_units_Z   1
loop_
 _symmetry_equiv_pos_site_id
 _symmetry_equiv_pos_as_xyz
  1  'x, y, z'
loop_
 _atom_site_type_symbol
 _atom_site_label
 _atom_site_symmetry_multiplicity
 _atom_site_fract_x
 _atom_site_fract_y
 _atom_site_fract_z
 _atom_site_occupancy
  Yb  Yb0  1  0.732841  0.998593  0.192261  1
  Er  Er1  1  0.268073  0.001319  0.807781  1
  Er  Er2  1  0.062462  0.668694  0.192398  1
  Er  Er3  1  0.936773  0.330565  0.807640  1
  Al  Al4  1  0.807895  0.869633  0.815333  1
  Al  Al5  1  0.193944  0.129661  0.184173  1
  Al  Al6  1  0.982079  0.666191  0.943546  1
  Al  Al7  1  0.017741  0.334023  0.055258  1
  Al  Al8  1  0.397351  0.664360  0.816375  1
  Al  Al9  1  0.603793  0.338994  0.183181  1
  Al  Al10  1  0.882530  0.665304  0.671401  1
  Al  Al11  1  0.116760  0.333961  0.329165  1
  Al  Al12  1  0.602989  0.457972  0.816061  1
  Al  Al13  1  0.394161  0.540852  0.183520  1
  Al  Al14  1  0.230021  0.339580  0.669755  1
  Al  Al15  1  0.770024  0.661069  0.330756  1
  Al  Al16  1  0.853408  0.333335  0.559284  1
  Al  Al17  1  0.185803  0.999396  0.559352  1
  Al  Al18  1  0.814104  0.000447  0.441097  1
  Al  Al19  1  0.352228  0.999036  0.055280  1
  Al  Al20  1  0.647549  0.000757  0.944494  1
  Al  Al21  1  0.556482  0.993433  0.671674  1
  Al  Al22  1  0.444653  0.006785  0.329092  1
  Al  Al23  1  0.521241  0.668023  0.561871  1
  Al  Al24  1  0.479247  0.332273  0.439045  1
  Al  Al25  1  0.683689  0.667886  0.046188  1
  Al  Al26  1  0.315737  0.331783  0.952604  1
  Al  Al27  1  0.146933  0.666297  0.441721  1
  Pt  Pt28  1  0.328064  0.671072  0.999250  1
  Pt  Pt29  1  0.546069  0.324754  0.637716  1
  Pt  Pt30  1  0.453431  0.674340  0.362950  1
  Pt  Pt31  1  0.888258  0.008307  0.638847  1
  Pt  Pt32  1  0.113247  0.992152  0.361739  1
  Pt  Pt33  1  0.670895  0.328530  0.999133  1
  Pt  Pt34  1  0.203931  0.666761  0.639149  1
  Pt  Pt35  1  0.795491  0.333599  0.361781  1
  Pt  Pt36  1  0.000104  0.000265  0.999130  1
