# generated using pymatgen
data_Tb4Fe4HgBr
_symmetry_space_group_name_H-M   'P 1'
_cell_length_a   3.93302600
_cell_length_b   3.93302549
_cell_length_c   16.70150100
_cell_angle_alpha   90.00000000
_cell_angle_beta   90.00000000
_cell_angle_gamma   119.99997061
_symmetry_Int_Tables_number   1
_chemical_formula_structural   Tb4Fe4HgBr
_chemical_formula_sum   'Tb4 Fe4 Hg1 Br1'
_cell_volume   223.73804714
_cell_formula_units_Z   1
loop_
 _symmetry_equiv_pos_site_id
 _symmetry_equiv_pos_as_xyz
  1  'x, y, z'
loop_
 _atom_site_type_symbol
 _atom_site_label
 _atom_site_symmetry_multiplicity
 _atom_site_fract_x
 _atom_site_fract_y
 _atom_site_fract_z
 _atom_site_occupancy
  Tb  Tb0  1  0.000000  0.000000  0.115127  1
  Tb  Tb1  1  0.000000  0.000000  0.607493  1
  Tb  Tb2  1  0.000000  0.000000  0.384873  1
  Tb  Tb3  1  0.000000  0.000000  0.892507  1
  Fe  Fe4  1  0.666667  0.333333  0.001048  1
  Fe  Fe5  1  0.333333  0.666667  0.003095  1
  Fe  Fe6  1  0.666667  0.333333  0.498952  1
  Fe  Fe7  1  0.333333  0.666667  0.496905  1
  Hg  Hg8  1  0.666667  0.333333  0.250000  1
  Br  Br9  1  0.333333  0.666667  0.750000  1
