# generated using pymatgen
data_K3ErGe2O7
_symmetry_space_group_name_H-M   'P 1'
_cell_length_a   5.96148200
_cell_length_b   5.96148076
_cell_length_c   14.80097700
_cell_angle_alpha   90.00000000
_cell_angle_beta   90.00000000
_cell_angle_gamma   119.99999579
_symmetry_Int_Tables_number   1
_chemical_formula_structural   K3ErGe2O7
_chemical_formula_sum   'K6 Er2 Ge4 O14'
_cell_volume   455.54304182
_cell_formula_units_Z   2
loop_
 _symmetry_equiv_pos_site_id
 _symmetry_equiv_pos_as_xyz
  1  'x, y, z'
loop_
 _atom_site_type_symbol
 _atom_site_label
 _atom_site_symmetry_multiplicity
 _atom_site_fract_x
 _atom_site_fract_y
 _atom_site_fract_z
 _atom_site_occupancy
  K  K0  1  0.333333  0.666667  0.412467  1
  K  K1  1  0.000000  0.000000  0.250000  1
  K  K2  1  0.666667  0.333333  0.587533  1
  K  K3  1  0.333333  0.666667  0.087533  1
  K  K4  1  0.666667  0.333333  0.912467  1
  K  K5  1  0.000000  0.000000  0.750000  1
  Er  Er6  1  0.000000  0.000000  0.500000  1
  Er  Er7  1  0.000000  0.000000  0.000000  1
  Ge  Ge8  1  0.333333  0.666667  0.629037  1
  Ge  Ge9  1  0.666667  0.333333  0.370963  1
  Ge  Ge10  1  0.666667  0.333333  0.129037  1
  Ge  Ge11  1  0.333333  0.666667  0.870963  1
  O  O12  1  0.341843  0.170921  0.406861  1
  O  O13  1  0.829079  0.170921  0.093139  1
  O  O14  1  0.170921  0.341843  0.593139  1
  O  O15  1  0.170921  0.829079  0.906861  1
  O  O16  1  0.658157  0.829079  0.906861  1
  O  O17  1  0.658157  0.829079  0.593139  1
  O  O18  1  0.341843  0.170921  0.093139  1
  O  O19  1  0.170921  0.829079  0.593139  1
  O  O20  1  0.829079  0.170921  0.406861  1
  O  O21  1  0.170921  0.341843  0.906861  1
  O  O22  1  0.829079  0.658157  0.093139  1
  O  O23  1  0.829079  0.658157  0.406861  1
  O  O24  1  0.666667  0.333333  0.250000  1
  O  O25  1  0.333333  0.666667  0.750000  1
