# generated using pymatgen
data_Y20Ir7Au5
_symmetry_space_group_name_H-M   'P 1'
_cell_length_a   11.23801884
_cell_length_b   11.23801961
_cell_length_c   6.34266044
_cell_angle_alpha   90.01662418
_cell_angle_beta   90.01662453
_cell_angle_gamma   89.54443382
_symmetry_Int_Tables_number   1
_chemical_formula_structural   Y20Ir7Au5
_chemical_formula_sum   'Y20 Ir7 Au5'
_cell_volume   801.00871060
_cell_formula_units_Z   1
loop_
 _symmetry_equiv_pos_site_id
 _symmetry_equiv_pos_as_xyz
  1  'x, y, z'
loop_
 _atom_site_type_symbol
 _atom_site_label
 _atom_site_symmetry_multiplicity
 _atom_site_fract_x
 _atom_site_fract_y
 _atom_site_fract_z
 _atom_site_occupancy
  Y  Y0  1  0.300028  0.091146  0.363427  1
  Y  Y1  1  0.301470  0.907072  0.863210  1
  Y  Y2  1  0.697671  0.080833  0.858000  1
  Y  Y3  1  0.697551  0.905534  0.361054  1
  Y  Y4  1  0.580731  0.784670  0.876326  1
  Y  Y5  1  0.576225  0.206556  0.361181  1
  Y  Y6  1  0.417401  0.788298  0.376375  1
  Y  Y7  1  0.410915  0.207922  0.874952  1
  Y  Y8  1  0.215330  0.419269  0.623674  1
  Y  Y9  1  0.211702  0.582599  0.123625  1
  Y  Y10  1  0.793444  0.423775  0.138819  1
  Y  Y11  1  0.792078  0.589085  0.625048  1
  Y  Y12  1  0.908854  0.699972  0.136573  1
  Y  Y13  1  0.919167  0.302329  0.642000  1
  Y  Y14  1  0.092928  0.698530  0.636790  1
  Y  Y15  1  0.094466  0.302449  0.138946  1
  Y  Y16  1  0.998446  0.000871  0.499380  1
  Y  Y17  1  0.999129  0.001554  0.000620  1
  Y  Y18  1  0.496047  0.501881  0.001111  1
  Y  Y19  1  0.498119  0.503953  0.498889  1
  Ir  Ir20  1  0.654041  0.651219  0.250796  1
  Ir  Ir21  1  0.348781  0.345959  0.249204  1
  Ir  Ir22  1  0.345103  0.654897  0.750000  1
  Ir  Ir23  1  0.499292  0.999116  0.110345  1
  Ir  Ir24  1  0.499099  0.000242  0.611517  1
  Ir  Ir25  1  0.999758  0.500901  0.888483  1
  Ir  Ir26  1  0.000884  0.500708  0.389655  1
  Au  Au27  1  0.841320  0.158680  0.250000  1
  Au  Au28  1  0.843348  0.845763  0.750713  1
  Au  Au29  1  0.154237  0.156652  0.749287  1
  Au  Au30  1  0.155798  0.844202  0.250000  1
  Au  Au31  1  0.656634  0.343366  0.750000  1
