# generated using pymatgen
data_LiY5Ho14(Cd3Ru)2
_symmetry_space_group_name_H-M   'P 1'
_cell_length_a   9.55449952
_cell_length_b   9.55499420
_cell_length_c   9.67184101
_cell_angle_alpha   89.99727834
_cell_angle_beta   90.00424952
_cell_angle_gamma   120.03578579
_symmetry_Int_Tables_number   1
_chemical_formula_structural   LiY5Ho14(Cd3Ru)2
_chemical_formula_sum   'Li1 Y5 Ho14 Cd6 Ru2'
_cell_volume   764.40132250
_cell_formula_units_Z   1
loop_
 _symmetry_equiv_pos_site_id
 _symmetry_equiv_pos_as_xyz
  1  'x, y, z'
loop_
 _atom_site_type_symbol
 _atom_site_label
 _atom_site_symmetry_multiplicity
 _atom_site_fract_x
 _atom_site_fract_y
 _atom_site_fract_z
 _atom_site_occupancy
  Li  Li0  1  0.000032  0.000000  0.499982  1
  Y  Y1  1  0.541218  0.082971  0.252149  1
  Y  Y2  1  0.917026  0.458776  0.252146  1
  Y  Y3  1  0.458834  0.541135  0.747947  1
  Y  Y4  1  0.458811  0.917790  0.747822  1
  Y  Y5  1  0.082226  0.541173  0.747811  1
  Ho  Ho6  1  0.000065  0.999942  0.999938  1
  Ho  Ho7  1  0.208347  0.791658  0.440572  1
  Ho  Ho8  1  0.208793  0.416705  0.440422  1
  Ho  Ho9  1  0.583288  0.791205  0.440420  1
  Ho  Ho10  1  0.791737  0.208266  0.559499  1
  Ho  Ho11  1  0.791260  0.583105  0.559033  1
  Ho  Ho12  1  0.416886  0.208735  0.559029  1
  Ho  Ho13  1  0.789413  0.210584  0.941201  1
  Ho  Ho14  1  0.788983  0.578669  0.941616  1
  Ho  Ho15  1  0.421336  0.211019  0.941616  1
  Ho  Ho16  1  0.210604  0.789403  0.058784  1
  Ho  Ho17  1  0.211058  0.421126  0.058962  1
  Ho  Ho18  1  0.578872  0.788941  0.058962  1
  Ho  Ho19  1  0.540937  0.459072  0.252182  1
  Cd  Cd20  1  0.888467  0.111539  0.258723  1
  Cd  Cd21  1  0.887832  0.776323  0.258775  1
  Cd  Cd22  1  0.223673  0.112172  0.258770  1
  Cd  Cd23  1  0.111635  0.888357  0.741274  1
  Cd  Cd24  1  0.111638  0.223236  0.741193  1
  Cd  Cd25  1  0.776767  0.888357  0.741192  1
  Ru  Ru26  1  0.333567  0.666427  0.249700  1
  Ru  Ru27  1  0.666696  0.333313  0.750282  1
