# generated using pymatgen
data_DyY3(Ho3Sn4)2
_symmetry_space_group_name_H-M   'P 1'
_cell_length_a   8.02804900
_cell_length_b   8.16553600
_cell_length_c   15.43674400
_cell_angle_alpha   90.00075378
_cell_angle_beta   90.00000000
_cell_angle_gamma   90.00000000
_symmetry_Int_Tables_number   1
_chemical_formula_structural   DyY3(Ho3Sn4)2
_chemical_formula_sum   'Dy2 Y6 Ho12 Sn16'
_cell_volume   1011.92986730
_cell_formula_units_Z   2
loop_
 _symmetry_equiv_pos_site_id
 _symmetry_equiv_pos_as_xyz
  1  'x, y, z'
loop_
 _atom_site_type_symbol
 _atom_site_label
 _atom_site_symmetry_multiplicity
 _atom_site_fract_x
 _atom_site_fract_y
 _atom_site_fract_z
 _atom_site_occupancy
  Dy  Dy0  1  0.521212  0.320324  0.597604  1
  Dy  Dy1  1  0.021212  0.179676  0.902396  1
  Y  Y2  1  0.521303  0.320358  0.902414  1
  Y  Y3  1  0.021303  0.179642  0.597586  1
  Y  Y4  1  0.478714  0.679625  0.402413  1
  Y  Y5  1  0.978714  0.820375  0.097587  1
  Y  Y6  1  0.478728  0.679636  0.097585  1
  Y  Y7  1  0.978728  0.820364  0.402415  1
  Ho  Ho8  1  0.367663  0.836271  0.877875  1
  Ho  Ho9  1  0.867663  0.663729  0.622125  1
  Ho  Ho10  1  0.632318  0.163764  0.377881  1
  Ho  Ho11  1  0.132318  0.336236  0.122119  1
  Ho  Ho12  1  0.632320  0.163727  0.122150  1
  Ho  Ho13  1  0.132320  0.336273  0.377850  1
  Ho  Ho14  1  0.367638  0.836300  0.622134  1
  Ho  Ho15  1  0.867638  0.663700  0.877866  1
  Ho  Ho16  1  0.198414  0.503242  0.750009  1
  Ho  Ho17  1  0.698414  0.996758  0.749991  1
  Ho  Ho18  1  0.801632  0.496729  0.250006  1
  Ho  Ho19  1  0.301632  0.003271  0.249994  1
  Sn  Sn20  1  0.293035  0.036232  0.041717  1
  Sn  Sn21  1  0.793035  0.463768  0.458283  1
  Sn  Sn22  1  0.706913  0.963883  0.541817  1
  Sn  Sn23  1  0.206913  0.536117  0.958183  1
  Sn  Sn24  1  0.707089  0.963907  0.958180  1
  Sn  Sn25  1  0.207089  0.536093  0.541820  1
  Sn  Sn26  1  0.293078  0.036238  0.458275  1
  Sn  Sn27  1  0.793078  0.463762  0.041725  1
  Sn  Sn28  1  0.565114  0.619490  0.749961  1
  Sn  Sn29  1  0.065114  0.880510  0.750039  1
  Sn  Sn30  1  0.434854  0.380446  0.249999  1
  Sn  Sn31  1  0.934854  0.119554  0.250001  1
  Sn  Sn32  1  0.329862  0.147247  0.749968  1
  Sn  Sn33  1  0.829862  0.352753  0.750032  1
  Sn  Sn34  1  0.670114  0.852844  0.250003  1
  Sn  Sn35  1  0.170114  0.647156  0.249997  1
