# generated using pymatgen
data_LaDy5ErCoI12
_symmetry_space_group_name_H-M   'P 1'
_cell_length_a   9.77763572
_cell_length_b   9.77481671
_cell_length_c   9.77469354
_cell_angle_alpha   106.31271449
_cell_angle_beta   106.32456406
_cell_angle_gamma   106.33560444
_symmetry_Int_Tables_number   1
_chemical_formula_structural   LaDy5ErCoI12
_chemical_formula_sum   'La1 Dy5 Er1 Co1 I12'
_cell_volume   791.92439651
_cell_formula_units_Z   1
loop_
 _symmetry_equiv_pos_site_id
 _symmetry_equiv_pos_as_xyz
  1  'x, y, z'
loop_
 _atom_site_type_symbol
 _atom_site_label
 _atom_site_symmetry_multiplicity
 _atom_site_fract_x
 _atom_site_fract_y
 _atom_site_fract_z
 _atom_site_occupancy
  La  La0  1  0.996018  0.996083  0.996153  1
  Dy  Dy1  1  0.783360  0.517110  0.589037  1
  Dy  Dy2  1  0.588589  0.783526  0.517383  1
  Dy  Dy3  1  0.481350  0.409776  0.215235  1
  Dy  Dy4  1  0.215527  0.481546  0.410403  1
  Dy  Dy5  1  0.409821  0.215532  0.481859  1
  Er  Er6  1  0.516669  0.587523  0.780752  1
  Co  Co7  1  0.499503  0.499458  0.499477  1
  I  I8  1  0.276257  0.822378  0.426390  1
  I  I9  1  0.426658  0.277353  0.822575  1
  I  I10  1  0.822230  0.426353  0.276284  1
  I  I11  1  0.722352  0.176109  0.572030  1
  I  I12  1  0.571891  0.722195  0.175746  1
  I  I13  1  0.176919  0.572141  0.722873  1
  I  I14  1  0.044861  0.123370  0.350725  1
  I  I15  1  0.350712  0.044839  0.123383  1
  I  I16  1  0.123419  0.350759  0.044891  1
  I  I17  1  0.953083  0.874051  0.642886  1
  I  I18  1  0.642654  0.952317  0.874173  1
  I  I19  1  0.873494  0.642948  0.953114  1
