# generated using pymatgen
data_Lu4Ga4CoNi3
_symmetry_space_group_name_H-M   'P 1'
_cell_length_a   4.22532900
_cell_length_b   6.60848766
_cell_length_c   7.30939371
_cell_angle_alpha   89.67698269
_cell_angle_beta   90.00000000
_cell_angle_gamma   90.00000000
_symmetry_Int_Tables_number   1
_chemical_formula_structural   Lu4Ga4CoNi3
_chemical_formula_sum   'Lu4 Ga4 Co1 Ni3'
_cell_volume   204.09720950
_cell_formula_units_Z   1
loop_
 _symmetry_equiv_pos_site_id
 _symmetry_equiv_pos_as_xyz
  1  'x, y, z'
loop_
 _atom_site_type_symbol
 _atom_site_label
 _atom_site_symmetry_multiplicity
 _atom_site_fract_x
 _atom_site_fract_y
 _atom_site_fract_z
 _atom_site_occupancy
  Lu  Lu0  1  0.250000  0.019981  0.808881  1
  Lu  Lu1  1  0.250000  0.521541  0.689537  1
  Lu  Lu2  1  0.750000  0.981222  0.194451  1
  Lu  Lu3  1  0.750000  0.484192  0.307712  1
  Ga  Ga4  1  0.250000  0.166661  0.428477  1
  Ga  Ga5  1  0.250000  0.671833  0.072299  1
  Ga  Ga6  1  0.750000  0.827862  0.571331  1
  Ga  Ga7  1  0.750000  0.330265  0.928424  1
  Co  Co8  1  0.250000  0.775602  0.395572  1
  Ni  Ni9  1  0.250000  0.281716  0.101427  1
  Ni  Ni10  1  0.750000  0.217896  0.604926  1
  Ni  Ni11  1  0.750000  0.721227  0.896962  1
