# generated using pymatgen
data_Ce2DyAlIn2Ir3
_symmetry_space_group_name_H-M   'P 1'
_cell_length_a   7.52459421
_cell_length_b   7.49886159
_cell_length_c   3.95109400
_cell_angle_alpha   90.00000000
_cell_angle_beta   90.00000000
_cell_angle_gamma   120.88435839
_symmetry_Int_Tables_number   1
_chemical_formula_structural   Ce2DyAlIn2Ir3
_chemical_formula_sum   'Ce2 Dy1 Al1 In2 Ir3'
_cell_volume   191.33166861
_cell_formula_units_Z   1
loop_
 _symmetry_equiv_pos_site_id
 _symmetry_equiv_pos_as_xyz
  1  'x, y, z'
loop_
 _atom_site_type_symbol
 _atom_site_label
 _atom_site_symmetry_multiplicity
 _atom_site_fract_x
 _atom_site_fract_y
 _atom_site_fract_z
 _atom_site_occupancy
  Ce  Ce0  1  0.590930  0.003006  0.000000  1
  Ce  Ce1  1  0.001238  0.571374  0.000000  1
  Dy  Dy2  1  0.401579  0.409420  0.000000  1
  Al  Al3  1  0.007048  0.249298  0.500000  1
  In  In4  1  0.745798  0.741607  0.500000  1
  In  In5  1  0.246364  0.003815  0.500000  1
  Ir  Ir6  1  0.994664  0.031069  0.000000  1
  Ir  Ir7  1  0.319054  0.663351  0.500000  1
  Ir  Ir8  1  0.693325  0.327063  0.500000  1
