# generated using pymatgen
data_Tb2Pa(Ga2Co3)3
_symmetry_space_group_name_H-M   'P 1'
_cell_length_a   4.16664300
_cell_length_b   8.62145031
_cell_length_c   8.62145103
_cell_angle_alpha   59.99768834
_cell_angle_beta   90.00000000
_cell_angle_gamma   90.00000000
_symmetry_Int_Tables_number   1
_chemical_formula_structural   Tb2Pa(Ga2Co3)3
_chemical_formula_sum   'Tb2 Pa1 Ga6 Co9'
_cell_volume   268.20539009
_cell_formula_units_Z   1
loop_
 _symmetry_equiv_pos_site_id
 _symmetry_equiv_pos_as_xyz
  1  'x, y, z'
loop_
 _atom_site_type_symbol
 _atom_site_label
 _atom_site_symmetry_multiplicity
 _atom_site_fract_x
 _atom_site_fract_y
 _atom_site_fract_z
 _atom_site_occupancy
  Tb  Tb0  1  0.500000  0.333346  0.333370  1
  Tb  Tb1  1  0.500000  0.666630  0.666654  1
  Pa  Pa2  1  0.000000  0.000055  0.999945  1
  Ga  Ga3  1  0.000000  0.494267  0.505733  1
  Ga  Ga4  1  0.000000  0.505656  0.999995  1
  Ga  Ga5  1  0.000000  0.000005  0.494344  1
  Ga  Ga6  1  0.500000  0.723432  0.276568  1
  Ga  Ga7  1  0.500000  0.276647  0.999970  1
  Ga  Ga8  1  0.500000  0.000030  0.723353  1
  Co  Co9  1  0.000000  0.173444  0.173439  1
  Co  Co10  1  0.000000  0.173462  0.653091  1
  Co  Co11  1  0.000000  0.653014  0.173513  1
  Co  Co12  1  0.000000  0.826561  0.826556  1
  Co  Co13  1  0.000000  0.346909  0.826538  1
  Co  Co14  1  0.000000  0.826487  0.346986  1
  Co  Co15  1  0.500000  0.299034  0.700966  1
  Co  Co16  1  0.500000  0.700896  0.999974  1
  Co  Co17  1  0.500000  0.000026  0.299104  1
