# generated using pymatgen
data_Ho2PaSn3Ir2Rh
_symmetry_space_group_name_H-M   'P 1'
_cell_length_a   7.55159364
_cell_length_b   7.62530219
_cell_length_c   3.85831100
_cell_angle_alpha   90.00000000
_cell_angle_beta   90.00000000
_cell_angle_gamma   120.32340286
_symmetry_Int_Tables_number   1
_chemical_formula_structural   Ho2PaSn3Ir2Rh
_chemical_formula_sum   'Ho2 Pa1 Sn3 Ir2 Rh1'
_cell_volume   191.77809534
_cell_formula_units_Z   1
loop_
 _symmetry_equiv_pos_site_id
 _symmetry_equiv_pos_as_xyz
  1  'x, y, z'
loop_
 _atom_site_type_symbol
 _atom_site_label
 _atom_site_symmetry_multiplicity
 _atom_site_fract_x
 _atom_site_fract_y
 _atom_site_fract_z
 _atom_site_occupancy
  Ho  Ho0  1  0.595256  0.595036  0.000000  1
  Ho  Ho1  1  0.404744  0.999780  0.000000  1
  Pa  Pa2  1  0.000000  0.412982  0.000000  1
  Sn  Sn3  1  0.272647  0.258799  0.500000  1
  Sn  Sn4  1  0.000000  0.755527  0.500000  1
  Sn  Sn5  1  0.727353  0.986153  0.500000  1
  Ir  Ir6  1  0.695034  0.336431  0.500000  1
  Ir  Ir7  1  0.304966  0.641399  0.500000  1
  Rh  Rh8  1  0.000000  0.013892  0.000000  1
