# generated using pymatgen
data_Sr4ScPa5O18
_symmetry_space_group_name_H-M   'P 1'
_cell_length_a   6.93165877
_cell_length_b   7.86588555
_cell_length_c   8.82479800
_cell_angle_alpha   101.79904350
_cell_angle_beta   98.02646562
_cell_angle_gamma   106.99837099
_symmetry_Int_Tables_number   1
_chemical_formula_structural   Sr4ScPa5O18
_chemical_formula_sum   'Sr4 Sc1 Pa5 O18'
_cell_volume   440.07927262
_cell_formula_units_Z   1
loop_
 _symmetry_equiv_pos_site_id
 _symmetry_equiv_pos_as_xyz
  1  'x, y, z'
loop_
 _atom_site_type_symbol
 _atom_site_label
 _atom_site_symmetry_multiplicity
 _atom_site_fract_x
 _atom_site_fract_y
 _atom_site_fract_z
 _atom_site_occupancy
  Sr  Sr0  1  0.813493  0.114286  0.602162  1
  Sr  Sr1  1  0.585533  0.686240  0.188641  1
  Sr  Sr2  1  0.414467  0.313760  0.811359  1
  Sr  Sr3  1  0.186507  0.885714  0.397838  1
  Sc  Sc4  1  0.000000  0.500000  0.000000  1
  Pa  Pa5  1  0.000000  0.000000  0.000000  1
  Pa  Pa6  1  0.793401  0.587064  0.584426  1
  Pa  Pa7  1  0.634753  0.192787  0.199475  1
  Pa  Pa8  1  0.365247  0.807213  0.800525  1
  Pa  Pa9  1  0.206599  0.412936  0.415574  1
  O  O10  1  0.813662  0.784382  0.456362  1
  O  O11  1  0.991620  0.173944  0.218637  1
  O  O12  1  0.713406  0.394529  0.073277  1
  O  O13  1  0.464337  0.005351  0.685044  1
  O  O14  1  0.857090  0.345156  0.437163  1
  O  O15  1  0.503690  0.396901  0.345112  1
  O  O16  1  0.201455  0.561313  0.240086  1
  O  O17  1  0.978687  0.771427  0.100988  1
  O  O18  1  0.657983  0.931686  0.992144  1
  O  O19  1  0.342017  0.068314  0.007856  1
  O  O20  1  0.021313  0.228573  0.899012  1
  O  O21  1  0.798545  0.438687  0.759914  1
  O  O22  1  0.496310  0.603099  0.654888  1
  O  O23  1  0.142910  0.654844  0.562837  1
  O  O24  1  0.535663  0.994649  0.314956  1
  O  O25  1  0.286594  0.605471  0.926723  1
  O  O26  1  0.008380  0.826056  0.781363  1
  O  O27  1  0.186338  0.215618  0.543638  1
