# generated using pymatgen
data_Ho10Si16Pd
_symmetry_space_group_name_H-M   'P 1'
_cell_length_a   11.06261343
_cell_length_b   11.07430666
_cell_length_c   11.06261404
_cell_angle_alpha   144.76981534
_cell_angle_beta   136.38872369
_cell_angle_gamma   57.23677155
_symmetry_Int_Tables_number   1
_chemical_formula_structural   Ho10Si16Pd
_chemical_formula_sum   'Ho10 Si16 Pd1'
_cell_volume   534.94868647
_cell_formula_units_Z   1
loop_
 _symmetry_equiv_pos_site_id
 _symmetry_equiv_pos_as_xyz
  1  'x, y, z'
loop_
 _atom_site_type_symbol
 _atom_site_label
 _atom_site_symmetry_multiplicity
 _atom_site_fract_x
 _atom_site_fract_y
 _atom_site_fract_z
 _atom_site_occupancy
  Ho  Ho0  1  0.051934  0.563456  0.016124  1
  Ho  Ho1  1  0.351998  0.371300  0.521727  1
  Ho  Ho2  1  0.151943  0.166619  0.520743  1
  Ho  Ho3  1  0.451507  0.963014  0.014809  1
  Ho  Ho4  1  0.645877  0.166619  0.014677  1
  Ho  Ho5  1  0.948204  0.963014  0.511506  1
  Ho  Ho6  1  0.849573  0.371300  0.019302  1
  Ho  Ho7  1  0.547332  0.563456  0.511522  1
  Ho  Ho8  1  0.249064  0.763293  0.010737  1
  Ho  Ho9  1  0.752557  0.763293  0.514230  1
  Si  Si10  1  0.118312  0.079188  0.960874  1
  Si  Si11  1  0.798163  0.182377  0.384215  1
  Si  Si12  1  0.300484  0.899127  0.598644  1
  Si  Si13  1  0.399925  0.501210  0.101285  1
  Si  Si14  1  0.884284  0.847705  0.963421  1
  Si  Si15  1  0.104261  0.709132  0.604871  1
  Si  Si16  1  0.200491  0.584681  0.384188  1
  Si  Si17  1  0.698046  0.293451  0.595406  1
  Si  Si18  1  0.999862  0.433341  0.433479  1
  Si  Si19  1  0.714292  0.668153  0.953861  1
  Si  Si20  1  0.600609  0.702091  0.101481  1
  Si  Si21  1  0.000341  0.084965  0.084624  1
  Si  Si22  1  0.501013  0.391841  0.890829  1
  Si  Si23  1  0.285512  0.240830  0.955318  1
  Si  Si24  1  0.582949  0.040596  0.457646  1
  Si  Si25  1  0.415426  0.872300  0.456874  1
  Pd  Pd26  1  0.896041  0.502566  0.606525  1
