# generated using pymatgen
data_Na2NpF6
_symmetry_space_group_name_H-M   'P 1'
_cell_length_a   6.73120209
_cell_length_b   6.73120259
_cell_length_c   6.94035090
_cell_angle_alpha   80.82904451
_cell_angle_beta   80.82904355
_cell_angle_gamma   120.29428991
_symmetry_Int_Tables_number   1
_chemical_formula_structural   Na2NpF6
_chemical_formula_sum   'Na4 Np2 F12'
_cell_volume   257.22566328
_cell_formula_units_Z   2
loop_
 _symmetry_equiv_pos_site_id
 _symmetry_equiv_pos_as_xyz
  1  'x, y, z'
loop_
 _atom_site_type_symbol
 _atom_site_label
 _atom_site_symmetry_multiplicity
 _atom_site_fract_x
 _atom_site_fract_y
 _atom_site_fract_z
 _atom_site_occupancy
  Na  Na0  1  0.916114  0.083886  0.750000  1
  Na  Na1  1  0.244460  0.755540  0.750000  1
  Na  Na2  1  0.083886  0.916114  0.250000  1
  Na  Na3  1  0.755540  0.244460  0.250000  1
  Np  Np4  1  0.588352  0.411648  0.750000  1
  Np  Np5  1  0.411648  0.588352  0.250000  1
  F  F6  1  0.927584  0.765589  0.627194  1
  F  F7  1  0.629983  0.148612  0.623432  1
  F  F8  1  0.682348  0.530516  0.384886  1
  F  F9  1  0.469484  0.317652  0.115114  1
  F  F10  1  0.317652  0.469484  0.615114  1
  F  F11  1  0.148612  0.629983  0.123432  1
  F  F12  1  0.370017  0.851388  0.376568  1
  F  F13  1  0.234411  0.072416  0.872806  1
  F  F14  1  0.072416  0.234411  0.372806  1
  F  F15  1  0.765589  0.927584  0.127194  1
  F  F16  1  0.851388  0.370017  0.876568  1
  F  F17  1  0.530516  0.682348  0.884886  1
