# generated using pymatgen
data_Li5Ta(TiIr2)6
_symmetry_space_group_name_H-M   'P 1'
_cell_length_a   4.32960300
_cell_length_b   6.07696700
_cell_length_c   12.89756600
_cell_angle_alpha   90.00007769
_cell_angle_beta   89.99931387
_cell_angle_gamma   90.00000000
_symmetry_Int_Tables_number   1
_chemical_formula_structural   Li5Ta(TiIr2)6
_chemical_formula_sum   'Li5 Ta1 Ti6 Ir12'
_cell_volume   339.34598312
_cell_formula_units_Z   1
loop_
 _symmetry_equiv_pos_site_id
 _symmetry_equiv_pos_as_xyz
  1  'x, y, z'
loop_
 _atom_site_type_symbol
 _atom_site_label
 _atom_site_symmetry_multiplicity
 _atom_site_fract_x
 _atom_site_fract_y
 _atom_site_fract_z
 _atom_site_occupancy
  Li  Li0  1  0.499837  0.000000  0.168308  1
  Li  Li1  1  0.999872  0.500000  0.334415  1
  Li  Li2  1  0.500001  0.000000  0.500000  1
  Li  Li3  1  0.000127  0.500000  0.665585  1
  Li  Li4  1  0.500162  0.000000  0.831691  1
  Ta  Ta5  1  0.000000  0.500000  0.000000  1
  Ti  Ti6  1  0.000000  0.000000  0.000000  1
  Ti  Ti7  1  0.499888  0.500000  0.178484  1
  Ti  Ti8  1  0.999853  0.000000  0.339890  1
  Ti  Ti9  1  0.500001  0.500000  0.500000  1
  Ti  Ti10  1  0.000146  0.000000  0.660111  1
  Ti  Ti11  1  0.500111  0.500000  0.821516  1
  Ir  Ir12  1  0.500000  0.247982  0.000000  1
  Ir  Ir13  1  0.500002  0.752019  0.000000  1
  Ir  Ir14  1  0.999874  0.247278  0.168165  1
  Ir  Ir15  1  0.999873  0.752721  0.168166  1
  Ir  Ir16  1  0.499853  0.247140  0.334511  1
  Ir  Ir17  1  0.499852  0.752860  0.334511  1
  Ir  Ir18  1  0.000000  0.252275  0.500000  1
  Ir  Ir19  1  0.000000  0.747725  0.500000  1
  Ir  Ir20  1  0.500148  0.247140  0.665490  1
  Ir  Ir21  1  0.500147  0.752860  0.665490  1
  Ir  Ir22  1  0.000129  0.247279  0.831834  1
  Ir  Ir23  1  0.000128  0.752722  0.831835  1
