# generated using pymatgen
data_Er6ZnFe4Ru7
_symmetry_space_group_name_H-M   'P 1'
_cell_length_a   5.17028187
_cell_length_b   5.11353460
_cell_length_c   12.95631700
_cell_angle_alpha   91.35295133
_cell_angle_beta   87.73207035
_cell_angle_gamma   118.14707197
_symmetry_Int_Tables_number   1
_chemical_formula_structural   Er6ZnFe4Ru7
_chemical_formula_sum   'Er6 Zn1 Fe4 Ru7'
_cell_volume   301.79370788
_cell_formula_units_Z   1
loop_
 _symmetry_equiv_pos_site_id
 _symmetry_equiv_pos_as_xyz
  1  'x, y, z'
loop_
 _atom_site_type_symbol
 _atom_site_label
 _atom_site_symmetry_multiplicity
 _atom_site_fract_x
 _atom_site_fract_y
 _atom_site_fract_z
 _atom_site_occupancy
  Er  Er0  1  0.332722  0.659673  0.918040  1
  Er  Er1  1  0.003571  0.003123  0.248586  1
  Er  Er2  1  0.666412  0.335628  0.579985  1
  Er  Er3  1  0.333588  0.664372  0.670015  1
  Er  Er4  1  0.996429  0.996877  0.001414  1
  Er  Er5  1  0.667278  0.340327  0.331960  1
  Zn  Zn6  1  0.000000  0.000000  0.625000  1
  Fe  Fe7  1  0.500000  0.500000  0.125000  1
  Fe  Fe8  1  0.171845  0.835988  0.456321  1
  Fe  Fe9  1  0.828155  0.164012  0.793679  1
  Fe  Fe10  1  0.500000  0.000000  0.125000  1
  Ru  Ru11  1  0.166159  0.335741  0.458381  1
  Ru  Ru12  1  0.833841  0.664259  0.791619  1
  Ru  Ru13  1  0.340950  0.678577  0.291501  1
  Ru  Ru14  1  0.659050  0.321423  0.958499  1
  Ru  Ru15  1  0.000000  0.500000  0.125000  1
  Ru  Ru16  1  0.675364  0.843252  0.460005  1
  Ru  Ru17  1  0.324636  0.156748  0.789995  1
