# generated using pymatgen
data_Th2MnFe7Co3TcP7
_symmetry_space_group_name_H-M   'P 1'
_cell_length_a   9.12975200
_cell_length_b   9.12205606
_cell_length_c   3.67909800
_cell_angle_alpha   90.00000000
_cell_angle_beta   90.00000000
_cell_angle_gamma   120.04354001
_symmetry_Int_Tables_number   1
_chemical_formula_structural   Th2MnFe7Co3TcP7
_chemical_formula_sum   'Th2 Mn1 Fe7 Co3 Tc1 P7'
_cell_volume   265.23632176
_cell_formula_units_Z   1
loop_
 _symmetry_equiv_pos_site_id
 _symmetry_equiv_pos_as_xyz
  1  'x, y, z'
loop_
 _atom_site_type_symbol
 _atom_site_label
 _atom_site_symmetry_multiplicity
 _atom_site_fract_x
 _atom_site_fract_y
 _atom_site_fract_z
 _atom_site_occupancy
  Th  Th0  1  0.332805  0.665268  0.000000  1
  Th  Th1  1  0.997837  0.998464  0.500000  1
  Mn  Mn2  1  0.444858  0.218578  0.500000  1
  Fe  Fe3  1  0.545370  0.061921  0.000000  1
  Fe  Fe4  1  0.941342  0.482805  0.000000  1
  Fe  Fe5  1  0.513025  0.452308  0.000000  1
  Fe  Fe6  1  0.616886  0.899835  0.500000  1
  Fe  Fe7  1  0.105553  0.718573  0.500000  1
  Fe  Fe8  1  0.279182  0.382682  0.500000  1
  Fe  Fe9  1  0.791117  0.235122  0.500000  1
  Co  Co10  1  0.030159  0.268418  0.000000  1
  Co  Co11  1  0.731086  0.764345  0.000000  1
  Co  Co12  1  0.235956  0.968530  0.000000  1
  Tc  Tc13  1  0.767752  0.550255  0.500000  1
  P  P14  1  0.766402  0.032994  0.000000  1
  P  P15  1  0.972584  0.736215  0.000000  1
  P  P16  1  0.260413  0.232998  0.000000  1
  P  P17  1  0.379751  0.934522  0.500000  1
  P  P18  1  0.062590  0.440988  0.500000  1
  P  P19  1  0.557155  0.622527  0.500000  1
  P  P20  1  0.668183  0.332650  0.000000  1
