# generated using pymatgen
data_Ho3SiPd5
_symmetry_space_group_name_H-M   'P 1'
_cell_length_a   8.20740143
_cell_length_b   8.20740253
_cell_length_c   8.20740252
_cell_angle_alpha   127.65114101
_cell_angle_beta   125.53783709
_cell_angle_gamma   78.92507127
_symmetry_Int_Tables_number   1
_chemical_formula_structural   Ho3SiPd5
_chemical_formula_sum   'Ho6 Si2 Pd10'
_cell_volume   344.60917212
_cell_formula_units_Z   2
loop_
 _symmetry_equiv_pos_site_id
 _symmetry_equiv_pos_as_xyz
  1  'x, y, z'
loop_
 _atom_site_type_symbol
 _atom_site_label
 _atom_site_symmetry_multiplicity
 _atom_site_fract_x
 _atom_site_fract_y
 _atom_site_fract_z
 _atom_site_occupancy
  Ho  Ho0  1  0.226005  0.450002  0.776003  1
  Ho  Ho1  1  0.773995  0.549998  0.223997  1
  Ho  Ho2  1  0.826001  0.049998  0.776003  1
  Ho  Ho3  1  0.173999  0.950002  0.223997  1
  Ho  Ho4  1  0.388384  0.250000  0.138384  1
  Ho  Ho5  1  0.611616  0.750000  0.861616  1
  Si  Si6  1  0.778991  0.250000  0.528991  1
  Si  Si7  1  0.221009  0.750000  0.471009  1
  Pd  Pd8  1  0.167313  0.398147  0.353868  1
  Pd  Pd9  1  0.832687  0.186555  0.230834  1
  Pd  Pd10  1  0.455721  0.101853  0.769166  1
  Pd  Pd11  1  0.544279  0.313445  0.646132  1
  Pd  Pd12  1  0.000000  0.500000  0.000000  1
  Pd  Pd13  1  0.000000  0.000000  0.500000  1
  Pd  Pd14  1  0.455721  0.686555  0.353868  1
  Pd  Pd15  1  0.544279  0.898147  0.230834  1
  Pd  Pd16  1  0.167313  0.813445  0.769166  1
  Pd  Pd17  1  0.832687  0.601853  0.646132  1
