# generated using pymatgen
data_MnTe16
_symmetry_space_group_name_H-M   'P 1'
_cell_length_a   4.33591663
_cell_length_b   4.33591535
_cell_length_c   32.88541499
_cell_angle_alpha   86.22005329
_cell_angle_beta   86.22005553
_cell_angle_gamma   60.00000422
_symmetry_Int_Tables_number   1
_chemical_formula_structural   MnTe16
_chemical_formula_sum   'Mn1 Te16'
_cell_volume   533.86779293
_cell_formula_units_Z   1
loop_
 _symmetry_equiv_pos_site_id
 _symmetry_equiv_pos_as_xyz
  1  'x, y, z'
loop_
 _atom_site_type_symbol
 _atom_site_label
 _atom_site_symmetry_multiplicity
 _atom_site_fract_x
 _atom_site_fract_y
 _atom_site_fract_z
 _atom_site_occupancy
  Mn  Mn0  1  0.000000  0.000000  0.000000  1
  Te  Te1  1  0.295605  0.295605  0.113186  1
  Te  Te2  1  0.704395  0.704395  0.886814  1
  Te  Te3  1  0.235847  0.235847  0.292459  1
  Te  Te4  1  0.764153  0.764153  0.707541  1
  Te  Te5  1  0.470088  0.470088  0.589737  1
  Te  Te6  1  0.529912  0.529912  0.410263  1
  Te  Te7  1  0.347303  0.347303  0.958092  1
  Te  Te8  1  0.652697  0.652697  0.041908  1
  Te  Te9  1  0.056496  0.056496  0.830511  1
  Te  Te10  1  0.943504  0.943504  0.169489  1
  Te  Te11  1  0.409614  0.409614  0.771160  1
  Te  Te12  1  0.590386  0.590386  0.228840  1
  Te  Te13  1  0.116719  0.116719  0.649843  1
  Te  Te14  1  0.883281  0.883281  0.350157  1
  Te  Te15  1  0.176293  0.176293  0.471120  1
  Te  Te16  1  0.823707  0.823707  0.528880  1
