# generated using pymatgen
data_Ce3Pr6Dy7(CdRu)4
_symmetry_space_group_name_H-M   'P 1'
_cell_length_a   9.79541881
_cell_length_b   9.79541959
_cell_length_c   9.71509703
_cell_angle_alpha   59.72612378
_cell_angle_beta   59.72611998
_cell_angle_gamma   59.99999321
_symmetry_Int_Tables_number   1
_chemical_formula_structural   Ce3Pr6Dy7(CdRu)4
_chemical_formula_sum   'Ce3 Pr6 Dy7 Cd4 Ru4'
_cell_volume   656.39895719
_cell_formula_units_Z   1
loop_
 _symmetry_equiv_pos_site_id
 _symmetry_equiv_pos_as_xyz
  1  'x, y, z'
loop_
 _atom_site_type_symbol
 _atom_site_label
 _atom_site_symmetry_multiplicity
 _atom_site_fract_x
 _atom_site_fract_y
 _atom_site_fract_z
 _atom_site_occupancy
  Ce  Ce0  1  0.343927  0.971759  0.340389  1
  Ce  Ce1  1  0.971759  0.343927  0.340389  1
  Ce  Ce2  1  0.343927  0.343927  0.340389  1
  Pr  Pr3  1  0.559780  0.559780  0.940743  1
  Pr  Pr4  1  0.939696  0.559780  0.940743  1
  Pr  Pr5  1  0.559780  0.939696  0.940743  1
  Pr  Pr6  1  0.940935  0.940935  0.558864  1
  Pr  Pr7  1  0.559266  0.940935  0.558864  1
  Pr  Pr8  1  0.940935  0.559266  0.558864  1
  Dy  Dy9  1  0.186520  0.186520  0.814895  1
  Dy  Dy10  1  0.812065  0.186520  0.814895  1
  Dy  Dy11  1  0.186519  0.812066  0.814895  1
  Dy  Dy12  1  0.812870  0.812871  0.186542  1
  Dy  Dy13  1  0.187717  0.812870  0.186541  1
  Dy  Dy14  1  0.812870  0.187718  0.186542  1
  Dy  Dy15  1  0.349071  0.349071  0.952786  1
  Cd  Cd16  1  0.578975  0.578975  0.263075  1
  Cd  Cd17  1  0.579535  0.262622  0.578308  1
  Cd  Cd18  1  0.262622  0.579535  0.578308  1
  Cd  Cd19  1  0.579535  0.579535  0.578308  1
  Ru  Ru20  1  0.144129  0.144129  0.567613  1
  Ru  Ru21  1  0.138747  0.570071  0.152435  1
  Ru  Ru22  1  0.570071  0.138747  0.152435  1
  Ru  Ru23  1  0.138747  0.138747  0.152435  1
