# generated using pymatgen
data_Ta12Ga5Ni7N4
_symmetry_space_group_name_H-M   'P 1'
_cell_length_a   8.12721751
_cell_length_b   8.13558751
_cell_length_c   8.13558600
_cell_angle_alpha   59.99999802
_cell_angle_beta   59.96592422
_cell_angle_gamma   59.96592342
_symmetry_Int_Tables_number   1
_chemical_formula_structural   Ta12Ga5Ni7N4
_chemical_formula_sum   'Ta12 Ga5 Ni7 N4'
_cell_volume   380.17255326
_cell_formula_units_Z   1
loop_
 _symmetry_equiv_pos_site_id
 _symmetry_equiv_pos_as_xyz
  1  'x, y, z'
loop_
 _atom_site_type_symbol
 _atom_site_label
 _atom_site_symmetry_multiplicity
 _atom_site_fract_x
 _atom_site_fract_y
 _atom_site_fract_z
 _atom_site_occupancy
  Ta  Ta0  1  0.310063  0.689174  0.689174  1
  Ta  Ta1  1  0.562976  0.557703  0.939660  1
  Ta  Ta2  1  0.310063  0.689174  0.311591  1
  Ta  Ta3  1  0.310063  0.311591  0.689174  1
  Ta  Ta4  1  0.685970  0.315373  0.315373  1
  Ta  Ta5  1  0.933790  0.935229  0.565491  1
  Ta  Ta6  1  0.933790  0.565491  0.935229  1
  Ta  Ta7  1  0.933790  0.565491  0.565491  1
  Ta  Ta8  1  0.562976  0.939660  0.939660  1
  Ta  Ta9  1  0.685970  0.683285  0.315373  1
  Ta  Ta10  1  0.685970  0.315373  0.683285  1
  Ta  Ta11  1  0.562976  0.939660  0.557703  1
  Ga  Ga12  1  0.019004  0.326999  0.326999  1
  Ga  Ga13  1  0.129238  0.116779  0.637204  1
  Ga  Ga14  1  0.129238  0.116779  0.116779  1
  Ga  Ga15  1  0.622895  0.125702  0.125702  1
  Ga  Ga16  1  0.129238  0.637204  0.116779  1
  Ni  Ni17  1  0.912123  0.916558  0.916558  1
  Ni  Ni18  1  0.333173  0.335903  0.995020  1
  Ni  Ni19  1  0.912123  0.916558  0.254761  1
  Ni  Ni20  1  0.265247  0.911584  0.911584  1
  Ni  Ni21  1  0.333173  0.995020  0.335903  1
  Ni  Ni22  1  0.912123  0.254761  0.916558  1
  Ni  Ni23  1  0.333173  0.335903  0.335903  1
  N  N24  1  0.621285  0.124615  0.627050  1
  N  N25  1  0.621285  0.627050  0.124615  1
  N  N26  1  0.126994  0.624336  0.624336  1
  N  N27  1  0.621285  0.627050  0.627050  1
