# generated using pymatgen
data_HoEr(MgRh)2
_symmetry_space_group_name_H-M   'P 1'
_cell_length_a   4.09567500
_cell_length_b   7.07545356
_cell_length_c   8.49063899
_cell_angle_alpha   89.97262297
_cell_angle_beta   90.00000000
_cell_angle_gamma   90.00000000
_symmetry_Int_Tables_number   1
_chemical_formula_structural   HoEr(MgRh)2
_chemical_formula_sum   'Ho2 Er2 Mg4 Rh4'
_cell_volume   246.04814676
_cell_formula_units_Z   2
loop_
 _symmetry_equiv_pos_site_id
 _symmetry_equiv_pos_as_xyz
  1  'x, y, z'
loop_
 _atom_site_type_symbol
 _atom_site_label
 _atom_site_symmetry_multiplicity
 _atom_site_fract_x
 _atom_site_fract_y
 _atom_site_fract_z
 _atom_site_occupancy
  Ho  Ho0  1  0.250000  0.534491  0.176792  1
  Ho  Ho1  1  0.750000  0.465509  0.823208  1
  Er  Er2  1  0.750000  0.965167  0.675710  1
  Er  Er3  1  0.250000  0.034833  0.324290  1
  Mg  Mg4  1  0.250000  0.638925  0.561297  1
  Mg  Mg5  1  0.750000  0.361075  0.438703  1
  Mg  Mg6  1  0.750000  0.860825  0.060957  1
  Mg  Mg7  1  0.250000  0.139175  0.939043  1
  Rh  Rh8  1  0.250000  0.753617  0.871726  1
  Rh  Rh9  1  0.750000  0.246383  0.128274  1
  Rh  Rh10  1  0.750000  0.748828  0.372804  1
  Rh  Rh11  1  0.250000  0.251172  0.627196  1
