# generated using pymatgen
data_Sc2CoSb2Pt
_symmetry_space_group_name_H-M   'P 1'
_cell_length_a   7.66742659
_cell_length_b   7.66742631
_cell_length_c   7.66742532
_cell_angle_alpha   33.50932607
_cell_angle_beta   33.50932873
_cell_angle_gamma   33.50932759
_symmetry_Int_Tables_number   1
_chemical_formula_structural   Sc2CoSb2Pt
_chemical_formula_sum   'Sc2 Co1 Sb2 Pt1'
_cell_volume   122.36298649
_cell_formula_units_Z   1
loop_
 _symmetry_equiv_pos_site_id
 _symmetry_equiv_pos_as_xyz
  1  'x, y, z'
loop_
 _atom_site_type_symbol
 _atom_site_label
 _atom_site_symmetry_multiplicity
 _atom_site_fract_x
 _atom_site_fract_y
 _atom_site_fract_z
 _atom_site_occupancy
  Sc  Sc0  1  0.245674  0.245674  0.245674  1
  Sc  Sc1  1  0.755097  0.755097  0.755097  1
  Co  Co2  1  0.874798  0.874798  0.874798  1
  Sb  Sb3  1  0.993988  0.993988  0.993988  1
  Sb  Sb4  1  0.504732  0.504732  0.504732  1
  Pt  Pt5  1  0.375710  0.375710  0.375710  1
