# generated using pymatgen
data_PrFeRe2C
_symmetry_space_group_name_H-M   'P 1'
_cell_length_a   5.79194136
_cell_length_b   5.79194144
_cell_length_c   7.48181200
_cell_angle_alpha   90.00000000
_cell_angle_beta   90.00000000
_cell_angle_gamma   139.98768186
_symmetry_Int_Tables_number   1
_chemical_formula_structural   PrFeRe2C
_chemical_formula_sum   'Pr2 Fe2 Re4 C2'
_cell_volume   161.37410839
_cell_formula_units_Z   2
loop_
 _symmetry_equiv_pos_site_id
 _symmetry_equiv_pos_as_xyz
  1  'x, y, z'
loop_
 _atom_site_type_symbol
 _atom_site_label
 _atom_site_symmetry_multiplicity
 _atom_site_fract_x
 _atom_site_fract_y
 _atom_site_fract_z
 _atom_site_occupancy
  Pr  Pr0  1  0.537494  0.462506  0.250000  1
  Pr  Pr1  1  0.462506  0.537494  0.750000  1
  Fe  Fe2  1  0.265296  0.734704  0.250000  1
  Fe  Fe3  1  0.734704  0.265296  0.750000  1
  Re  Re4  1  0.823977  0.176023  0.063951  1
  Re  Re5  1  0.176023  0.823977  0.936049  1
  Re  Re6  1  0.176023  0.823977  0.563951  1
  Re  Re7  1  0.823977  0.176023  0.436049  1
  C  C8  1  0.000000  0.000000  0.000000  1
  C  C9  1  0.000000  0.000000  0.500000  1
