# generated using pymatgen
data_Cs6LuCr(PBr9)2
_symmetry_space_group_name_H-M   'P 1'
_cell_length_a   7.90291100
_cell_length_b   7.90291015
_cell_length_c   19.81630000
_cell_angle_alpha   90.00000000
_cell_angle_beta   90.00000000
_cell_angle_gamma   119.99999936
_symmetry_Int_Tables_number   1
_chemical_formula_structural   Cs6LuCr(PBr9)2
_chemical_formula_sum   'Cs6 Lu1 Cr1 P2 Br18'
_cell_volume   1071.83352911
_cell_formula_units_Z   1
loop_
 _symmetry_equiv_pos_site_id
 _symmetry_equiv_pos_as_xyz
  1  'x, y, z'
loop_
 _atom_site_type_symbol
 _atom_site_label
 _atom_site_symmetry_multiplicity
 _atom_site_fract_x
 _atom_site_fract_y
 _atom_site_fract_z
 _atom_site_occupancy
  Cs  Cs0  1  0.666667  0.333333  0.908949  1
  Cs  Cs1  1  0.333333  0.666667  0.411253  1
  Cs  Cs2  1  0.666667  0.333333  0.566658  1
  Cs  Cs3  1  0.333333  0.666667  0.065326  1
  Cs  Cs4  1  0.000000  0.000000  0.764495  1
  Cs  Cs5  1  0.000000  0.000000  0.263630  1
  Lu  Lu6  1  0.666667  0.333333  0.338246  1
  Cr  Cr7  1  0.333333  0.666667  0.836069  1
  P  P8  1  0.333333  0.666667  0.653544  1
  P  P9  1  0.666667  0.333333  0.150864  1
  Br  Br10  1  0.830474  0.660947  0.414687  1
  Br  Br11  1  0.182079  0.364159  0.908093  1
  Br  Br12  1  0.182079  0.817921  0.908093  1
  Br  Br13  1  0.184118  0.368237  0.591422  1
  Br  Br14  1  0.635841  0.817921  0.908093  1
  Br  Br15  1  0.339053  0.169526  0.414687  1
  Br  Br16  1  0.031691  0.515845  0.758153  1
  Br  Br17  1  0.830474  0.169526  0.414687  1
  Br  Br18  1  0.504850  0.009699  0.251519  1
  Br  Br19  1  0.484155  0.515845  0.758153  1
  Br  Br20  1  0.504850  0.495150  0.251519  1
  Br  Br21  1  0.990301  0.495150  0.251519  1
  Br  Br22  1  0.368783  0.184391  0.089781  1
  Br  Br23  1  0.484155  0.968309  0.758153  1
  Br  Br24  1  0.815609  0.631217  0.089781  1
  Br  Br25  1  0.184118  0.815882  0.591422  1
  Br  Br26  1  0.631763  0.815882  0.591422  1
  Br  Br27  1  0.815609  0.184391  0.089781  1
