# generated using pymatgen
data_Ho4ReTc5Ir2
_symmetry_space_group_name_H-M   'P 1'
_cell_length_a   5.21486938
_cell_length_b   5.21486753
_cell_length_c   9.26796200
_cell_angle_alpha   90.00000000
_cell_angle_beta   90.00000000
_cell_angle_gamma   119.12400429
_symmetry_Int_Tables_number   1
_chemical_formula_structural   Ho4ReTc5Ir2
_chemical_formula_sum   'Ho4 Re1 Tc5 Ir2'
_cell_volume   220.17493293
_cell_formula_units_Z   1
loop_
 _symmetry_equiv_pos_site_id
 _symmetry_equiv_pos_as_xyz
  1  'x, y, z'
loop_
 _atom_site_type_symbol
 _atom_site_label
 _atom_site_symmetry_multiplicity
 _atom_site_fract_x
 _atom_site_fract_y
 _atom_site_fract_z
 _atom_site_occupancy
  Ho  Ho0  1  0.331930  0.668070  0.435570  1
  Ho  Ho1  1  0.667235  0.332765  0.564446  1
  Ho  Ho2  1  0.667235  0.332765  0.935554  1
  Ho  Ho3  1  0.331930  0.668070  0.064430  1
  Re  Re4  1  0.832924  0.167076  0.250000  1
  Tc  Tc5  1  0.830405  0.656465  0.250000  1
  Tc  Tc6  1  0.343535  0.169595  0.250000  1
  Tc  Tc7  1  0.170660  0.829340  0.750000  1
  Tc  Tc8  1  0.170107  0.340545  0.750000  1
  Tc  Tc9  1  0.659455  0.829893  0.750000  1
  Ir  Ir10  1  0.997291  0.002709  0.500080  1
  Ir  Ir11  1  0.997291  0.002709  0.999920  1
