# generated using pymatgen
data_Y13Ho3(AlPt)4
_symmetry_space_group_name_H-M   'P 1'
_cell_length_a   9.63036623
_cell_length_b   9.64528964
_cell_length_c   9.64529000
_cell_angle_alpha   59.99999876
_cell_angle_beta   59.94872449
_cell_angle_gamma   59.94872536
_symmetry_Int_Tables_number   1
_chemical_formula_structural   Y13Ho3(AlPt)4
_chemical_formula_sum   'Y13 Ho3 Al4 Pt4'
_cell_volume   633.02569897
_cell_formula_units_Z   1
loop_
 _symmetry_equiv_pos_site_id
 _symmetry_equiv_pos_as_xyz
  1  'x, y, z'
loop_
 _atom_site_type_symbol
 _atom_site_label
 _atom_site_symmetry_multiplicity
 _atom_site_fract_x
 _atom_site_fract_y
 _atom_site_fract_z
 _atom_site_occupancy
  Y  Y0  1  0.937969  0.354010  0.354010  1
  Y  Y1  1  0.807430  0.192379  0.192379  1
  Y  Y2  1  0.192916  0.807072  0.807072  1
  Y  Y3  1  0.192916  0.807072  0.192940  1
  Y  Y4  1  0.807430  0.192379  0.807813  1
  Y  Y5  1  0.192916  0.192940  0.807072  1
  Y  Y6  1  0.807430  0.807813  0.192379  1
  Y  Y7  1  0.937686  0.562486  0.562486  1
  Y  Y8  1  0.561727  0.938013  0.938013  1
  Y  Y9  1  0.561727  0.938013  0.562247  1
  Y  Y10  1  0.937686  0.562486  0.937341  1
  Y  Y11  1  0.561727  0.562247  0.938013  1
  Y  Y12  1  0.937686  0.937341  0.562486  1
  Ho  Ho13  1  0.353128  0.353235  0.353235  1
  Ho  Ho14  1  0.353128  0.353235  0.940402  1
  Ho  Ho15  1  0.353128  0.940402  0.353235  1
  Al  Al16  1  0.577636  0.578047  0.578047  1
  Al  Al17  1  0.577636  0.578047  0.266270  1
  Al  Al18  1  0.577636  0.266270  0.578047  1
  Al  Al19  1  0.266400  0.577867  0.577867  1
  Pt  Pt20  1  0.145743  0.143067  0.143067  1
  Pt  Pt21  1  0.145743  0.143067  0.568123  1
  Pt  Pt22  1  0.145743  0.568123  0.143067  1
  Pt  Pt23  1  0.566835  0.144389  0.144389  1
