# generated using pymatgen
data_Yb8SmPt6
_symmetry_space_group_name_H-M   'P 1'
_cell_length_a   7.50739985
_cell_length_b   7.50281539
_cell_length_c   7.57104018
_cell_angle_alpha   70.13219160
_cell_angle_beta   70.08996243
_cell_angle_gamma   70.33491963
_symmetry_Int_Tables_number   1
_chemical_formula_structural   Yb8SmPt6
_chemical_formula_sum   'Yb8 Sm1 Pt6'
_cell_volume   365.15240050
_cell_formula_units_Z   1
loop_
 _symmetry_equiv_pos_site_id
 _symmetry_equiv_pos_as_xyz
  1  'x, y, z'
loop_
 _atom_site_type_symbol
 _atom_site_label
 _atom_site_symmetry_multiplicity
 _atom_site_fract_x
 _atom_site_fract_y
 _atom_site_fract_z
 _atom_site_occupancy
  Yb  Yb0  1  0.003038  0.996830  0.001643  1
  Yb  Yb1  1  0.400899  0.669951  0.152559  1
  Yb  Yb2  1  0.194740  0.194977  0.198050  1
  Yb  Yb3  1  0.851207  0.598093  0.331590  1
  Yb  Yb4  1  0.669404  0.148223  0.400810  1
  Yb  Yb5  1  0.330385  0.850453  0.596982  1
  Yb  Yb6  1  0.148109  0.403097  0.669468  1
  Yb  Yb7  1  0.802047  0.803686  0.802662  1
  Sm  Sm8  1  0.599117  0.330056  0.852664  1
  Pt  Pt9  1  0.831890  0.412208  0.044955  1
  Pt  Pt10  1  0.591355  0.955808  0.164000  1
  Pt  Pt11  1  0.047907  0.833449  0.411447  1
  Pt  Pt12  1  0.947547  0.168568  0.590042  1
  Pt  Pt13  1  0.409252  0.049241  0.831403  1
  Pt  Pt14  1  0.173104  0.585360  0.951726  1
