# generated using pymatgen
data_La7Nd6Ho3(CdIr)4
_symmetry_space_group_name_H-M   'P 1'
_cell_length_a   9.97036920
_cell_length_b   9.99445544
_cell_length_c   9.97840088
_cell_angle_alpha   59.89356507
_cell_angle_beta   59.90672136
_cell_angle_gamma   59.97328036
_symmetry_Int_Tables_number   1
_chemical_formula_structural   La7Nd6Ho3(CdIr)4
_chemical_formula_sum   'La7 Nd6 Ho3 Cd4 Ir4'
_cell_volume   701.89420595
_cell_formula_units_Z   1
loop_
 _symmetry_equiv_pos_site_id
 _symmetry_equiv_pos_as_xyz
  1  'x, y, z'
loop_
 _atom_site_type_symbol
 _atom_site_label
 _atom_site_symmetry_multiplicity
 _atom_site_fract_x
 _atom_site_fract_y
 _atom_site_fract_z
 _atom_site_occupancy
  La  La0  1  0.346906  0.346739  0.352490  1
  La  La1  1  0.350987  0.345759  0.952789  1
  La  La2  1  0.352490  0.953864  0.346906  1
  La  La3  1  0.952789  0.350464  0.350987  1
  La  La4  1  0.812481  0.188202  0.183468  1
  La  La5  1  0.183468  0.815848  0.812481  1
  La  La6  1  0.187878  0.812122  0.187878  1
  Nd  Nd7  1  0.935546  0.560886  0.564413  1
  Nd  Nd8  1  0.564413  0.939155  0.935546  1
  Nd  Nd9  1  0.562935  0.937065  0.562935  1
  Nd  Nd10  1  0.937725  0.562275  0.937725  1
  Nd  Nd11  1  0.564661  0.559701  0.936207  1
  Nd  Nd12  1  0.936207  0.939431  0.564661  1
  Ho  Ho13  1  0.811380  0.188620  0.811380  1
  Ho  Ho14  1  0.187698  0.193459  0.807773  1
  Ho  Ho15  1  0.807773  0.811070  0.187698  1
  Cd  Cd16  1  0.582679  0.578963  0.578916  1
  Cd  Cd17  1  0.581534  0.581710  0.259179  1
  Cd  Cd18  1  0.578916  0.259441  0.582679  1
  Cd  Cd19  1  0.259179  0.577577  0.581534  1
  Ir  Ir20  1  0.141236  0.140221  0.139262  1
  Ir  Ir21  1  0.140620  0.140209  0.581235  1
  Ir  Ir22  1  0.139262  0.579280  0.141236  1
  Ir  Ir23  1  0.581235  0.137936  0.140620  1
