# generated using pymatgen
data_TbY7Se12
_symmetry_space_group_name_H-M   'P 1'
_cell_length_a   7.10382336
_cell_length_b   7.11013790
_cell_length_c   12.96976163
_cell_angle_alpha   100.66918244
_cell_angle_beta   100.65392470
_cell_angle_gamma   108.96779192
_symmetry_Int_Tables_number   1
_chemical_formula_structural   TbY7Se12
_chemical_formula_sum   'Tb1 Y7 Se12'
_cell_volume   587.26536906
_cell_formula_units_Z   1
loop_
 _symmetry_equiv_pos_site_id
 _symmetry_equiv_pos_as_xyz
  1  'x, y, z'
loop_
 _atom_site_type_symbol
 _atom_site_label
 _atom_site_symmetry_multiplicity
 _atom_site_fract_x
 _atom_site_fract_y
 _atom_site_fract_z
 _atom_site_occupancy
  Tb  Tb0  1  0.002477  0.502425  0.004929  1
  Y  Y1  1  0.083840  0.083796  0.167622  1
  Y  Y2  1  0.666362  0.166311  0.332659  1
  Y  Y3  1  0.747711  0.747667  0.495352  1
  Y  Y4  1  0.252342  0.252294  0.504662  1
  Y  Y5  1  0.833702  0.333649  0.667359  1
  Y  Y6  1  0.916201  0.916159  0.832378  1
  Y  Y7  1  0.497656  0.997600  0.995268  1
  Se  Se8  1  0.242368  0.241690  0.999943  1
  Se  Se9  1  0.757657  0.758220  0.999994  1
  Se  Se10  1  0.826119  0.319604  0.162285  1
  Se  Se11  1  0.336207  0.842797  0.162227  1
  Se  Se12  1  0.414637  0.408193  0.338041  1
  Se  Se13  1  0.923214  0.929923  0.337985  1
  Se  Se14  1  0.508241  0.008195  0.500067  1
  Se  Se15  1  0.991824  0.491762  0.499954  1
  Se  Se16  1  0.070065  0.076832  0.661972  1
  Se  Se17  1  0.591793  0.585272  0.661921  1
  Se  Se18  1  0.679235  0.172716  0.837656  1
  Se  Se19  1  0.158311  0.664861  0.837671  1
