# generated using pymatgen
data_Ag(IO3)2
_symmetry_space_group_name_H-M   'P 1'
_cell_length_a   5.29166600
_cell_length_b   5.90893665
_cell_length_c   9.86766168
_cell_angle_alpha   96.79087518
_cell_angle_beta   90.00000000
_cell_angle_gamma   90.00000000
_symmetry_Int_Tables_number   1
_chemical_formula_structural   Ag(IO3)2
_chemical_formula_sum   'Ag2 I4 O12'
_cell_volume   306.37859045
_cell_formula_units_Z   2
loop_
 _symmetry_equiv_pos_site_id
 _symmetry_equiv_pos_as_xyz
  1  'x, y, z'
loop_
 _atom_site_type_symbol
 _atom_site_label
 _atom_site_symmetry_multiplicity
 _atom_site_fract_x
 _atom_site_fract_y
 _atom_site_fract_z
 _atom_site_occupancy
  Ag  Ag0  1  0.829087  0.723732  0.244541  1
  Ag  Ag1  1  0.329087  0.276268  0.755459  1
  I  I2  1  0.729273  0.235913  0.434132  1
  I  I3  1  0.229273  0.764087  0.565868  1
  I  I4  1  0.732029  0.765343  0.903679  1
  I  I5  1  0.232029  0.234657  0.096321  1
  O  O6  1  0.613813  0.639223  0.055070  1
  O  O7  1  0.113813  0.360777  0.944930  1
  O  O8  1  0.038663  0.866888  0.426692  1
  O  O9  1  0.538663  0.133112  0.573308  1
  O  O10  1  0.546543  0.484504  0.400372  1
  O  O11  1  0.046543  0.515496  0.599628  1
  O  O12  1  0.569094  0.038652  0.920667  1
  O  O13  1  0.069094  0.961348  0.079333  1
  O  O14  1  0.521130  0.607502  0.773153  1
  O  O15  1  0.021130  0.392498  0.226847  1
  O  O16  1  0.595616  0.032411  0.293819  1
  O  O17  1  0.095616  0.967589  0.706181  1
