# generated using pymatgen
data_TiNb8CdS16
_symmetry_space_group_name_H-M   'P 1'
_cell_length_a   6.72150300
_cell_length_b   6.72150208
_cell_length_c   13.03539400
_cell_angle_alpha   90.00000000
_cell_angle_beta   90.00000000
_cell_angle_gamma   120.00000944
_symmetry_Int_Tables_number   1
_chemical_formula_structural   TiNb8CdS16
_chemical_formula_sum   'Ti1 Nb8 Cd1 S16'
_cell_volume   510.02032897
_cell_formula_units_Z   1
loop_
 _symmetry_equiv_pos_site_id
 _symmetry_equiv_pos_as_xyz
  1  'x, y, z'
loop_
 _atom_site_type_symbol
 _atom_site_label
 _atom_site_symmetry_multiplicity
 _atom_site_fract_x
 _atom_site_fract_y
 _atom_site_fract_z
 _atom_site_occupancy
  Ti  Ti0  1  0.000000  0.000000  0.000000  1
  Nb  Nb1  1  0.000000  0.000000  0.235983  1
  Nb  Nb2  1  0.000000  0.000000  0.764017  1
  Nb  Nb3  1  0.504709  0.495291  0.236018  1
  Nb  Nb4  1  0.504709  0.009419  0.236018  1
  Nb  Nb5  1  0.990581  0.495291  0.236018  1
  Nb  Nb6  1  0.495291  0.504709  0.763982  1
  Nb  Nb7  1  0.495291  0.990581  0.763982  1
  Nb  Nb8  1  0.009419  0.504709  0.763982  1
  Cd  Cd9  1  0.000000  0.000000  0.500000  1
  S  S10  1  0.333333  0.666667  0.885822  1
  S  S11  1  0.666667  0.333333  0.114178  1
  S  S12  1  0.666667  0.333333  0.358013  1
  S  S13  1  0.333333  0.666667  0.641987  1
  S  S14  1  0.168435  0.831565  0.356172  1
  S  S15  1  0.168435  0.336870  0.356172  1
  S  S16  1  0.663130  0.831565  0.356172  1
  S  S17  1  0.831565  0.168435  0.643828  1
  S  S18  1  0.831565  0.663130  0.643828  1
  S  S19  1  0.336870  0.168435  0.643828  1
  S  S20  1  0.833254  0.166746  0.884869  1
  S  S21  1  0.833254  0.666509  0.884869  1
  S  S22  1  0.333491  0.166746  0.884869  1
  S  S23  1  0.166746  0.833254  0.115131  1
  S  S24  1  0.166746  0.333491  0.115131  1
  S  S25  1  0.666509  0.833254  0.115131  1
