# generated using pymatgen
data_TbEuHo5PtI12
_symmetry_space_group_name_H-M   'P 1'
_cell_length_a   9.79743710
_cell_length_b   9.80423259
_cell_length_c   9.80873373
_cell_angle_alpha   106.55217817
_cell_angle_beta   106.59686064
_cell_angle_gamma   106.55988941
_symmetry_Int_Tables_number   1
_chemical_formula_structural   TbEuHo5PtI12
_chemical_formula_sum   'Tb1 Eu1 Ho5 Pt1 I12'
_cell_volume   793.69729735
_cell_formula_units_Z   1
loop_
 _symmetry_equiv_pos_site_id
 _symmetry_equiv_pos_as_xyz
  1  'x, y, z'
loop_
 _atom_site_type_symbol
 _atom_site_label
 _atom_site_symmetry_multiplicity
 _atom_site_fract_x
 _atom_site_fract_y
 _atom_site_fract_z
 _atom_site_occupancy
  Tb  Tb0  1  0.403130  0.475983  0.199499  1
  Eu  Eu1  1  0.000076  0.000158  0.000278  1
  Ho  Ho2  1  0.201666  0.403807  0.475947  1
  Ho  Ho3  1  0.475911  0.201691  0.404239  1
  Ho  Ho4  1  0.596234  0.524158  0.798227  1
  Ho  Ho5  1  0.798475  0.596158  0.524533  1
  Ho  Ho6  1  0.524339  0.798456  0.596662  1
  Pt  Pt7  1  0.500080  0.499993  0.500121  1
  I  I8  1  0.045145  0.359165  0.126186  1
  I  I9  1  0.126028  0.047029  0.359888  1
  I  I10  1  0.359829  0.124605  0.046983  1
  I  I11  1  0.953087  0.640073  0.873994  1
  I  I12  1  0.873943  0.952951  0.640195  1
  I  I13  1  0.640209  0.874022  0.953113  1
  I  I14  1  0.724198  0.574268  0.176877  1
  I  I15  1  0.176547  0.722123  0.573663  1
  I  I16  1  0.573690  0.176416  0.722231  1
  I  I17  1  0.277283  0.425978  0.822063  1
  I  I18  1  0.823428  0.277899  0.426369  1
  I  I19  1  0.426703  0.825066  0.278933  1
