# generated using pymatgen
data_RuSCl9
_symmetry_space_group_name_H-M   'P 1'
_cell_length_a   7.56551654
_cell_length_b   7.56551614
_cell_length_c   13.91110157
_cell_angle_alpha   74.47696950
_cell_angle_beta   74.47697087
_cell_angle_gamma   62.45150076
_symmetry_Int_Tables_number   1
_chemical_formula_structural   RuSCl9
_chemical_formula_sum   'Ru2 S2 Cl18'
_cell_volume   670.48971331
_cell_formula_units_Z   2
loop_
 _symmetry_equiv_pos_site_id
 _symmetry_equiv_pos_as_xyz
  1  'x, y, z'
loop_
 _atom_site_type_symbol
 _atom_site_label
 _atom_site_symmetry_multiplicity
 _atom_site_fract_x
 _atom_site_fract_y
 _atom_site_fract_z
 _atom_site_occupancy
  Ru  Ru0  1  0.000000  0.000000  0.000000  1
  Ru  Ru1  1  0.500000  0.500000  0.500000  1
  S  S2  1  0.846122  0.846122  0.718754  1
  S  S3  1  0.153878  0.153878  0.281246  1
  Cl  Cl4  1  0.029927  0.427656  0.196208  1
  Cl  Cl5  1  0.266402  0.685317  0.390755  1
  Cl  Cl6  1  0.314683  0.733598  0.609245  1
  Cl  Cl7  1  0.427656  0.029927  0.196208  1
  Cl  Cl8  1  0.685317  0.266402  0.390755  1
  Cl  Cl9  1  0.686330  0.686330  0.418987  1
  Cl  Cl10  1  0.214782  0.214782  0.398088  1
  Cl  Cl11  1  0.572344  0.970073  0.803792  1
  Cl  Cl12  1  0.708736  0.291264  0.000000  1
  Cl  Cl13  1  0.733598  0.314683  0.609245  1
  Cl  Cl14  1  0.970073  0.572344  0.803792  1
  Cl  Cl15  1  0.785218  0.785218  0.601912  1
  Cl  Cl16  1  0.810420  0.810420  0.037927  1
  Cl  Cl17  1  0.975259  0.975259  0.173432  1
  Cl  Cl18  1  0.313670  0.313670  0.581013  1
  Cl  Cl19  1  0.189580  0.189580  0.962073  1
  Cl  Cl20  1  0.291264  0.708736  0.000000  1
  Cl  Cl21  1  0.024741  0.024741  0.826568  1
