# generated using pymatgen
data_PrHfPaN4
_symmetry_space_group_name_H-M   'P 1'
_cell_length_a   6.75210188
_cell_length_b   6.63196116
_cell_length_c   6.75208300
_cell_angle_alpha   119.40836359
_cell_angle_beta   89.03589458
_cell_angle_gamma   119.40837924
_symmetry_Int_Tables_number   1
_chemical_formula_structural   PrHfPaN4
_chemical_formula_sum   'Pr2 Hf2 Pa2 N8'
_cell_volume   219.20458769
_cell_formula_units_Z   2
loop_
 _symmetry_equiv_pos_site_id
 _symmetry_equiv_pos_as_xyz
  1  'x, y, z'
loop_
 _atom_site_type_symbol
 _atom_site_label
 _atom_site_symmetry_multiplicity
 _atom_site_fract_x
 _atom_site_fract_y
 _atom_site_fract_z
 _atom_site_occupancy
  Pr  Pr0  1  0.996960  0.999995  0.003031  1
  Pr  Pr1  1  0.752993  0.500006  0.247016  1
  Hf  Hf2  1  0.375000  0.749991  0.625000  1
  Hf  Hf3  1  0.374999  0.250009  0.625000  1
  Pa  Pa4  1  0.374989  0.749970  0.124951  1
  Pa  Pa5  1  0.875050  0.250031  0.625011  1
  N  N6  1  0.605638  0.216486  0.394331  1
  N  N7  1  0.177473  0.788873  0.400216  1
  N  N8  1  0.605683  0.783528  0.394371  1
  N  N9  1  0.150197  0.288846  0.427455  1
  N  N10  1  0.599794  0.211138  0.822522  1
  N  N11  1  0.144316  0.716459  0.855633  1
  N  N12  1  0.144358  0.283526  0.855669  1
  N  N13  1  0.572549  0.711140  0.849791  1
