# generated using pymatgen
data_Tb2HoThPt4
_symmetry_space_group_name_H-M   'P 1'
_cell_length_a   4.57671900
_cell_length_b   5.65157248
_cell_length_c   7.09372276
_cell_angle_alpha   90.49322416
_cell_angle_beta   90.00000000
_cell_angle_gamma   90.00000000
_symmetry_Int_Tables_number   1
_chemical_formula_structural   Tb2HoThPt4
_chemical_formula_sum   'Tb2 Ho1 Th1 Pt4'
_cell_volume   183.47701647
_cell_formula_units_Z   1
loop_
 _symmetry_equiv_pos_site_id
 _symmetry_equiv_pos_as_xyz
  1  'x, y, z'
loop_
 _atom_site_type_symbol
 _atom_site_label
 _atom_site_symmetry_multiplicity
 _atom_site_fract_x
 _atom_site_fract_y
 _atom_site_fract_z
 _atom_site_occupancy
  Tb  Tb0  1  0.250000  0.138883  0.182515  1
  Tb  Tb1  1  0.750000  0.641635  0.314513  1
  Ho  Ho2  1  0.750000  0.859045  0.821252  1
  Th  Th3  1  0.250000  0.360939  0.682452  1
  Pt  Pt4  1  0.250000  0.842933  0.544313  1
  Pt  Pt5  1  0.250000  0.657678  0.043353  1
  Pt  Pt6  1  0.750000  0.156491  0.454229  1
  Pt  Pt7  1  0.750000  0.342397  0.957372  1
