# generated using pymatgen
data_CsGeAsIrRh
_symmetry_space_group_name_H-M   'P 1'
_cell_length_a   8.07619990
_cell_length_b   8.07620066
_cell_length_c   8.07619903
_cell_angle_alpha   150.61580450
_cell_angle_beta   150.61914745
_cell_angle_gamma   42.03576416
_symmetry_Int_Tables_number   1
_chemical_formula_structural   CsGeAsIrRh
_chemical_formula_sum   'Cs1 Ge1 As1 Ir1 Rh1'
_cell_volume   126.50714553
_cell_formula_units_Z   1
loop_
 _symmetry_equiv_pos_site_id
 _symmetry_equiv_pos_as_xyz
  1  'x, y, z'
loop_
 _atom_site_type_symbol
 _atom_site_label
 _atom_site_symmetry_multiplicity
 _atom_site_fract_x
 _atom_site_fract_y
 _atom_site_fract_z
 _atom_site_occupancy
  Cs  Cs0  1  0.001718  0.001718  0.000000  1
  Ge  Ge1  1  0.340913  0.340913  0.000000  1
  As  As2  1  0.660232  0.660232  0.000000  1
  Ir  Ir3  1  0.748467  0.248467  0.500000  1
  Rh  Rh4  1  0.248669  0.748669  0.500000  1
