# generated using pymatgen
data_Nd4Tm2Si3Au
_symmetry_space_group_name_H-M   'P 1'
_cell_length_a   7.61772571
_cell_length_b   7.61772571
_cell_length_c   4.42269300
_cell_angle_alpha   90.00000000
_cell_angle_beta   90.00000000
_cell_angle_gamma   88.21739207
_symmetry_Int_Tables_number   1
_chemical_formula_structural   Nd4Tm2Si3Au
_chemical_formula_sum   'Nd4 Tm2 Si3 Au1'
_cell_volume   256.52354186
_cell_formula_units_Z   1
loop_
 _symmetry_equiv_pos_site_id
 _symmetry_equiv_pos_as_xyz
  1  'x, y, z'
loop_
 _atom_site_type_symbol
 _atom_site_label
 _atom_site_symmetry_multiplicity
 _atom_site_fract_x
 _atom_site_fract_y
 _atom_site_fract_z
 _atom_site_occupancy
  Nd  Nd0  1  0.676071  0.176071  0.500000  1
  Nd  Nd1  1  0.333941  0.833941  0.500000  1
  Nd  Nd2  1  0.174120  0.315186  0.500000  1
  Nd  Nd3  1  0.815186  0.674120  0.500000  1
  Tm  Tm4  1  0.006414  0.996842  0.000000  1
  Tm  Tm5  1  0.496842  0.506414  0.000000  1
  Si  Si6  1  0.873181  0.373181  0.000000  1
  Si  Si7  1  0.618605  0.886624  0.000000  1
  Si  Si8  1  0.386624  0.118605  0.000000  1
  Au  Au9  1  0.119016  0.619016  0.000000  1
