# generated using pymatgen
data_Dy2ErAg(Pt2O7)2
_symmetry_space_group_name_H-M   'P 1'
_cell_length_a   7.31637402
_cell_length_b   7.31637413
_cell_length_c   7.18646401
_cell_angle_alpha   59.35522090
_cell_angle_beta   59.35522123
_cell_angle_gamma   59.98557068
_symmetry_Int_Tables_number   1
_chemical_formula_structural   Dy2ErAg(Pt2O7)2
_chemical_formula_sum   'Dy2 Er1 Ag1 Pt4 O14'
_cell_volume   269.30448709
_cell_formula_units_Z   1
loop_
 _symmetry_equiv_pos_site_id
 _symmetry_equiv_pos_as_xyz
  1  'x, y, z'
loop_
 _atom_site_type_symbol
 _atom_site_label
 _atom_site_symmetry_multiplicity
 _atom_site_fract_x
 _atom_site_fract_y
 _atom_site_fract_z
 _atom_site_occupancy
  Dy  Dy0  1  0.625000  0.125000  0.625000  1
  Dy  Dy1  1  0.125000  0.625000  0.625000  1
  Er  Er2  1  0.625000  0.625000  0.625000  1
  Ag  Ag3  1  0.625000  0.625000  0.125000  1
  Pt  Pt4  1  0.625000  0.125000  0.125000  1
  Pt  Pt5  1  0.125000  0.125000  0.125000  1
  Pt  Pt6  1  0.125000  0.625000  0.125000  1
  Pt  Pt7  1  0.125000  0.125000  0.625000  1
  O  O8  1  0.030488  0.465555  0.471116  1
  O  O9  1  0.792288  0.792288  0.220539  1
  O  O10  1  0.792873  0.195528  0.218715  1
  O  O11  1  0.744127  0.744127  0.763393  1
  O  O12  1  0.054472  0.457127  0.031285  1
  O  O13  1  0.465555  0.030488  0.471116  1
  O  O14  1  0.031942  0.031942  0.470909  1
  O  O15  1  0.505873  0.505873  0.486607  1
  O  O16  1  0.218058  0.218058  0.779091  1
  O  O17  1  0.195528  0.792873  0.218715  1
  O  O18  1  0.784445  0.219512  0.778884  1
  O  O19  1  0.457127  0.054472  0.031285  1
  O  O20  1  0.457712  0.457712  0.029461  1
  O  O21  1  0.219512  0.784445  0.778884  1
