# generated using pymatgen
data_Dy5TiCo18(Si5P)2
_symmetry_space_group_name_H-M   'P 1'
_cell_length_a   12.20255110
_cell_length_b   12.20255016
_cell_length_c   3.72691800
_cell_angle_alpha   90.00000000
_cell_angle_beta   90.00000000
_cell_angle_gamma   120.01634252
_symmetry_Int_Tables_number   1
_chemical_formula_structural   Dy5TiCo18(Si5P)2
_chemical_formula_sum   'Dy5 Ti1 Co18 Si10 P2'
_cell_volume   480.51855580
_cell_formula_units_Z   1
loop_
 _symmetry_equiv_pos_site_id
 _symmetry_equiv_pos_as_xyz
  1  'x, y, z'
loop_
 _atom_site_type_symbol
 _atom_site_label
 _atom_site_symmetry_multiplicity
 _atom_site_fract_x
 _atom_site_fract_y
 _atom_site_fract_z
 _atom_site_occupancy
  Dy  Dy0  1  0.665904  0.329364  0.000000  1
  Dy  Dy1  1  0.329364  0.665904  0.000000  1
  Dy  Dy2  1  0.181806  0.181806  0.500000  1
  Dy  Dy3  1  0.815163  0.001954  0.500000  1
  Dy  Dy4  1  0.001954  0.815163  0.500000  1
  Ti  Ti5  1  0.566741  0.566741  0.000000  1
  Co  Co6  1  0.441220  0.000623  0.000000  1
  Co  Co7  1  0.000623  0.441220  0.000000  1
  Co  Co8  1  0.824002  0.198377  0.000000  1
  Co  Co9  1  0.806224  0.622222  0.000000  1
  Co  Co10  1  0.370649  0.172539  0.000000  1
  Co  Co11  1  0.198377  0.824002  0.000000  1
  Co  Co12  1  0.622222  0.806224  0.000000  1
  Co  Co13  1  0.172539  0.370649  0.000000  1
  Co  Co14  1  0.644744  0.125517  0.500000  1
  Co  Co15  1  0.883501  0.521515  0.500000  1
  Co  Co16  1  0.478370  0.353758  0.500000  1
  Co  Co17  1  0.125517  0.644744  0.500000  1
  Co  Co18  1  0.521515  0.883501  0.500000  1
  Co  Co19  1  0.353758  0.478370  0.500000  1
  Co  Co20  1  0.717886  0.717886  0.500000  1
  Co  Co21  1  0.277095  0.997958  0.500000  1
  Co  Co22  1  0.997958  0.277095  0.500000  1
  Co  Co23  1  0.004320  0.004320  0.000000  1
  Si  Si24  1  0.361478  0.361478  0.000000  1
  Si  Si25  1  0.630118  0.003830  0.000000  1
  Si  Si26  1  0.003830  0.630118  0.000000  1
  Si  Si27  1  0.840635  0.318260  0.500000  1
  Si  Si28  1  0.691409  0.518934  0.500000  1
  Si  Si29  1  0.475826  0.159157  0.500000  1
  Si  Si30  1  0.318260  0.840635  0.500000  1
  Si  Si31  1  0.518934  0.691409  0.500000  1
  Si  Si32  1  0.159157  0.475826  0.500000  1
  Si  Si33  1  0.818002  0.818002  0.000000  1
  P  P34  1  0.182293  0.998606  0.000000  1
  P  P35  1  0.998606  0.182293  0.000000  1
