# generated using pymatgen
data_LiY4Al17Pt6
_symmetry_space_group_name_H-M   'P 1'
_cell_length_a   7.60523631
_cell_length_b   7.60523509
_cell_length_c   9.46640900
_cell_angle_alpha   90.00000000
_cell_angle_beta   90.00000000
_cell_angle_gamma   119.49278084
_symmetry_Int_Tables_number   1
_chemical_formula_structural   LiY4Al17Pt6
_chemical_formula_sum   'Li1 Y4 Al17 Pt6'
_cell_volume   476.58278534
_cell_formula_units_Z   1
loop_
 _symmetry_equiv_pos_site_id
 _symmetry_equiv_pos_as_xyz
  1  'x, y, z'
loop_
 _atom_site_type_symbol
 _atom_site_label
 _atom_site_symmetry_multiplicity
 _atom_site_fract_x
 _atom_site_fract_y
 _atom_site_fract_z
 _atom_site_occupancy
  Li  Li0  1  0.128435  0.128435  0.250000  1
  Y  Y1  1  0.995138  0.666139  0.250000  1
  Y  Y2  1  0.007555  0.329836  0.750000  1
  Y  Y3  1  0.666139  0.995138  0.250000  1
  Y  Y4  1  0.329836  0.007556  0.750000  1
  Al  Al5  1  0.867476  0.867476  0.750000  1
  Al  Al6  1  0.001470  0.327907  0.080894  1
  Al  Al7  1  0.000959  0.665309  0.923238  1
  Al  Al8  1  0.000959  0.665309  0.576762  1
  Al  Al9  1  0.327907  0.001470  0.419106  1
  Al  Al10  1  0.001470  0.327907  0.419106  1
  Al  Al11  1  0.665309  0.000959  0.576762  1
  Al  Al12  1  0.665309  0.000959  0.923238  1
  Al  Al13  1  0.327907  0.001470  0.080894  1
  Al  Al14  1  0.334233  0.334233  0.549289  1
  Al  Al15  1  0.671232  0.671231  0.439010  1
  Al  Al16  1  0.671232  0.671231  0.060990  1
  Al  Al17  1  0.334233  0.334233  0.950711  1
  Al  Al18  1  0.340310  0.541472  0.250000  1
  Al  Al19  1  0.659324  0.452505  0.750000  1
  Al  Al20  1  0.541472  0.340309  0.250000  1
  Al  Al21  1  0.452505  0.659324  0.750000  1
  Pt  Pt22  1  0.674921  0.329830  0.000201  1
  Pt  Pt23  1  0.329830  0.674921  0.000200  1
  Pt  Pt24  1  0.329830  0.674921  0.499800  1
  Pt  Pt25  1  0.674921  0.329830  0.499799  1
  Pt  Pt26  1  0.000044  0.000044  0.993521  1
  Pt  Pt27  1  0.000044  0.000044  0.506479  1
