# generated using pymatgen
data_CaCe2HfSb5
_symmetry_space_group_name_H-M   'P 1'
_cell_length_a   9.39790309
_cell_length_b   9.46286353
_cell_length_c   6.35251417
_cell_angle_alpha   90.00447802
_cell_angle_beta   90.01974238
_cell_angle_gamma   119.89322009
_symmetry_Int_Tables_number   1
_chemical_formula_structural   CaCe2HfSb5
_chemical_formula_sum   'Ca2 Ce4 Hf2 Sb10'
_cell_volume   489.77437528
_cell_formula_units_Z   2
loop_
 _symmetry_equiv_pos_site_id
 _symmetry_equiv_pos_as_xyz
  1  'x, y, z'
loop_
 _atom_site_type_symbol
 _atom_site_label
 _atom_site_symmetry_multiplicity
 _atom_site_fract_x
 _atom_site_fract_y
 _atom_site_fract_z
 _atom_site_occupancy
  Ca  Ca0  1  0.613358  0.000134  0.250079  1
  Ca  Ca1  1  0.386575  0.999991  0.749962  1
  Ce  Ce2  1  0.006445  0.621128  0.250345  1
  Ce  Ce3  1  0.993410  0.378597  0.749695  1
  Ce  Ce4  1  0.385456  0.378781  0.249750  1
  Ce  Ce5  1  0.614752  0.621437  0.750174  1
  Hf  Hf6  1  0.999990  0.999981  0.999965  1
  Hf  Hf7  1  0.999984  0.999968  0.500129  1
  Sb  Sb8  1  0.261116  0.000099  0.250291  1
  Sb  Sb9  1  0.739246  0.000416  0.749755  1
  Sb  Sb10  1  0.000956  0.263863  0.249755  1
  Sb  Sb11  1  0.999107  0.736093  0.750371  1
  Sb  Sb12  1  0.736640  0.736091  0.249969  1
  Sb  Sb13  1  0.262980  0.264093  0.750014  1
  Sb  Sb14  1  0.328260  0.655996  0.999590  1
  Sb  Sb15  1  0.671717  0.343633  0.999768  1
  Sb  Sb16  1  0.671681  0.343862  0.500244  1
  Sb  Sb17  1  0.328326  0.655838  0.500143  1
