# generated using pymatgen
data_Y3PaGa12Re
_symmetry_space_group_name_H-M   'P 1'
_cell_length_a   7.51367974
_cell_length_b   7.51367951
_cell_length_c   7.45329800
_cell_angle_alpha   109.30851434
_cell_angle_beta   109.30851372
_cell_angle_gamma   109.63344078
_symmetry_Int_Tables_number   1
_chemical_formula_structural   Y3PaGa12Re
_chemical_formula_sum   'Y3 Pa1 Ga12 Re1'
_cell_volume   324.56377771
_cell_formula_units_Z   1
loop_
 _symmetry_equiv_pos_site_id
 _symmetry_equiv_pos_as_xyz
  1  'x, y, z'
loop_
 _atom_site_type_symbol
 _atom_site_label
 _atom_site_symmetry_multiplicity
 _atom_site_fract_x
 _atom_site_fract_y
 _atom_site_fract_z
 _atom_site_occupancy
  Y  Y0  1  0.000000  0.500000  0.000000  1
  Y  Y1  1  0.500000  0.000000  0.000000  1
  Y  Y2  1  0.500000  0.500000  0.500000  1
  Pa  Pa3  1  0.000000  0.000000  0.500000  1
  Ga  Ga4  1  0.750752  0.249248  0.500000  1
  Ga  Ga5  1  0.750752  0.501504  0.250752  1
  Ga  Ga6  1  0.498496  0.249248  0.749248  1
  Ga  Ga7  1  0.249248  0.498496  0.749248  1
  Ga  Ga8  1  0.249248  0.750752  0.500000  1
  Ga  Ga9  1  0.501504  0.750752  0.250752  1
  Ga  Ga10  1  0.707567  0.707567  0.001872  1
  Ga  Ga11  1  0.292433  0.000000  0.294305  1
  Ga  Ga12  1  0.000000  0.292433  0.294305  1
  Ga  Ga13  1  0.292433  0.292433  0.998128  1
  Ga  Ga14  1  0.707567  0.000000  0.705695  1
  Ga  Ga15  1  0.000000  0.707567  0.705695  1
  Re  Re16  1  0.000000  0.000000  0.000000  1
