# generated using pymatgen
data_Mn4GaPd8Au3
_symmetry_space_group_name_H-M   'P 1'
_cell_length_a   6.89896528
_cell_length_b   6.89896591
_cell_length_c   6.89896538
_cell_angle_alpha   106.97622357
_cell_angle_beta   106.97621833
_cell_angle_gamma   114.58548523
_symmetry_Int_Tables_number   1
_chemical_formula_structural   Mn4GaPd8Au3
_chemical_formula_sum   'Mn4 Ga1 Pd8 Au3'
_cell_volume   251.24840270
_cell_formula_units_Z   1
loop_
 _symmetry_equiv_pos_site_id
 _symmetry_equiv_pos_as_xyz
  1  'x, y, z'
loop_
 _atom_site_type_symbol
 _atom_site_label
 _atom_site_symmetry_multiplicity
 _atom_site_fract_x
 _atom_site_fract_y
 _atom_site_fract_z
 _atom_site_occupancy
  Mn  Mn0  1  0.257991  0.257991  0.515983  1
  Mn  Mn1  1  0.742009  0.742009  0.484017  1
  Mn  Mn2  1  0.257991  0.742009  0.000000  1
  Mn  Mn3  1  0.742009  0.257991  0.000000  1
  Ga  Ga4  1  0.000000  0.000000  0.000000  1
  Pd  Pd5  1  0.482802  0.237646  0.245155  1
  Pd  Pd6  1  0.517198  0.762354  0.754845  1
  Pd  Pd7  1  0.992491  0.237646  0.754845  1
  Pd  Pd8  1  0.237646  0.992491  0.754845  1
  Pd  Pd9  1  0.007509  0.762354  0.245155  1
  Pd  Pd10  1  0.762354  0.007509  0.245155  1
  Pd  Pd11  1  0.237646  0.482802  0.245155  1
  Pd  Pd12  1  0.762354  0.517198  0.754845  1
  Au  Au13  1  0.500000  0.000000  0.500000  1
  Au  Au14  1  0.000000  0.500000  0.500000  1
  Au  Au15  1  0.500000  0.500000  0.000000  1
