# generated using pymatgen
data_Tm2Zr2(Al8Pt3)3
_symmetry_space_group_name_H-M   'P 1'
_cell_length_a   7.49863400
_cell_length_b   7.50300196
_cell_length_c   13.02100069
_cell_angle_alpha   84.54468794
_cell_angle_beta   78.95990872
_cell_angle_gamma   59.94020129
_symmetry_Int_Tables_number   1
_chemical_formula_structural   Tm2Zr2(Al8Pt3)3
_chemical_formula_sum   'Tm2 Zr2 Al24 Pt9'
_cell_volume   622.32518892
_cell_formula_units_Z   1
loop_
 _symmetry_equiv_pos_site_id
 _symmetry_equiv_pos_as_xyz
  1  'x, y, z'
loop_
 _atom_site_type_symbol
 _atom_site_label
 _atom_site_symmetry_multiplicity
 _atom_site_fract_x
 _atom_site_fract_y
 _atom_site_fract_z
 _atom_site_occupancy
  Tm  Tm0  1  0.733991  0.498786  0.807094  1
  Tm  Tm1  1  0.266009  0.501214  0.192906  1
  Zr  Zr2  1  0.393978  0.167727  0.809809  1
  Zr  Zr3  1  0.606022  0.832273  0.190191  1
  Al  Al4  1  0.681197  0.835853  0.943319  1
  Al  Al5  1  0.318803  0.164147  0.056681  1
  Al  Al6  1  0.146049  0.832889  0.563094  1
  Al  Al7  1  0.853951  0.167111  0.436906  1
  Al  Al8  1  0.479577  0.166866  0.561213  1
  Al  Al9  1  0.520423  0.833134  0.438787  1
  Al  Al10  1  0.220673  0.163521  0.327008  1
  Al  Al11  1  0.779327  0.836479  0.672992  1
  Al  Al12  1  0.436496  0.504326  0.673001  1
  Al  Al13  1  0.563504  0.495674  0.326999  1
  Al  Al14  1  0.110804  0.160182  0.671803  1
  Al  Al15  1  0.889196  0.839818  0.328197  1
  Al  Al16  1  0.353660  0.496602  0.942344  1
  Al  Al17  1  0.646340  0.503398  0.057656  1
  Al  Al18  1  0.018381  0.168148  0.950543  1
  Al  Al19  1  0.981619  0.831852  0.049457  1
  Al  Al20  1  0.186681  0.499652  0.440276  1
  Al  Al21  1  0.813319  0.500348  0.559724  1
  Al  Al22  1  0.732949  0.159570  0.183545  1
  Al  Al23  1  0.267051  0.840430  0.816455  1
  Al  Al24  1  0.065630  0.626581  0.815267  1
  Al  Al25  1  0.934370  0.373419  0.184733  1
  Al  Al26  1  0.850654  0.041670  0.815806  1
  Al  Al27  1  0.149346  0.958330  0.184194  1
  Pt  Pt28  1  0.119641  0.490940  0.639261  1
  Pt  Pt29  1  0.880359  0.509060  0.360739  1
  Pt  Pt30  1  0.656635  0.172860  0.999691  1
  Pt  Pt31  1  0.343365  0.827140  0.000309  1
  Pt  Pt32  1  0.536725  0.167117  0.361277  1
  Pt  Pt33  1  0.463275  0.832883  0.638723  1
  Pt  Pt34  1  0.778233  0.176407  0.637709  1
  Pt  Pt35  1  0.221767  0.823593  0.362291  1
  Pt  Pt36  1  0.000000  0.500000  0.000000  1
