# generated using pymatgen
data_Ho4Lu4B24Rh3W
_symmetry_space_group_name_H-M   'P 1'
_cell_length_a   3.61979000
_cell_length_b   9.11438605
_cell_length_c   11.49266181
_cell_angle_alpha   90.23376679
_cell_angle_beta   90.00000000
_cell_angle_gamma   90.00000000
_symmetry_Int_Tables_number   1
_chemical_formula_structural   Ho4Lu4B24Rh3W
_chemical_formula_sum   'Ho4 Lu4 B24 Rh3 W1'
_cell_volume   379.16462128
_cell_formula_units_Z   1
loop_
 _symmetry_equiv_pos_site_id
 _symmetry_equiv_pos_as_xyz
  1  'x, y, z'
loop_
 _atom_site_type_symbol
 _atom_site_label
 _atom_site_symmetry_multiplicity
 _atom_site_fract_x
 _atom_site_fract_y
 _atom_site_fract_z
 _atom_site_occupancy
  Ho  Ho0  1  0.500000  0.319299  0.411340  1
  Ho  Ho1  1  0.500000  0.677331  0.584954  1
  Ho  Ho2  1  0.500000  0.178883  0.916438  1
  Ho  Ho3  1  0.500000  0.822866  0.086466  1
  Lu  Lu4  1  0.500000  0.445636  0.125655  1
  Lu  Lu5  1  0.500000  0.556747  0.871873  1
  Lu  Lu6  1  0.500000  0.055617  0.628743  1
  Lu  Lu7  1  0.500000  0.945031  0.374413  1
  B  B8  1  0.000000  0.104005  0.473777  1
  B  B9  1  0.000000  0.894910  0.529600  1
  B  B10  1  0.000000  0.398104  0.969998  1
  B  B11  1  0.000000  0.605541  0.027534  1
  B  B12  1  0.000000  0.131533  0.318136  1
  B  B13  1  0.000000  0.867099  0.683124  1
  B  B14  1  0.000000  0.368937  0.816764  1
  B  B15  1  0.000000  0.632385  0.183106  1
  B  B16  1  0.000000  0.051823  0.064394  1
  B  B17  1  0.000000  0.945631  0.932871  1
  B  B18  1  0.000000  0.444780  0.565756  1
  B  B19  1  0.000000  0.553645  0.433879  1
  B  B20  1  0.000000  0.483646  0.286959  1
  B  B21  1  0.000000  0.517197  0.712815  1
  B  B22  1  0.000000  0.017071  0.786719  1
  B  B23  1  0.000000  0.979280  0.214677  1
  B  B24  1  0.000000  0.253137  0.078407  1
  B  B25  1  0.000000  0.749934  0.919308  1
  B  B26  1  0.000000  0.248978  0.579856  1
  B  B27  1  0.000000  0.750083  0.420641  1
  B  B28  1  0.000000  0.296847  0.236182  1
  B  B29  1  0.000000  0.705388  0.763496  1
  B  B30  1  0.000000  0.206936  0.736228  1
  B  B31  1  0.000000  0.792616  0.265927  1
  Rh  Rh32  1  0.500000  0.859997  0.819890  1
  Rh  Rh33  1  0.500000  0.360161  0.680104  1
  Rh  Rh34  1  0.500000  0.639872  0.320280  1
  W  W35  1  0.500000  0.139053  0.179692  1
