# generated using pymatgen
data_Y4Fe6Co9P12Ru5
_symmetry_space_group_name_H-M   'P 1'
_cell_length_a   3.71400500
_cell_length_b   10.37230157
_cell_length_c   11.88036475
_cell_angle_alpha   90.03409231
_cell_angle_beta   90.00000000
_cell_angle_gamma   90.00000000
_symmetry_Int_Tables_number   1
_chemical_formula_structural   Y4Fe6Co9P12Ru5
_chemical_formula_sum   'Y4 Fe6 Co9 P12 Ru5'
_cell_volume   457.66459563
_cell_formula_units_Z   1
loop_
 _symmetry_equiv_pos_site_id
 _symmetry_equiv_pos_as_xyz
  1  'x, y, z'
loop_
 _atom_site_type_symbol
 _atom_site_label
 _atom_site_symmetry_multiplicity
 _atom_site_fract_x
 _atom_site_fract_y
 _atom_site_fract_z
 _atom_site_occupancy
  Y  Y0  1  0.250000  0.914660  0.205281  1
  Y  Y1  1  0.750000  0.084765  0.791362  1
  Y  Y2  1  0.750000  0.415230  0.296213  1
  Y  Y3  1  0.250000  0.583934  0.702881  1
  Fe  Fe4  1  0.250000  0.407305  0.489907  1
  Fe  Fe5  1  0.250000  0.279755  0.674078  1
  Fe  Fe6  1  0.250000  0.223554  0.179024  1
  Fe  Fe7  1  0.250000  0.616529  0.200374  1
  Fe  Fe8  1  0.250000  0.881680  0.698464  1
  Fe  Fe9  1  0.250000  0.035283  0.433889  1
  Co  Co10  1  0.750000  0.901069  0.014850  1
  Co  Co11  1  0.750000  0.595028  0.512835  1
  Co  Co12  1  0.750000  0.722594  0.325981  1
  Co  Co13  1  0.750000  0.776907  0.824850  1
  Co  Co14  1  0.750000  0.387237  0.798521  1
  Co  Co15  1  0.750000  0.114599  0.299738  1
  Co  Co16  1  0.750000  0.962473  0.565560  1
  Co  Co17  1  0.750000  0.537509  0.065294  1
  Co  Co18  1  0.250000  0.464438  0.933061  1
  P  P19  1  0.250000  0.078163  0.613185  1
  P  P20  1  0.750000  0.923464  0.386145  1
  P  P21  1  0.750000  0.578567  0.886161  1
  P  P22  1  0.250000  0.422065  0.115105  1
  P  P23  1  0.250000  0.230448  0.367052  1
  P  P24  1  0.750000  0.771915  0.636335  1
  P  P25  1  0.750000  0.727206  0.137654  1
  P  P26  1  0.250000  0.272838  0.861810  1
  P  P27  1  0.250000  0.899913  0.885660  1
  P  P28  1  0.750000  0.101704  0.113971  1
  P  P29  1  0.750000  0.401105  0.607687  1
  P  P30  1  0.250000  0.594023  0.389731  1
  Ru  Ru31  1  0.250000  0.787811  0.486050  1
  Ru  Ru32  1  0.750000  0.209576  0.511177  1
  Ru  Ru33  1  0.750000  0.293243  0.014393  1
  Ru  Ru34  1  0.250000  0.711494  0.987097  1
  Ru  Ru35  1  0.250000  0.091916  0.988623  1
