# generated using pymatgen
data_Hf2TaSi2W
_symmetry_space_group_name_H-M   'P 1'
_cell_length_a   3.55438100
_cell_length_b   6.95362700
_cell_length_c   8.33908800
_cell_angle_alpha   90.00000000
_cell_angle_beta   90.00000000
_cell_angle_gamma   90.00000000
_symmetry_Int_Tables_number   1
_chemical_formula_structural   Hf2TaSi2W
_chemical_formula_sum   'Hf4 Ta2 Si4 W2'
_cell_volume   206.10756217
_cell_formula_units_Z   2
loop_
 _symmetry_equiv_pos_site_id
 _symmetry_equiv_pos_as_xyz
  1  'x, y, z'
loop_
 _atom_site_type_symbol
 _atom_site_label
 _atom_site_symmetry_multiplicity
 _atom_site_fract_x
 _atom_site_fract_y
 _atom_site_fract_z
 _atom_site_occupancy
  Hf  Hf0  1  0.250000  0.542025  0.165658  1
  Hf  Hf1  1  0.250000  0.042025  0.334342  1
  Hf  Hf2  1  0.750000  0.460170  0.832050  1
  Hf  Hf3  1  0.750000  0.960170  0.667950  1
  Ta  Ta4  1  0.250000  0.633186  0.559810  1
  Ta  Ta5  1  0.250000  0.133186  0.940190  1
  Si  Si6  1  0.250000  0.756213  0.862620  1
  Si  Si7  1  0.250000  0.256213  0.637380  1
  Si  Si8  1  0.750000  0.242956  0.143793  1
  Si  Si9  1  0.750000  0.742956  0.356207  1
  W  W10  1  0.750000  0.365450  0.438907  1
  W  W11  1  0.750000  0.865450  0.061093  1
