# generated using pymatgen
data_Dy3SnBRh6
_symmetry_space_group_name_H-M   'P 1'
_cell_length_a   5.83124300
_cell_length_b   5.83124225
_cell_length_c   13.80602100
_cell_angle_alpha   90.00000000
_cell_angle_beta   90.00000000
_cell_angle_gamma   119.99999856
_symmetry_Int_Tables_number   1
_chemical_formula_structural   Dy3SnBRh6
_chemical_formula_sum   'Dy6 Sn2 B2 Rh12'
_cell_volume   406.55695176
_cell_formula_units_Z   2
loop_
 _symmetry_equiv_pos_site_id
 _symmetry_equiv_pos_as_xyz
  1  'x, y, z'
loop_
 _atom_site_type_symbol
 _atom_site_label
 _atom_site_symmetry_multiplicity
 _atom_site_fract_x
 _atom_site_fract_y
 _atom_site_fract_z
 _atom_site_occupancy
  Dy  Dy0  1  0.000000  0.000000  0.750000  1
  Dy  Dy1  1  0.000000  0.000000  0.250000  1
  Dy  Dy2  1  0.333333  0.666667  0.411251  1
  Dy  Dy3  1  0.666667  0.333333  0.911251  1
  Dy  Dy4  1  0.666667  0.333333  0.588749  1
  Dy  Dy5  1  0.333333  0.666667  0.088749  1
  Sn  Sn6  1  0.333333  0.666667  0.750000  1
  Sn  Sn7  1  0.666667  0.333333  0.250000  1
  B  B8  1  0.000000  0.000000  0.500000  1
  B  B9  1  0.000000  0.000000  0.000000  1
  Rh  Rh10  1  0.343831  0.171916  0.413460  1
  Rh  Rh11  1  0.828084  0.171916  0.413460  1
  Rh  Rh12  1  0.828084  0.656169  0.413460  1
  Rh  Rh13  1  0.171916  0.343831  0.913460  1
  Rh  Rh14  1  0.656169  0.828084  0.586540  1
  Rh  Rh15  1  0.656169  0.828084  0.913460  1
  Rh  Rh16  1  0.343831  0.171916  0.086540  1
  Rh  Rh17  1  0.171916  0.343831  0.586540  1
  Rh  Rh18  1  0.171916  0.828084  0.586540  1
  Rh  Rh19  1  0.828084  0.171916  0.086540  1
  Rh  Rh20  1  0.828084  0.656169  0.086540  1
  Rh  Rh21  1  0.171916  0.828084  0.913460  1
