# generated using pymatgen
data_Ho15ThCd4PdPt3
_symmetry_space_group_name_H-M   'P 1'
_cell_length_a   9.65898203
_cell_length_b   9.65898303
_cell_length_c   9.65898188
_cell_angle_alpha   60.35477386
_cell_angle_beta   60.35477260
_cell_angle_gamma   60.35476594
_symmetry_Int_Tables_number   1
_chemical_formula_structural   Ho15ThCd4PdPt3
_chemical_formula_sum   'Ho15 Th1 Cd4 Pd1 Pt3'
_cell_volume   642.31870488
_cell_formula_units_Z   1
loop_
 _symmetry_equiv_pos_site_id
 _symmetry_equiv_pos_as_xyz
  1  'x, y, z'
loop_
 _atom_site_type_symbol
 _atom_site_label
 _atom_site_symmetry_multiplicity
 _atom_site_fract_x
 _atom_site_fract_y
 _atom_site_fract_z
 _atom_site_occupancy
  Ho  Ho0  1  0.605748  0.605748  0.186189  1
  Ho  Ho1  1  0.605748  0.186189  0.605748  1
  Ho  Ho2  1  0.186189  0.605748  0.605748  1
  Ho  Ho3  1  0.061207  0.439115  0.439115  1
  Ho  Ho4  1  0.441137  0.060726  0.060726  1
  Ho  Ho5  1  0.439115  0.061207  0.439115  1
  Ho  Ho6  1  0.060726  0.441137  0.060726  1
  Ho  Ho7  1  0.439115  0.439115  0.061207  1
  Ho  Ho8  1  0.060726  0.060726  0.441137  1
  Ho  Ho9  1  0.185693  0.817060  0.817060  1
  Ho  Ho10  1  0.814923  0.186519  0.186519  1
  Ho  Ho11  1  0.817060  0.185693  0.817060  1
  Ho  Ho12  1  0.186519  0.814923  0.186519  1
  Ho  Ho13  1  0.817060  0.817060  0.185693  1
  Ho  Ho14  1  0.186519  0.186519  0.814923  1
  Th  Th15  1  0.598727  0.598727  0.598727  1
  Cd  Cd16  1  0.832328  0.832328  0.832328  1
  Cd  Cd17  1  0.832479  0.832479  0.502225  1
  Cd  Cd18  1  0.832479  0.502225  0.832479  1
  Cd  Cd19  1  0.502225  0.832479  0.832479  1
  Pd  Pd20  1  0.394978  0.394978  0.394978  1
  Pt  Pt21  1  0.389452  0.389452  0.820392  1
  Pt  Pt22  1  0.389452  0.820392  0.389452  1
  Pt  Pt23  1  0.820392  0.389452  0.389452  1
