# generated using pymatgen
data_Lu2CoSi5Os2
_symmetry_space_group_name_H-M   'P 1'
_cell_length_a   8.06169132
_cell_length_b   8.04670786
_cell_length_c   5.49734335
_cell_angle_alpha   70.90583499
_cell_angle_beta   71.08696612
_cell_angle_gamma   94.92906869
_symmetry_Int_Tables_number   1
_chemical_formula_structural   Lu2CoSi5Os2
_chemical_formula_sum   'Lu4 Co2 Si10 Os4'
_cell_volume   311.36343869
_cell_formula_units_Z   2
loop_
 _symmetry_equiv_pos_site_id
 _symmetry_equiv_pos_as_xyz
  1  'x, y, z'
loop_
 _atom_site_type_symbol
 _atom_site_label
 _atom_site_symmetry_multiplicity
 _atom_site_fract_x
 _atom_site_fract_y
 _atom_site_fract_z
 _atom_site_occupancy
  Lu  Lu0  1  0.131960  0.409131  0.724164  1
  Lu  Lu1  1  0.599653  0.874451  0.769883  1
  Lu  Lu2  1  0.867560  0.589076  0.255092  1
  Lu  Lu3  1  0.404999  0.131666  0.247768  1
  Co  Co4  1  0.002179  0.995027  0.252881  1
  Co  Co5  1  0.746175  0.454062  0.867715  1
  Si  Si6  1  0.781396  0.224272  0.237694  1
  Si  Si7  1  0.205454  0.785623  0.744947  1
  Si  Si8  1  0.518840  0.489551  0.237491  1
  Si  Si9  1  0.504945  0.502738  0.753449  1
  Si  Si10  1  0.200112  0.792335  0.260908  1
  Si  Si11  1  0.794721  0.211401  0.761869  1
  Si  Si12  1  0.740127  0.930440  0.181132  1
  Si  Si13  1  0.921609  0.729583  0.658251  1
  Si  Si14  1  0.255272  0.074989  0.850308  1
  Si  Si15  1  0.068098  0.263365  0.320061  1
  Os  Os16  1  0.997056  0.999543  0.750641  1
  Os  Os17  1  0.544512  0.249875  0.630934  1
  Os  Os18  1  0.260534  0.553629  0.099605  1
  Os  Os19  1  0.454799  0.739242  0.395206  1
