# generated using pymatgen
data_Zr6Al10Si6Ir7
_symmetry_space_group_name_H-M   'P 1'
_cell_length_a   8.64462216
_cell_length_b   8.64462684
_cell_length_c   8.66583900
_cell_angle_alpha   59.91880183
_cell_angle_beta   59.91879593
_cell_angle_gamma   59.88736725
_symmetry_Int_Tables_number   1
_chemical_formula_structural   Zr6Al10Si6Ir7
_chemical_formula_sum   'Zr6 Al10 Si6 Ir7'
_cell_volume   456.96572156
_cell_formula_units_Z   1
loop_
 _symmetry_equiv_pos_site_id
 _symmetry_equiv_pos_as_xyz
  1  'x, y, z'
loop_
 _atom_site_type_symbol
 _atom_site_label
 _atom_site_symmetry_multiplicity
 _atom_site_fract_x
 _atom_site_fract_y
 _atom_site_fract_z
 _atom_site_occupancy
  Zr  Zr0  1  0.691202  0.309283  0.306814  1
  Zr  Zr1  1  0.309283  0.691202  0.692702  1
  Zr  Zr2  1  0.309283  0.691202  0.306814  1
  Zr  Zr3  1  0.308301  0.308301  0.691699  1
  Zr  Zr4  1  0.691202  0.309283  0.692702  1
  Zr  Zr5  1  0.692055  0.692056  0.307945  1
  Al  Al6  1  0.666241  0.005450  0.664155  1
  Al  Al7  1  0.005450  0.666241  0.664155  1
  Al  Al8  1  0.120358  0.120358  0.121668  1
  Al  Al9  1  0.120359  0.120359  0.637614  1
  Al  Al10  1  0.636694  0.120429  0.121439  1
  Al  Al11  1  0.120429  0.636694  0.121439  1
  Al  Al12  1  0.882137  0.882137  0.878234  1
  Al  Al13  1  0.882137  0.882137  0.357492  1
  Al  Al14  1  0.882518  0.359275  0.879103  1
  Al  Al15  1  0.359275  0.882518  0.879104  1
  Si  Si16  1  0.344002  0.344003  0.344656  1
  Si  Si17  1  0.344003  0.344003  0.967338  1
  Si  Si18  1  0.965248  0.344332  0.345210  1
  Si  Si19  1  0.344332  0.965248  0.345210  1
  Si  Si20  1  0.662233  0.662233  0.658104  1
  Si  Si21  1  0.662233  0.662232  0.017432  1
  Ir  Ir22  1  0.999921  0.999920  0.000079  1
  Ir  Ir23  1  0.495046  0.002100  0.007757  1
  Ir  Ir24  1  0.002100  0.495046  0.495097  1
  Ir  Ir25  1  0.002100  0.495046  0.007757  1
  Ir  Ir26  1  0.007794  0.007795  0.492205  1
  Ir  Ir27  1  0.495047  0.002100  0.495096  1
  Ir  Ir28  1  0.499018  0.499018  0.000982  1
