# generated using pymatgen
data_Tc5Te8W
_symmetry_space_group_name_H-M   'P 1'
_cell_length_a   7.12557144
_cell_length_b   7.14597692
_cell_length_c   7.06323336
_cell_angle_alpha   93.50750783
_cell_angle_beta   94.21517892
_cell_angle_gamma   93.55083623
_symmetry_Int_Tables_number   1
_chemical_formula_structural   Tc5Te8W
_chemical_formula_sum   'Tc5 Te8 W1'
_cell_volume   357.21111387
_cell_formula_units_Z   1
loop_
 _symmetry_equiv_pos_site_id
 _symmetry_equiv_pos_as_xyz
  1  'x, y, z'
loop_
 _atom_site_type_symbol
 _atom_site_label
 _atom_site_symmetry_multiplicity
 _atom_site_fract_x
 _atom_site_fract_y
 _atom_site_fract_z
 _atom_site_occupancy
  Tc  Tc0  1  0.744304  0.913039  0.045563  1
  Tc  Tc1  1  0.045509  0.746457  0.913369  1
  Tc  Tc2  1  0.086174  0.955300  0.253716  1
  Tc  Tc3  1  0.254610  0.086718  0.954106  1
  Tc  Tc4  1  0.953121  0.255152  0.086861  1
  Te  Te5  1  0.708356  0.706459  0.709777  1
  Te  Te6  1  0.288583  0.287705  0.289785  1
  Te  Te7  1  0.772479  0.121895  0.377469  1
  Te  Te8  1  0.379459  0.772458  0.122943  1
  Te  Te9  1  0.122840  0.383097  0.770908  1
  Te  Te10  1  0.233823  0.875400  0.619123  1
  Te  Te11  1  0.616647  0.231280  0.877968  1
  Te  Te12  1  0.879512  0.620741  0.227146  1
  W  W13  1  0.914582  0.044299  0.751267  1
