# generated using pymatgen
data_Pr3NdTh2(Co3P2)6
_symmetry_space_group_name_H-M   'P 1'
_cell_length_a   3.79014300
_cell_length_b   10.65930901
_cell_length_c   12.38524101
_cell_angle_alpha   89.99545024
_cell_angle_beta   90.00000000
_cell_angle_gamma   90.00000000
_symmetry_Int_Tables_number   1
_chemical_formula_structural   Pr3NdTh2(Co3P2)6
_chemical_formula_sum   'Pr3 Nd1 Th2 Co18 P12'
_cell_volume   500.36751795
_cell_formula_units_Z   1
loop_
 _symmetry_equiv_pos_site_id
 _symmetry_equiv_pos_as_xyz
  1  'x, y, z'
loop_
 _atom_site_type_symbol
 _atom_site_label
 _atom_site_symmetry_multiplicity
 _atom_site_fract_x
 _atom_site_fract_y
 _atom_site_fract_z
 _atom_site_occupancy
  Pr  Pr0  1  0.500000  0.184261  0.205486  1
  Pr  Pr1  1  0.000000  0.684331  0.794496  1
  Pr  Pr2  1  0.000000  0.315675  0.794522  1
  Nd  Nd3  1  0.500000  0.815549  0.205464  1
  Th  Th4  1  0.000000  0.500002  0.523654  1
  Th  Th5  1  0.500000  0.999965  0.476280  1
  Co  Co6  1  0.500000  0.500053  0.156556  1
  Co  Co7  1  0.000000  0.000000  0.843478  1
  Co  Co8  1  0.500000  0.500004  0.699791  1
  Co  Co9  1  0.000000  0.999737  0.300040  1
  Co  Co10  1  0.000000  0.500053  0.986462  1
  Co  Co11  1  0.500000  0.999868  0.013692  1
  Co  Co12  1  0.500000  0.333995  0.996080  1
  Co  Co13  1  0.500000  0.666102  0.996201  1
  Co  Co14  1  0.000000  0.165961  0.003944  1
  Co  Co15  1  0.000000  0.833994  0.004128  1
  Co  Co16  1  0.500000  0.299726  0.430346  1
  Co  Co17  1  0.500000  0.700334  0.430175  1
  Co  Co18  1  0.000000  0.200278  0.569642  1
  Co  Co19  1  0.000000  0.799731  0.569624  1
  Co  Co20  1  0.500000  0.882549  0.711172  1
  Co  Co21  1  0.500000  0.117446  0.711179  1
  Co  Co22  1  0.000000  0.617711  0.288680  1
  Co  Co23  1  0.000000  0.382581  0.288832  1
  P  P24  1  0.500000  0.500014  0.885390  1
  P  P25  1  0.000000  0.999632  0.114904  1
  P  P26  1  0.500000  0.500000  0.338329  1
  P  P27  1  0.000000  0.999996  0.661657  1
  P  P28  1  0.500000  0.304234  0.613988  1
  P  P29  1  0.500000  0.695772  0.613961  1
  P  P30  1  0.000000  0.195750  0.386006  1
  P  P31  1  0.000000  0.804325  0.385562  1
  P  P32  1  0.500000  0.849046  0.896719  1
  P  P33  1  0.500000  0.150945  0.896743  1
  P  P34  1  0.000000  0.651344  0.103545  1
  P  P35  1  0.000000  0.349037  0.103273  1
