# generated using pymatgen
data_PrThAlZn5
_symmetry_space_group_name_H-M   'P 1'
_cell_length_a   8.46735906
_cell_length_b   8.46735927
_cell_length_c   8.95479700
_cell_angle_alpha   90.00000000
_cell_angle_beta   90.00000000
_cell_angle_gamma   149.18173225
_symmetry_Int_Tables_number   1
_chemical_formula_structural   PrThAlZn5
_chemical_formula_sum   'Pr2 Th2 Al2 Zn10'
_cell_volume   328.91995679
_cell_formula_units_Z   2
loop_
 _symmetry_equiv_pos_site_id
 _symmetry_equiv_pos_as_xyz
  1  'x, y, z'
loop_
 _atom_site_type_symbol
 _atom_site_label
 _atom_site_symmetry_multiplicity
 _atom_site_fract_x
 _atom_site_fract_y
 _atom_site_fract_z
 _atom_site_occupancy
  Pr  Pr0  1  0.000000  0.000000  0.500000  1
  Pr  Pr1  1  0.000000  0.000000  0.000000  1
  Th  Th2  1  0.205814  0.794186  0.250000  1
  Th  Th3  1  0.794186  0.205814  0.750000  1
  Al  Al4  1  0.558631  0.441369  0.250000  1
  Al  Al5  1  0.441369  0.558631  0.750000  1
  Zn  Zn6  1  0.813471  0.186529  0.392533  1
  Zn  Zn7  1  0.186529  0.813471  0.607467  1
  Zn  Zn8  1  0.813471  0.186529  0.107467  1
  Zn  Zn9  1  0.186529  0.813471  0.892533  1
  Zn  Zn10  1  0.651744  0.348256  0.479236  1
  Zn  Zn11  1  0.348256  0.651744  0.520764  1
  Zn  Zn12  1  0.651744  0.348256  0.020764  1
  Zn  Zn13  1  0.348256  0.651744  0.979236  1
  Zn  Zn14  1  0.403750  0.596250  0.250000  1
  Zn  Zn15  1  0.596250  0.403750  0.750000  1
