# generated using pymatgen
data_Ho6ZnSi11Pt8
_symmetry_space_group_name_H-M   'P 1'
_cell_length_a   4.25487000
_cell_length_b   8.62318610
_cell_length_c   12.84946409
_cell_angle_alpha   80.15016296
_cell_angle_beta   90.00000000
_cell_angle_gamma   90.00000000
_symmetry_Int_Tables_number   1
_chemical_formula_structural   Ho6ZnSi11Pt8
_chemical_formula_sum   'Ho6 Zn1 Si11 Pt8'
_cell_volume   464.50424702
_cell_formula_units_Z   1
loop_
 _symmetry_equiv_pos_site_id
 _symmetry_equiv_pos_as_xyz
  1  'x, y, z'
loop_
 _atom_site_type_symbol
 _atom_site_label
 _atom_site_symmetry_multiplicity
 _atom_site_fract_x
 _atom_site_fract_y
 _atom_site_fract_z
 _atom_site_occupancy
  Ho  Ho0  1  0.250000  0.764742  0.440804  1
  Ho  Ho1  1  0.250000  0.590546  0.183710  1
  Ho  Ho2  1  0.750000  0.238001  0.560931  1
  Ho  Ho3  1  0.750000  0.407598  0.817211  1
  Ho  Ho4  1  0.750000  0.930044  0.815770  1
  Ho  Ho5  1  0.250000  0.067936  0.183648  1
  Zn  Zn6  1  0.750000  0.600964  0.573956  1
  Si  Si7  1  0.750000  0.128078  0.007591  1
  Si  Si8  1  0.750000  0.886056  0.564705  1
  Si  Si9  1  0.250000  0.686996  0.707225  1
  Si  Si10  1  0.750000  0.302854  0.286200  1
  Si  Si11  1  0.750000  0.807087  0.277056  1
  Si  Si12  1  0.250000  0.868615  0.993251  1
  Si  Si13  1  0.250000  0.185709  0.726221  1
  Si  Si14  1  0.250000  0.380641  0.000656  1
  Si  Si15  1  0.250000  0.125838  0.429949  1
  Si  Si16  1  0.750000  0.622576  0.997202  1
  Si  Si17  1  0.250000  0.419919  0.436034  1
  Pt  Pt18  1  0.750000  0.354968  0.099307  1
  Pt  Pt19  1  0.250000  0.969676  0.625212  1
  Pt  Pt20  1  0.750000  0.850053  0.086858  1
  Pt  Pt21  1  0.750000  0.033493  0.373267  1
  Pt  Pt22  1  0.250000  0.647961  0.897209  1
  Pt  Pt23  1  0.250000  0.147330  0.915338  1
  Pt  Pt24  1  0.750000  0.531144  0.369925  1
  Pt  Pt25  1  0.250000  0.451175  0.630765  1
