# generated using pymatgen
data_La10Zn4(CoRu)3
_symmetry_space_group_name_H-M   'P 1'
_cell_length_a   8.52347964
_cell_length_b   8.50256885
_cell_length_c   8.52347933
_cell_angle_alpha   109.59526090
_cell_angle_beta   109.12829959
_cell_angle_gamma   109.79131581
_symmetry_Int_Tables_number   1
_chemical_formula_structural   La10Zn4(CoRu)3
_chemical_formula_sum   'La10 Zn4 Co3 Ru3'
_cell_volume   474.90521399
_cell_formula_units_Z   1
loop_
 _symmetry_equiv_pos_site_id
 _symmetry_equiv_pos_as_xyz
  1  'x, y, z'
loop_
 _atom_site_type_symbol
 _atom_site_label
 _atom_site_symmetry_multiplicity
 _atom_site_fract_x
 _atom_site_fract_y
 _atom_site_fract_z
 _atom_site_occupancy
  La  La0  1  0.249503  0.687859  0.438290  1
  La  La1  1  0.750431  0.812141  0.061645  1
  La  La2  1  0.442055  0.250000  0.692054  1
  La  La3  1  0.691671  0.439276  0.248679  1
  La  La4  1  0.057936  0.750000  0.807936  1
  La  La5  1  0.809404  0.060725  0.752396  1
  La  La6  1  0.216927  0.218372  0.216207  1
  La  La7  1  0.501055  0.001810  0.284523  1
  La  La8  1  0.282713  0.498191  0.999244  1
  La  La9  1  0.997835  0.281628  0.498556  1
  Zn  Zn10  1  0.501065  0.005604  0.914451  1
  Zn  Zn11  1  0.589168  0.582824  0.587175  1
  Zn  Zn12  1  0.908847  0.494397  0.995460  1
  Zn  Zn13  1  0.004350  0.917176  0.506345  1
  Co  Co14  1  0.250516  0.122918  0.874555  1
  Co  Co15  1  0.751637  0.377081  0.627596  1
  Co  Co16  1  0.871706  0.250001  0.121706  1
  Ru  Ru17  1  0.128840  0.879458  0.249863  1
  Ru  Ru18  1  0.623941  0.750000  0.373941  1
  Ru  Ru19  1  0.370404  0.620541  0.749382  1
