# generated using pymatgen
data_FeCo(BrO3)6
_symmetry_space_group_name_H-M   'P 1'
_cell_length_a   8.95759600
_cell_length_b   8.95759562
_cell_length_c   5.66802700
_cell_angle_alpha   90.00000000
_cell_angle_beta   90.00000000
_cell_angle_gamma   119.99999828
_symmetry_Int_Tables_number   1
_chemical_formula_structural   FeCo(BrO3)6
_chemical_formula_sum   'Fe1 Co1 Br6 O18'
_cell_volume   393.86326234
_cell_formula_units_Z   1
loop_
 _symmetry_equiv_pos_site_id
 _symmetry_equiv_pos_as_xyz
  1  'x, y, z'
loop_
 _atom_site_type_symbol
 _atom_site_label
 _atom_site_symmetry_multiplicity
 _atom_site_fract_x
 _atom_site_fract_y
 _atom_site_fract_z
 _atom_site_occupancy
  Fe  Fe0  1  0.333333  0.666667  0.186249  1
  Co  Co1  1  0.666667  0.333333  0.693795  1
  Br  Br2  1  0.681692  0.030107  0.366172  1
  Br  Br3  1  0.329727  0.986292  0.853397  1
  Br  Br4  1  0.013708  0.343435  0.853397  1
  Br  Br5  1  0.348415  0.318308  0.366172  1
  Br  Br6  1  0.969893  0.651585  0.366172  1
  Br  Br7  1  0.656565  0.670273  0.853397  1
  O  O8  1  0.780651  0.823606  0.036523  1
  O  O9  1  0.939477  0.779072  0.541041  1
  O  O10  1  0.839594  0.060523  0.541041  1
  O  O11  1  0.176394  0.957044  0.036523  1
  O  O12  1  0.042956  0.219349  0.036523  1
  O  O13  1  0.220928  0.160406  0.541041  1
  O  O14  1  0.722866  0.520404  0.910603  1
  O  O15  1  0.182688  0.711038  0.417229  1
  O  O16  1  0.553775  0.425291  0.498079  1
  O  O17  1  0.117211  0.547597  0.982740  1
  O  O18  1  0.430385  0.882789  0.982740  1
  O  O19  1  0.574709  0.128483  0.498079  1
  O  O20  1  0.871517  0.446225  0.498079  1
  O  O21  1  0.452403  0.569615  0.982740  1
  O  O22  1  0.288962  0.471650  0.417229  1
  O  O23  1  0.797539  0.277134  0.910603  1
  O  O24  1  0.479596  0.202461  0.910603  1
  O  O25  1  0.528350  0.817312  0.417229  1
