# generated using pymatgen
data_NdThAlGa3
_symmetry_space_group_name_H-M   'P 1'
_cell_length_a   4.29085000
_cell_length_b   4.29084991
_cell_length_c   8.56031400
_cell_angle_alpha   90.00000000
_cell_angle_beta   90.00000000
_cell_angle_gamma   120.00000069
_symmetry_Int_Tables_number   1
_chemical_formula_structural   NdThAlGa3
_chemical_formula_sum   'Nd1 Th1 Al1 Ga3'
_cell_volume   136.49193172
_cell_formula_units_Z   1
loop_
 _symmetry_equiv_pos_site_id
 _symmetry_equiv_pos_as_xyz
  1  'x, y, z'
loop_
 _atom_site_type_symbol
 _atom_site_label
 _atom_site_symmetry_multiplicity
 _atom_site_fract_x
 _atom_site_fract_y
 _atom_site_fract_z
 _atom_site_occupancy
  Nd  Nd0  1  0.000000  0.000000  0.999455  1
  Th  Th1  1  0.000000  0.000000  0.499938  1
  Al  Al2  1  0.333334  0.666667  0.247833  1
  Ga  Ga3  1  0.666666  0.333334  0.253038  1
  Ga  Ga4  1  0.666666  0.333334  0.746604  1
  Ga  Ga5  1  0.333334  0.666667  0.753131  1
