# generated using pymatgen
data_Th3(ZnNi2)2
_symmetry_space_group_name_H-M   'P 1'
_cell_length_a   7.09037604
_cell_length_b   7.37764999
_cell_length_c   3.79414400
_cell_angle_alpha   90.00000000
_cell_angle_beta   90.00000000
_cell_angle_gamma   121.34956858
_symmetry_Int_Tables_number   1
_chemical_formula_structural   Th3(ZnNi2)2
_chemical_formula_sum   'Th3 Zn2 Ni4'
_cell_volume   169.49761905
_cell_formula_units_Z   1
loop_
 _symmetry_equiv_pos_site_id
 _symmetry_equiv_pos_as_xyz
  1  'x, y, z'
loop_
 _atom_site_type_symbol
 _atom_site_label
 _atom_site_symmetry_multiplicity
 _atom_site_fract_x
 _atom_site_fract_y
 _atom_site_fract_z
 _atom_site_occupancy
  Th  Th0  1  0.381449  0.395804  0.500000  1
  Th  Th1  1  0.618551  0.014356  0.500000  1
  Th  Th2  1  0.000000  0.584984  0.500000  1
  Zn  Zn3  1  0.756315  0.754844  0.000000  1
  Zn  Zn4  1  0.243685  0.998528  0.000000  1
  Ni  Ni5  1  0.000000  0.246311  0.000000  1
  Ni  Ni6  1  0.657421  0.340056  0.000000  1
  Ni  Ni7  1  0.342579  0.682634  0.000000  1
  Ni  Ni8  1  0.000000  0.982483  0.500000  1
