# generated using pymatgen
data_Zr10Al12Ru7
_symmetry_space_group_name_H-M   'P 1'
_cell_length_a   8.95200101
_cell_length_b   8.95200187
_cell_length_c   8.95200100
_cell_angle_alpha   59.99999952
_cell_angle_beta   59.99999633
_cell_angle_gamma   60.00000074
_symmetry_Int_Tables_number   1
_chemical_formula_structural   Zr10Al12Ru7
_chemical_formula_sum   'Zr10 Al12 Ru7'
_cell_volume   507.27726602
_cell_formula_units_Z   1
loop_
 _symmetry_equiv_pos_site_id
 _symmetry_equiv_pos_as_xyz
  1  'x, y, z'
loop_
 _atom_site_type_symbol
 _atom_site_label
 _atom_site_symmetry_multiplicity
 _atom_site_fract_x
 _atom_site_fract_y
 _atom_site_fract_z
 _atom_site_occupancy
  Zr  Zr0  1  0.690196  0.690196  0.309804  1
  Zr  Zr1  1  0.309804  0.690196  0.309804  1
  Zr  Zr2  1  0.690196  0.309804  0.309804  1
  Zr  Zr3  1  0.309804  0.309804  0.690196  1
  Zr  Zr4  1  0.690196  0.309804  0.690196  1
  Zr  Zr5  1  0.309804  0.690196  0.690196  1
  Zr  Zr6  1  0.879928  0.879928  0.360214  1
  Zr  Zr7  1  0.879928  0.360214  0.879928  1
  Zr  Zr8  1  0.360214  0.879928  0.879928  1
  Zr  Zr9  1  0.879928  0.879928  0.879928  1
  Al  Al10  1  0.121554  0.121554  0.635336  1
  Al  Al11  1  0.121554  0.635336  0.121554  1
  Al  Al12  1  0.635336  0.121554  0.121554  1
  Al  Al13  1  0.121554  0.121554  0.121554  1
  Al  Al14  1  0.661844  0.661844  0.014469  1
  Al  Al15  1  0.661844  0.014469  0.661844  1
  Al  Al16  1  0.014469  0.661844  0.661844  1
  Al  Al17  1  0.661844  0.661844  0.661844  1
  Al  Al18  1  0.334827  0.334827  0.995519  1
  Al  Al19  1  0.334827  0.995519  0.334827  1
  Al  Al20  1  0.995519  0.334827  0.334827  1
  Al  Al21  1  0.334827  0.334827  0.334827  1
  Ru  Ru22  1  0.000000  0.000000  0.000000  1
  Ru  Ru23  1  0.000617  0.000617  0.499383  1
  Ru  Ru24  1  0.499383  0.000617  0.499383  1
  Ru  Ru25  1  0.000617  0.499383  0.499383  1
  Ru  Ru26  1  0.499383  0.499383  0.000617  1
  Ru  Ru27  1  0.000617  0.499383  0.000617  1
  Ru  Ru28  1  0.499383  0.000617  0.000617  1
