# generated using pymatgen
data_Ba2HoEr3(Si3O10)2
_symmetry_space_group_name_H-M   'P 1'
_cell_length_a   5.44047117
_cell_length_b   12.29393244
_cell_length_c   6.89197973
_cell_angle_alpha   89.97327231
_cell_angle_beta   106.44955693
_cell_angle_gamma   90.02240586
_symmetry_Int_Tables_number   1
_chemical_formula_structural   Ba2HoEr3(Si3O10)2
_chemical_formula_sum   'Ba2 Ho1 Er3 Si6 O20'
_cell_volume   442.10080256
_cell_formula_units_Z   1
loop_
 _symmetry_equiv_pos_site_id
 _symmetry_equiv_pos_as_xyz
  1  'x, y, z'
loop_
 _atom_site_type_symbol
 _atom_site_label
 _atom_site_symmetry_multiplicity
 _atom_site_fract_x
 _atom_site_fract_y
 _atom_site_fract_z
 _atom_site_occupancy
  Ba  Ba0  1  0.762152  0.249827  0.017705  1
  Ba  Ba1  1  0.237848  0.750258  0.982250  1
  Ho  Ho2  1  0.843029  0.599225  0.316721  1
  Er  Er3  1  0.842568  0.900834  0.316811  1
  Er  Er4  1  0.157464  0.099399  0.683225  1
  Er  Er5  1  0.157428  0.400247  0.683456  1
  Si  Si6  1  0.305025  0.060515  0.213726  1
  Si  Si7  1  0.305012  0.439177  0.213731  1
  Si  Si8  1  0.581385  0.249999  0.488431  1
  Si  Si9  1  0.418838  0.750345  0.511643  1
  Si  Si10  1  0.694567  0.560410  0.785871  1
  Si  Si11  1  0.695044  0.939664  0.786401  1
  O  O12  1  0.163632  0.121049  0.000906  1
  O  O13  1  0.163700  0.378477  0.001205  1
  O  O14  1  0.436774  0.555286  0.192862  1
  O  O15  1  0.438798  0.944930  0.193219  1
  O  O16  1  0.547684  0.142969  0.338060  1
  O  O17  1  0.548640  0.357135  0.338026  1
  O  O18  1  0.102415  0.049061  0.352599  1
  O  O19  1  0.102811  0.449920  0.352902  1
  O  O20  1  0.123617  0.750746  0.364963  1
  O  O21  1  0.632249  0.750488  0.386434  1
  O  O22  1  0.368072  0.249942  0.613876  1
  O  O23  1  0.876743  0.249856  0.635051  1
  O  O24  1  0.898132  0.548452  0.648161  1
  O  O25  1  0.897597  0.951138  0.647480  1
  O  O26  1  0.451966  0.642795  0.660987  1
  O  O27  1  0.452322  0.857139  0.662518  1
  O  O28  1  0.561195  0.055293  0.806678  1
  O  O29  1  0.560957  0.444810  0.807105  1
  O  O30  1  0.835843  0.621516  0.997887  1
  O  O31  1  0.836496  0.879098  0.999118  1
