# generated using pymatgen
data_Nd2Lu4Bi2Mo
_symmetry_space_group_name_H-M   'P 1'
_cell_length_a   8.25874240
_cell_length_b   8.29687876
_cell_length_c   4.40167200
_cell_angle_alpha   90.00000000
_cell_angle_beta   90.00000000
_cell_angle_gamma   120.15287391
_symmetry_Int_Tables_number   1
_chemical_formula_structural   Nd2Lu4Bi2Mo
_chemical_formula_sum   'Nd2 Lu4 Bi2 Mo1'
_cell_volume   260.79898495
_cell_formula_units_Z   1
loop_
 _symmetry_equiv_pos_site_id
 _symmetry_equiv_pos_as_xyz
  1  'x, y, z'
loop_
 _atom_site_type_symbol
 _atom_site_label
 _atom_site_symmetry_multiplicity
 _atom_site_fract_x
 _atom_site_fract_y
 _atom_site_fract_z
 _atom_site_occupancy
  Nd  Nd0  1  0.605193  0.000914  0.500000  1
  Nd  Nd1  1  0.394807  0.395721  0.500000  1
  Lu  Lu2  1  0.000000  0.616210  0.500000  1
  Lu  Lu3  1  0.000000  0.227581  0.000000  1
  Lu  Lu4  1  0.769142  0.766648  0.000000  1
  Lu  Lu5  1  0.230858  0.997507  0.000000  1
  Bi  Bi6  1  0.675756  0.339323  0.000000  1
  Bi  Bi7  1  0.324244  0.663567  0.000000  1
  Mo  Mo8  1  0.000000  0.992530  0.500000  1
