# generated using pymatgen
data_Tm6Fe14P12Ir3Ru
_symmetry_space_group_name_H-M   'P 1'
_cell_length_a   3.69587400
_cell_length_b   10.60929800
_cell_length_c   12.31090600
_cell_angle_alpha   90.00000000
_cell_angle_beta   90.00000000
_cell_angle_gamma   90.00000000
_symmetry_Int_Tables_number   1
_chemical_formula_structural   Tm6Fe14P12Ir3Ru
_chemical_formula_sum   'Tm6 Fe14 P12 Ir3 Ru1'
_cell_volume   482.71836334
_cell_formula_units_Z   1
loop_
 _symmetry_equiv_pos_site_id
 _symmetry_equiv_pos_as_xyz
  1  'x, y, z'
loop_
 _atom_site_type_symbol
 _atom_site_label
 _atom_site_symmetry_multiplicity
 _atom_site_fract_x
 _atom_site_fract_y
 _atom_site_fract_z
 _atom_site_occupancy
  Tm  Tm0  1  0.000000  0.500000  0.521574  1
  Tm  Tm1  1  0.500000  0.000000  0.477926  1
  Tm  Tm2  1  0.500000  0.815318  0.204009  1
  Tm  Tm3  1  0.500000  0.184682  0.204009  1
  Tm  Tm4  1  0.000000  0.683576  0.795582  1
  Tm  Tm5  1  0.000000  0.316424  0.795582  1
  Fe  Fe6  1  0.000000  0.500000  0.989312  1
  Fe  Fe7  1  0.500000  0.000000  0.008684  1
  Fe  Fe8  1  0.500000  0.329472  0.994666  1
  Fe  Fe9  1  0.500000  0.670528  0.994666  1
  Fe  Fe10  1  0.000000  0.171165  0.005921  1
  Fe  Fe11  1  0.000000  0.828835  0.005921  1
  Fe  Fe12  1  0.500000  0.300116  0.431414  1
  Fe  Fe13  1  0.500000  0.699884  0.431414  1
  Fe  Fe14  1  0.000000  0.199063  0.569226  1
  Fe  Fe15  1  0.000000  0.800937  0.569226  1
  Fe  Fe16  1  0.500000  0.882370  0.710464  1
  Fe  Fe17  1  0.500000  0.117630  0.710464  1
  Fe  Fe18  1  0.000000  0.618038  0.290953  1
  Fe  Fe19  1  0.000000  0.381962  0.290953  1
  P  P20  1  0.500000  0.500000  0.890429  1
  P  P21  1  0.000000  0.000000  0.109501  1
  P  P22  1  0.500000  0.500000  0.344080  1
  P  P23  1  0.000000  0.000000  0.652809  1
  P  P24  1  0.500000  0.298044  0.613773  1
  P  P25  1  0.500000  0.701956  0.613773  1
  P  P26  1  0.000000  0.201373  0.386795  1
  P  P27  1  0.000000  0.798627  0.386795  1
  P  P28  1  0.500000  0.843443  0.893968  1
  P  P29  1  0.500000  0.156557  0.893968  1
  P  P30  1  0.000000  0.653297  0.107166  1
  P  P31  1  0.000000  0.346703  0.107166  1
  Ir  Ir32  1  0.000000  0.000000  0.844066  1
  Ir  Ir33  1  0.500000  0.500000  0.698505  1
  Ir  Ir34  1  0.000000  0.000000  0.300708  1
  Ru  Ru35  1  0.500000  0.500000  0.154533  1
