# generated using pymatgen
data_La8Cd2OsPd
_symmetry_space_group_name_H-M   'P 1'
_cell_length_a   10.15473873
_cell_length_b   10.15473883
_cell_length_c   10.26056700
_cell_angle_alpha   59.65465147
_cell_angle_beta   59.65465117
_cell_angle_gamma   59.55327005
_symmetry_Int_Tables_number   1
_chemical_formula_structural   La8Cd2OsPd
_chemical_formula_sum   'La16 Cd4 Os2 Pd2'
_cell_volume   741.71097166
_cell_formula_units_Z   2
loop_
 _symmetry_equiv_pos_site_id
 _symmetry_equiv_pos_as_xyz
  1  'x, y, z'
loop_
 _atom_site_type_symbol
 _atom_site_label
 _atom_site_symmetry_multiplicity
 _atom_site_fract_x
 _atom_site_fract_y
 _atom_site_fract_z
 _atom_site_occupancy
  La  La0  1  0.345777  0.345777  0.356477  1
  La  La1  1  0.345777  0.345777  0.951969  1
  La  La2  1  0.342026  0.958186  0.349893  1
  La  La3  1  0.958186  0.342026  0.349893  1
  La  La4  1  0.817444  0.190440  0.190140  1
  La  La5  1  0.190440  0.817444  0.801976  1
  La  La6  1  0.190440  0.817444  0.190140  1
  La  La7  1  0.817444  0.190440  0.801976  1
  La  La8  1  0.188394  0.188394  0.811606  1
  La  La9  1  0.805891  0.805891  0.194109  1
  La  La10  1  0.938064  0.557609  0.564371  1
  La  La11  1  0.557609  0.938064  0.939956  1
  La  La12  1  0.557609  0.938064  0.564371  1
  La  La13  1  0.938064  0.557609  0.939956  1
  La  La14  1  0.563056  0.563056  0.936944  1
  La  La15  1  0.940271  0.940271  0.559729  1
  Cd  Cd16  1  0.579241  0.579241  0.579830  1
  Cd  Cd17  1  0.579241  0.579241  0.261689  1
  Cd  Cd18  1  0.579067  0.261573  0.579681  1
  Cd  Cd19  1  0.261573  0.579067  0.579681  1
  Os  Os20  1  0.142167  0.142167  0.138580  1
  Os  Os21  1  0.142167  0.142167  0.577086  1
  Pd  Pd22  1  0.144440  0.575611  0.139975  1
  Pd  Pd23  1  0.575611  0.144440  0.139975  1
