# generated using pymatgen
data_Y4Mg4CuIr3
_symmetry_space_group_name_H-M   'P 1'
_cell_length_a   4.16879600
_cell_length_b   7.08788685
_cell_length_c   8.57853454
_cell_angle_alpha   88.87668149
_cell_angle_beta   90.00000000
_cell_angle_gamma   90.00000000
_symmetry_Int_Tables_number   1
_chemical_formula_structural   Y4Mg4CuIr3
_chemical_formula_sum   'Y4 Mg4 Cu1 Ir3'
_cell_volume   253.42943257
_cell_formula_units_Z   1
loop_
 _symmetry_equiv_pos_site_id
 _symmetry_equiv_pos_as_xyz
  1  'x, y, z'
loop_
 _atom_site_type_symbol
 _atom_site_label
 _atom_site_symmetry_multiplicity
 _atom_site_fract_x
 _atom_site_fract_y
 _atom_site_fract_z
 _atom_site_occupancy
  Y  Y0  1  0.250000  0.538262  0.178150  1
  Y  Y1  1  0.750000  0.471286  0.835776  1
  Y  Y2  1  0.750000  0.948419  0.674704  1
  Y  Y3  1  0.250000  0.033064  0.315041  1
  Mg  Mg4  1  0.250000  0.637670  0.559377  1
  Mg  Mg5  1  0.750000  0.360685  0.439639  1
  Mg  Mg6  1  0.750000  0.864831  0.057091  1
  Mg  Mg7  1  0.250000  0.137649  0.940839  1
  Cu  Cu8  1  0.250000  0.256366  0.628862  1
  Ir  Ir9  1  0.250000  0.752626  0.867487  1
  Ir  Ir10  1  0.750000  0.249710  0.128794  1
  Ir  Ir11  1  0.750000  0.749432  0.374241  1
