# generated using pymatgen
data_Dy2Pa2Cu3Sb8
_symmetry_space_group_name_H-M   'P 1'
_cell_length_a   10.44012388
_cell_length_b   10.44012459
_cell_length_c   10.43731908
_cell_angle_alpha   145.68639421
_cell_angle_beta   145.68639969
_cell_angle_gamma   49.34634137
_symmetry_Int_Tables_number   1
_chemical_formula_structural   Dy2Pa2Cu3Sb8
_chemical_formula_sum   'Dy2 Pa2 Cu3 Sb8'
_cell_volume   359.82395816
_cell_formula_units_Z   1
loop_
 _symmetry_equiv_pos_site_id
 _symmetry_equiv_pos_as_xyz
  1  'x, y, z'
loop_
 _atom_site_type_symbol
 _atom_site_label
 _atom_site_symmetry_multiplicity
 _atom_site_fract_x
 _atom_site_fract_y
 _atom_site_fract_z
 _atom_site_occupancy
  Dy  Dy0  1  0.631373  0.631373  0.511021  1
  Dy  Dy1  1  0.120352  0.120352  0.488979  1
  Pa  Pa2  1  0.366357  0.872760  0.000000  1
  Pa  Pa3  1  0.872760  0.366357  0.000000  1
  Cu  Cu4  1  0.999792  0.999792  0.000000  1
  Cu  Cu5  1  0.001928  0.501928  0.500000  1
  Cu  Cu6  1  0.501928  0.001928  0.500000  1
  Sb  Sb7  1  0.337891  0.337891  0.510890  1
  Sb  Sb8  1  0.827002  0.827002  0.489110  1
  Sb  Sb9  1  0.667229  0.183732  0.000000  1
  Sb  Sb10  1  0.183732  0.667229  0.000000  1
  Sb  Sb11  1  0.247324  0.247324  0.000000  1
  Sb  Sb12  1  0.746978  0.746978  0.000000  1
  Sb  Sb13  1  0.747676  0.247676  0.500000  1
  Sb  Sb14  1  0.247676  0.747676  0.500000  1
