# generated using pymatgen
data_La4Ga9SnPd6
_symmetry_space_group_name_H-M   'P 1'
_cell_length_a   6.13358141
_cell_length_b   8.80318622
_cell_length_c   8.81113615
_cell_angle_alpha   73.12401820
_cell_angle_beta   69.63081898
_cell_angle_gamma   69.51377064
_symmetry_Int_Tables_number   1
_chemical_formula_structural   La4Ga9SnPd6
_chemical_formula_sum   'La4 Ga9 Sn1 Pd6'
_cell_volume   410.03977253
_cell_formula_units_Z   1
loop_
 _symmetry_equiv_pos_site_id
 _symmetry_equiv_pos_as_xyz
  1  'x, y, z'
loop_
 _atom_site_type_symbol
 _atom_site_label
 _atom_site_symmetry_multiplicity
 _atom_site_fract_x
 _atom_site_fract_y
 _atom_site_fract_z
 _atom_site_occupancy
  La  La0  1  0.631712  0.099308  0.631856  1
  La  La1  1  0.364933  0.901903  0.367662  1
  La  La2  1  0.134931  0.632224  0.098143  1
  La  La3  1  0.868311  0.368063  0.900621  1
  Ga  Ga4  1  0.468442  0.281901  0.280310  1
  Ga  Ga5  1  0.527964  0.721403  0.723409  1
  Ga  Ga6  1  0.031703  0.719748  0.718085  1
  Ga  Ga7  1  0.972184  0.276575  0.278661  1
  Ga  Ga8  1  0.896115  0.757412  0.452170  1
  Ga  Ga9  1  0.101497  0.242096  0.547856  1
  Ga  Ga10  1  0.398609  0.452024  0.757937  1
  Ga  Ga11  1  0.603930  0.547948  0.242517  1
  Ga  Ga12  1  0.749878  0.000023  0.000031  1
  Sn  Sn13  1  0.249647  0.999285  0.000766  1
  Pd  Pd14  1  0.842859  0.032303  0.253590  1
  Pd  Pd15  1  0.129047  0.968050  0.747298  1
  Pd  Pd16  1  0.370749  0.252923  0.032105  1
  Pd  Pd17  1  0.657391  0.746365  0.967473  1
  Pd  Pd18  1  0.749886  0.502038  0.498099  1
  Pd  Pd19  1  0.250216  0.498410  0.501413  1
