# generated using pymatgen
data_Hf2Zr4Al16Cu4Ru3
_symmetry_space_group_name_H-M   'P 1'
_cell_length_a   8.68144503
_cell_length_b   8.62676234
_cell_length_c   8.71638850
_cell_angle_alpha   60.07267068
_cell_angle_beta   59.45158576
_cell_angle_gamma   60.47573704
_symmetry_Int_Tables_number   1
_chemical_formula_structural   Hf2Zr4Al16Cu4Ru3
_chemical_formula_sum   'Hf2 Zr4 Al16 Cu4 Ru3'
_cell_volume   461.52063899
_cell_formula_units_Z   1
loop_
 _symmetry_equiv_pos_site_id
 _symmetry_equiv_pos_as_xyz
  1  'x, y, z'
loop_
 _atom_site_type_symbol
 _atom_site_label
 _atom_site_symmetry_multiplicity
 _atom_site_fract_x
 _atom_site_fract_y
 _atom_site_fract_z
 _atom_site_occupancy
  Hf  Hf0  1  0.189244  0.810756  0.810756  1
  Hf  Hf1  1  0.810756  0.189244  0.189244  1
  Zr  Zr2  1  0.798489  0.201511  0.798489  1
  Zr  Zr3  1  0.812258  0.812258  0.187742  1
  Zr  Zr4  1  0.201511  0.798489  0.201511  1
  Zr  Zr5  1  0.187742  0.187742  0.812258  1
  Al  Al6  1  0.834722  0.835932  0.833804  1
  Al  Al7  1  0.835932  0.834722  0.495541  1
  Al  Al8  1  0.495541  0.833804  0.835932  1
  Al  Al9  1  0.833804  0.495541  0.834722  1
  Al  Al10  1  0.165278  0.164068  0.166196  1
  Al  Al11  1  0.164068  0.165278  0.504459  1
  Al  Al12  1  0.166196  0.504459  0.165278  1
  Al  Al13  1  0.504459  0.166196  0.164068  1
  Al  Al14  1  0.614523  0.627006  0.615038  1
  Al  Al15  1  0.627006  0.614523  0.143433  1
  Al  Al16  1  0.143433  0.615038  0.627006  1
  Al  Al17  1  0.615038  0.143433  0.614523  1
  Al  Al18  1  0.385477  0.372994  0.384962  1
  Al  Al19  1  0.372994  0.385477  0.856567  1
  Al  Al20  1  0.384962  0.856567  0.385477  1
  Al  Al21  1  0.856567  0.384962  0.372994  1
  Cu  Cu22  1  0.000000  0.500000  0.500000  1
  Cu  Cu23  1  0.500000  0.000000  0.000000  1
  Cu  Cu24  1  0.500000  0.500000  0.000000  1
  Cu  Cu25  1  0.000000  0.000000  0.500000  1
  Ru  Ru26  1  0.500000  0.000000  0.500000  1
  Ru  Ru27  1  0.000000  0.500000  0.000000  1
  Ru  Ru28  1  0.500000  0.500000  0.500000  1
