# generated using pymatgen
data_Nd3Er3ZnGa17Pd4
_symmetry_space_group_name_H-M   'P 1'
_cell_length_a   8.21458605
_cell_length_b   8.21458690
_cell_length_c   15.85134251
_cell_angle_alpha   74.18076093
_cell_angle_beta   74.18075965
_cell_angle_gamma   30.63206855
_symmetry_Int_Tables_number   1
_chemical_formula_structural   Nd3Er3ZnGa17Pd4
_chemical_formula_sum   'Nd3 Er3 Zn1 Ga17 Pd4'
_cell_volume   522.78373473
_cell_formula_units_Z   1
loop_
 _symmetry_equiv_pos_site_id
 _symmetry_equiv_pos_as_xyz
  1  'x, y, z'
loop_
 _atom_site_type_symbol
 _atom_site_label
 _atom_site_symmetry_multiplicity
 _atom_site_fract_x
 _atom_site_fract_y
 _atom_site_fract_z
 _atom_site_occupancy
  Nd  Nd0  1  0.750602  0.750602  0.751429  1
  Nd  Nd1  1  0.249989  0.249989  0.249292  1
  Nd  Nd2  1  0.600020  0.600020  0.600653  1
  Er  Er3  1  0.098367  0.098367  0.099117  1
  Er  Er4  1  0.901554  0.901554  0.901337  1
  Er  Er5  1  0.400868  0.400868  0.399580  1
  Zn  Zn6  1  0.499923  0.499923  0.000022  1
  Ga  Ga7  1  0.822039  0.822039  0.538025  1
  Ga  Ga8  1  0.324516  0.324516  0.038574  1
  Ga  Ga9  1  0.675498  0.675498  0.961509  1
  Ga  Ga10  1  0.178919  0.178919  0.460281  1
  Ga  Ga11  1  0.539015  0.539015  0.825505  1
  Ga  Ga12  1  0.038191  0.038191  0.321092  1
  Ga  Ga13  1  0.960283  0.960283  0.679289  1
  Ga  Ga14  1  0.460989  0.460989  0.175155  1
  Ga  Ga15  1  0.262473  0.262473  0.896977  1
  Ga  Ga16  1  0.761346  0.761346  0.395400  1
  Ga  Ga17  1  0.239966  0.239966  0.604951  1
  Ga  Ga18  1  0.737596  0.737596  0.102945  1
  Ga  Ga19  1  0.396276  0.396276  0.762125  1
  Ga  Ga20  1  0.895857  0.895857  0.261621  1
  Ga  Ga21  1  0.104640  0.104640  0.740284  1
  Ga  Ga22  1  0.603536  0.603536  0.237424  1
  Ga  Ga23  1  0.999814  0.999814  0.499617  1
  Pd  Pd24  1  0.093524  0.093524  0.907561  1
  Pd  Pd25  1  0.590557  0.590557  0.406191  1
  Pd  Pd26  1  0.407131  0.407131  0.590968  1
  Pd  Pd27  1  0.906515  0.906515  0.093076  1
