# generated using pymatgen
data_Ho3Mg3Hg2Ir
_symmetry_space_group_name_H-M   'P 1'
_cell_length_a   7.96476200
_cell_length_b   7.96476130
_cell_length_c   3.84475500
_cell_angle_alpha   90.00000000
_cell_angle_beta   90.00000000
_cell_angle_gamma   119.99999459
_symmetry_Int_Tables_number   1
_chemical_formula_structural   Ho3Mg3Hg2Ir
_chemical_formula_sum   'Ho3 Mg3 Hg2 Ir1'
_cell_volume   211.22479321
_cell_formula_units_Z   1
loop_
 _symmetry_equiv_pos_site_id
 _symmetry_equiv_pos_as_xyz
  1  'x, y, z'
loop_
 _atom_site_type_symbol
 _atom_site_label
 _atom_site_symmetry_multiplicity
 _atom_site_fract_x
 _atom_site_fract_y
 _atom_site_fract_z
 _atom_site_occupancy
  Ho  Ho0  1  0.568036  0.963373  0.000000  1
  Ho  Ho1  1  0.036627  0.604663  0.000000  1
  Ho  Ho2  1  0.395337  0.431964  0.000000  1
  Mg  Mg3  1  0.263354  0.999634  0.500000  1
  Mg  Mg4  1  0.000366  0.263720  0.500000  1
  Mg  Mg5  1  0.736280  0.736646  0.500000  1
  Hg  Hg6  1  0.666667  0.333333  0.500000  1
  Hg  Hg7  1  0.000000  0.000000  0.000000  1
  Ir  Ir8  1  0.333333  0.666667  0.500000  1
