# generated using pymatgen
data_HoSc9In8PtAu3
_symmetry_space_group_name_H-M   'P 1'
_cell_length_a   3.47654600
_cell_length_b   7.85627802
_cell_length_c   17.72933622
_cell_angle_alpha   90.01730213
_cell_angle_beta   90.00000000
_cell_angle_gamma   90.00000000
_symmetry_Int_Tables_number   1
_chemical_formula_structural   HoSc9In8PtAu3
_chemical_formula_sum   'Ho1 Sc9 In8 Pt1 Au3'
_cell_volume   484.23623053
_cell_formula_units_Z   1
loop_
 _symmetry_equiv_pos_site_id
 _symmetry_equiv_pos_as_xyz
  1  'x, y, z'
loop_
 _atom_site_type_symbol
 _atom_site_label
 _atom_site_symmetry_multiplicity
 _atom_site_fract_x
 _atom_site_fract_y
 _atom_site_fract_z
 _atom_site_occupancy
  Ho  Ho0  1  0.000000  0.500426  0.499525  1
  Sc  Sc1  1  0.000000  0.120790  0.419606  1
  Sc  Sc2  1  0.000000  0.877530  0.578988  1
  Sc  Sc3  1  0.000000  0.377202  0.921537  1
  Sc  Sc4  1  0.000000  0.617728  0.084180  1
  Sc  Sc5  1  0.000000  0.255269  0.217472  1
  Sc  Sc6  1  0.000000  0.761353  0.783163  1
  Sc  Sc7  1  0.000000  0.260980  0.717967  1
  Sc  Sc8  1  0.000000  0.729345  0.277952  1
  Sc  Sc9  1  0.000000  0.000298  0.000410  1
  In  In10  1  0.500000  0.419118  0.350354  1
  In  In11  1  0.500000  0.582200  0.648587  1
  In  In12  1  0.500000  0.080340  0.854353  1
  In  In13  1  0.500000  0.919936  0.146569  1
  In  In14  1  0.500000  0.291542  0.065976  1
  In  In15  1  0.500000  0.707970  0.936451  1
  In  In16  1  0.500000  0.202751  0.566292  1
  In  In17  1  0.500000  0.796901  0.432112  1
  Pt  Pt18  1  0.500000  0.529654  0.194834  1
  Au  Au19  1  0.500000  0.029483  0.302498  1
  Au  Au20  1  0.500000  0.969279  0.696601  1
  Au  Au21  1  0.500000  0.469905  0.804569  1
