# generated using pymatgen
data_SrCaV2F10
_symmetry_space_group_name_H-M   'P 1'
_cell_length_a   10.45307700
_cell_length_b   5.65979534
_cell_length_c   7.90026240
_cell_angle_alpha   69.94537959
_cell_angle_beta   90.00000000
_cell_angle_gamma   90.00000000
_symmetry_Int_Tables_number   1
_chemical_formula_structural   SrCaV2F10
_chemical_formula_sum   'Sr2 Ca2 V4 F20'
_cell_volume   439.05739524
_cell_formula_units_Z   2
loop_
 _symmetry_equiv_pos_site_id
 _symmetry_equiv_pos_as_xyz
  1  'x, y, z'
loop_
 _atom_site_type_symbol
 _atom_site_label
 _atom_site_symmetry_multiplicity
 _atom_site_fract_x
 _atom_site_fract_y
 _atom_site_fract_z
 _atom_site_occupancy
  Sr  Sr0  1  0.017984  0.532966  0.740802  1
  Sr  Sr1  1  0.517984  0.467034  0.759198  1
  Ca  Ca2  1  0.978348  0.469115  0.253020  1
  Ca  Ca3  1  0.478348  0.530885  0.246980  1
  V  V4  1  0.752737  0.120045  0.593262  1
  V  V5  1  0.252737  0.879955  0.906738  1
  V  V6  1  0.247161  0.897717  0.397504  1
  V  V7  1  0.747161  0.102283  0.102496  1
  F  F8  1  0.876445  0.404386  0.537166  1
  F  F9  1  0.376445  0.595614  0.962834  1
  F  F10  1  0.118635  0.625470  0.427923  1
  F  F11  1  0.618635  0.374530  0.072077  1
  F  F12  1  0.613042  0.362668  0.494737  1
  F  F13  1  0.113042  0.637332  0.005263  1
  F  F14  1  0.383751  0.644139  0.484699  1
  F  F15  1  0.883751  0.355861  0.015301  1
  F  F16  1  0.393500  0.097748  0.806310  1
  F  F17  1  0.893500  0.902252  0.693690  1
  F  F18  1  0.607277  0.869019  0.182066  1
  F  F19  1  0.107277  0.130981  0.317934  1
  F  F20  1  0.138167  0.155957  0.862763  1
  F  F21  1  0.638167  0.844043  0.637237  1
  F  F22  1  0.864721  0.829018  0.138292  1
  F  F23  1  0.364721  0.170982  0.361708  1
  F  F24  1  0.706051  0.159339  0.835731  1
  F  F25  1  0.206051  0.840661  0.664269  1
  F  F26  1  0.302182  0.865489  0.158624  1
  F  F27  1  0.802182  0.134511  0.341376  1
