# generated using pymatgen
data_ErSc7Ga3Fe
_symmetry_space_group_name_H-M   'P 1'
_cell_length_a   9.41881400
_cell_length_b   9.41881383
_cell_length_c   6.59149900
_cell_angle_alpha   90.00000000
_cell_angle_beta   90.00000000
_cell_angle_gamma   120.00000060
_symmetry_Int_Tables_number   1
_chemical_formula_structural   ErSc7Ga3Fe
_chemical_formula_sum   'Er2 Sc14 Ga6 Fe2'
_cell_volume   506.41580696
_cell_formula_units_Z   2
loop_
 _symmetry_equiv_pos_site_id
 _symmetry_equiv_pos_as_xyz
  1  'x, y, z'
loop_
 _atom_site_type_symbol
 _atom_site_label
 _atom_site_symmetry_multiplicity
 _atom_site_fract_x
 _atom_site_fract_y
 _atom_site_fract_z
 _atom_site_occupancy
  Er  Er0  1  0.000000  0.000000  0.229617  1
  Er  Er1  1  0.000000  0.000000  0.729617  1
  Sc  Sc2  1  0.177489  0.822511  0.508482  1
  Sc  Sc3  1  0.645021  0.822511  0.508482  1
  Sc  Sc4  1  0.177489  0.354979  0.508482  1
  Sc  Sc5  1  0.822511  0.177489  0.008482  1
  Sc  Sc6  1  0.354979  0.177489  0.008482  1
  Sc  Sc7  1  0.822511  0.645021  0.008482  1
  Sc  Sc8  1  0.333333  0.666667  0.826744  1
  Sc  Sc9  1  0.666667  0.333333  0.326744  1
  Sc  Sc10  1  0.464964  0.535036  0.209813  1
  Sc  Sc11  1  0.070073  0.535036  0.209813  1
  Sc  Sc12  1  0.464964  0.929927  0.209813  1
  Sc  Sc13  1  0.535036  0.464964  0.709813  1
  Sc  Sc14  1  0.929927  0.464964  0.709813  1
  Sc  Sc15  1  0.535036  0.070073  0.709813  1
  Ga  Ga16  1  0.165945  0.834055  0.961535  1
  Ga  Ga17  1  0.668109  0.834055  0.961535  1
  Ga  Ga18  1  0.165945  0.331891  0.961535  1
  Ga  Ga19  1  0.834055  0.165945  0.461535  1
  Ga  Ga20  1  0.331891  0.165945  0.461535  1
  Ga  Ga21  1  0.834055  0.668109  0.461535  1
  Fe  Fe22  1  0.333333  0.666667  0.441571  1
  Fe  Fe23  1  0.666667  0.333333  0.941571  1
