# generated using pymatgen
data_Cs12CaCdSe8
_symmetry_space_group_name_H-M   'P 1'
_cell_length_a   11.39147400
_cell_length_b   11.39147411
_cell_length_c   8.84344400
_cell_angle_alpha   90.00000000
_cell_angle_beta   90.00000000
_cell_angle_gamma   119.99999967
_symmetry_Int_Tables_number   1
_chemical_formula_structural   Cs12CaCdSe8
_chemical_formula_sum   'Cs12 Ca1 Cd1 Se8'
_cell_volume   993.82956894
_cell_formula_units_Z   1
loop_
 _symmetry_equiv_pos_site_id
 _symmetry_equiv_pos_as_xyz
  1  'x, y, z'
loop_
 _atom_site_type_symbol
 _atom_site_label
 _atom_site_symmetry_multiplicity
 _atom_site_fract_x
 _atom_site_fract_y
 _atom_site_fract_z
 _atom_site_occupancy
  Cs  Cs0  1  0.146105  0.853895  0.544133  1
  Cs  Cs1  1  0.294684  0.147342  0.041524  1
  Cs  Cs2  1  0.852658  0.705316  0.041524  1
  Cs  Cs3  1  0.146105  0.292211  0.544133  1
  Cs  Cs4  1  0.707789  0.853895  0.544133  1
  Cs  Cs5  1  0.852658  0.147342  0.041524  1
  Cs  Cs6  1  0.532249  0.467751  0.367796  1
  Cs  Cs7  1  0.054944  0.527472  0.863878  1
  Cs  Cs8  1  0.472528  0.945056  0.863878  1
  Cs  Cs9  1  0.532249  0.064500  0.367796  1
  Cs  Cs10  1  0.935500  0.467751  0.367796  1
  Cs  Cs11  1  0.472528  0.527472  0.863878  1
  Ca  Ca12  1  0.333333  0.666667  0.249974  1
  Cd  Cd13  1  0.666667  0.333333  0.751430  1
  Se  Se14  1  0.333333  0.666667  0.575376  1
  Se  Se15  1  0.666667  0.333333  0.066832  1
  Se  Se16  1  0.194170  0.805830  0.153819  1
  Se  Se17  1  0.398060  0.199030  0.654114  1
  Se  Se18  1  0.800970  0.601940  0.654114  1
  Se  Se19  1  0.194170  0.388340  0.153819  1
  Se  Se20  1  0.611660  0.805830  0.153819  1
  Se  Se21  1  0.800970  0.199030  0.654114  1
