# generated using pymatgen
data_Li3Tm3HgBi2
_symmetry_space_group_name_H-M   'P 1'
_cell_length_a   7.28824200
_cell_length_b   7.28824361
_cell_length_c   4.49670500
_cell_angle_alpha   90.00000000
_cell_angle_beta   90.00000000
_cell_angle_gamma   120.00000178
_symmetry_Int_Tables_number   1
_chemical_formula_structural   Li3Tm3HgBi2
_chemical_formula_sum   'Li3 Tm3 Hg1 Bi2'
_cell_volume   206.85722110
_cell_formula_units_Z   1
loop_
 _symmetry_equiv_pos_site_id
 _symmetry_equiv_pos_as_xyz
  1  'x, y, z'
loop_
 _atom_site_type_symbol
 _atom_site_label
 _atom_site_symmetry_multiplicity
 _atom_site_fract_x
 _atom_site_fract_y
 _atom_site_fract_z
 _atom_site_occupancy
  Li  Li0  1  0.765378  0.765378  0.500000  1
  Li  Li1  1  0.234622  0.000000  0.500000  1
  Li  Li2  1  0.000000  0.234622  0.500000  1
  Tm  Tm3  1  0.000000  0.589632  0.000000  1
  Tm  Tm4  1  0.410368  0.410368  0.000000  1
  Tm  Tm5  1  0.589632  0.000000  0.000000  1
  Hg  Hg6  1  0.000000  0.000000  0.000000  1
  Bi  Bi7  1  0.333333  0.666667  0.500000  1
  Bi  Bi8  1  0.666667  0.333333  0.500000  1
