# generated using pymatgen
data_DyY3(MoOs3)2
_symmetry_space_group_name_H-M   'P 1'
_cell_length_a   5.48553800
_cell_length_b   5.48553777
_cell_length_c   8.57282900
_cell_angle_alpha   90.00000000
_cell_angle_beta   90.00000000
_cell_angle_gamma   120.00000137
_symmetry_Int_Tables_number   1
_chemical_formula_structural   DyY3(MoOs3)2
_chemical_formula_sum   'Dy1 Y3 Mo2 Os6'
_cell_volume   223.40517277
_cell_formula_units_Z   1
loop_
 _symmetry_equiv_pos_site_id
 _symmetry_equiv_pos_as_xyz
  1  'x, y, z'
loop_
 _atom_site_type_symbol
 _atom_site_label
 _atom_site_symmetry_multiplicity
 _atom_site_fract_x
 _atom_site_fract_y
 _atom_site_fract_z
 _atom_site_occupancy
  Dy  Dy0  1  0.333333  0.666667  0.435199  1
  Y  Y1  1  0.666667  0.333333  0.564986  1
  Y  Y2  1  0.666667  0.333333  0.934944  1
  Y  Y3  1  0.333333  0.666667  0.065269  1
  Mo  Mo4  1  0.000000  0.000000  0.499884  1
  Mo  Mo5  1  0.000000  0.000000  0.999909  1
  Os  Os6  1  0.827561  0.172439  0.250129  1
  Os  Os7  1  0.827561  0.655122  0.250129  1
  Os  Os8  1  0.344878  0.172439  0.250129  1
  Os  Os9  1  0.172519  0.827481  0.749808  1
  Os  Os10  1  0.172519  0.345038  0.749808  1
  Os  Os11  1  0.654962  0.827481  0.749808  1
