# generated using pymatgen
data_Pr12Be2Br17
_symmetry_space_group_name_H-M   'P 1'
_cell_length_a   9.47992252
_cell_length_b   11.49245144
_cell_length_c   11.16185573
_cell_angle_alpha   94.10042589
_cell_angle_beta   105.11858993
_cell_angle_gamma   116.02863253
_symmetry_Int_Tables_number   1
_chemical_formula_structural   Pr12Be2Br17
_chemical_formula_sum   'Pr12 Be2 Br17'
_cell_volume   1030.37420251
_cell_formula_units_Z   1
loop_
 _symmetry_equiv_pos_site_id
 _symmetry_equiv_pos_as_xyz
  1  'x, y, z'
loop_
 _atom_site_type_symbol
 _atom_site_label
 _atom_site_symmetry_multiplicity
 _atom_site_fract_x
 _atom_site_fract_y
 _atom_site_fract_z
 _atom_site_occupancy
  Pr  Pr0  1  0.068641  0.528077  0.334401  1
  Pr  Pr1  1  0.988572  0.812778  0.569239  1
  Pr  Pr2  1  0.621053  0.234337  0.281216  1
  Pr  Pr3  1  0.011428  0.187222  0.430761  1
  Pr  Pr4  1  0.236439  0.670792  0.011326  1
  Pr  Pr5  1  0.297998  0.010321  0.918252  1
  Pr  Pr6  1  0.378947  0.765663  0.718784  1
  Pr  Pr7  1  0.931359  0.471923  0.665599  1
  Pr  Pr8  1  0.702002  0.989679  0.081748  1
  Pr  Pr9  1  0.160440  0.289307  0.139530  1
  Pr  Pr10  1  0.763561  0.329208  0.988674  1
  Pr  Pr11  1  0.839560  0.710693  0.860470  1
  Be  Be12  1  0.106253  0.735859  0.787488  1
  Be  Be13  1  0.893747  0.264141  0.212512  1
  Br  Br14  1  0.776866  0.525966  0.412655  1
  Br  Br15  1  0.629688  0.420601  0.741070  1
  Br  Br16  1  0.839493  0.898701  0.316084  1
  Br  Br17  1  0.314998  0.212703  0.366462  1
  Br  Br18  1  0.160507  0.101299  0.683916  1
  Br  Br19  1  0.590249  0.057770  0.821936  1
  Br  Br20  1  0.740805  0.166278  0.533348  1
  Br  Br21  1  0.532931  0.679883  0.949187  1
  Br  Br22  1  0.370312  0.579399  0.258930  1
  Br  Br23  1  0.223134  0.474034  0.587345  1
  Br  Br24  1  0.058375  0.370850  0.892378  1
  Br  Br25  1  0.467069  0.320117  0.050813  1
  Br  Br26  1  0.000000  0.000000  0.000000  1
  Br  Br27  1  0.259195  0.833722  0.466652  1
  Br  Br28  1  0.409751  0.942230  0.178064  1
  Br  Br29  1  0.685002  0.787297  0.633538  1
  Br  Br30  1  0.941625  0.629150  0.107622  1
