# generated using pymatgen
data_Ho2Hf2ZrGe4
_symmetry_space_group_name_H-M   'P 1'
_cell_length_a   7.40346100
_cell_length_b   7.40346100
_cell_length_c   13.54430500
_cell_angle_alpha   90.00000000
_cell_angle_beta   90.00000000
_cell_angle_gamma   90.00000000
_symmetry_Int_Tables_number   1
_chemical_formula_structural   Ho2Hf2ZrGe4
_chemical_formula_sum   'Ho8 Hf8 Zr4 Ge16'
_cell_volume   742.38008127
_cell_formula_units_Z   4
loop_
 _symmetry_equiv_pos_site_id
 _symmetry_equiv_pos_as_xyz
  1  'x, y, z'
loop_
 _atom_site_type_symbol
 _atom_site_label
 _atom_site_symmetry_multiplicity
 _atom_site_fract_x
 _atom_site_fract_y
 _atom_site_fract_z
 _atom_site_occupancy
  Ho  Ho0  1  0.998237  0.342799  0.217833  1
  Ho  Ho1  1  0.001763  0.657201  0.717833  1
  Ho  Ho2  1  0.157201  0.498237  0.467833  1
  Ho  Ho3  1  0.501763  0.842799  0.032167  1
  Ho  Ho4  1  0.842799  0.501763  0.967833  1
  Ho  Ho5  1  0.498237  0.157201  0.532167  1
  Ho  Ho6  1  0.342799  0.998237  0.782167  1
  Ho  Ho7  1  0.657201  0.001763  0.282167  1
  Hf  Hf8  1  0.154802  0.995868  0.375666  1
  Hf  Hf9  1  0.845198  0.004132  0.875666  1
  Hf  Hf10  1  0.504132  0.654802  0.625666  1
  Hf  Hf11  1  0.345198  0.495868  0.874334  1
  Hf  Hf12  1  0.495868  0.345198  0.125666  1
  Hf  Hf13  1  0.654802  0.504132  0.374334  1
  Hf  Hf14  1  0.995868  0.154802  0.624334  1
  Hf  Hf15  1  0.004132  0.845198  0.124334  1
  Zr  Zr16  1  0.173204  0.173204  0.000000  1
  Zr  Zr17  1  0.826796  0.826796  0.500000  1
  Zr  Zr18  1  0.326796  0.673204  0.250000  1
  Zr  Zr19  1  0.673204  0.326796  0.750000  1
  Ge  Ge20  1  0.365263  0.299147  0.323318  1
  Ge  Ge21  1  0.634737  0.700853  0.823318  1
  Ge  Ge22  1  0.200853  0.865263  0.573318  1
  Ge  Ge23  1  0.134737  0.799147  0.926682  1
  Ge  Ge24  1  0.799147  0.134737  0.073318  1
  Ge  Ge25  1  0.865263  0.200853  0.426682  1
  Ge  Ge26  1  0.299147  0.365263  0.676682  1
  Ge  Ge27  1  0.700853  0.634737  0.176682  1
  Ge  Ge28  1  0.296992  0.039831  0.182512  1
  Ge  Ge29  1  0.703008  0.960169  0.682512  1
  Ge  Ge30  1  0.460169  0.796992  0.432512  1
  Ge  Ge31  1  0.203008  0.539831  0.067488  1
  Ge  Ge32  1  0.539831  0.203008  0.932512  1
  Ge  Ge33  1  0.796992  0.460169  0.567488  1
  Ge  Ge34  1  0.039831  0.296992  0.817488  1
  Ge  Ge35  1  0.960169  0.703008  0.317488  1
