# generated using pymatgen
data_Hf5SnIr7Rh3
_symmetry_space_group_name_H-M   'P 1'
_cell_length_a   4.18662300
_cell_length_b   5.65165879
_cell_length_c   11.16979604
_cell_angle_alpha   90.36716813
_cell_angle_beta   90.00000000
_cell_angle_gamma   90.00000000
_symmetry_Int_Tables_number   1
_chemical_formula_structural   Hf5SnIr7Rh3
_chemical_formula_sum   'Hf5 Sn1 Ir7 Rh3'
_cell_volume   264.28719045
_cell_formula_units_Z   1
loop_
 _symmetry_equiv_pos_site_id
 _symmetry_equiv_pos_as_xyz
  1  'x, y, z'
loop_
 _atom_site_type_symbol
 _atom_site_label
 _atom_site_symmetry_multiplicity
 _atom_site_fract_x
 _atom_site_fract_y
 _atom_site_fract_z
 _atom_site_occupancy
  Hf  Hf0  1  0.500000  0.179941  0.641597  1
  Hf  Hf1  1  0.500000  0.820059  0.358403  1
  Hf  Hf2  1  0.500000  0.679646  0.856577  1
  Hf  Hf3  1  0.500000  0.320354  0.143423  1
  Hf  Hf4  1  0.000000  0.000000  0.000000  1
  Sn  Sn5  1  0.000000  0.500000  0.500000  1
  Ir  Ir6  1  0.500000  0.198516  0.888188  1
  Ir  Ir7  1  0.500000  0.801484  0.111812  1
  Ir  Ir8  1  0.000000  0.439039  0.749685  1
  Ir  Ir9  1  0.000000  0.560961  0.250315  1
  Ir  Ir10  1  0.000000  0.500000  0.000000  1
  Ir  Ir11  1  0.000000  0.062858  0.248119  1
  Ir  Ir12  1  0.000000  0.937142  0.751881  1
  Rh  Rh13  1  0.500000  0.700321  0.615554  1
  Rh  Rh14  1  0.500000  0.299679  0.384446  1
  Rh  Rh15  1  0.000000  0.000000  0.500000  1
