# generated using pymatgen
data_Er12ZnGaCo4
_symmetry_space_group_name_H-M   'P 1'
_cell_length_a   8.17143809
_cell_length_b   8.17143835
_cell_length_c   8.17143719
_cell_angle_alpha   111.95648375
_cell_angle_beta   109.73007554
_cell_angle_gamma   106.76866436
_symmetry_Int_Tables_number   1
_chemical_formula_structural   Er12ZnGaCo4
_chemical_formula_sum   'Er12 Zn1 Ga1 Co4'
_cell_volume   419.16025398
_cell_formula_units_Z   1
loop_
 _symmetry_equiv_pos_site_id
 _symmetry_equiv_pos_as_xyz
  1  'x, y, z'
loop_
 _atom_site_type_symbol
 _atom_site_label
 _atom_site_symmetry_multiplicity
 _atom_site_fract_x
 _atom_site_fract_y
 _atom_site_fract_z
 _atom_site_occupancy
  Er  Er0  1  0.957842  0.262291  0.695552  1
  Er  Er1  1  0.042158  0.737709  0.304448  1
  Er  Er2  1  0.673659  0.862681  0.189021  1
  Er  Er3  1  0.326341  0.515364  0.189021  1
  Er  Er4  1  0.326341  0.137319  0.810979  1
  Er  Er5  1  0.673659  0.484636  0.810979  1
  Er  Er6  1  0.566739  0.262291  0.304448  1
  Er  Er7  1  0.433261  0.737709  0.695552  1
  Er  Er8  1  0.180053  0.779908  0.959961  1
  Er  Er9  1  0.819947  0.779908  0.599855  1
  Er  Er10  1  0.180053  0.220092  0.400145  1
  Er  Er11  1  0.819947  0.220092  0.040039  1
  Zn  Zn12  1  0.000000  0.500000  0.500000  1
  Ga  Ga13  1  0.500000  0.000000  0.500000  1
  Co  Co14  1  0.115583  0.115583  0.000000  1
  Co  Co15  1  0.884417  0.884417  0.000000  1
  Co  Co16  1  0.663467  0.500000  0.163467  1
  Co  Co17  1  0.336533  0.500000  0.836533  1
