# generated using pymatgen
data_Pr6Zn23N
_symmetry_space_group_name_H-M   'P 1'
_cell_length_a   9.16587596
_cell_length_b   9.16587531
_cell_length_c   9.16587600
_cell_angle_alpha   60.00000472
_cell_angle_beta   60.00000709
_cell_angle_gamma   60.00000028
_symmetry_Int_Tables_number   1
_chemical_formula_structural   Pr6Zn23N
_chemical_formula_sum   'Pr6 Zn23 N1'
_cell_volume   544.51135437
_cell_formula_units_Z   1
loop_
 _symmetry_equiv_pos_site_id
 _symmetry_equiv_pos_as_xyz
  1  'x, y, z'
loop_
 _atom_site_type_symbol
 _atom_site_label
 _atom_site_symmetry_multiplicity
 _atom_site_fract_x
 _atom_site_fract_y
 _atom_site_fract_z
 _atom_site_occupancy
  Pr  Pr0  1  0.700224  0.299776  0.299776  1
  Pr  Pr1  1  0.700224  0.299776  0.700224  1
  Pr  Pr2  1  0.700224  0.700224  0.299776  1
  Pr  Pr3  1  0.299776  0.700224  0.700224  1
  Pr  Pr4  1  0.299776  0.700224  0.299776  1
  Pr  Pr5  1  0.299776  0.299776  0.700224  1
  Zn  Zn6  1  0.628875  0.123709  0.123709  1
  Zn  Zn7  1  0.123709  0.628875  0.123709  1
  Zn  Zn8  1  0.123709  0.123709  0.628875  1
  Zn  Zn9  1  0.123709  0.123709  0.123709  1
  Zn  Zn10  1  0.371125  0.876291  0.876291  1
  Zn  Zn11  1  0.876291  0.371125  0.876291  1
  Zn  Zn12  1  0.876291  0.876291  0.371125  1
  Zn  Zn13  1  0.876291  0.876291  0.876291  1
  Zn  Zn14  1  0.500000  0.000000  0.000000  1
  Zn  Zn15  1  0.500000  0.000000  0.500000  1
  Zn  Zn16  1  0.500000  0.500000  0.000000  1
  Zn  Zn17  1  0.000000  0.500000  0.500000  1
  Zn  Zn18  1  0.000000  0.500000  0.000000  1
  Zn  Zn19  1  0.000000  0.000000  0.500000  1
  Zn  Zn20  1  0.000000  0.000000  0.000000  1
  Zn  Zn21  1  0.023248  0.325584  0.325584  1
  Zn  Zn22  1  0.325584  0.023248  0.325584  1
  Zn  Zn23  1  0.325584  0.325584  0.023248  1
  Zn  Zn24  1  0.325584  0.325584  0.325584  1
  Zn  Zn25  1  0.976752  0.674416  0.674416  1
  Zn  Zn26  1  0.674416  0.976752  0.674416  1
  Zn  Zn27  1  0.674416  0.674416  0.976752  1
  Zn  Zn28  1  0.674416  0.674416  0.674416  1
  N  N29  1  0.500000  0.500000  0.500000  1
