# generated using pymatgen
data_Tb11Nd5Cd4Os3Pd
_symmetry_space_group_name_H-M   'P 1'
_cell_length_a   9.79132658
_cell_length_b   9.84150506
_cell_length_c   9.84150450
_cell_angle_alpha   59.57579271
_cell_angle_beta   59.36956640
_cell_angle_gamma   59.36956626
_symmetry_Int_Tables_number   1
_chemical_formula_structural   Tb11Nd5Cd4Os3Pd
_chemical_formula_sum   'Tb11 Nd5 Cd4 Os3 Pd1'
_cell_volume   662.00314875
_cell_formula_units_Z   1
loop_
 _symmetry_equiv_pos_site_id
 _symmetry_equiv_pos_as_xyz
  1  'x, y, z'
loop_
 _atom_site_type_symbol
 _atom_site_label
 _atom_site_symmetry_multiplicity
 _atom_site_fract_x
 _atom_site_fract_y
 _atom_site_fract_z
 _atom_site_occupancy
  Tb  Tb0  1  0.345485  0.350197  0.350197  1
  Tb  Tb1  1  0.343631  0.351737  0.957961  1
  Tb  Tb2  1  0.343631  0.957961  0.351737  1
  Tb  Tb3  1  0.965572  0.345166  0.345166  1
  Tb  Tb4  1  0.816852  0.188037  0.188037  1
  Tb  Tb5  1  0.183951  0.812923  0.812923  1
  Tb  Tb6  1  0.185593  0.811830  0.189434  1
  Tb  Tb7  1  0.817527  0.189141  0.804702  1
  Tb  Tb8  1  0.185593  0.189434  0.811830  1
  Tb  Tb9  1  0.817527  0.804702  0.189141  1
  Tb  Tb10  1  0.941076  0.556154  0.556154  1
  Nd  Nd11  1  0.552576  0.942673  0.942673  1
  Nd  Nd12  1  0.556092  0.937249  0.565591  1
  Nd  Nd13  1  0.941119  0.555771  0.942098  1
  Nd  Nd14  1  0.556092  0.565591  0.937249  1
  Nd  Nd15  1  0.941119  0.942098  0.555771  1
  Cd  Cd16  1  0.582006  0.578018  0.578018  1
  Cd  Cd17  1  0.578555  0.578895  0.261792  1
  Cd  Cd18  1  0.578555  0.261792  0.578895  1
  Cd  Cd19  1  0.258170  0.579149  0.579149  1
  Os  Os20  1  0.144004  0.138712  0.138712  1
  Os  Os21  1  0.144209  0.142558  0.578364  1
  Os  Os22  1  0.144209  0.578364  0.142558  1
  Pd  Pd23  1  0.576859  0.141848  0.141848  1
