# generated using pymatgen
data_Th3Al24MoPd8
_symmetry_space_group_name_H-M   'P 1'
_cell_length_a   8.53102863
_cell_length_b   8.53102823
_cell_length_c   8.53102800
_cell_angle_alpha   89.90536921
_cell_angle_beta   89.90537594
_cell_angle_gamma   89.90538096
_symmetry_Int_Tables_number   1
_chemical_formula_structural   Th3Al24MoPd8
_chemical_formula_sum   'Th3 Al24 Mo1 Pd8'
_cell_volume   620.87242420
_cell_formula_units_Z   1
loop_
 _symmetry_equiv_pos_site_id
 _symmetry_equiv_pos_as_xyz
  1  'x, y, z'
loop_
 _atom_site_type_symbol
 _atom_site_label
 _atom_site_symmetry_multiplicity
 _atom_site_fract_x
 _atom_site_fract_y
 _atom_site_fract_z
 _atom_site_occupancy
  Th  Th0  1  0.000000  0.500000  0.000000  1
  Th  Th1  1  0.500000  0.000000  0.000000  1
  Th  Th2  1  0.000000  0.000000  0.500000  1
  Al  Al3  1  0.992071  0.638234  0.638234  1
  Al  Al4  1  0.638234  0.638234  0.992071  1
  Al  Al5  1  0.638234  0.992071  0.638234  1
  Al  Al6  1  0.007929  0.361766  0.361766  1
  Al  Al7  1  0.361766  0.361766  0.007929  1
  Al  Al8  1  0.361766  0.007929  0.361766  1
  Al  Al9  1  0.731964  0.500000  0.268036  1
  Al  Al10  1  0.268036  0.500000  0.731964  1
  Al  Al11  1  0.500000  0.268036  0.731964  1
  Al  Al12  1  0.500000  0.731964  0.268036  1
  Al  Al13  1  0.268036  0.731964  0.500000  1
  Al  Al14  1  0.731964  0.268036  0.500000  1
  Al  Al15  1  0.833324  0.145198  0.833324  1
  Al  Al16  1  0.145198  0.833324  0.833324  1
  Al  Al17  1  0.833324  0.833324  0.145198  1
  Al  Al18  1  0.166676  0.854802  0.166676  1
  Al  Al19  1  0.854802  0.166676  0.166676  1
  Al  Al20  1  0.166676  0.166676  0.854802  1
  Al  Al21  1  0.728027  0.492150  0.728027  1
  Al  Al22  1  0.492150  0.728027  0.728027  1
  Al  Al23  1  0.728027  0.728027  0.492150  1
  Al  Al24  1  0.271973  0.507850  0.271973  1
  Al  Al25  1  0.507850  0.271973  0.271973  1
  Al  Al26  1  0.271973  0.271973  0.507850  1
  Mo  Mo27  1  0.500000  0.500000  0.500000  1
  Pd  Pd28  1  0.828551  0.828551  0.828551  1
  Pd  Pd29  1  0.171449  0.171449  0.171449  1
  Pd  Pd30  1  0.664021  0.335979  0.000000  1
  Pd  Pd31  1  0.000000  0.335979  0.664021  1
  Pd  Pd32  1  0.335979  0.000000  0.664021  1
  Pd  Pd33  1  0.335979  0.664021  0.000000  1
  Pd  Pd34  1  0.000000  0.664021  0.335979  1
  Pd  Pd35  1  0.664021  0.000000  0.335979  1
