# generated using pymatgen
data_Ti3Nb5Fe2Co6Si13As
_symmetry_space_group_name_H-M   'P 1'
_cell_length_a   9.21938220
_cell_length_b   9.21933157
_cell_length_c   9.23427900
_cell_angle_alpha   94.22406495
_cell_angle_beta   94.18106330
_cell_angle_gamma   148.56075699
_symmetry_Int_Tables_number   1
_chemical_formula_structural   Ti3Nb5Fe2Co6Si13As
_chemical_formula_sum   'Ti3 Nb5 Fe2 Co6 Si13 As1'
_cell_volume   394.12923252
_cell_formula_units_Z   1
loop_
 _symmetry_equiv_pos_site_id
 _symmetry_equiv_pos_as_xyz
  1  'x, y, z'
loop_
 _atom_site_type_symbol
 _atom_site_label
 _atom_site_symmetry_multiplicity
 _atom_site_fract_x
 _atom_site_fract_y
 _atom_site_fract_z
 _atom_site_occupancy
  Ti  Ti0  1  0.503320  0.308087  0.810579  1
  Ti  Ti1  1  0.306778  0.502286  0.809577  1
  Ti  Ti2  1  0.691904  0.497449  0.190584  1
  Nb  Nb3  1  0.133760  0.133257  0.266623  1
  Nb  Nb4  1  0.867210  0.867080  0.734519  1
  Nb  Nb5  1  0.865020  0.134434  0.999550  1
  Nb  Nb6  1  0.134340  0.865873  0.999991  1
  Nb  Nb7  1  0.499518  0.691903  0.189991  1
  Fe  Fe8  1  0.399645  0.899472  0.799436  1
  Fe  Fe9  1  0.099703  0.599978  0.200445  1
  Co  Co10  1  0.098662  0.897913  0.498700  1
  Co  Co11  1  0.400807  0.601248  0.499089  1
  Co  Co12  1  0.602716  0.398670  0.498427  1
  Co  Co13  1  0.896477  0.100204  0.499125  1
  Co  Co14  1  0.898838  0.398868  0.797956  1
  Co  Co15  1  0.600524  0.101188  0.202051  1
  Si  Si16  1  0.705547  0.704202  0.409271  1
  Si  Si17  1  0.707321  0.292422  0.000060  1
  Si  Si18  1  0.291283  0.707919  0.999450  1
  Si  Si19  1  0.002016  0.300463  0.297115  1
  Si  Si20  1  0.003375  0.705693  0.703353  1
  Si  Si21  1  0.700525  0.997962  0.703571  1
  Si  Si22  1  0.293224  0.996057  0.295784  1
  Si  Si23  1  0.493707  0.901739  0.404782  1
  Si  Si24  1  0.497445  0.090223  0.596282  1
  Si  Si25  1  0.098041  0.505679  0.595532  1
  Si  Si26  1  0.910094  0.503103  0.403836  1
  Si  Si27  1  0.748849  0.748140  0.999397  1
  Si  Si28  1  0.251248  0.250705  0.999381  1
  As  As29  1  0.298108  0.297782  0.595541  1
