# generated using pymatgen
data_Nd8Y12Si15Ru
_symmetry_space_group_name_H-M   'P 1'
_cell_length_a   7.76140600
_cell_length_b   7.79871771
_cell_length_c   14.42518425
_cell_angle_alpha   89.64879170
_cell_angle_beta   89.90058874
_cell_angle_gamma   90.08430098
_symmetry_Int_Tables_number   1
_chemical_formula_structural   Nd8Y12Si15Ru
_chemical_formula_sum   'Nd8 Y12 Si15 Ru1'
_cell_volume   873.12350802
_cell_formula_units_Z   1
loop_
 _symmetry_equiv_pos_site_id
 _symmetry_equiv_pos_as_xyz
  1  'x, y, z'
loop_
 _atom_site_type_symbol
 _atom_site_label
 _atom_site_symmetry_multiplicity
 _atom_site_fract_x
 _atom_site_fract_y
 _atom_site_fract_z
 _atom_site_occupancy
  Nd  Nd0  1  0.630454  0.989801  0.459047  1
  Nd  Nd1  1  0.363766  0.008972  0.955721  1
  Nd  Nd2  1  0.990912  0.636472  0.542299  1
  Nd  Nd3  1  0.489749  0.862678  0.206354  1
  Nd  Nd4  1  0.507181  0.135264  0.702752  1
  Nd  Nd5  1  0.863099  0.490568  0.793959  1
  Nd  Nd6  1  0.136687  0.506924  0.293419  1
  Nd  Nd7  1  0.012002  0.360872  0.042275  1
  Y  Y8  1  0.487381  0.363068  0.123864  1
  Y  Y9  1  0.992871  0.135285  0.625092  1
  Y  Y10  1  0.863004  0.011251  0.874823  1
  Y  Y11  1  0.138231  0.982760  0.379273  1
  Y  Y12  1  0.507903  0.639874  0.621170  1
  Y  Y13  1  0.363690  0.490915  0.875791  1
  Y  Y14  1  0.635891  0.508851  0.375443  1
  Y  Y15  1  0.010980  0.866641  0.125606  1
  Y  Y16  1  0.314781  0.306583  0.502100  1
  Y  Y17  1  0.189926  0.823098  0.743624  1
  Y  Y18  1  0.816907  0.183509  0.251949  1
  Y  Y19  1  0.687119  0.685770  0.000799  1
  Si  Si20  1  0.711095  0.068337  0.061818  1
  Si  Si21  1  0.931481  0.291582  0.438268  1
  Si  Si22  1  0.431978  0.210143  0.310198  1
  Si  Si23  1  0.569966  0.788150  0.811363  1
  Si  Si24  1  0.210366  0.435495  0.690570  1
  Si  Si25  1  0.788823  0.567858  0.188666  1
  Si  Si26  1  0.065938  0.711975  0.938421  1
  Si  Si27  1  0.797640  0.842490  0.692772  1
  Si  Si28  1  0.201915  0.155355  0.191944  1
  Si  Si29  1  0.840656  0.797087  0.307596  1
  Si  Si30  1  0.343167  0.696912  0.440534  1
  Si  Si31  1  0.658021  0.300884  0.944039  1
  Si  Si32  1  0.704860  0.345626  0.558088  1
  Si  Si33  1  0.298127  0.658024  0.057708  1
  Si  Si34  1  0.154345  0.206907  0.810701  1
  Ru  Ru35  1  0.289090  0.934020  0.561953  1
