# generated using pymatgen
data_LaYb2Pr17Ir12
_symmetry_space_group_name_H-M   'P 1'
_cell_length_a   11.34075900
_cell_length_b   11.34075900
_cell_length_c   6.56577900
_cell_angle_alpha   90.00000000
_cell_angle_beta   90.00000000
_cell_angle_gamma   90.00000000
_symmetry_Int_Tables_number   1
_chemical_formula_structural   LaYb2Pr17Ir12
_chemical_formula_sum   'La1 Yb2 Pr17 Ir12'
_cell_volume   844.44331786
_cell_formula_units_Z   1
loop_
 _symmetry_equiv_pos_site_id
 _symmetry_equiv_pos_as_xyz
  1  'x, y, z'
loop_
 _atom_site_type_symbol
 _atom_site_label
 _atom_site_symmetry_multiplicity
 _atom_site_fract_x
 _atom_site_fract_y
 _atom_site_fract_z
 _atom_site_occupancy
  La  La0  1  0.000000  0.000000  0.000000  1
  Yb  Yb1  1  0.000000  0.000000  0.500000  1
  Yb  Yb2  1  0.500000  0.500000  0.000000  1
  Pr  Pr3  1  0.287989  0.089565  0.385733  1
  Pr  Pr4  1  0.293277  0.911241  0.883892  1
  Pr  Pr5  1  0.706723  0.088759  0.883892  1
  Pr  Pr6  1  0.712011  0.910435  0.385733  1
  Pr  Pr7  1  0.588263  0.786966  0.885823  1
  Pr  Pr8  1  0.589159  0.208424  0.384356  1
  Pr  Pr9  1  0.410841  0.791576  0.384356  1
  Pr  Pr10  1  0.411737  0.213034  0.885823  1
  Pr  Pr11  1  0.208424  0.410841  0.615644  1
  Pr  Pr12  1  0.213034  0.588263  0.114177  1
  Pr  Pr13  1  0.786966  0.411737  0.114177  1
  Pr  Pr14  1  0.791576  0.589159  0.615644  1
  Pr  Pr15  1  0.911241  0.706723  0.116108  1
  Pr  Pr16  1  0.910435  0.287989  0.614267  1
  Pr  Pr17  1  0.089565  0.712011  0.614267  1
  Pr  Pr18  1  0.088759  0.293277  0.116108  1
  Pr  Pr19  1  0.500000  0.500000  0.500000  1
  Ir  Ir20  1  0.847247  0.153772  0.244451  1
  Ir  Ir21  1  0.846228  0.847247  0.755549  1
  Ir  Ir22  1  0.153772  0.152753  0.755549  1
  Ir  Ir23  1  0.152753  0.846228  0.244451  1
  Ir  Ir24  1  0.654955  0.345907  0.746502  1
  Ir  Ir25  1  0.654093  0.654955  0.253498  1
  Ir  Ir26  1  0.345907  0.345045  0.253498  1
  Ir  Ir27  1  0.345045  0.654093  0.746502  1
  Ir  Ir28  1  0.500000  0.000000  0.115609  1
  Ir  Ir29  1  0.500000  0.000000  0.616160  1
  Ir  Ir30  1  0.000000  0.500000  0.884391  1
  Ir  Ir31  1  0.000000  0.500000  0.383840  1
