# generated using pymatgen
data_Tm10Lu2Co4OsPb
_symmetry_space_group_name_H-M   'P 1'
_cell_length_a   8.17955658
_cell_length_b   8.18653286
_cell_length_c   8.17955532
_cell_angle_alpha   111.74782418
_cell_angle_beta   110.52721044
_cell_angle_gamma   106.15711637
_symmetry_Int_Tables_number   1
_chemical_formula_structural   Tm10Lu2Co4OsPb
_chemical_formula_sum   'Tm10 Lu2 Co4 Os1 Pb1'
_cell_volume   420.71689775
_cell_formula_units_Z   1
loop_
 _symmetry_equiv_pos_site_id
 _symmetry_equiv_pos_as_xyz
  1  'x, y, z'
loop_
 _atom_site_type_symbol
 _atom_site_label
 _atom_site_symmetry_multiplicity
 _atom_site_fract_x
 _atom_site_fract_y
 _atom_site_fract_z
 _atom_site_occupancy
  Tm  Tm0  1  0.414768  0.218839  0.194658  1
  Tm  Tm1  1  0.585232  0.781161  0.805342  1
  Tm  Tm2  1  0.024183  0.218839  0.804073  1
  Tm  Tm3  1  0.975817  0.781161  0.195927  1
  Tm  Tm4  1  0.180530  0.278465  0.460500  1
  Tm  Tm5  1  0.819470  0.721535  0.539500  1
  Tm  Tm6  1  0.182034  0.721535  0.902064  1
  Tm  Tm7  1  0.817966  0.278465  0.097936  1
  Tm  Tm8  1  0.313505  0.621287  0.307782  1
  Tm  Tm9  1  0.686495  0.378713  0.692218  1
  Lu  Lu10  1  0.313802  0.004788  0.690986  1
  Lu  Lu11  1  0.686198  0.995212  0.309014  1
  Co  Co12  1  0.376180  0.000000  0.376180  1
  Co  Co13  1  0.623820  0.000000  0.623820  1
  Co  Co14  1  0.111927  0.612406  0.500479  1
  Co  Co15  1  0.888073  0.387594  0.499521  1
  Os  Os16  1  0.000000  0.000000  0.000000  1
  Pb  Pb17  1  0.500000  0.500000  0.000000  1
