# generated using pymatgen
data_Nd8Nb11Si16Mo
_symmetry_space_group_name_H-M   'P 1'
_cell_length_a   6.99166878
_cell_length_b   7.22145687
_cell_length_c   13.58864934
_cell_angle_alpha   90.02572970
_cell_angle_beta   89.96108087
_cell_angle_gamma   89.92959384
_symmetry_Int_Tables_number   1
_chemical_formula_structural   Nd8Nb11Si16Mo
_chemical_formula_sum   'Nd8 Nb11 Si16 Mo1'
_cell_volume   686.09062884
_cell_formula_units_Z   1
loop_
 _symmetry_equiv_pos_site_id
 _symmetry_equiv_pos_as_xyz
  1  'x, y, z'
loop_
 _atom_site_type_symbol
 _atom_site_label
 _atom_site_symmetry_multiplicity
 _atom_site_fract_x
 _atom_site_fract_y
 _atom_site_fract_z
 _atom_site_occupancy
  Nd  Nd0  1  0.505173  0.331182  0.096087  1
  Nd  Nd1  1  0.003677  0.169692  0.404167  1
  Nd  Nd2  1  0.495187  0.668711  0.595708  1
  Nd  Nd3  1  0.995825  0.831175  0.903418  1
  Nd  Nd4  1  0.495101  0.668693  0.902913  1
  Nd  Nd5  1  0.995848  0.831112  0.595806  1
  Nd  Nd6  1  0.504518  0.330913  0.405328  1
  Nd  Nd7  1  0.005213  0.169222  0.096344  1
  Nb  Nb8  1  0.838547  0.325089  0.625911  1
  Nb  Nb9  1  0.338307  0.174864  0.872256  1
  Nb  Nb10  1  0.162407  0.674938  0.126976  1
  Nb  Nb11  1  0.660269  0.826644  0.374014  1
  Nb  Nb12  1  0.163794  0.675406  0.374591  1
  Nb  Nb13  1  0.662518  0.825131  0.126869  1
  Nb  Nb14  1  0.837740  0.324534  0.871897  1
  Nb  Nb15  1  0.661896  0.011570  0.748971  1
  Nb  Nb16  1  0.160995  0.487696  0.748970  1
  Nb  Nb17  1  0.338457  0.990158  0.250642  1
  Nb  Nb18  1  0.838710  0.511248  0.250389  1
  Si  Si19  1  0.653602  0.041906  0.544659  1
  Si  Si20  1  0.157316  0.458714  0.956755  1
  Si  Si21  1  0.342451  0.958981  0.042909  1
  Si  Si22  1  0.842493  0.541700  0.456996  1
  Si  Si23  1  0.340534  0.960492  0.459339  1
  Si  Si24  1  0.842468  0.540927  0.042500  1
  Si  Si25  1  0.657450  0.040568  0.957105  1
  Si  Si26  1  0.159642  0.454862  0.544539  1
  Si  Si27  1  0.539008  0.369233  0.747705  1
  Si  Si28  1  0.043917  0.128870  0.748487  1
  Si  Si29  1  0.459128  0.628493  0.250471  1
  Si  Si30  1  0.958807  0.871346  0.250624  1
  Si  Si31  1  0.796763  0.616378  0.749474  1
  Si  Si32  1  0.298869  0.885274  0.749006  1
  Si  Si33  1  0.203251  0.382988  0.250553  1
  Si  Si34  1  0.702389  0.118008  0.250116  1
  Mo  Mo35  1  0.337727  0.173282  0.627510  1
