# generated using pymatgen
data_Hf8TiAlAu20
_symmetry_space_group_name_H-M   'P 1'
_cell_length_a   3.75588700
_cell_length_b   8.77194516
_cell_length_c   16.84142515
_cell_angle_alpha   90.00322104
_cell_angle_beta   90.00000000
_cell_angle_gamma   90.00000000
_symmetry_Int_Tables_number   1
_chemical_formula_structural   Hf8TiAlAu20
_chemical_formula_sum   'Hf8 Ti1 Al1 Au20'
_cell_volume   554.86491422
_cell_formula_units_Z   1
loop_
 _symmetry_equiv_pos_site_id
 _symmetry_equiv_pos_as_xyz
  1  'x, y, z'
loop_
 _atom_site_type_symbol
 _atom_site_label
 _atom_site_symmetry_multiplicity
 _atom_site_fract_x
 _atom_site_fract_y
 _atom_site_fract_z
 _atom_site_occupancy
  Hf  Hf0  1  0.000000  0.999985  0.999126  1
  Hf  Hf1  1  0.500000  0.499814  0.501177  1
  Hf  Hf2  1  0.000000  0.000102  0.199216  1
  Hf  Hf3  1  0.000000  0.999985  0.795678  1
  Hf  Hf4  1  0.500000  0.499930  0.300213  1
  Hf  Hf5  1  0.500000  0.499885  0.704161  1
  Hf  Hf6  1  0.000000  0.999877  0.403672  1
  Hf  Hf7  1  0.500000  0.500022  0.095204  1
  Ti  Ti8  1  0.000000  0.000022  0.601196  1
  Al  Al9  1  0.500000  0.500608  0.899734  1
  Au  Au10  1  0.000000  0.337017  0.996164  1
  Au  Au11  1  0.000000  0.663430  0.996513  1
  Au  Au12  1  0.500000  0.835186  0.502885  1
  Au  Au13  1  0.500000  0.164629  0.502810  1
  Au  Au14  1  0.000000  0.334708  0.200006  1
  Au  Au15  1  0.000000  0.663382  0.801934  1
  Au  Au16  1  0.500000  0.834589  0.300294  1
  Au  Au17  1  0.500000  0.166435  0.699499  1
  Au  Au18  1  0.000000  0.333151  0.401003  1
  Au  Au19  1  0.000000  0.665760  0.600234  1
  Au  Au20  1  0.500000  0.832899  0.099081  1
  Au  Au21  1  0.500000  0.163763  0.898934  1
  Au  Au22  1  0.000000  0.333809  0.600361  1
  Au  Au23  1  0.000000  0.666705  0.401047  1
  Au  Au24  1  0.500000  0.835450  0.898908  1
  Au  Au25  1  0.500000  0.167314  0.098816  1
  Au  Au26  1  0.000000  0.337191  0.802575  1
  Au  Au27  1  0.000000  0.665220  0.200128  1
  Au  Au28  1  0.500000  0.833786  0.699129  1
  Au  Au29  1  0.500000  0.165342  0.300300  1
