# generated using pymatgen
data_NaBiPt2O7
_symmetry_space_group_name_H-M   'P 1'
_cell_length_a   7.29045532
_cell_length_b   7.29045648
_cell_length_c   7.29045635
_cell_angle_alpha   119.10856517
_cell_angle_beta   121.47249674
_cell_angle_gamma   89.50981682
_symmetry_Int_Tables_number   1
_chemical_formula_structural   NaBiPt2O7
_chemical_formula_sum   'Na2 Bi2 Pt4 O14'
_cell_volume   272.63834787
_cell_formula_units_Z   2
loop_
 _symmetry_equiv_pos_site_id
 _symmetry_equiv_pos_as_xyz
  1  'x, y, z'
loop_
 _atom_site_type_symbol
 _atom_site_label
 _atom_site_symmetry_multiplicity
 _atom_site_fract_x
 _atom_site_fract_y
 _atom_site_fract_z
 _atom_site_occupancy
  Na  Na0  1  0.000000  0.500000  0.500000  1
  Na  Na1  1  0.500000  0.500000  0.000000  1
  Bi  Bi2  1  0.000000  0.500000  0.000000  1
  Bi  Bi3  1  0.000000  0.000000  0.500000  1
  Pt  Pt4  1  0.500000  0.000000  0.000000  1
  Pt  Pt5  1  0.500000  0.500000  0.500000  1
  Pt  Pt6  1  0.500000  0.000000  0.500000  1
  Pt  Pt7  1  0.000000  0.000000  0.000000  1
  O  O8  1  0.891264  0.641264  0.250000  1
  O  O9  1  0.108736  0.358736  0.750000  1
  O  O10  1  0.834286  0.084286  0.750000  1
  O  O11  1  0.424714  0.674714  0.750000  1
  O  O12  1  0.837666  0.666866  0.757556  1
  O  O13  1  0.409309  0.080111  0.742444  1
  O  O14  1  0.837666  0.080111  0.170801  1
  O  O15  1  0.409309  0.666866  0.329199  1
  O  O16  1  0.165714  0.915714  0.250000  1
  O  O17  1  0.575286  0.325286  0.250000  1
  O  O18  1  0.162334  0.333134  0.242444  1
  O  O19  1  0.590691  0.919889  0.257556  1
  O  O20  1  0.162334  0.919889  0.829199  1
  O  O21  1  0.590691  0.333134  0.670801  1
