# generated using pymatgen
data_NaPr9(Si2Sn)2
_symmetry_space_group_name_H-M   'P 1'
_cell_length_a   7.97459800
_cell_length_b   9.18521510
_cell_length_c   7.97459800
_cell_angle_alpha   115.72801939
_cell_angle_beta   90.00000000
_cell_angle_gamma   115.72801939
_symmetry_Int_Tables_number   1
_chemical_formula_structural   NaPr9(Si2Sn)2
_chemical_formula_sum   'Na1 Pr9 Si4 Sn2'
_cell_volume   461.09563033
_cell_formula_units_Z   1
loop_
 _symmetry_equiv_pos_site_id
 _symmetry_equiv_pos_as_xyz
  1  'x, y, z'
loop_
 _atom_site_type_symbol
 _atom_site_label
 _atom_site_symmetry_multiplicity
 _atom_site_fract_x
 _atom_site_fract_y
 _atom_site_fract_z
 _atom_site_occupancy
  Na  Na0  1  0.000000  0.000000  0.000000  1
  Pr  Pr1  1  0.500000  0.000000  0.500000  1
  Pr  Pr2  1  0.542289  0.722045  0.689983  1
  Pr  Pr3  1  0.179758  0.722045  0.032064  1
  Pr  Pr4  1  0.689983  0.722045  0.179758  1
  Pr  Pr5  1  0.032064  0.722045  0.542289  1
  Pr  Pr6  1  0.457711  0.277955  0.310017  1
  Pr  Pr7  1  0.820242  0.277955  0.967936  1
  Pr  Pr8  1  0.310017  0.277955  0.820242  1
  Pr  Pr9  1  0.967936  0.277955  0.457711  1
  Si  Si10  1  0.882014  0.000000  0.605912  1
  Si  Si11  1  0.117986  0.000000  0.394088  1
  Si  Si12  1  0.605912  0.000000  0.117986  1
  Si  Si13  1  0.394088  0.000000  0.882014  1
  Sn  Sn14  1  0.741662  0.483324  0.741662  1
  Sn  Sn15  1  0.258338  0.516676  0.258338  1
