# generated using pymatgen
data_La4Nd12CdNi4Hg3
_symmetry_space_group_name_H-M   'P 1'
_cell_length_a   9.89794134
_cell_length_b   9.91075485
_cell_length_c   9.91075600
_cell_angle_alpha   59.99999615
_cell_angle_beta   59.95716309
_cell_angle_gamma   59.95716127
_symmetry_Int_Tables_number   1
_chemical_formula_structural   La4Nd12CdNi4Hg3
_chemical_formula_sum   'La4 Nd12 Cd1 Ni4 Hg3'
_cell_volume   687.00812932
_cell_formula_units_Z   1
loop_
 _symmetry_equiv_pos_site_id
 _symmetry_equiv_pos_as_xyz
  1  'x, y, z'
loop_
 _atom_site_type_symbol
 _atom_site_label
 _atom_site_symmetry_multiplicity
 _atom_site_fract_x
 _atom_site_fract_y
 _atom_site_fract_z
 _atom_site_occupancy
  La  La0  1  0.597770  0.597881  0.597881  1
  La  La1  1  0.597770  0.597881  0.206470  1
  La  La2  1  0.597770  0.206470  0.597881  1
  La  La3  1  0.202710  0.599097  0.599097  1
  Nd  Nd4  1  0.059642  0.440406  0.440406  1
  Nd  Nd5  1  0.439000  0.060683  0.060683  1
  Nd  Nd6  1  0.439000  0.060683  0.439635  1
  Nd  Nd7  1  0.059642  0.440406  0.059547  1
  Nd  Nd8  1  0.439000  0.439635  0.060683  1
  Nd  Nd9  1  0.059642  0.059547  0.440406  1
  Nd  Nd10  1  0.185169  0.815189  0.815189  1
  Nd  Nd11  1  0.813852  0.185867  0.185867  1
  Nd  Nd12  1  0.813852  0.185867  0.814413  1
  Nd  Nd13  1  0.185169  0.815189  0.184452  1
  Nd  Nd14  1  0.813852  0.814413  0.185867  1
  Nd  Nd15  1  0.185169  0.184452  0.815189  1
  Cd  Cd16  1  0.514537  0.828487  0.828487  1
  Ni  Ni17  1  0.391675  0.391420  0.391420  1
  Ni  Ni18  1  0.391675  0.391420  0.825486  1
  Ni  Ni19  1  0.391675  0.825486  0.391420  1
  Ni  Ni20  1  0.825814  0.391396  0.391396  1
  Hg  Hg21  1  0.831873  0.834073  0.834073  1
  Hg  Hg22  1  0.831873  0.834073  0.499982  1
  Hg  Hg23  1  0.831873  0.499982  0.834073  1
