# generated using pymatgen
data_Ho5TaMnO12
_symmetry_space_group_name_H-M   'P 1'
_cell_length_a   6.81792666
_cell_length_b   6.81792646
_cell_length_c   7.25032358
_cell_angle_alpha   74.46952481
_cell_angle_beta   74.46952506
_cell_angle_gamma   50.83334047
_symmetry_Int_Tables_number   1
_chemical_formula_structural   Ho5TaMnO12
_chemical_formula_sum   'Ho5 Ta1 Mn1 O12'
_cell_volume   249.55420596
_cell_formula_units_Z   1
loop_
 _symmetry_equiv_pos_site_id
 _symmetry_equiv_pos_as_xyz
  1  'x, y, z'
loop_
 _atom_site_type_symbol
 _atom_site_label
 _atom_site_symmetry_multiplicity
 _atom_site_fract_x
 _atom_site_fract_y
 _atom_site_fract_z
 _atom_site_occupancy
  Ho  Ho0  1  0.291532  0.310129  0.360414  1
  Ho  Ho1  1  0.689871  0.708468  0.639586  1
  Ho  Ho2  1  0.300965  0.311787  0.831762  1
  Ho  Ho3  1  0.688213  0.699035  0.168238  1
  Ho  Ho4  1  0.006177  0.993823  0.500000  1
  Ta  Ta5  1  0.772873  0.227127  0.000000  1
  Mn  Mn6  1  0.258405  0.741595  0.000000  1
  O  O7  1  0.898344  0.433139  0.916421  1
  O  O8  1  0.422393  0.901075  0.917007  1
  O  O9  1  0.098925  0.577607  0.082993  1
  O  O10  1  0.566861  0.101656  0.083579  1
  O  O11  1  0.093416  0.598379  0.574313  1
  O  O12  1  0.596893  0.100987  0.574192  1
  O  O13  1  0.899013  0.403107  0.425808  1
  O  O14  1  0.401621  0.906584  0.425687  1
  O  O15  1  0.009934  0.989348  0.814395  1
  O  O16  1  0.010652  0.990066  0.185605  1
  O  O17  1  0.496445  0.502534  0.816482  1
  O  O18  1  0.497466  0.503555  0.183518  1
