# generated using pymatgen
data_In2Sn13Rh3O14
_symmetry_space_group_name_H-M   'P 1'
_cell_length_a   7.23185005
_cell_length_b   7.32098354
_cell_length_c   13.17380516
_cell_angle_alpha   73.25038662
_cell_angle_beta   74.06911266
_cell_angle_gamma   60.39547327
_symmetry_Int_Tables_number   1
_chemical_formula_structural   In2Sn13Rh3O14
_chemical_formula_sum   'In2 Sn13 Rh3 O14'
_cell_volume   573.34006092
_cell_formula_units_Z   1
loop_
 _symmetry_equiv_pos_site_id
 _symmetry_equiv_pos_as_xyz
  1  'x, y, z'
loop_
 _atom_site_type_symbol
 _atom_site_label
 _atom_site_symmetry_multiplicity
 _atom_site_fract_x
 _atom_site_fract_y
 _atom_site_fract_z
 _atom_site_occupancy
  In  In0  1  0.906182  0.010175  0.177998  1
  In  In1  1  0.491525  0.597513  0.418730  1
  Sn  Sn2  1  0.489739  0.084289  0.424470  1
  Sn  Sn3  1  0.001124  0.084396  0.424570  1
  Sn  Sn4  1  0.095721  0.151481  0.657210  1
  Sn  Sn5  1  0.411140  0.010716  0.166864  1
  Sn  Sn6  1  0.150403  0.780966  0.918561  1
  Sn  Sn7  1  0.440831  0.503707  0.157349  1
  Sn  Sn8  1  0.898390  0.503948  0.157587  1
  Sn  Sn9  1  0.682653  0.746673  0.888198  1
  Sn  Sn10  1  0.675772  0.260407  0.914404  1
  Sn  Sn11  1  0.149607  0.260480  0.914250  1
  Sn  Sn12  1  0.574679  0.678190  0.649940  1
  Sn  Sn13  1  0.097096  0.678046  0.650007  1
  Sn  Sn14  1  0.008671  0.598990  0.383259  1
  Rh  Rh15  1  0.700735  0.294408  0.304101  1
  Rh  Rh16  1  0.885478  0.462118  0.766915  1
  Rh  Rh17  1  0.287394  0.388857  0.036551  1
  O  O18  1  0.114086  0.727314  0.469459  1
  O  O19  1  0.688919  0.727364  0.469440  1
  O  O20  1  0.957704  0.084716  0.999952  1
  O  O21  1  0.121205  0.282523  0.474944  1
  O  O22  1  0.659790  0.629749  0.051157  1
  O  O23  1  0.423623  0.557885  0.594589  1
  O  O24  1  0.340793  0.967353  0.350659  1
  O  O25  1  0.423428  0.009571  0.593567  1
  O  O26  1  0.973166  0.009541  0.593647  1
  O  O27  1  0.359823  0.943172  0.884813  1
  O  O28  1  0.812469  0.943141  0.884853  1
  O  O29  1  0.739604  0.827660  0.177625  1
  O  O30  1  0.255257  0.827249  0.177625  1
  O  O31  1  0.223362  0.805887  0.747476  1
