# generated using pymatgen
data_SmCr2(Sb6Os)2
_symmetry_space_group_name_H-M   'P 1'
_cell_length_a   8.20745296
_cell_length_b   8.18472299
_cell_length_c   8.20745336
_cell_angle_alpha   109.36977040
_cell_angle_beta   109.74351799
_cell_angle_gamma   109.41240545
_symmetry_Int_Tables_number   1
_chemical_formula_structural   SmCr2(Sb6Os)2
_chemical_formula_sum   'Sm1 Cr2 Sb12 Os2'
_cell_volume   423.83112114
_cell_formula_units_Z   1
loop_
 _symmetry_equiv_pos_site_id
 _symmetry_equiv_pos_as_xyz
  1  'x, y, z'
loop_
 _atom_site_type_symbol
 _atom_site_label
 _atom_site_symmetry_multiplicity
 _atom_site_fract_x
 _atom_site_fract_y
 _atom_site_fract_z
 _atom_site_occupancy
  Sm  Sm0  1  0.000000  0.000000  0.000000  1
  Cr  Cr1  1  0.000000  0.500000  0.000000  1
  Cr  Cr2  1  0.500000  0.500000  0.500000  1
  Sb  Sb3  1  0.337340  0.181041  0.843701  1
  Sb  Sb4  1  0.662660  0.818959  0.156299  1
  Sb  Sb5  1  0.660476  0.506441  0.845966  1
  Sb  Sb6  1  0.339524  0.493559  0.154034  1
  Sb  Sb7  1  0.182515  0.846820  0.340072  1
  Sb  Sb8  1  0.817485  0.153180  0.659928  1
  Sb  Sb9  1  0.506747  0.846820  0.664305  1
  Sb  Sb10  1  0.493253  0.153180  0.335695  1
  Sb  Sb11  1  0.842928  0.336242  0.182839  1
  Sb  Sb12  1  0.157072  0.663758  0.817161  1
  Sb  Sb13  1  0.846598  0.663758  0.506685  1
  Sb  Sb14  1  0.153402  0.336242  0.493315  1
  Os  Os15  1  0.000000  0.000000  0.500000  1
  Os  Os16  1  0.500000  0.000000  0.000000  1
