# generated using pymatgen
data_Dy19YSn16
_symmetry_space_group_name_H-M   'P 1'
_cell_length_a   8.04714601
_cell_length_b   8.17014001
_cell_length_c   15.49976000
_cell_angle_alpha   89.99858193
_cell_angle_beta   89.99832781
_cell_angle_gamma   89.99564028
_symmetry_Int_Tables_number   1
_chemical_formula_structural   Dy19YSn16
_chemical_formula_sum   'Dy19 Y1 Sn16'
_cell_volume   1019.05201505
_cell_formula_units_Z   1
loop_
 _symmetry_equiv_pos_site_id
 _symmetry_equiv_pos_as_xyz
  1  'x, y, z'
loop_
 _atom_site_type_symbol
 _atom_site_label
 _atom_site_symmetry_multiplicity
 _atom_site_fract_x
 _atom_site_fract_y
 _atom_site_fract_z
 _atom_site_occupancy
  Dy  Dy0  1  0.367264  0.836149  0.878050  1
  Dy  Dy1  1  0.867241  0.663842  0.621961  1
  Dy  Dy2  1  0.632751  0.163857  0.378042  1
  Dy  Dy3  1  0.132806  0.336206  0.121999  1
  Dy  Dy4  1  0.632780  0.163853  0.121953  1
  Dy  Dy5  1  0.132756  0.336162  0.378041  1
  Dy  Dy6  1  0.367257  0.836143  0.621952  1
  Dy  Dy7  1  0.867266  0.663862  0.878045  1
  Dy  Dy8  1  0.522776  0.320422  0.901773  1
  Dy  Dy9  1  0.022774  0.179578  0.598225  1
  Dy  Dy10  1  0.477216  0.679577  0.401762  1
  Dy  Dy11  1  0.977220  0.820415  0.098228  1
  Dy  Dy12  1  0.477218  0.679573  0.098232  1
  Dy  Dy13  1  0.977215  0.820422  0.401765  1
  Dy  Dy14  1  0.522793  0.320423  0.598237  1
  Dy  Dy15  1  0.198332  0.502704  0.749984  1
  Dy  Dy16  1  0.698265  0.997356  0.750000  1
  Dy  Dy17  1  0.801668  0.497352  0.249996  1
  Dy  Dy18  1  0.301680  0.002637  0.250002  1
  Y  Y19  1  0.022830  0.179527  0.901805  1
  Sn  Sn20  1  0.291988  0.033817  0.041636  1
  Sn  Sn21  1  0.791953  0.466146  0.458410  1
  Sn  Sn22  1  0.708042  0.966147  0.541581  1
  Sn  Sn23  1  0.208085  0.533926  0.958431  1
  Sn  Sn24  1  0.707869  0.966049  0.958436  1
  Sn  Sn25  1  0.208045  0.533844  0.541583  1
  Sn  Sn26  1  0.291953  0.033854  0.458407  1
  Sn  Sn27  1  0.791933  0.466187  0.041611  1
  Sn  Sn28  1  0.564593  0.620011  0.750000  1
  Sn  Sn29  1  0.064616  0.879915  0.749952  1
  Sn  Sn30  1  0.435406  0.379981  0.249998  1
  Sn  Sn31  1  0.935406  0.120026  0.249997  1
  Sn  Sn32  1  0.330700  0.147334  0.749971  1
  Sn  Sn33  1  0.830540  0.352709  0.749943  1
  Sn  Sn34  1  0.669383  0.852640  0.249995  1
  Sn  Sn35  1  0.169380  0.647351  0.250000  1
