# generated using pymatgen
data_Rb4CeS4
_symmetry_space_group_name_H-M   'P 1'
_cell_length_a   8.18465715
_cell_length_b   8.28885630
_cell_length_c   11.98903184
_cell_angle_alpha   71.90038123
_cell_angle_beta   79.72617868
_cell_angle_gamma   68.04039023
_symmetry_Int_Tables_number   1
_chemical_formula_structural   Rb4CeS4
_chemical_formula_sum   'Rb8 Ce2 S8'
_cell_volume   715.23043722
_cell_formula_units_Z   2
loop_
 _symmetry_equiv_pos_site_id
 _symmetry_equiv_pos_as_xyz
  1  'x, y, z'
loop_
 _atom_site_type_symbol
 _atom_site_label
 _atom_site_symmetry_multiplicity
 _atom_site_fract_x
 _atom_site_fract_y
 _atom_site_fract_z
 _atom_site_occupancy
  Rb  Rb0  1  0.263500  0.773181  0.034656  1
  Rb  Rb1  1  0.771899  0.560649  0.165413  1
  Rb  Rb2  1  0.773654  0.046652  0.377902  1
  Rb  Rb3  1  0.283095  0.502444  0.435622  1
  Rb  Rb4  1  0.716926  0.497499  0.564358  1
  Rb  Rb5  1  0.226337  0.953382  0.622074  1
  Rb  Rb6  1  0.228118  0.439345  0.834599  1
  Rb  Rb7  1  0.736462  0.226812  0.965360  1
  Ce  Ce8  1  0.274421  0.150604  0.246566  1
  Ce  Ce9  1  0.725519  0.849490  0.753497  1
  S  S10  1  0.092447  0.176997  0.081417  1
  S  S11  1  0.468213  0.354863  0.189056  1
  S  S12  1  0.474934  0.827251  0.347768  1
  S  S13  1  0.029141  0.286995  0.393601  1
  S  S14  1  0.970796  0.713054  0.606431  1
  S  S15  1  0.525186  0.172559  0.652291  1
  S  S16  1  0.531899  0.645228  0.810901  1
  S  S17  1  0.907451  0.822993  0.918489  1
