# generated using pymatgen
data_Ti2VFePd12
_symmetry_space_group_name_H-M   'P 1'
_cell_length_a   5.55890200
_cell_length_b   5.55890170
_cell_length_c   9.01230400
_cell_angle_alpha   90.00000000
_cell_angle_beta   90.00000000
_cell_angle_gamma   120.00000180
_symmetry_Int_Tables_number   1
_chemical_formula_structural   Ti2VFePd12
_chemical_formula_sum   'Ti2 V1 Fe1 Pd12'
_cell_volume   241.18176469
_cell_formula_units_Z   1
loop_
 _symmetry_equiv_pos_site_id
 _symmetry_equiv_pos_as_xyz
  1  'x, y, z'
loop_
 _atom_site_type_symbol
 _atom_site_label
 _atom_site_symmetry_multiplicity
 _atom_site_fract_x
 _atom_site_fract_y
 _atom_site_fract_z
 _atom_site_occupancy
  Ti  Ti0  1  0.000000  0.000000  0.000512  1
  Ti  Ti1  1  0.666667  0.333333  0.750800  1
  V  V2  1  0.000000  0.000000  0.498856  1
  Fe  Fe3  1  0.333333  0.666667  0.250215  1
  Pd  Pd4  1  0.500420  0.499580  0.500539  1
  Pd  Pd5  1  0.500420  0.000840  0.500539  1
  Pd  Pd6  1  0.999160  0.499580  0.500539  1
  Pd  Pd7  1  0.500243  0.499757  0.999357  1
  Pd  Pd8  1  0.500243  0.000485  0.999357  1
  Pd  Pd9  1  0.999515  0.499757  0.999357  1
  Pd  Pd10  1  0.834843  0.669688  0.250836  1
  Pd  Pd11  1  0.330312  0.165157  0.250836  1
  Pd  Pd12  1  0.834843  0.165157  0.250836  1
  Pd  Pd13  1  0.165377  0.330752  0.749140  1
  Pd  Pd14  1  0.669248  0.834623  0.749140  1
  Pd  Pd15  1  0.165377  0.834623  0.749140  1
