# generated using pymatgen
data_Rb3Na2ZrAs2P
_symmetry_space_group_name_H-M   'P 1'
_cell_length_a   10.99140915
_cell_length_b   10.98502462
_cell_length_c   15.87093844
_cell_angle_alpha   89.90095196
_cell_angle_beta   90.01615034
_cell_angle_gamma   142.90624261
_symmetry_Int_Tables_number   1
_chemical_formula_structural   Rb3Na2ZrAs2P
_chemical_formula_sum   'Rb12 Na8 Zr4 As8 P4'
_cell_volume   1155.74004096
_cell_formula_units_Z   4
loop_
 _symmetry_equiv_pos_site_id
 _symmetry_equiv_pos_as_xyz
  1  'x, y, z'
loop_
 _atom_site_type_symbol
 _atom_site_label
 _atom_site_symmetry_multiplicity
 _atom_site_fract_x
 _atom_site_fract_y
 _atom_site_fract_z
 _atom_site_occupancy
  Rb  Rb0  1  0.946592  0.606856  0.823914  1
  Rb  Rb1  1  0.552951  0.893236  0.324281  1
  Rb  Rb2  1  0.392795  0.053235  0.175628  1
  Rb  Rb3  1  0.053301  0.392726  0.178062  1
  Rb  Rb4  1  0.893441  0.551890  0.323609  1
  Rb  Rb5  1  0.446519  0.106287  0.675526  1
  Rb  Rb6  1  0.606916  0.946722  0.823646  1
  Rb  Rb7  1  0.278102  0.280508  0.314244  1
  Rb  Rb8  1  0.779604  0.779030  0.186336  1
  Rb  Rb9  1  0.220947  0.220977  0.815529  1
  Rb  Rb10  1  0.719165  0.719841  0.685876  1
  Rb  Rb11  1  0.106518  0.446295  0.676034  1
  Na  Na12  1  0.920964  0.079061  0.000178  1
  Na  Na13  1  0.580975  0.421664  0.499137  1
  Na  Na14  1  0.078939  0.920885  0.000063  1
  Na  Na15  1  0.419442  0.580686  0.498149  1
  Na  Na16  1  0.754825  0.245520  0.000119  1
  Na  Na17  1  0.748493  0.255963  0.498894  1
  Na  Na18  1  0.245544  0.754664  0.000123  1
  Na  Na19  1  0.252898  0.742008  0.499204  1
  Zr  Zr20  1  0.584538  0.415800  0.000317  1
  Zr  Zr21  1  0.914545  0.086921  0.497614  1
  Zr  Zr22  1  0.415569  0.584357  0.000449  1
  Zr  Zr23  1  0.083311  0.913293  0.498325  1
  As  As24  1  0.873404  0.561613  0.098889  1
  As  As25  1  0.438322  0.126563  0.901769  1
  As  As26  1  0.624598  0.938342  0.596533  1
  As  As27  1  0.937884  0.625066  0.597018  1
  As  As28  1  0.126612  0.438540  0.901756  1
  As  As29  1  0.561885  0.873209  0.099328  1
  As  As30  1  0.373569  0.060747  0.400325  1
  As  As31  1  0.202369  0.202861  0.588609  1
  P  P32  1  0.696215  0.696520  0.917311  1
  P  P33  1  0.303558  0.303436  0.083383  1
  P  P34  1  0.059397  0.368622  0.404635  1
  P  P35  1  0.805291  0.806055  0.415186  1
