# generated using pymatgen
data_Lu18Sc2NiSb11
_symmetry_space_group_name_H-M   'P 1'
_cell_length_a   7.83834686
_cell_length_b   9.06750100
_cell_length_c   11.57366102
_cell_angle_alpha   90.00000000
_cell_angle_beta   89.67100531
_cell_angle_gamma   90.00000000
_symmetry_Int_Tables_number   1
_chemical_formula_structural   Lu18Sc2NiSb11
_chemical_formula_sum   'Lu18 Sc2 Ni1 Sb11'
_cell_volume   822.57534520
_cell_formula_units_Z   1
loop_
 _symmetry_equiv_pos_site_id
 _symmetry_equiv_pos_as_xyz
  1  'x, y, z'
loop_
 _atom_site_type_symbol
 _atom_site_label
 _atom_site_symmetry_multiplicity
 _atom_site_fract_x
 _atom_site_fract_y
 _atom_site_fract_z
 _atom_site_occupancy
  Lu  Lu0  1  0.183195  0.569277  0.445000  1
  Lu  Lu1  1  0.698670  0.937154  0.064762  1
  Lu  Lu2  1  0.813949  0.033070  0.560729  1
  Lu  Lu3  1  0.301489  0.438106  0.939681  1
  Lu  Lu4  1  0.813949  0.466930  0.560729  1
  Lu  Lu5  1  0.301489  0.061894  0.939681  1
  Lu  Lu6  1  0.183195  0.930723  0.445000  1
  Lu  Lu7  1  0.698670  0.562846  0.064762  1
  Lu  Lu8  1  0.546474  0.750000  0.505535  1
  Lu  Lu9  1  0.481386  0.250000  0.493316  1
  Lu  Lu10  1  0.153081  0.750000  0.705859  1
  Lu  Lu11  1  0.694794  0.750000  0.780297  1
  Lu  Lu12  1  0.816360  0.250000  0.278042  1
  Lu  Lu13  1  0.310303  0.250000  0.218007  1
  Lu  Lu14  1  0.859097  0.750000  0.302431  1
  Lu  Lu15  1  0.346720  0.750000  0.214197  1
  Lu  Lu16  1  0.150660  0.250000  0.714416  1
  Lu  Lu17  1  0.650250  0.250000  0.782320  1
  Sc  Sc18  1  0.030835  0.750000  0.989532  1
  Sc  Sc19  1  0.970988  0.250000  0.011106  1
  Ni  Ni20  1  0.915136  0.750000  0.528294  1
  Sb  Sb21  1  0.935772  0.494923  0.832080  1
  Sb  Sb22  1  0.433475  0.999023  0.675119  1
  Sb  Sb23  1  0.063881  0.995402  0.170139  1
  Sb  Sb24  1  0.559434  0.500198  0.323217  1
  Sb  Sb25  1  0.063881  0.504598  0.170139  1
  Sb  Sb26  1  0.559434  0.999802  0.323217  1
  Sb  Sb27  1  0.935772  0.005077  0.832080  1
  Sb  Sb28  1  0.433475  0.500977  0.675119  1
  Sb  Sb29  1  0.410202  0.750000  0.958428  1
  Sb  Sb30  1  0.090568  0.250000  0.457876  1
  Sb  Sb31  1  0.593415  0.250000  0.038890  1
