# generated using pymatgen
data_Ho2Pa2Ni4SnPb
_symmetry_space_group_name_H-M   'P 1'
_cell_length_a   7.44263409
_cell_length_b   7.38642834
_cell_length_c   3.61057800
_cell_angle_alpha   90.00000000
_cell_angle_beta   90.00000000
_cell_angle_gamma   93.66525299
_symmetry_Int_Tables_number   1
_chemical_formula_structural   Ho2Pa2Ni4SnPb
_chemical_formula_sum   'Ho2 Pa2 Ni4 Sn1 Pb1'
_cell_volume   198.08366357
_cell_formula_units_Z   1
loop_
 _symmetry_equiv_pos_site_id
 _symmetry_equiv_pos_as_xyz
  1  'x, y, z'
loop_
 _atom_site_type_symbol
 _atom_site_label
 _atom_site_symmetry_multiplicity
 _atom_site_fract_x
 _atom_site_fract_y
 _atom_site_fract_z
 _atom_site_occupancy
  Ho  Ho0  1  0.169500  0.325659  0.500000  1
  Ho  Ho1  1  0.830500  0.674341  0.500000  1
  Pa  Pa2  1  0.678718  0.170626  0.500000  1
  Pa  Pa3  1  0.321282  0.829374  0.500000  1
  Ni  Ni4  1  0.872273  0.364957  0.000000  1
  Ni  Ni5  1  0.127727  0.635043  0.000000  1
  Ni  Ni6  1  0.378896  0.111225  0.000000  1
  Ni  Ni7  1  0.621104  0.888775  0.000000  1
  Sn  Sn8  1  0.000000  0.000000  0.000000  1
  Pb  Pb9  1  0.500000  0.500000  0.000000  1
