# generated using pymatgen
data_Dy16Al4IrRu3
_symmetry_space_group_name_H-M   'P 1'
_cell_length_a   9.53629148
_cell_length_b   9.53629145
_cell_length_c   9.53629131
_cell_angle_alpha   59.72786592
_cell_angle_beta   59.72786493
_cell_angle_gamma   59.72786700
_symmetry_Int_Tables_number   1
_chemical_formula_structural   Dy16Al4IrRu3
_chemical_formula_sum   'Dy16 Al4 Ir1 Ru3'
_cell_volume   609.44018411
_cell_formula_units_Z   1
loop_
 _symmetry_equiv_pos_site_id
 _symmetry_equiv_pos_as_xyz
  1  'x, y, z'
loop_
 _atom_site_type_symbol
 _atom_site_label
 _atom_site_symmetry_multiplicity
 _atom_site_fract_x
 _atom_site_fract_y
 _atom_site_fract_z
 _atom_site_occupancy
  Dy  Dy0  1  0.601063  0.601063  0.601063  1
  Dy  Dy1  1  0.602221  0.602221  0.196150  1
  Dy  Dy2  1  0.602221  0.196150  0.602221  1
  Dy  Dy3  1  0.196150  0.602221  0.602221  1
  Dy  Dy4  1  0.053518  0.444489  0.444489  1
  Dy  Dy5  1  0.442038  0.055062  0.055062  1
  Dy  Dy6  1  0.444489  0.053518  0.444489  1
  Dy  Dy7  1  0.055062  0.442038  0.055062  1
  Dy  Dy8  1  0.444489  0.444489  0.053518  1
  Dy  Dy9  1  0.055062  0.055062  0.442038  1
  Dy  Dy10  1  0.188442  0.811005  0.811005  1
  Dy  Dy11  1  0.810180  0.190166  0.190166  1
  Dy  Dy12  1  0.811005  0.188442  0.811005  1
  Dy  Dy13  1  0.190166  0.810180  0.190166  1
  Dy  Dy14  1  0.811005  0.811005  0.188442  1
  Dy  Dy15  1  0.190166  0.190166  0.810180  1
  Al  Al16  1  0.826492  0.826492  0.826492  1
  Al  Al17  1  0.826797  0.826797  0.519179  1
  Al  Al18  1  0.826797  0.519179  0.826797  1
  Al  Al19  1  0.519179  0.826797  0.826797  1
  Ir  Ir20  1  0.390393  0.390393  0.390393  1
  Ru  Ru21  1  0.391127  0.391127  0.830809  1
  Ru  Ru22  1  0.391127  0.830809  0.391127  1
  Ru  Ru23  1  0.830809  0.391127  0.391127  1
