# generated using pymatgen
data_HoLuAl20Os3Rh
_symmetry_space_group_name_H-M   'P 1'
_cell_length_a   6.85534740
_cell_length_b   6.84457205
_cell_length_c   9.13568417
_cell_angle_alpha   90.18888966
_cell_angle_beta   90.28524363
_cell_angle_gamma   96.53877029
_symmetry_Int_Tables_number   1
_chemical_formula_structural   HoLuAl20Os3Rh
_chemical_formula_sum   'Ho1 Lu1 Al20 Os3 Rh1'
_cell_volume   425.86688964
_cell_formula_units_Z   1
loop_
 _symmetry_equiv_pos_site_id
 _symmetry_equiv_pos_as_xyz
  1  'x, y, z'
loop_
 _atom_site_type_symbol
 _atom_site_label
 _atom_site_symmetry_multiplicity
 _atom_site_fract_x
 _atom_site_fract_y
 _atom_site_fract_z
 _atom_site_occupancy
  Ho  Ho0  1  0.871236  0.131509  0.749289  1
  Lu  Lu1  1  0.129780  0.866980  0.251109  1
  Al  Al2  1  0.517576  0.780500  0.747910  1
  Al  Al3  1  0.783088  0.518327  0.249388  1
  Al  Al4  1  0.481497  0.219020  0.252012  1
  Al  Al5  1  0.217341  0.482520  0.750575  1
  Al  Al6  1  0.624291  0.378689  0.952114  1
  Al  Al7  1  0.375368  0.621822  0.048382  1
  Al  Al8  1  0.623702  0.376901  0.546006  1
  Al  Al9  1  0.375902  0.623533  0.453517  1
  Al  Al10  1  0.416658  0.148309  0.749841  1
  Al  Al11  1  0.147621  0.416506  0.250365  1
  Al  Al12  1  0.581943  0.851197  0.250042  1
  Al  Al13  1  0.852899  0.584826  0.749609  1
  Al  Al14  1  0.845443  0.153739  0.398716  1
  Al  Al15  1  0.154940  0.845748  0.600844  1
  Al  Al16  1  0.846429  0.155226  0.102861  1
  Al  Al17  1  0.154148  0.844375  0.897551  1
  Al  Al18  1  0.775867  0.775529  0.000867  1
  Al  Al19  1  0.777526  0.777068  0.498905  1
  Al  Al20  1  0.224322  0.224294  0.000042  1
  Al  Al21  1  0.222533  0.222804  0.500221  1
  Os  Os22  1  0.000149  0.500460  0.000574  1
  Os  Os23  1  0.499561  0.999803  0.499448  1
  Os  Os24  1  0.000148  0.500289  0.499433  1
  Rh  Rh25  1  0.500029  0.000025  0.000377  1
