# generated using pymatgen
data_Pr8MgHgIr2
_symmetry_space_group_name_H-M   'P 1'
_cell_length_a   10.04537109
_cell_length_b   10.04537181
_cell_length_c   10.06695000
_cell_angle_alpha   59.92892343
_cell_angle_beta   59.92892107
_cell_angle_gamma   60.23924724
_symmetry_Int_Tables_number   1
_chemical_formula_structural   Pr8MgHgIr2
_chemical_formula_sum   'Pr16 Mg2 Hg2 Ir4'
_cell_volume   718.82786213
_cell_formula_units_Z   2
loop_
 _symmetry_equiv_pos_site_id
 _symmetry_equiv_pos_as_xyz
  1  'x, y, z'
loop_
 _atom_site_type_symbol
 _atom_site_label
 _atom_site_symmetry_multiplicity
 _atom_site_fract_x
 _atom_site_fract_y
 _atom_site_fract_z
 _atom_site_occupancy
  Pr  Pr0  1  0.347643  0.347643  0.346370  1
  Pr  Pr1  1  0.347643  0.347643  0.958344  1
  Pr  Pr2  1  0.349384  0.953591  0.348513  1
  Pr  Pr3  1  0.953591  0.349384  0.348513  1
  Pr  Pr4  1  0.809253  0.189168  0.191513  1
  Pr  Pr5  1  0.189168  0.809253  0.810066  1
  Pr  Pr6  1  0.189168  0.809253  0.191513  1
  Pr  Pr7  1  0.809253  0.189168  0.810066  1
  Pr  Pr8  1  0.188360  0.188360  0.811640  1
  Pr  Pr9  1  0.805770  0.805770  0.194230  1
  Pr  Pr10  1  0.938130  0.560050  0.561671  1
  Pr  Pr11  1  0.560050  0.938130  0.940149  1
  Pr  Pr12  1  0.560050  0.938130  0.561671  1
  Pr  Pr13  1  0.938130  0.560050  0.940149  1
  Pr  Pr14  1  0.560609  0.560609  0.939391  1
  Pr  Pr15  1  0.938565  0.938565  0.561435  1
  Mg  Mg16  1  0.579127  0.272192  0.574341  1
  Mg  Mg17  1  0.272192  0.579127  0.574341  1
  Hg  Hg18  1  0.580780  0.580780  0.586667  1
  Hg  Hg19  1  0.580780  0.580780  0.251774  1
  Ir  Ir20  1  0.142206  0.142206  0.140713  1
  Ir  Ir21  1  0.142206  0.142206  0.574875  1
  Ir  Ir22  1  0.142406  0.575537  0.141028  1
  Ir  Ir23  1  0.575537  0.142406  0.141028  1
