# generated using pymatgen
data_La3Pr14(NdIr4)3
_symmetry_space_group_name_H-M   'P 1'
_cell_length_a   11.34929548
_cell_length_b   11.35447100
_cell_length_c   6.65235789
_cell_angle_alpha   90.10458446
_cell_angle_beta   89.97791814
_cell_angle_gamma   89.92762246
_symmetry_Int_Tables_number   1
_chemical_formula_structural   La3Pr14(NdIr4)3
_chemical_formula_sum   'La3 Pr14 Nd3 Ir12'
_cell_volume   857.25556201
_cell_formula_units_Z   1
loop_
 _symmetry_equiv_pos_site_id
 _symmetry_equiv_pos_as_xyz
  1  'x, y, z'
loop_
 _atom_site_type_symbol
 _atom_site_label
 _atom_site_symmetry_multiplicity
 _atom_site_fract_x
 _atom_site_fract_y
 _atom_site_fract_z
 _atom_site_occupancy
  La  La0  1  0.908475  0.291008  0.614246  1
  La  La1  1  0.208914  0.409230  0.614238  1
  La  La2  1  0.791345  0.591629  0.614203  1
  Pr  Pr3  1  0.090106  0.291644  0.115431  1
  Pr  Pr4  1  0.791301  0.409878  0.114931  1
  Pr  Pr5  1  0.208223  0.590638  0.114930  1
  Pr  Pr6  1  0.910462  0.708152  0.115304  1
  Pr  Pr7  1  0.409623  0.791549  0.384656  1
  Pr  Pr8  1  0.590040  0.208337  0.384238  1
  Pr  Pr9  1  0.291919  0.089836  0.384236  1
  Pr  Pr10  1  0.708085  0.909957  0.384739  1
  Pr  Pr11  1  0.410120  0.207963  0.885226  1
  Pr  Pr12  1  0.707662  0.089898  0.885078  1
  Pr  Pr13  1  0.292091  0.909641  0.884635  1
  Pr  Pr14  1  0.589820  0.791968  0.885358  1
  Pr  Pr15  1  0.091119  0.709357  0.615547  1
  Pr  Pr16  1  0.999901  0.999893  0.000000  1
  Nd  Nd17  1  0.500069  0.499979  0.000713  1
  Nd  Nd18  1  0.499992  0.500183  0.499580  1
  Nd  Nd19  1  0.000343  0.999489  0.499613  1
  Ir  Ir20  1  0.153136  0.846872  0.250329  1
  Ir  Ir21  1  0.346356  0.347681  0.251029  1
  Ir  Ir22  1  0.653526  0.652430  0.251077  1
  Ir  Ir23  1  0.847075  0.153798  0.251724  1
  Ir  Ir24  1  0.347261  0.652714  0.750631  1
  Ir  Ir25  1  0.153365  0.153424  0.749667  1
  Ir  Ir26  1  0.846887  0.846431  0.749547  1
  Ir  Ir27  1  0.652900  0.347108  0.750078  1
  Ir  Ir28  1  0.000086  0.499923  0.381403  1
  Ir  Ir29  1  0.500192  0.000110  0.119895  1
  Ir  Ir30  1  0.499859  0.999937  0.620311  1
  Ir  Ir31  1  0.999746  0.499345  0.877405  1
