# generated using pymatgen
data_Nd4Y5LuSi8
_symmetry_space_group_name_H-M   'P 1'
_cell_length_a   7.77004109
_cell_length_b   7.77014800
_cell_length_c   14.43178200
_cell_angle_alpha   90.00000000
_cell_angle_beta   89.99118815
_cell_angle_gamma   90.00000000
_symmetry_Int_Tables_number   1
_chemical_formula_structural   Nd4Y5LuSi8
_chemical_formula_sum   'Nd8 Y10 Lu2 Si16'
_cell_volume   871.30972510
_cell_formula_units_Z   2
loop_
 _symmetry_equiv_pos_site_id
 _symmetry_equiv_pos_as_xyz
  1  'x, y, z'
loop_
 _atom_site_type_symbol
 _atom_site_label
 _atom_site_symmetry_multiplicity
 _atom_site_fract_x
 _atom_site_fract_y
 _atom_site_fract_z
 _atom_site_occupancy
  Nd  Nd0  1  0.638972  0.991930  0.457393  1
  Nd  Nd1  1  0.360690  0.007519  0.956155  1
  Nd  Nd2  1  0.992644  0.639021  0.543441  1
  Nd  Nd3  1  0.491826  0.860752  0.207088  1
  Nd  Nd4  1  0.507356  0.139021  0.706559  1
  Nd  Nd5  1  0.861028  0.491930  0.792607  1
  Nd  Nd6  1  0.139310  0.507519  0.293845  1
  Nd  Nd7  1  0.008174  0.360752  0.042912  1
  Y  Y8  1  0.490271  0.362208  0.124616  1
  Y  Y9  1  0.991316  0.137371  0.625380  1
  Y  Y10  1  0.862639  0.009377  0.873867  1
  Y  Y11  1  0.137837  0.990975  0.375373  1
  Y  Y12  1  0.508684  0.637371  0.624620  1
  Y  Y13  1  0.362163  0.490975  0.874627  1
  Y  Y14  1  0.637361  0.509377  0.376133  1
  Y  Y15  1  0.009729  0.862208  0.125384  1
  Y  Y16  1  0.816308  0.183821  0.250335  1
  Y  Y17  1  0.683692  0.683821  0.999665  1
  Lu  Lu18  1  0.316431  0.316562  0.500327  1
  Lu  Lu19  1  0.183569  0.816562  0.749673  1
  Si  Si20  1  0.289520  0.935341  0.562495  1
  Si  Si21  1  0.710197  0.065445  0.060844  1
  Si  Si22  1  0.935961  0.290247  0.439236  1
  Si  Si23  1  0.433962  0.210876  0.312583  1
  Si  Si24  1  0.564039  0.790247  0.810764  1
  Si  Si25  1  0.210480  0.435341  0.687505  1
  Si  Si26  1  0.789803  0.565445  0.189156  1
  Si  Si27  1  0.066038  0.710876  0.937417  1
  Si  Si28  1  0.798837  0.844136  0.690557  1
  Si  Si29  1  0.201899  0.155673  0.191197  1
  Si  Si30  1  0.844621  0.797838  0.309684  1
  Si  Si31  1  0.343875  0.700909  0.441416  1
  Si  Si32  1  0.655379  0.297838  0.940316  1
  Si  Si33  1  0.701163  0.344136  0.559443  1
  Si  Si34  1  0.298101  0.655673  0.058803  1
  Si  Si35  1  0.156125  0.200909  0.808584  1
