# generated using pymatgen
data_Ce7Zr3Si7GeO3
_symmetry_space_group_name_H-M   'P 1'
_cell_length_a   10.36191100
_cell_length_b   10.36191198
_cell_length_c   4.36886600
_cell_angle_alpha   90.00000000
_cell_angle_beta   90.00000000
_cell_angle_gamma   120.00000007
_symmetry_Int_Tables_number   1
_chemical_formula_structural   Ce7Zr3Si7GeO3
_chemical_formula_sum   'Ce7 Zr3 Si7 Ge1 O3'
_cell_volume   406.23665954
_cell_formula_units_Z   1
loop_
 _symmetry_equiv_pos_site_id
 _symmetry_equiv_pos_as_xyz
  1  'x, y, z'
loop_
 _atom_site_type_symbol
 _atom_site_label
 _atom_site_symmetry_multiplicity
 _atom_site_fract_x
 _atom_site_fract_y
 _atom_site_fract_z
 _atom_site_occupancy
  Ce  Ce0  1  0.215323  0.784677  0.000000  1
  Ce  Ce1  1  0.215323  0.430646  0.000000  1
  Ce  Ce2  1  0.786096  0.572192  0.000000  1
  Ce  Ce3  1  0.427808  0.213904  0.000000  1
  Ce  Ce4  1  0.000000  0.000000  0.000000  1
  Ce  Ce5  1  0.569354  0.784677  0.000000  1
  Ce  Ce6  1  0.786096  0.213904  0.000000  1
  Zr  Zr7  1  0.498404  0.996808  0.500000  1
  Zr  Zr8  1  0.003192  0.501596  0.500000  1
  Zr  Zr9  1  0.498404  0.501596  0.500000  1
  Si  Si10  1  0.000084  0.769912  0.500000  1
  Si  Si11  1  0.333333  0.666667  0.500000  1
  Si  Si12  1  0.230088  0.230172  0.500000  1
  Si  Si13  1  0.769828  0.769912  0.500000  1
  Si  Si14  1  0.769828  0.999916  0.500000  1
  Si  Si15  1  0.230088  0.999916  0.500000  1
  Si  Si16  1  0.000084  0.230172  0.500000  1
  Ge  Ge17  1  0.666667  0.333333  0.500000  1
  O  O18  1  0.500132  0.499868  0.000000  1
  O  O19  1  0.500132  0.000264  0.000000  1
  O  O20  1  0.999736  0.499868  0.000000  1
