# generated using pymatgen
data_TbHo2In3GaNi2
_symmetry_space_group_name_H-M   'P 1'
_cell_length_a   7.54181698
_cell_length_b   7.54432646
_cell_length_c   3.83392300
_cell_angle_alpha   90.00000000
_cell_angle_beta   90.00000000
_cell_angle_gamma   120.18432828
_symmetry_Int_Tables_number   1
_chemical_formula_structural   TbHo2In3GaNi2
_chemical_formula_sum   'Tb1 Ho2 In3 Ga1 Ni2'
_cell_volume   188.56488263
_cell_formula_units_Z   1
loop_
 _symmetry_equiv_pos_site_id
 _symmetry_equiv_pos_as_xyz
  1  'x, y, z'
loop_
 _atom_site_type_symbol
 _atom_site_label
 _atom_site_symmetry_multiplicity
 _atom_site_fract_x
 _atom_site_fract_y
 _atom_site_fract_z
 _atom_site_occupancy
  Tb  Tb0  1  0.396646  0.415206  0.500000  1
  Ho  Ho1  1  0.018729  0.603961  0.500000  1
  Ho  Ho2  1  0.585124  0.980926  0.500000  1
  In  In3  1  0.746710  0.750367  0.000000  1
  In  In4  1  0.002428  0.253257  0.000000  1
  In  In5  1  0.250263  0.996274  0.000000  1
  Ga  Ga6  1  0.667535  0.332822  0.000000  1
  Ni  Ni7  1  0.999519  0.999423  0.500000  1
  Ni  Ni8  1  0.333045  0.667764  0.000000  1
