# generated using pymatgen
data_Cs14Ta2In6AsP9
_symmetry_space_group_name_H-M   'P 1'
_cell_length_a   8.88273992
_cell_length_b   9.73104637
_cell_length_c   14.89501741
_cell_angle_alpha   85.30415655
_cell_angle_beta   84.85023569
_cell_angle_gamma   84.86618642
_symmetry_Int_Tables_number   1
_chemical_formula_structural   Cs14Ta2In6AsP9
_chemical_formula_sum   'Cs14 Ta2 In6 As1 P9'
_cell_volume   1273.61697469
_cell_formula_units_Z   1
loop_
 _symmetry_equiv_pos_site_id
 _symmetry_equiv_pos_as_xyz
  1  'x, y, z'
loop_
 _atom_site_type_symbol
 _atom_site_label
 _atom_site_symmetry_multiplicity
 _atom_site_fract_x
 _atom_site_fract_y
 _atom_site_fract_z
 _atom_site_occupancy
  Cs  Cs0  1  0.816323  0.808020  0.134331  1
  Cs  Cs1  1  0.186322  0.192883  0.868353  1
  Cs  Cs2  1  0.273193  0.252737  0.251162  1
  Cs  Cs3  1  0.727939  0.745307  0.748872  1
  Cs  Cs4  1  0.741792  0.497131  0.973991  1
  Cs  Cs5  1  0.259173  0.501469  0.026668  1
  Cs  Cs6  1  0.682029  0.085330  0.887344  1
  Cs  Cs7  1  0.318299  0.914811  0.113071  1
  Cs  Cs8  1  0.672905  0.655239  0.400449  1
  Cs  Cs9  1  0.326708  0.341333  0.599816  1
  Cs  Cs10  1  0.759415  0.992624  0.529870  1
  Cs  Cs11  1  0.237645  0.005112  0.466998  1
  Cs  Cs12  1  0.831872  0.368204  0.647339  1
  Cs  Cs13  1  0.166656  0.631102  0.351089  1
  Ta  Ta14  1  0.648234  0.393714  0.227300  1
  Ta  Ta15  1  0.351942  0.606590  0.772540  1
  In  In16  1  0.903317  0.277083  0.372796  1
  In  In17  1  0.097995  0.720260  0.626160  1
  In  In18  1  0.937810  0.187366  0.134810  1
  In  In19  1  0.063437  0.810082  0.868203  1
  In  In20  1  0.641167  0.055130  0.294857  1
  In  In21  1  0.363000  0.945027  0.705268  1
  As  As22  1  0.033664  0.994734  0.702393  1
  P  P23  1  0.490061  0.593179  0.192215  1
  P  P24  1  0.509437  0.407216  0.808104  1
  P  P25  1  0.911383  0.445033  0.213127  1
  P  P26  1  0.088697  0.555987  0.786629  1
  P  P27  1  0.591455  0.298574  0.382320  1
  P  P28  1  0.408885  0.701845  0.617533  1
  P  P29  1  0.627788  0.207443  0.129197  1
  P  P30  1  0.372683  0.792624  0.870829  1
  P  P31  1  0.958774  0.016812  0.296366  1
