# generated using pymatgen
data_Er3Zn3Si2Pt
_symmetry_space_group_name_H-M   'P 1'
_cell_length_a   6.82068500
_cell_length_b   6.82068570
_cell_length_c   4.24968000
_cell_angle_alpha   90.00000000
_cell_angle_beta   90.00000000
_cell_angle_gamma   120.00000146
_symmetry_Int_Tables_number   1
_chemical_formula_structural   Er3Zn3Si2Pt
_chemical_formula_sum   'Er3 Zn3 Si2 Pt1'
_cell_volume   171.21542363
_cell_formula_units_Z   1
loop_
 _symmetry_equiv_pos_site_id
 _symmetry_equiv_pos_as_xyz
  1  'x, y, z'
loop_
 _atom_site_type_symbol
 _atom_site_label
 _atom_site_symmetry_multiplicity
 _atom_site_fract_x
 _atom_site_fract_y
 _atom_site_fract_z
 _atom_site_occupancy
  Er  Er0  1  0.415469  0.000000  0.000000  1
  Er  Er1  1  0.000000  0.415469  0.000000  1
  Er  Er2  1  0.584532  0.584532  0.000000  1
  Zn  Zn3  1  0.757605  0.000000  0.499999  1
  Zn  Zn4  1  0.242395  0.242396  0.499999  1
  Zn  Zn5  1  0.000000  0.757604  0.499999  1
  Si  Si6  1  0.666666  0.333333  0.499999  1
  Si  Si7  1  0.333333  0.666667  0.499999  1
  Pt  Pt8  1  0.000000  0.000000  0.000000  1
