# generated using pymatgen
data_Y5Ho3(LuIn5)4
_symmetry_space_group_name_H-M   'P 1'
_cell_length_a   6.53043004
_cell_length_b   10.33485700
_cell_length_c   12.15707808
_cell_angle_alpha   89.99875712
_cell_angle_beta   89.98727191
_cell_angle_gamma   90.00265530
_symmetry_Int_Tables_number   1
_chemical_formula_structural   Y5Ho3(LuIn5)4
_chemical_formula_sum   'Y5 Ho3 Lu4 In20'
_cell_volume   820.49407248
_cell_formula_units_Z   1
loop_
 _symmetry_equiv_pos_site_id
 _symmetry_equiv_pos_as_xyz
  1  'x, y, z'
loop_
 _atom_site_type_symbol
 _atom_site_label
 _atom_site_symmetry_multiplicity
 _atom_site_fract_x
 _atom_site_fract_y
 _atom_site_fract_z
 _atom_site_occupancy
  Y  Y0  1  0.387068  0.511104  0.357911  1
  Y  Y1  1  0.112843  0.511077  0.858136  1
  Y  Y2  1  0.387165  0.988910  0.358136  1
  Y  Y3  1  0.887151  0.011066  0.141902  1
  Y  Y4  1  0.612972  0.488911  0.642046  1
  Ho  Ho5  1  0.887179  0.488899  0.141932  1
  Ho  Ho6  1  0.612817  0.011103  0.641995  1
  Ho  Ho7  1  0.112807  0.988899  0.858019  1
  Lu  Lu8  1  0.352604  0.750105  0.052307  1
  Lu  Lu9  1  0.147328  0.749990  0.552398  1
  Lu  Lu10  1  0.647419  0.250117  0.947673  1
  Lu  Lu11  1  0.852697  0.249859  0.447711  1
  In  In12  1  0.610049  0.750205  0.505611  1
  In  In13  1  0.890081  0.749868  0.005518  1
  In  In14  1  0.390093  0.249904  0.494701  1
  In  In15  1  0.109948  0.249877  0.994470  1
  In  In16  1  0.650374  0.749844  0.241609  1
  In  In17  1  0.849801  0.750291  0.741679  1
  In  In18  1  0.349811  0.249708  0.758300  1
  In  In19  1  0.150025  0.250142  0.258203  1
  In  In20  1  0.117412  0.749909  0.277809  1
  In  In21  1  0.382265  0.750322  0.777890  1
  In  In22  1  0.882251  0.249681  0.722080  1
  In  In23  1  0.617805  0.250262  0.222055  1
  In  In24  1  0.871601  0.543137  0.401332  1
  In  In25  1  0.628555  0.956911  0.901259  1
  In  In26  1  0.128544  0.043078  0.598734  1
  In  In27  1  0.371411  0.456828  0.098501  1
  In  In28  1  0.128424  0.456782  0.598452  1
  In  In29  1  0.371478  0.043207  0.098358  1
  In  In30  1  0.871505  0.956804  0.401638  1
  In  In31  1  0.628516  0.543198  0.901632  1
