# generated using pymatgen
data_Tb2DyHf3(GaPt)6
_symmetry_space_group_name_H-M   'P 1'
_cell_length_a   7.27850842
_cell_length_b   7.28258012
_cell_length_c   7.38359900
_cell_angle_alpha   90.00000000
_cell_angle_beta   90.00000000
_cell_angle_gamma   120.02025222
_symmetry_Int_Tables_number   1
_chemical_formula_structural   Tb2DyHf3(GaPt)6
_chemical_formula_sum   'Tb2 Dy1 Hf3 Ga6 Pt6'
_cell_volume   338.87359442
_cell_formula_units_Z   1
loop_
 _symmetry_equiv_pos_site_id
 _symmetry_equiv_pos_as_xyz
  1  'x, y, z'
loop_
 _atom_site_type_symbol
 _atom_site_label
 _atom_site_symmetry_multiplicity
 _atom_site_fract_x
 _atom_site_fract_y
 _atom_site_fract_z
 _atom_site_occupancy
  Tb  Tb0  1  0.590628  0.998250  0.750000  1
  Tb  Tb1  1  0.407506  0.409483  0.750000  1
  Dy  Dy2  1  0.001877  0.592787  0.750000  1
  Hf  Hf3  1  0.391273  0.389250  0.250000  1
  Hf  Hf4  1  0.998019  0.608748  0.250000  1
  Hf  Hf5  1  0.610697  0.001926  0.250000  1
  Ga  Ga6  1  0.262192  0.998725  0.008631  1
  Ga  Ga7  1  0.262192  0.998725  0.491369  1
  Ga  Ga8  1  0.000998  0.263585  0.491600  1
  Ga  Ga9  1  0.000998  0.263585  0.008400  1
  Ga  Ga10  1  0.736799  0.737547  0.008632  1
  Ga  Ga11  1  0.736799  0.737547  0.491368  1
  Pt  Pt12  1  0.667094  0.333664  0.471435  1
  Pt  Pt13  1  0.000006  0.999360  0.750000  1
  Pt  Pt14  1  0.667094  0.333664  0.028565  1
  Pt  Pt15  1  0.332918  0.666571  0.033695  1
  Pt  Pt16  1  0.332918  0.666571  0.466305  1
  Pt  Pt17  1  0.999993  0.000011  0.250000  1
