# generated using pymatgen
data_Pr3Nd2Th3(ZnRh)8
_symmetry_space_group_name_H-M   'P 1'
_cell_length_a   3.95902200
_cell_length_b   7.52679944
_cell_length_c   16.59326115
_cell_angle_alpha   90.16296400
_cell_angle_beta   90.00000000
_cell_angle_gamma   90.00000000
_symmetry_Int_Tables_number   1
_chemical_formula_structural   Pr3Nd2Th3(ZnRh)8
_chemical_formula_sum   'Pr3 Nd2 Th3 Zn8 Rh8'
_cell_volume   494.45668253
_cell_formula_units_Z   1
loop_
 _symmetry_equiv_pos_site_id
 _symmetry_equiv_pos_as_xyz
  1  'x, y, z'
loop_
 _atom_site_type_symbol
 _atom_site_label
 _atom_site_symmetry_multiplicity
 _atom_site_fract_x
 _atom_site_fract_y
 _atom_site_fract_z
 _atom_site_occupancy
  Pr  Pr0  1  0.750000  0.944864  0.283855  1
  Pr  Pr1  1  0.250000  0.053479  0.715333  1
  Pr  Pr2  1  0.250000  0.551281  0.785577  1
  Nd  Nd3  1  0.750000  0.829094  0.061224  1
  Nd  Nd4  1  0.750000  0.449676  0.214277  1
  Th  Th5  1  0.250000  0.171870  0.940550  1
  Th  Th6  1  0.250000  0.673072  0.561260  1
  Th  Th7  1  0.750000  0.326264  0.438459  1
  Zn  Zn8  1  0.750000  0.007188  0.561012  1
  Zn  Zn9  1  0.250000  0.620280  0.346170  1
  Zn  Zn10  1  0.750000  0.379709  0.654122  1
  Zn  Zn11  1  0.250000  0.502667  0.059867  1
  Zn  Zn12  1  0.750000  0.509425  0.940346  1
  Zn  Zn13  1  0.250000  0.992229  0.438542  1
  Zn  Zn14  1  0.250000  0.118878  0.151940  1
  Zn  Zn15  1  0.750000  0.879160  0.846592  1
  Rh  Rh16  1  0.750000  0.740162  0.441756  1
  Rh  Rh17  1  0.250000  0.250454  0.320389  1
  Rh  Rh18  1  0.750000  0.246386  0.821177  1
  Rh  Rh19  1  0.750000  0.748514  0.678794  1
  Rh  Rh20  1  0.250000  0.258917  0.558823  1
  Rh  Rh21  1  0.250000  0.744873  0.186694  1
  Rh  Rh22  1  0.750000  0.248234  0.059065  1
  Rh  Rh23  1  0.250000  0.753323  0.934178  1
