# generated using pymatgen
data_Dy5Ho3Ti5Si16Mo7
_symmetry_space_group_name_H-M   'P 1'
_cell_length_a   6.94319950
_cell_length_b   6.93493150
_cell_length_c   12.83909435
_cell_angle_alpha   89.88724753
_cell_angle_beta   90.00133102
_cell_angle_gamma   90.05803318
_symmetry_Int_Tables_number   1
_chemical_formula_structural   Dy5Ho3Ti5Si16Mo7
_chemical_formula_sum   'Dy5 Ho3 Ti5 Si16 Mo7'
_cell_volume   618.20874800
_cell_formula_units_Z   1
loop_
 _symmetry_equiv_pos_site_id
 _symmetry_equiv_pos_as_xyz
  1  'x, y, z'
loop_
 _atom_site_type_symbol
 _atom_site_label
 _atom_site_symmetry_multiplicity
 _atom_site_fract_x
 _atom_site_fract_y
 _atom_site_fract_z
 _atom_site_occupancy
  Dy  Dy0  1  0.341348  0.003794  0.467165  1
  Dy  Dy1  1  0.496955  0.841062  0.718737  1
  Dy  Dy2  1  0.502673  0.159414  0.218396  1
  Dy  Dy3  1  0.840593  0.496255  0.280930  1
  Dy  Dy4  1  0.159017  0.502433  0.782944  1
  Ho  Ho5  1  0.658773  0.997256  0.968326  1
  Ho  Ho6  1  0.002783  0.340802  0.531924  1
  Ho  Ho7  1  0.996379  0.660079  0.031202  1
  Ti  Ti8  1  0.329122  0.329495  0.999457  1
  Ti  Ti9  1  0.170145  0.828657  0.249979  1
  Ti  Ti10  1  0.827498  0.172221  0.750503  1
  Ti  Ti11  1  0.670348  0.668256  0.499294  1
  Ti  Ti12  1  0.993832  0.841589  0.625756  1
  Si  Si13  1  0.201807  0.130121  0.683913  1
  Si  Si14  1  0.370938  0.701130  0.934249  1
  Si  Si15  1  0.630949  0.299993  0.434274  1
  Si  Si16  1  0.699381  0.370147  0.065881  1
  Si  Si17  1  0.300575  0.629318  0.565176  1
  Si  Si18  1  0.799637  0.870570  0.183632  1
  Si  Si19  1  0.127987  0.200499  0.316270  1
  Si  Si20  1  0.871443  0.800020  0.816176  1
  Si  Si21  1  0.288797  0.957986  0.062774  1
  Si  Si22  1  0.541967  0.788336  0.312725  1
  Si  Si23  1  0.457583  0.211200  0.812912  1
  Si  Si24  1  0.789103  0.543275  0.687397  1
  Si  Si25  1  0.211172  0.457941  0.186674  1
  Si  Si26  1  0.711351  0.043722  0.563409  1
  Si  Si27  1  0.957467  0.289104  0.937437  1
  Si  Si28  1  0.044026  0.710759  0.437147  1
  Mo  Mo29  1  0.159311  0.008704  0.875485  1
  Mo  Mo30  1  0.492720  0.658444  0.124218  1
  Mo  Mo31  1  0.507275  0.341566  0.623673  1
  Mo  Mo32  1  0.657368  0.491722  0.877568  1
  Mo  Mo33  1  0.342559  0.504638  0.374643  1
  Mo  Mo34  1  0.840438  0.991089  0.373498  1
  Mo  Mo35  1  0.006680  0.158404  0.126254  1
