# generated using pymatgen
data_Tb3Nd5Tm12Si15Pd
_symmetry_space_group_name_H-M   'P 1'
_cell_length_a   7.66271832
_cell_length_b   7.70968762
_cell_length_c   14.11685274
_cell_angle_alpha   89.65049681
_cell_angle_beta   89.83133015
_cell_angle_gamma   90.16990988
_symmetry_Int_Tables_number   1
_chemical_formula_structural   Tb3Nd5Tm12Si15Pd
_chemical_formula_sum   'Tb3 Nd5 Tm12 Si15 Pd1'
_cell_volume   833.96079152
_cell_formula_units_Z   1
loop_
 _symmetry_equiv_pos_site_id
 _symmetry_equiv_pos_as_xyz
  1  'x, y, z'
loop_
 _atom_site_type_symbol
 _atom_site_label
 _atom_site_symmetry_multiplicity
 _atom_site_fract_x
 _atom_site_fract_y
 _atom_site_fract_z
 _atom_site_occupancy
  Tb  Tb0  1  0.498860  0.143311  0.541688  1
  Tb  Tb1  1  0.356136  0.996481  0.788990  1
  Tb  Tb2  1  0.646619  0.001238  0.289981  1
  Nd  Nd3  1  0.989681  0.354060  0.211954  1
  Nd  Nd4  1  0.005178  0.647376  0.710755  1
  Nd  Nd5  1  0.147005  0.499344  0.460131  1
  Nd  Nd6  1  0.508744  0.852364  0.038021  1
  Nd  Nd7  1  0.852202  0.504881  0.959494  1
  Tm  Tm8  1  0.181795  0.179942  0.999982  1
  Tm  Tm9  1  0.823139  0.821689  0.500159  1
  Tm  Tm10  1  0.322552  0.681916  0.250560  1
  Tm  Tm11  1  0.678074  0.320668  0.749276  1
  Tm  Tm12  1  0.148413  0.008947  0.376006  1
  Tm  Tm13  1  0.857014  0.995519  0.874702  1
  Tm  Tm14  1  0.494014  0.643847  0.627536  1
  Tm  Tm15  1  0.357376  0.506484  0.872250  1
  Tm  Tm16  1  0.503990  0.352014  0.127747  1
  Tm  Tm17  1  0.636286  0.491835  0.378941  1
  Tm  Tm18  1  0.006154  0.143807  0.623231  1
  Tm  Tm19  1  0.993005  0.855097  0.123316  1
  Si  Si20  1  0.643628  0.710208  0.814136  1
  Si  Si21  1  0.211142  0.858926  0.566153  1
  Si  Si22  1  0.146788  0.792684  0.934130  1
  Si  Si23  1  0.794276  0.145443  0.062783  1
  Si  Si24  1  0.849792  0.201029  0.433709  1
  Si  Si25  1  0.296583  0.348480  0.686257  1
  Si  Si26  1  0.702776  0.650035  0.189253  1
  Si  Si27  1  0.293192  0.049640  0.185699  1
  Si  Si28  1  0.703847  0.946024  0.687807  1
  Si  Si29  1  0.445215  0.797853  0.440307  1
  Si  Si30  1  0.210097  0.562994  0.059493  1
  Si  Si31  1  0.556752  0.205245  0.937327  1
  Si  Si32  1  0.789806  0.439117  0.563579  1
  Si  Si33  1  0.062308  0.287906  0.810755  1
  Si  Si34  1  0.934359  0.709418  0.312588  1
  Pd  Pd35  1  0.353200  0.294177  0.311303  1
