# generated using pymatgen
data_ZrScFe3P7Ru9
_symmetry_space_group_name_H-M   'P 1'
_cell_length_a   9.23863500
_cell_length_b   9.23863459
_cell_length_c   3.81820600
_cell_angle_alpha   90.00000000
_cell_angle_beta   90.00000000
_cell_angle_gamma   119.99999692
_symmetry_Int_Tables_number   1
_chemical_formula_structural   ZrScFe3P7Ru9
_chemical_formula_sum   'Zr1 Sc1 Fe3 P7 Ru9'
_cell_volume   282.23157566
_cell_formula_units_Z   1
loop_
 _symmetry_equiv_pos_site_id
 _symmetry_equiv_pos_as_xyz
  1  'x, y, z'
loop_
 _atom_site_type_symbol
 _atom_site_label
 _atom_site_symmetry_multiplicity
 _atom_site_fract_x
 _atom_site_fract_y
 _atom_site_fract_z
 _atom_site_occupancy
  Zr  Zr0  1  0.333333  0.666667  0.000000  1
  Sc  Sc1  1  0.666667  0.333333  0.500000  1
  Fe  Fe2  1  0.728872  0.888932  0.000000  1
  Fe  Fe3  1  0.111068  0.839939  0.000000  1
  Fe  Fe4  1  0.160061  0.271128  0.000000  1
  P  P5  1  0.601301  0.718473  0.500000  1
  P  P6  1  0.000000  0.000000  0.000000  1
  P  P7  1  0.281527  0.882828  0.500000  1
  P  P8  1  0.117172  0.398699  0.500000  1
  P  P9  1  0.887571  0.583240  0.000000  1
  P  P10  1  0.416760  0.304332  0.000000  1
  P  P11  1  0.695668  0.112429  0.000000  1
  Ru  Ru12  1  0.557495  0.942608  0.500000  1
  Ru  Ru13  1  0.385114  0.442505  0.500000  1
  Ru  Ru14  1  0.910622  0.117078  0.500000  1
  Ru  Ru15  1  0.206455  0.089378  0.500000  1
  Ru  Ru16  1  0.882922  0.793545  0.500000  1
  Ru  Ru17  1  0.424618  0.063159  0.000000  1
  Ru  Ru18  1  0.936841  0.361459  0.000000  1
  Ru  Ru19  1  0.638541  0.575382  0.000000  1
  Ru  Ru20  1  0.057392  0.614886  0.500000  1
