# generated using pymatgen
data_Dy5Tm3P12(Ir7Rh)2
_symmetry_space_group_name_H-M   'P 1'
_cell_length_a   12.97231931
_cell_length_b   12.94922585
_cell_length_c   3.98856700
_cell_angle_alpha   90.00000000
_cell_angle_beta   90.00000000
_cell_angle_gamma   119.99055240
_symmetry_Int_Tables_number   1
_chemical_formula_structural   Dy5Tm3P12(Ir7Rh)2
_chemical_formula_sum   'Dy5 Tm3 P12 Ir14 Rh2'
_cell_volume   580.29696105
_cell_formula_units_Z   1
loop_
 _symmetry_equiv_pos_site_id
 _symmetry_equiv_pos_as_xyz
  1  'x, y, z'
loop_
 _atom_site_type_symbol
 _atom_site_label
 _atom_site_symmetry_multiplicity
 _atom_site_fract_x
 _atom_site_fract_y
 _atom_site_fract_z
 _atom_site_occupancy
  Dy  Dy0  1  0.333552  0.666199  0.500000  1
  Dy  Dy1  1  0.666395  0.333134  0.500000  1
  Dy  Dy2  1  0.000027  0.813987  0.000000  1
  Dy  Dy3  1  0.186002  0.186003  0.000000  1
  Dy  Dy4  1  0.813659  0.000055  0.000000  1
  Tm  Tm5  1  0.000433  0.446004  0.500000  1
  Tm  Tm6  1  0.554070  0.554318  0.500000  1
  Tm  Tm7  1  0.445876  0.999827  0.500000  1
  P  P8  1  0.999302  0.651562  0.500000  1
  P  P9  1  0.348138  0.348032  0.500000  1
  P  P10  1  0.652101  0.000367  0.500000  1
  P  P11  1  0.517397  0.689375  0.000000  1
  P  P12  1  0.309888  0.827619  0.000000  1
  P  P13  1  0.172301  0.482942  0.000000  1
  P  P14  1  0.483347  0.171420  0.000000  1
  P  P15  1  0.688456  0.516870  0.000000  1
  P  P16  1  0.828551  0.311873  0.000000  1
  P  P17  1  0.999904  0.176154  0.500000  1
  P  P18  1  0.823397  0.823757  0.500000  1
  P  P19  1  0.176263  0.999897  0.500000  1
  Ir  Ir20  1  0.357266  0.490496  0.000000  1
  Ir  Ir21  1  0.491166  0.356925  0.000000  1
  Ir  Ir22  1  0.866414  0.509990  0.000000  1
  Ir  Ir23  1  0.643682  0.133739  0.000000  1
  Ir  Ir24  1  0.000203  0.274696  0.000000  1
  Ir  Ir25  1  0.725286  0.725345  0.000000  1
  Ir  Ir26  1  0.274454  0.999717  0.000000  1
  Ir  Ir27  1  0.629224  0.808345  0.500000  1
  Ir  Ir28  1  0.191617  0.820577  0.500000  1
  Ir  Ir29  1  0.178825  0.370266  0.500000  1
  Ir  Ir30  1  0.369965  0.178701  0.500000  1
  Ir  Ir31  1  0.808450  0.629970  0.500000  1
  Ir  Ir32  1  0.821650  0.191796  0.500000  1
  Ir  Ir33  1  0.000060  0.999893  0.500000  1
  Rh  Rh34  1  0.510360  0.867070  0.000000  1
  Rh  Rh35  1  0.132319  0.643078  0.000000  1
