# generated using pymatgen
data_Tb8Al(Pd11Au)2
_symmetry_space_group_name_H-M   'P 1'
_cell_length_a   8.33038600
_cell_length_b   8.42618400
_cell_length_c   8.42525200
_cell_angle_alpha   90.00000000
_cell_angle_beta   90.00000000
_cell_angle_gamma   90.00000000
_symmetry_Int_Tables_number   1
_chemical_formula_structural   Tb8Al(Pd11Au)2
_chemical_formula_sum   'Tb8 Al1 Pd22 Au2'
_cell_volume   591.39679077
_cell_formula_units_Z   1
loop_
 _symmetry_equiv_pos_site_id
 _symmetry_equiv_pos_as_xyz
  1  'x, y, z'
loop_
 _atom_site_type_symbol
 _atom_site_label
 _atom_site_symmetry_multiplicity
 _atom_site_fract_x
 _atom_site_fract_y
 _atom_site_fract_z
 _atom_site_occupancy
  Tb  Tb0  1  0.252015  0.244927  0.252363  1
  Tb  Tb1  1  0.747450  0.747544  0.747372  1
  Tb  Tb2  1  0.747450  0.747544  0.252628  1
  Tb  Tb3  1  0.747450  0.252456  0.747372  1
  Tb  Tb4  1  0.252015  0.244927  0.747637  1
  Tb  Tb5  1  0.252015  0.755073  0.252363  1
  Tb  Tb6  1  0.252015  0.755073  0.747637  1
  Tb  Tb7  1  0.747450  0.252456  0.252628  1
  Al  Al8  1  0.999749  0.000000  0.000000  1
  Pd  Pd9  1  0.740447  0.500000  0.000000  1
  Pd  Pd10  1  0.000371  0.259181  0.500000  1
  Pd  Pd11  1  0.499904  0.259544  0.000000  1
  Pd  Pd12  1  0.000371  0.740819  0.500000  1
  Pd  Pd13  1  0.499904  0.740456  0.000000  1
  Pd  Pd14  1  0.500554  0.000000  0.260371  1
  Pd  Pd15  1  0.260065  0.000000  0.500000  1
  Pd  Pd16  1  0.500554  0.000000  0.739629  1
  Pd  Pd17  1  0.739874  0.000000  0.500000  1
  Pd  Pd18  1  0.000684  0.500000  0.259373  1
  Pd  Pd19  1  0.000684  0.500000  0.740627  1
  Pd  Pd20  1  0.747079  0.500000  0.500000  1
  Pd  Pd21  1  0.499728  0.252631  0.500000  1
  Pd  Pd22  1  0.499728  0.747369  0.500000  1
  Pd  Pd23  1  0.499422  0.500000  0.253462  1
  Pd  Pd24  1  0.499422  0.500000  0.746538  1
  Pd  Pd25  1  0.290590  0.000000  0.000000  1
  Pd  Pd26  1  0.709763  0.000000  0.000000  1
  Pd  Pd27  1  0.000044  0.287685  0.000000  1
  Pd  Pd28  1  0.000044  0.712315  0.000000  1
  Pd  Pd29  1  0.999207  0.000000  0.288770  1
  Pd  Pd30  1  0.999207  0.000000  0.711230  1
  Au  Au31  1  0.260903  0.500000  0.000000  1
  Au  Au32  1  0.253842  0.500000  0.500000  1
