# generated using pymatgen
data_YEr15(In3Ru)2
_symmetry_space_group_name_H-M   'P 1'
_cell_length_a   10.29971500
_cell_length_b   10.30691245
_cell_length_c   7.03359900
_cell_angle_alpha   90.01861589
_cell_angle_beta   90.00000000
_cell_angle_gamma   119.97689306
_symmetry_Int_Tables_number   1
_chemical_formula_structural   YEr15(In3Ru)2
_chemical_formula_sum   'Y1 Er15 In6 Ru2'
_cell_volume   646.78966974
_cell_formula_units_Z   1
loop_
 _symmetry_equiv_pos_site_id
 _symmetry_equiv_pos_as_xyz
  1  'x, y, z'
loop_
 _atom_site_type_symbol
 _atom_site_label
 _atom_site_symmetry_multiplicity
 _atom_site_fract_x
 _atom_site_fract_y
 _atom_site_fract_z
 _atom_site_occupancy
  Y  Y0  1  0.532618  0.065236  0.793675  1
  Er  Er1  1  0.932599  0.466136  0.794248  1
  Er  Er2  1  0.533538  0.466136  0.794248  1
  Er  Er3  1  0.465863  0.931725  0.294163  1
  Er  Er4  1  0.067466  0.534051  0.294948  1
  Er  Er5  1  0.466585  0.534051  0.294948  1
  Er  Er6  1  0.823214  0.646430  0.497539  1
  Er  Er7  1  0.354197  0.177702  0.496251  1
  Er  Er8  1  0.823506  0.177702  0.496251  1
  Er  Er9  1  0.177234  0.354468  0.998300  1
  Er  Er10  1  0.646080  0.822199  0.998341  1
  Er  Er11  1  0.176120  0.822199  0.998341  1
  Er  Er12  1  0.666927  0.333851  0.173053  1
  Er  Er13  1  0.332883  0.665768  0.673220  1
  Er  Er14  1  0.000170  0.000339  0.777932  1
  Er  Er15  1  0.999838  0.999676  0.278028  1
  In  In16  1  0.836679  0.673359  0.041148  1
  In  In17  1  0.325752  0.162807  0.040935  1
  In  In18  1  0.837053  0.162807  0.040935  1
  In  In19  1  0.163281  0.326563  0.541884  1
  In  In20  1  0.673865  0.837390  0.541869  1
  In  In21  1  0.163525  0.837390  0.541869  1
  Ru  Ru22  1  0.667675  0.335348  0.565787  1
  Ru  Ru23  1  0.333332  0.666667  0.067993  1
