# generated using pymatgen
data_Nb6Fe4Si2CN
_symmetry_space_group_name_H-M   'P 1'
_cell_length_a   8.01395839
_cell_length_b   8.01407711
_cell_length_c   8.00607901
_cell_angle_alpha   60.03292693
_cell_angle_beta   60.03291476
_cell_angle_gamma   60.06978598
_symmetry_Int_Tables_number   1
_chemical_formula_structural   Nb6Fe4Si2CN
_chemical_formula_sum   'Nb12 Fe8 Si4 C2 N2'
_cell_volume   363.95706450
_cell_formula_units_Z   2
loop_
 _symmetry_equiv_pos_site_id
 _symmetry_equiv_pos_as_xyz
  1  'x, y, z'
loop_
 _atom_site_type_symbol
 _atom_site_label
 _atom_site_symmetry_multiplicity
 _atom_site_fract_x
 _atom_site_fract_y
 _atom_site_fract_z
 _atom_site_occupancy
  Nb  Nb0  1  0.797991  0.798027  0.201989  1
  Nb  Nb1  1  0.200891  0.200906  0.799102  1
  Nb  Nb2  1  0.798838  0.200978  0.798510  1
  Nb  Nb3  1  0.200987  0.798843  0.201693  1
  Nb  Nb4  1  0.200974  0.798851  0.798488  1
  Nb  Nb5  1  0.798830  0.200991  0.201681  1
  Nb  Nb6  1  0.452009  0.451973  0.048011  1
  Nb  Nb7  1  0.049109  0.049094  0.450898  1
  Nb  Nb8  1  0.451162  0.049022  0.451490  1
  Nb  Nb9  1  0.049013  0.451157  0.048307  1
  Nb  Nb10  1  0.049026  0.451149  0.451512  1
  Nb  Nb11  1  0.451170  0.049009  0.048319  1
  Fe  Fe12  1  0.735377  0.421511  0.421551  1
  Fe  Fe13  1  0.421525  0.735358  0.421554  1
  Fe  Fe14  1  0.421397  0.421380  0.735800  1
  Fe  Fe15  1  0.421396  0.421380  0.421415  1
  Fe  Fe16  1  0.514623  0.828489  0.828449  1
  Fe  Fe17  1  0.828475  0.514642  0.828446  1
  Fe  Fe18  1  0.828603  0.828620  0.514200  1
  Fe  Fe19  1  0.828604  0.828620  0.828585  1
  Si  Si20  1  0.125000  0.625000  0.625000  1
  Si  Si21  1  0.625000  0.125000  0.625000  1
  Si  Si22  1  0.625000  0.625000  0.125000  1
  Si  Si23  1  0.625000  0.625000  0.625000  1
  C  C24  1  0.625000  0.125000  0.125000  1
  C  C25  1  0.125000  0.625000  0.125000  1
  N  N26  1  0.125000  0.125000  0.625000  1
  N  N27  1  0.125000  0.125000  0.125000  1
