# generated using pymatgen
data_Ba5Ca5Au8
_symmetry_space_group_name_H-M   'P 1'
_cell_length_a   8.48873689
_cell_length_b   8.39162984
_cell_length_c   8.49601074
_cell_angle_alpha   69.97413044
_cell_angle_beta   90.22468360
_cell_angle_gamma   89.88043275
_symmetry_Int_Tables_number   1
_chemical_formula_structural   Ba5Ca5Au8
_chemical_formula_sum   'Ba5 Ca5 Au8'
_cell_volume   568.60753036
_cell_formula_units_Z   1
loop_
 _symmetry_equiv_pos_site_id
 _symmetry_equiv_pos_as_xyz
  1  'x, y, z'
loop_
 _atom_site_type_symbol
 _atom_site_label
 _atom_site_symmetry_multiplicity
 _atom_site_fract_x
 _atom_site_fract_y
 _atom_site_fract_z
 _atom_site_occupancy
  Ba  Ba0  1  0.324938  0.063325  0.305795  1
  Ba  Ba1  1  0.172546  0.567502  0.303296  1
  Ba  Ba2  1  0.824467  0.436246  0.692338  1
  Ba  Ba3  1  0.332499  0.254092  0.746100  1
  Ba  Ba4  1  0.678522  0.931286  0.693943  1
  Ca  Ca5  1  0.993361  0.995507  0.005277  1
  Ca  Ca6  1  0.834479  0.247372  0.246696  1
  Ca  Ca7  1  0.165516  0.752284  0.754308  1
  Ca  Ca8  1  0.669192  0.746630  0.248726  1
  Ca  Ca9  1  0.503479  0.504182  0.003810  1
  Au  Au10  1  0.869850  0.629899  0.001836  1
  Au  Au11  1  0.957801  0.865596  0.411377  1
  Au  Au12  1  0.121812  0.375532  0.008500  1
  Au  Au13  1  0.550737  0.372255  0.396194  1
  Au  Au14  1  0.372379  0.858726  0.008902  1
  Au  Au15  1  0.462414  0.650787  0.581136  1
  Au  Au16  1  0.027847  0.125402  0.581768  1
  Au  Au17  1  0.638161  0.123379  0.009997  1
