# generated using pymatgen
data_YThNi2Sn
_symmetry_space_group_name_H-M   'P 1'
_cell_length_a   7.53728900
_cell_length_b   7.41243900
_cell_length_c   3.76574900
_cell_angle_alpha   90.00000000
_cell_angle_beta   90.00000000
_cell_angle_gamma   90.00000000
_symmetry_Int_Tables_number   1
_chemical_formula_structural   YThNi2Sn
_chemical_formula_sum   'Y2 Th2 Ni4 Sn2'
_cell_volume   210.39124784
_cell_formula_units_Z   2
loop_
 _symmetry_equiv_pos_site_id
 _symmetry_equiv_pos_as_xyz
  1  'x, y, z'
loop_
 _atom_site_type_symbol
 _atom_site_label
 _atom_site_symmetry_multiplicity
 _atom_site_fract_x
 _atom_site_fract_y
 _atom_site_fract_z
 _atom_site_occupancy
  Y  Y0  1  0.322893  0.174062  0.500000  1
  Y  Y1  1  0.822893  0.325938  0.500000  1
  Th  Th2  1  0.175447  0.671815  0.500000  1
  Th  Th3  1  0.675447  0.828185  0.500000  1
  Ni  Ni4  1  0.879272  0.634091  0.000000  1
  Ni  Ni5  1  0.379272  0.865909  0.000000  1
  Ni  Ni6  1  0.621811  0.108988  0.000000  1
  Ni  Ni7  1  0.121811  0.391012  0.000000  1
  Sn  Sn8  1  0.500577  0.485582  0.000000  1
  Sn  Sn9  1  0.000577  0.014418  0.000000  1
