# generated using pymatgen
data_Pr3Lu(WN3)4
_symmetry_space_group_name_H-M   'P 1'
_cell_length_a   7.35790571
_cell_length_b   7.35790562
_cell_length_c   6.29434020
_cell_angle_alpha   75.75013663
_cell_angle_beta   75.75013375
_cell_angle_gamma   83.78500315
_symmetry_Int_Tables_number   1
_chemical_formula_structural   Pr3Lu(WN3)4
_chemical_formula_sum   'Pr3 Lu1 W4 N12'
_cell_volume   319.70822838
_cell_formula_units_Z   1
loop_
 _symmetry_equiv_pos_site_id
 _symmetry_equiv_pos_as_xyz
  1  'x, y, z'
loop_
 _atom_site_type_symbol
 _atom_site_label
 _atom_site_symmetry_multiplicity
 _atom_site_fract_x
 _atom_site_fract_y
 _atom_site_fract_z
 _atom_site_occupancy
  Pr  Pr0  1  0.695992  0.304008  0.750000  1
  Pr  Pr1  1  0.087327  0.912673  0.750000  1
  Pr  Pr2  1  0.305788  0.694212  0.250000  1
  Lu  Lu3  1  0.908178  0.091822  0.250000  1
  W  W4  1  0.381798  0.199610  0.246504  1
  W  W5  1  0.621751  0.800336  0.745295  1
  W  W6  1  0.800390  0.618202  0.253496  1
  W  W7  1  0.199664  0.378249  0.754705  1
  N  N8  1  0.621574  0.110421  0.165465  1
  N  N9  1  0.360641  0.334391  0.481912  1
  N  N10  1  0.999741  0.220337  0.868048  1
  N  N11  1  0.386850  0.889476  0.845425  1
  N  N12  1  0.779663  0.000259  0.631952  1
  N  N13  1  0.110524  0.613150  0.654575  1
  N  N14  1  0.889579  0.378426  0.334535  1
  N  N15  1  0.628635  0.650227  0.526505  1
  N  N16  1  0.665609  0.639359  0.018088  1
  N  N17  1  0.349773  0.371365  0.973495  1
  N  N18  1  0.991861  0.785341  0.162364  1
  N  N19  1  0.214659  0.008139  0.337636  1
