# generated using pymatgen
data_Gd2Er3(TcO6)2
_symmetry_space_group_name_H-M   'P 1'
_cell_length_a   6.81762179
_cell_length_b   6.81762305
_cell_length_c   7.52497776
_cell_angle_alpha   74.06224817
_cell_angle_beta   74.06224341
_cell_angle_gamma   49.21794598
_symmetry_Int_Tables_number   1
_chemical_formula_structural   Gd2Er3(TcO6)2
_chemical_formula_sum   'Gd2 Er3 Tc2 O12'
_cell_volume   252.47073370
_cell_formula_units_Z   1
loop_
 _symmetry_equiv_pos_site_id
 _symmetry_equiv_pos_as_xyz
  1  'x, y, z'
loop_
 _atom_site_type_symbol
 _atom_site_label
 _atom_site_symmetry_multiplicity
 _atom_site_fract_x
 _atom_site_fract_y
 _atom_site_fract_z
 _atom_site_occupancy
  Gd  Gd0  1  0.694561  0.694561  0.643858  1
  Gd  Gd1  1  0.305439  0.305439  0.356142  1
  Er  Er2  1  0.684480  0.684480  0.174375  1
  Er  Er3  1  0.315520  0.315520  0.825625  1
  Er  Er4  1  0.000000  0.000000  0.500000  1
  Tc  Tc5  1  0.786521  0.213479  0.000000  1
  Tc  Tc6  1  0.213479  0.786521  0.000000  1
  O  O7  1  0.999954  0.999954  0.205874  1
  O  O8  1  0.000046  0.000046  0.794126  1
  O  O9  1  0.586473  0.083643  0.081027  1
  O  O10  1  0.413527  0.916357  0.918973  1
  O  O11  1  0.916357  0.413527  0.918973  1
  O  O12  1  0.083643  0.586473  0.081027  1
  O  O13  1  0.500975  0.500975  0.175544  1
  O  O14  1  0.499025  0.499025  0.824456  1
  O  O15  1  0.403973  0.899592  0.422187  1
  O  O16  1  0.596027  0.100408  0.577813  1
  O  O17  1  0.100408  0.596027  0.577813  1
  O  O18  1  0.899592  0.403973  0.422187  1
