# generated using pymatgen
data_Dy6BiO12
_symmetry_space_group_name_H-M   'P 1'
_cell_length_a   6.56222946
_cell_length_b   6.56223018
_cell_length_c   6.56222902
_cell_angle_alpha   99.05769648
_cell_angle_beta   99.05770343
_cell_angle_gamma   99.05770369
_symmetry_Int_Tables_number   1
_chemical_formula_structural   Dy6BiO12
_chemical_formula_sum   'Dy6 Bi1 O12'
_cell_volume   270.73156541
_cell_formula_units_Z   1
loop_
 _symmetry_equiv_pos_site_id
 _symmetry_equiv_pos_as_xyz
  1  'x, y, z'
loop_
 _atom_site_type_symbol
 _atom_site_label
 _atom_site_symmetry_multiplicity
 _atom_site_fract_x
 _atom_site_fract_y
 _atom_site_fract_z
 _atom_site_occupancy
  Dy  Dy0  1  0.859202  0.390800  0.692918  1
  Dy  Dy1  1  0.609200  0.307082  0.140798  1
  Dy  Dy2  1  0.307082  0.140798  0.609200  1
  Dy  Dy3  1  0.692918  0.859202  0.390800  1
  Dy  Dy4  1  0.390800  0.692918  0.859202  1
  Dy  Dy5  1  0.140798  0.609200  0.307082  1
  Bi  Bi6  1  0.000000  0.000000  0.000000  1
  O  O7  1  0.929317  0.050262  0.683990  1
  O  O8  1  0.949738  0.316010  0.070683  1
  O  O9  1  0.586252  0.178263  0.434174  1
  O  O10  1  0.821737  0.565826  0.413748  1
  O  O11  1  0.316010  0.070683  0.949738  1
  O  O12  1  0.565826  0.413748  0.821737  1
  O  O13  1  0.434174  0.586252  0.178263  1
  O  O14  1  0.683990  0.929317  0.050262  1
  O  O15  1  0.178263  0.434174  0.586252  1
  O  O16  1  0.413748  0.821737  0.565826  1
  O  O17  1  0.050262  0.683990  0.929317  1
  O  O18  1  0.070683  0.949738  0.316010  1
