# generated using pymatgen
data_La2Be3PRh6
_symmetry_space_group_name_H-M   'P 1'
_cell_length_a   6.55319389
_cell_length_b   6.54994176
_cell_length_c   6.55319466
_cell_angle_alpha   129.69462238
_cell_angle_beta   116.74871289
_cell_angle_gamma   84.92263247
_symmetry_Int_Tables_number   1
_chemical_formula_structural   La2Be3PRh6
_chemical_formula_sum   'La2 Be3 P1 Rh6'
_cell_volume   184.99495755
_cell_formula_units_Z   1
loop_
 _symmetry_equiv_pos_site_id
 _symmetry_equiv_pos_as_xyz
  1  'x, y, z'
loop_
 _atom_site_type_symbol
 _atom_site_label
 _atom_site_symmetry_multiplicity
 _atom_site_fract_x
 _atom_site_fract_y
 _atom_site_fract_z
 _atom_site_occupancy
  La  La0  1  0.742048  0.003439  0.261390  1
  La  La1  1  0.258549  0.996902  0.738352  1
  Be  Be2  1  0.579308  0.347240  0.767932  1
  Be  Be3  1  0.416590  0.648813  0.232223  1
  Be  Be4  1  0.085484  0.319212  0.233727  1
  P  P5  1  0.917900  0.684122  0.766222  1
  Rh  Rh6  1  0.237628  0.498915  0.735060  1
  Rh  Rh7  1  0.743183  0.001664  0.743876  1
  Rh  Rh8  1  0.763854  0.498915  0.261286  1
  Rh  Rh9  1  0.257788  0.001664  0.258482  1
  Rh  Rh10  1  0.503237  0.499557  0.505127  1
  Rh  Rh11  1  0.994431  0.499557  0.996321  1
