# generated using pymatgen
data_Ta4Nb5(NiP2)2
_symmetry_space_group_name_H-M   'P 1'
_cell_length_a   11.52036700
_cell_length_b   11.52036700
_cell_length_c   3.48137100
_cell_angle_alpha   90.00000000
_cell_angle_beta   90.00000000
_cell_angle_gamma   90.00000000
_symmetry_Int_Tables_number   1
_chemical_formula_structural   Ta4Nb5(NiP2)2
_chemical_formula_sum   'Ta8 Nb10 Ni4 P8'
_cell_volume   462.04357579
_cell_formula_units_Z   2
loop_
 _symmetry_equiv_pos_site_id
 _symmetry_equiv_pos_as_xyz
  1  'x, y, z'
loop_
 _atom_site_type_symbol
 _atom_site_label
 _atom_site_symmetry_multiplicity
 _atom_site_fract_x
 _atom_site_fract_y
 _atom_site_fract_z
 _atom_site_occupancy
  Ta  Ta0  1  0.396689  0.683647  0.500000  1
  Ta  Ta1  1  0.603311  0.316353  0.500000  1
  Ta  Ta2  1  0.683647  0.603311  0.500000  1
  Ta  Ta3  1  0.316353  0.396689  0.500000  1
  Ta  Ta4  1  0.101821  0.398533  0.000000  1
  Ta  Ta5  1  0.398533  0.898179  0.000000  1
  Ta  Ta6  1  0.601467  0.101821  0.000000  1
  Ta  Ta7  1  0.898179  0.601467  0.000000  1
  Nb  Nb8  1  0.000000  0.000000  0.000000  1
  Nb  Nb9  1  0.500000  0.500000  0.000000  1
  Nb  Nb10  1  0.102309  0.183930  0.500000  1
  Nb  Nb11  1  0.183930  0.897691  0.500000  1
  Nb  Nb12  1  0.816070  0.102309  0.500000  1
  Nb  Nb13  1  0.897691  0.816070  0.500000  1
  Nb  Nb14  1  0.394095  0.107165  0.500000  1
  Nb  Nb15  1  0.107165  0.605905  0.500000  1
  Nb  Nb16  1  0.892835  0.394095  0.500000  1
  Nb  Nb17  1  0.605905  0.892835  0.500000  1
  Ni  Ni18  1  0.265308  0.237164  0.000000  1
  Ni  Ni19  1  0.237164  0.734692  0.000000  1
  Ni  Ni20  1  0.762836  0.265308  0.000000  1
  Ni  Ni21  1  0.734692  0.762836  0.000000  1
  P  P22  1  0.226801  0.053454  0.000000  1
  P  P23  1  0.053454  0.773199  0.000000  1
  P  P24  1  0.946546  0.226801  0.000000  1
  P  P25  1  0.773199  0.946546  0.000000  1
  P  P26  1  0.274186  0.551745  0.000000  1
  P  P27  1  0.725814  0.448255  0.000000  1
  P  P28  1  0.551745  0.725814  0.000000  1
  P  P29  1  0.448255  0.274186  0.000000  1
