# generated using pymatgen
data_Tb9Ho11CoBi8Rh3
_symmetry_space_group_name_H-M   'P 1'
_cell_length_a   8.02883716
_cell_length_b   8.98661800
_cell_length_c   12.45885981
_cell_angle_alpha   90.00000000
_cell_angle_beta   89.79016354
_cell_angle_gamma   90.00000000
_symmetry_Int_Tables_number   1
_chemical_formula_structural   Tb9Ho11CoBi8Rh3
_chemical_formula_sum   'Tb9 Ho11 Co1 Bi8 Rh3'
_cell_volume   898.92677707
_cell_formula_units_Z   1
loop_
 _symmetry_equiv_pos_site_id
 _symmetry_equiv_pos_as_xyz
  1  'x, y, z'
loop_
 _atom_site_type_symbol
 _atom_site_label
 _atom_site_symmetry_multiplicity
 _atom_site_fract_x
 _atom_site_fract_y
 _atom_site_fract_z
 _atom_site_occupancy
  Tb  Tb0  1  0.345608  0.750000  0.699834  1
  Tb  Tb1  1  0.657429  0.250000  0.293694  1
  Tb  Tb2  1  0.842710  0.250000  0.793927  1
  Tb  Tb3  1  0.157198  0.750000  0.205769  1
  Tb  Tb4  1  0.879278  0.750000  0.806038  1
  Tb  Tb5  1  0.121397  0.250000  0.193499  1
  Tb  Tb6  1  0.378586  0.250000  0.693795  1
  Tb  Tb7  1  0.615399  0.750000  0.311468  1
  Tb  Tb8  1  0.950281  0.250000  0.501424  1
  Ho  Ho9  1  0.676432  0.545322  0.564019  1
  Ho  Ho10  1  0.324211  0.465799  0.436654  1
  Ho  Ho11  1  0.177796  0.457412  0.934370  1
  Ho  Ho12  1  0.324211  0.034201  0.436654  1
  Ho  Ho13  1  0.821695  0.541542  0.065501  1
  Ho  Ho14  1  0.676432  0.954678  0.564019  1
  Ho  Ho15  1  0.821695  0.958458  0.065501  1
  Ho  Ho16  1  0.177796  0.042588  0.934370  1
  Ho  Ho17  1  0.051546  0.750000  0.498740  1
  Ho  Ho18  1  0.547631  0.250000  0.000893  1
  Ho  Ho19  1  0.450809  0.750000  0.998054  1
  Co  Co20  1  0.432482  0.750000  0.491740  1
  Bi  Bi21  1  0.570698  0.509837  0.826676  1
  Bi  Bi22  1  0.429399  0.491171  0.173190  1
  Bi  Bi23  1  0.071742  0.491000  0.672524  1
  Bi  Bi24  1  0.429399  0.008829  0.173190  1
  Bi  Bi25  1  0.928796  0.510332  0.327614  1
  Bi  Bi26  1  0.570698  0.990163  0.826676  1
  Bi  Bi27  1  0.928796  0.989668  0.327614  1
  Bi  Bi28  1  0.071742  0.009000  0.672524  1
  Rh  Rh29  1  0.070587  0.750000  0.990593  1
  Rh  Rh30  1  0.928035  0.250000  0.010225  1
  Rh  Rh31  1  0.569482  0.250000  0.509214  1
