# generated using pymatgen
data_Ti8MnGaBi4
_symmetry_space_group_name_H-M   'P 1'
_cell_length_a   7.87578912
_cell_length_b   7.87438679
_cell_length_c   7.87578928
_cell_angle_alpha   95.79475821
_cell_angle_beta   95.78907549
_cell_angle_gamma   142.97074444
_symmetry_Int_Tables_number   1
_chemical_formula_structural   Ti8MnGaBi4
_chemical_formula_sum   'Ti8 Mn1 Ga1 Bi4'
_cell_volume   278.89637292
_cell_formula_units_Z   1
loop_
 _symmetry_equiv_pos_site_id
 _symmetry_equiv_pos_as_xyz
  1  'x, y, z'
loop_
 _atom_site_type_symbol
 _atom_site_label
 _atom_site_symmetry_multiplicity
 _atom_site_fract_x
 _atom_site_fract_y
 _atom_site_fract_z
 _atom_site_occupancy
  Ti  Ti0  1  0.707818  0.592653  0.281184  1
  Ti  Ti1  1  0.311464  0.426519  0.718587  1
  Ti  Ti2  1  0.592852  0.311540  0.885093  1
  Ti  Ti3  1  0.073553  0.188460  0.281312  1
  Ti  Ti4  1  0.792067  0.073481  0.884945  1
  Ti  Ti5  1  0.426379  0.707788  0.115141  1
  Ti  Ti6  1  0.907353  0.792212  0.718590  1
  Ti  Ti7  1  0.188531  0.907347  0.115165  1
  Mn  Mn8  1  0.750210  0.750000  0.000210  1
  Ga  Ga9  1  0.250235  0.250000  0.000235  1
  Bi  Bi10  1  0.139227  0.639451  0.778833  1
  Bi  Bi11  1  0.360424  0.139197  0.499701  1
  Bi  Bi12  1  0.860504  0.360803  0.221226  1
  Bi  Bi13  1  0.639382  0.860549  0.499776  1
