# generated using pymatgen
data_Nd6GaPBr6
_symmetry_space_group_name_H-M   'P 1'
_cell_length_a   10.38439324
_cell_length_b   10.38439405
_cell_length_c   10.40377102
_cell_angle_alpha   109.42193767
_cell_angle_beta   109.42194787
_cell_angle_gamma   109.49436766
_symmetry_Int_Tables_number   1
_chemical_formula_structural   Nd6GaPBr6
_chemical_formula_sum   'Nd12 Ga2 P2 Br12'
_cell_volume   864.43933955
_cell_formula_units_Z   2
loop_
 _symmetry_equiv_pos_site_id
 _symmetry_equiv_pos_as_xyz
  1  'x, y, z'
loop_
 _atom_site_type_symbol
 _atom_site_label
 _atom_site_symmetry_multiplicity
 _atom_site_fract_x
 _atom_site_fract_y
 _atom_site_fract_z
 _atom_site_occupancy
  Nd  Nd0  1  0.476507  0.492863  0.235565  1
  Nd  Nd1  1  0.757299  0.240942  0.264435  1
  Nd  Nd2  1  0.757247  0.014946  0.492078  1
  Nd  Nd3  1  0.234831  0.477131  0.492078  1
  Nd  Nd4  1  0.259058  0.742701  0.235565  1
  Nd  Nd5  1  0.022869  0.265169  0.007922  1
  Nd  Nd6  1  0.007137  0.023493  0.264435  1
  Nd  Nd7  1  0.485054  0.742753  0.007922  1
  Nd  Nd8  1  0.492106  0.242106  0.484211  1
  Nd  Nd9  1  0.015815  0.484185  0.750000  1
  Nd  Nd10  1  0.257894  0.007894  0.015789  1
  Nd  Nd11  1  0.234185  0.265815  0.750000  1
  Ga  Ga12  1  0.249823  0.250177  0.250000  1
  Ga  Ga13  1  0.500177  0.999823  0.250000  1
  P  P14  1  0.000321  0.250321  0.500642  1
  P  P15  1  0.249679  0.499679  0.999358  1
  Br  Br16  1  0.249646  0.753819  0.744727  1
  Br  Br17  1  0.509091  0.504918  0.755273  1
  Br  Br18  1  0.988914  0.742733  0.994008  1
  Br  Br19  1  0.746181  0.250354  0.755273  1
  Br  Br20  1  0.995082  0.990909  0.744727  1
  Br  Br21  1  0.248725  0.994905  0.505992  1
  Br  Br22  1  0.757267  0.511086  0.505992  1
  Br  Br23  1  0.505095  0.251275  0.994008  1
  Br  Br24  1  0.755616  0.744384  0.250000  1
  Br  Br25  1  0.744789  0.994789  0.989579  1
  Br  Br26  1  0.994384  0.505616  0.250000  1
  Br  Br27  1  0.505211  0.755211  0.510421  1
