# generated using pymatgen
data_Pr2Er14Cd4Ir3Pd
_symmetry_space_group_name_H-M   'P 1'
_cell_length_a   9.61195062
_cell_length_b   9.61194980
_cell_length_c   9.60872804
_cell_angle_alpha   60.20249965
_cell_angle_beta   60.20250305
_cell_angle_gamma   59.87844217
_symmetry_Int_Tables_number   1
_chemical_formula_structural   Pr2Er14Cd4Ir3Pd
_chemical_formula_sum   'Pr2 Er14 Cd4 Ir3 Pd1'
_cell_volume   629.06204282
_cell_formula_units_Z   1
loop_
 _symmetry_equiv_pos_site_id
 _symmetry_equiv_pos_as_xyz
  1  'x, y, z'
loop_
 _atom_site_type_symbol
 _atom_site_label
 _atom_site_symmetry_multiplicity
 _atom_site_fract_x
 _atom_site_fract_y
 _atom_site_fract_z
 _atom_site_occupancy
  Pr  Pr0  1  0.571757  0.571757  0.930801  1
  Pr  Pr1  1  0.932067  0.932067  0.567845  1
  Er  Er2  1  0.348737  0.348737  0.342113  1
  Er  Er3  1  0.355570  0.355570  0.950493  1
  Er  Er4  1  0.349610  0.946971  0.356616  1
  Er  Er5  1  0.946971  0.349610  0.356616  1
  Er  Er6  1  0.805573  0.189126  0.188222  1
  Er  Er7  1  0.186916  0.812785  0.812002  1
  Er  Er8  1  0.189126  0.805573  0.188222  1
  Er  Er9  1  0.812785  0.186916  0.812002  1
  Er  Er10  1  0.191450  0.191450  0.805296  1
  Er  Er11  1  0.809896  0.809896  0.187467  1
  Er  Er12  1  0.943722  0.557307  0.557382  1
  Er  Er13  1  0.560344  0.943550  0.941722  1
  Er  Er14  1  0.557307  0.943722  0.557382  1
  Er  Er15  1  0.943550  0.560344  0.941722  1
  Cd  Cd16  1  0.581838  0.581838  0.577822  1
  Cd  Cd17  1  0.580497  0.580497  0.258545  1
  Cd  Cd18  1  0.576334  0.258229  0.582054  1
  Cd  Cd19  1  0.258229  0.576334  0.582054  1
  Ir  Ir20  1  0.144516  0.144516  0.574902  1
  Ir  Ir21  1  0.134319  0.573572  0.144655  1
  Ir  Ir22  1  0.573572  0.134319  0.144655  1
  Pd  Pd23  1  0.145311  0.145311  0.139407  1
