# generated using pymatgen
data_RhNF10
_symmetry_space_group_name_H-M   'P 1'
_cell_length_a   5.56769327
_cell_length_b   5.56769404
_cell_length_c   6.29076010
_cell_angle_alpha   92.00332476
_cell_angle_beta   87.99668037
_cell_angle_gamma   101.87391820
_symmetry_Int_Tables_number   1
_chemical_formula_structural   RhNF10
_chemical_formula_sum   'Rh1 N1 F10'
_cell_volume   190.64245368
_cell_formula_units_Z   1
loop_
 _symmetry_equiv_pos_site_id
 _symmetry_equiv_pos_as_xyz
  1  'x, y, z'
loop_
 _atom_site_type_symbol
 _atom_site_label
 _atom_site_symmetry_multiplicity
 _atom_site_fract_x
 _atom_site_fract_y
 _atom_site_fract_z
 _atom_site_occupancy
  Rh  Rh0  1  0.311560  0.688441  0.243131  1
  N  N1  1  0.762896  0.237105  0.734466  1
  F  F2  1  0.151665  0.848336  0.044729  1
  F  F3  1  0.040511  0.418208  0.245939  1
  F  F4  1  0.581793  0.959490  0.245939  1
  F  F5  1  0.161928  0.838073  0.477354  1
  F  F6  1  0.472025  0.527976  0.440525  1
  F  F7  1  0.875375  0.124626  0.580129  1
  F  F8  1  0.519652  0.167109  0.716782  1
  F  F9  1  0.832892  0.480349  0.716782  1
  F  F10  1  0.827742  0.172259  0.924007  1
  F  F11  1  0.461967  0.538034  0.010213  1
