# generated using pymatgen
data_Nd16HoEr3Sn16
_symmetry_space_group_name_H-M   'P 1'
_cell_length_a   8.19634800
_cell_length_b   8.38896002
_cell_length_c   15.87981300
_cell_angle_alpha   90.00000000
_cell_angle_beta   90.00000000
_cell_angle_gamma   90.00412526
_symmetry_Int_Tables_number   1
_chemical_formula_structural   Nd16HoEr3Sn16
_chemical_formula_sum   'Nd16 Ho1 Er3 Sn16'
_cell_volume   1091.87745012
_cell_formula_units_Z   1
loop_
 _symmetry_equiv_pos_site_id
 _symmetry_equiv_pos_as_xyz
  1  'x, y, z'
loop_
 _atom_site_type_symbol
 _atom_site_label
 _atom_site_symmetry_multiplicity
 _atom_site_fract_x
 _atom_site_fract_y
 _atom_site_fract_z
 _atom_site_occupancy
  Nd  Nd0  1  0.017919  0.180542  0.401767  1
  Nd  Nd1  1  0.365628  0.838364  0.121337  1
  Nd  Nd2  1  0.134605  0.338206  0.621280  1
  Nd  Nd3  1  0.482027  0.680753  0.901941  1
  Nd  Nd4  1  0.865131  0.662045  0.121370  1
  Nd  Nd5  1  0.134605  0.338206  0.878720  1
  Nd  Nd6  1  0.482027  0.680753  0.598059  1
  Nd  Nd7  1  0.634606  0.161837  0.621141  1
  Nd  Nd8  1  0.865131  0.662045  0.378630  1
  Nd  Nd9  1  0.017919  0.180542  0.098233  1
  Nd  Nd10  1  0.981941  0.819172  0.901973  1
  Nd  Nd11  1  0.634606  0.161837  0.878859  1
  Nd  Nd12  1  0.518327  0.319099  0.098237  1
  Nd  Nd13  1  0.365628  0.838364  0.378663  1
  Nd  Nd14  1  0.981941  0.819172  0.598027  1
  Nd  Nd15  1  0.518327  0.319099  0.401763  1
  Ho  Ho16  1  0.197052  0.502060  0.250000  1
  Er  Er17  1  0.697651  0.997861  0.250000  1
  Er  Er18  1  0.302505  0.002008  0.750000  1
  Er  Er19  1  0.802454  0.497960  0.750000  1
  Sn  Sn20  1  0.793922  0.465434  0.544292  1
  Sn  Sn21  1  0.706126  0.965309  0.455520  1
  Sn  Sn22  1  0.676378  0.852208  0.750000  1
  Sn  Sn23  1  0.206168  0.534808  0.455850  1
  Sn  Sn24  1  0.293796  0.034567  0.955644  1
  Sn  Sn25  1  0.823738  0.351963  0.250000  1
  Sn  Sn26  1  0.793922  0.465434  0.955708  1
  Sn  Sn27  1  0.561680  0.616148  0.250000  1
  Sn  Sn28  1  0.206168  0.534808  0.044150  1
  Sn  Sn29  1  0.438492  0.383833  0.750000  1
  Sn  Sn30  1  0.176185  0.647992  0.750000  1
  Sn  Sn31  1  0.938220  0.115980  0.750000  1
  Sn  Sn32  1  0.293796  0.034567  0.544356  1
  Sn  Sn33  1  0.706126  0.965309  0.044480  1
  Sn  Sn34  1  0.323773  0.147646  0.250000  1
  Sn  Sn35  1  0.061479  0.884069  0.250000  1
