# generated using pymatgen
data_Eu4Ni3Sb4Pt
_symmetry_space_group_name_H-M   'P 1'
_cell_length_a   4.58586500
_cell_length_b   7.55925240
_cell_length_c   7.73305188
_cell_angle_alpha   89.51990104
_cell_angle_beta   90.00000000
_cell_angle_gamma   90.00000000
_symmetry_Int_Tables_number   1
_chemical_formula_structural   Eu4Ni3Sb4Pt
_chemical_formula_sum   'Eu4 Ni3 Sb4 Pt1'
_cell_volume   268.06233099
_cell_formula_units_Z   1
loop_
 _symmetry_equiv_pos_site_id
 _symmetry_equiv_pos_as_xyz
  1  'x, y, z'
loop_
 _atom_site_type_symbol
 _atom_site_label
 _atom_site_symmetry_multiplicity
 _atom_site_fract_x
 _atom_site_fract_y
 _atom_site_fract_z
 _atom_site_occupancy
  Eu  Eu0  1  0.750000  0.490647  0.804097  1
  Eu  Eu1  1  0.250000  0.013959  0.300762  1
  Eu  Eu2  1  0.750000  0.980716  0.698144  1
  Eu  Eu3  1  0.250000  0.506102  0.195202  1
  Ni  Ni4  1  0.250000  0.817377  0.916537  1
  Ni  Ni5  1  0.250000  0.321359  0.583110  1
  Ni  Ni6  1  0.750000  0.679035  0.418027  1
  Sb  Sb7  1  0.250000  0.689525  0.590090  1
  Sb  Sb8  1  0.250000  0.182827  0.895054  1
  Sb  Sb9  1  0.750000  0.315571  0.420888  1
  Sb  Sb10  1  0.750000  0.802675  0.093273  1
  Pt  Pt11  1  0.750000  0.200207  0.084818  1
