# generated using pymatgen
data_Gd17Tm3Si15Pt
_symmetry_space_group_name_H-M   'P 1'
_cell_length_a   7.42686120
_cell_length_b   7.67006252
_cell_length_c   14.59603500
_cell_angle_alpha   89.76240679
_cell_angle_beta   89.67267251
_cell_angle_gamma   90.21078173
_symmetry_Int_Tables_number   1
_chemical_formula_structural   Gd17Tm3Si15Pt
_chemical_formula_sum   'Gd17 Tm3 Si15 Pt1'
_cell_volume   831.42926955
_cell_formula_units_Z   1
loop_
 _symmetry_equiv_pos_site_id
 _symmetry_equiv_pos_as_xyz
  1  'x, y, z'
loop_
 _atom_site_type_symbol
 _atom_site_label
 _atom_site_symmetry_multiplicity
 _atom_site_fract_x
 _atom_site_fract_y
 _atom_site_fract_z
 _atom_site_occupancy
  Gd  Gd0  1  0.354551  0.009482  0.752050  1
  Gd  Gd1  1  0.974804  0.816963  0.098791  1
  Gd  Gd2  1  0.471970  0.682616  0.401330  1
  Gd  Gd3  1  0.527205  0.322206  0.901109  1
  Gd  Gd4  1  0.028369  0.183137  0.598083  1
  Gd  Gd5  1  0.029328  0.182499  0.901230  1
  Gd  Gd6  1  0.529068  0.317386  0.598039  1
  Gd  Gd7  1  0.473657  0.683160  0.101265  1
  Gd  Gd8  1  0.970687  0.817062  0.400640  1
  Gd  Gd9  1  0.683006  0.816365  0.880965  1
  Gd  Gd10  1  0.179625  0.680677  0.621059  1
  Gd  Gd11  1  0.817460  0.332072  0.120018  1
  Gd  Gd12  1  0.314482  0.176829  0.376255  1
  Gd  Gd13  1  0.319537  0.178360  0.123781  1
  Gd  Gd14  1  0.817987  0.321513  0.377456  1
  Gd  Gd15  1  0.179472  0.674189  0.878306  1
  Gd  Gd16  1  0.683157  0.820649  0.621721  1
  Tm  Tm17  1  0.647360  0.992988  0.249772  1
  Tm  Tm18  1  0.147302  0.510507  0.249034  1
  Tm  Tm19  1  0.848655  0.487647  0.754384  1
  Si  Si20  1  0.765014  0.630700  0.251871  1
  Si  Si21  1  0.264580  0.871007  0.250951  1
  Si  Si22  1  0.738441  0.126365  0.748816  1
  Si  Si23  1  0.234780  0.375624  0.746678  1
  Si  Si24  1  0.017763  0.102907  0.248840  1
  Si  Si25  1  0.520815  0.398911  0.251314  1
  Si  Si26  1  0.474357  0.602024  0.745970  1
  Si  Si27  1  0.975935  0.898027  0.749443  1
  Si  Si28  1  0.355141  0.971943  0.538901  1
  Si  Si29  1  0.645686  0.027392  0.042766  1
  Si  Si30  1  0.146230  0.471132  0.459345  1
  Si  Si31  1  0.155784  0.473463  0.043297  1
  Si  Si32  1  0.642857  0.028403  0.458513  1
  Si  Si33  1  0.355192  0.968889  0.962730  1
  Si  Si34  1  0.855753  0.527039  0.540347  1
  Pt  Pt35  1  0.853991  0.519874  0.954931  1
