# generated using pymatgen
data_Ac6PtO12
_symmetry_space_group_name_H-M   'P 1'
_cell_length_a   7.06994707
_cell_length_b   7.06994614
_cell_length_c   7.06994600
_cell_angle_alpha   98.50217493
_cell_angle_beta   98.50218200
_cell_angle_gamma   98.50218091
_symmetry_Int_Tables_number   1
_chemical_formula_structural   Ac6PtO12
_chemical_formula_sum   'Ac6 Pt1 O12'
_cell_volume   340.41842239
_cell_formula_units_Z   1
loop_
 _symmetry_equiv_pos_site_id
 _symmetry_equiv_pos_as_xyz
  1  'x, y, z'
loop_
 _atom_site_type_symbol
 _atom_site_label
 _atom_site_symmetry_multiplicity
 _atom_site_fract_x
 _atom_site_fract_y
 _atom_site_fract_z
 _atom_site_occupancy
  Ac  Ac0  1  0.142254  0.299767  0.604271  1
  Ac  Ac1  1  0.395729  0.857746  0.700233  1
  Ac  Ac2  1  0.700233  0.395729  0.857746  1
  Ac  Ac3  1  0.299767  0.604271  0.142254  1
  Ac  Ac4  1  0.604271  0.142254  0.299767  1
  Ac  Ac5  1  0.857746  0.700233  0.395729  1
  Pt  Pt6  1  0.000000  0.000000  0.000000  1
  O  O7  1  0.065304  0.281822  0.967594  1
  O  O8  1  0.032406  0.934696  0.718178  1
  O  O9  1  0.405567  0.554377  0.822120  1
  O  O10  1  0.177880  0.594433  0.445623  1
  O  O11  1  0.718178  0.032406  0.934696  1
  O  O12  1  0.445623  0.177880  0.594433  1
  O  O13  1  0.554377  0.822120  0.405567  1
  O  O14  1  0.281822  0.967594  0.065304  1
  O  O15  1  0.822120  0.405567  0.554377  1
  O  O16  1  0.594433  0.445623  0.177880  1
  O  O17  1  0.967594  0.065304  0.281822  1
  O  O18  1  0.934696  0.718178  0.032406  1
