# generated using pymatgen
data_Pr6Ga8Si3Ge
_symmetry_space_group_name_H-M   'P 1'
_cell_length_a   4.23838830
_cell_length_b   4.31120390
_cell_length_c   22.08387214
_cell_angle_alpha   84.39843762
_cell_angle_beta   84.49335426
_cell_angle_gamma   89.99998198
_symmetry_Int_Tables_number   1
_chemical_formula_structural   Pr6Ga8Si3Ge
_chemical_formula_sum   'Pr6 Ga8 Si3 Ge1'
_cell_volume   399.73060714
_cell_formula_units_Z   1
loop_
 _symmetry_equiv_pos_site_id
 _symmetry_equiv_pos_as_xyz
  1  'x, y, z'
loop_
 _atom_site_type_symbol
 _atom_site_label
 _atom_site_symmetry_multiplicity
 _atom_site_fract_x
 _atom_site_fract_y
 _atom_site_fract_z
 _atom_site_occupancy
  Pr  Pr0  1  0.958685  0.708685  0.082629  1
  Pr  Pr1  1  0.290499  0.040499  0.419004  1
  Pr  Pr2  1  0.623769  0.373769  0.752462  1
  Pr  Pr3  1  0.376226  0.626226  0.247548  1
  Pr  Pr4  1  0.709173  0.959173  0.581652  1
  Pr  Pr5  1  0.041310  0.291310  0.917380  1
  Ga  Ga6  1  0.819831  0.569831  0.360338  1
  Ga  Ga7  1  0.152962  0.902962  0.694076  1
  Ga  Ga8  1  0.432160  0.182160  0.135680  1
  Ga  Ga9  1  0.764085  0.514085  0.471830  1
  Ga  Ga10  1  0.096953  0.846953  0.806095  1
  Ga  Ga11  1  0.846499  0.096499  0.307004  1
  Ga  Ga12  1  0.180459  0.430459  0.639082  1
  Ga  Ga13  1  0.513633  0.763633  0.972733  1
  Si  Si14  1  0.235523  0.485523  0.528954  1
  Si  Si15  1  0.568714  0.818714  0.862571  1
  Si  Si16  1  0.486911  0.236911  0.026178  1
  Ge  Ge17  1  0.902610  0.152610  0.194782  1
