# generated using pymatgen
data_Er16In6CoAu
_symmetry_space_group_name_H-M   'P 1'
_cell_length_a   10.43191000
_cell_length_b   10.43190944
_cell_length_c   6.87462300
_cell_angle_alpha   90.00000000
_cell_angle_beta   90.00000000
_cell_angle_gamma   119.99999544
_symmetry_Int_Tables_number   1
_chemical_formula_structural   Er16In6CoAu
_chemical_formula_sum   'Er16 In6 Co1 Au1'
_cell_volume   647.89880394
_cell_formula_units_Z   1
loop_
 _symmetry_equiv_pos_site_id
 _symmetry_equiv_pos_as_xyz
  1  'x, y, z'
loop_
 _atom_site_type_symbol
 _atom_site_label
 _atom_site_symmetry_multiplicity
 _atom_site_fract_x
 _atom_site_fract_y
 _atom_site_fract_z
 _atom_site_occupancy
  Er  Er0  1  0.525512  0.051024  0.797074  1
  Er  Er1  1  0.948976  0.474488  0.797074  1
  Er  Er2  1  0.525512  0.474488  0.797074  1
  Er  Er3  1  0.465067  0.930135  0.294194  1
  Er  Er4  1  0.069865  0.534933  0.294194  1
  Er  Er5  1  0.465067  0.534933  0.294194  1
  Er  Er6  1  0.826777  0.653555  0.501002  1
  Er  Er7  1  0.346445  0.173223  0.501002  1
  Er  Er8  1  0.826777  0.173223  0.501002  1
  Er  Er9  1  0.177727  0.355453  0.005706  1
  Er  Er10  1  0.644547  0.822273  0.005706  1
  Er  Er11  1  0.177727  0.822273  0.005706  1
  Er  Er12  1  0.666667  0.333333  0.155440  1
  Er  Er13  1  0.333333  0.666667  0.684247  1
  Er  Er14  1  0.000000  0.000000  0.776959  1
  Er  Er15  1  0.000000  0.000000  0.276511  1
  In  In16  1  0.837278  0.674558  0.031863  1
  In  In17  1  0.325442  0.162722  0.031863  1
  In  In18  1  0.837278  0.162722  0.031863  1
  In  In19  1  0.163149  0.326298  0.538616  1
  In  In20  1  0.673702  0.836851  0.538616  1
  In  In21  1  0.163149  0.836851  0.538616  1
  Co  Co22  1  0.333333  0.666667  0.070527  1
  Au  Au23  1  0.666667  0.333333  0.566856  1
