# generated using pymatgen
data_Na4Ca2GeP4
_symmetry_space_group_name_H-M   'P 1'
_cell_length_a   9.25791971
_cell_length_b   9.25792018
_cell_length_c   7.00124998
_cell_angle_alpha   88.98732530
_cell_angle_beta   88.98731951
_cell_angle_gamma   119.78987484
_symmetry_Int_Tables_number   1
_chemical_formula_structural   Na4Ca2GeP4
_chemical_formula_sum   'Na8 Ca4 Ge2 P8'
_cell_volume   520.44994127
_cell_formula_units_Z   2
loop_
 _symmetry_equiv_pos_site_id
 _symmetry_equiv_pos_as_xyz
  1  'x, y, z'
loop_
 _atom_site_type_symbol
 _atom_site_label
 _atom_site_symmetry_multiplicity
 _atom_site_fract_x
 _atom_site_fract_y
 _atom_site_fract_z
 _atom_site_occupancy
  Na  Na0  1  0.473643  0.942999  0.384329  1
  Na  Na1  1  0.942999  0.473643  0.884329  1
  Na  Na2  1  0.860897  0.715531  0.180345  1
  Na  Na3  1  0.291068  0.138294  0.214717  1
  Na  Na4  1  0.849370  0.141812  0.198595  1
  Na  Na5  1  0.138294  0.291068  0.714717  1
  Na  Na6  1  0.715531  0.860897  0.680345  1
  Na  Na7  1  0.141812  0.849370  0.698595  1
  Ca  Ca8  1  0.052073  0.527591  0.385027  1
  Ca  Ca9  1  0.479714  0.529674  0.381036  1
  Ca  Ca10  1  0.527591  0.052073  0.885027  1
  Ca  Ca11  1  0.529674  0.479714  0.881036  1
  Ge  Ge12  1  0.662781  0.329191  0.498398  1
  Ge  Ge13  1  0.329191  0.662781  0.998398  1
  P  P14  1  0.199592  0.386479  0.125036  1
  P  P15  1  0.613197  0.803412  0.089633  1
  P  P16  1  0.198125  0.809315  0.105007  1
  P  P17  1  0.803412  0.613197  0.589633  1
  P  P18  1  0.386479  0.199592  0.625036  1
  P  P19  1  0.809315  0.198125  0.605007  1
  P  P20  1  0.659928  0.335160  0.157857  1
  P  P21  1  0.335160  0.659928  0.657857  1
