# generated using pymatgen
data_Ho2Mn3Ni9As7
_symmetry_space_group_name_H-M   'P 1'
_cell_length_a   9.48072400
_cell_length_b   9.48072378
_cell_length_c   3.82247500
_cell_angle_alpha   90.00000000
_cell_angle_beta   90.00000000
_cell_angle_gamma   120.00000170
_symmetry_Int_Tables_number   1
_chemical_formula_structural   Ho2Mn3Ni9As7
_chemical_formula_sum   'Ho2 Mn3 Ni9 As7'
_cell_volume   297.54884948
_cell_formula_units_Z   1
loop_
 _symmetry_equiv_pos_site_id
 _symmetry_equiv_pos_as_xyz
  1  'x, y, z'
loop_
 _atom_site_type_symbol
 _atom_site_label
 _atom_site_symmetry_multiplicity
 _atom_site_fract_x
 _atom_site_fract_y
 _atom_site_fract_z
 _atom_site_occupancy
  Ho  Ho0  1  0.333333  0.666667  0.000000  1
  Ho  Ho1  1  0.666667  0.333333  0.500000  1
  Mn  Mn2  1  0.220590  0.118978  0.500000  1
  Mn  Mn3  1  0.881022  0.101611  0.500000  1
  Mn  Mn4  1  0.898389  0.779410  0.500000  1
  Ni  Ni5  1  0.127315  0.280423  0.000000  1
  Ni  Ni6  1  0.719577  0.846892  0.000000  1
  Ni  Ni7  1  0.153108  0.872685  0.000000  1
  Ni  Ni8  1  0.432514  0.371386  0.000000  1
  Ni  Ni9  1  0.628614  0.061128  0.000000  1
  Ni  Ni10  1  0.938872  0.567486  0.000000  1
  Ni  Ni11  1  0.053264  0.430837  0.500000  1
  Ni  Ni12  1  0.569163  0.622426  0.500000  1
  Ni  Ni13  1  0.377574  0.946736  0.500000  1
  As  As14  1  0.296834  0.410303  0.500000  1
  As  As15  1  0.589697  0.886531  0.500000  1
  As  As16  1  0.113469  0.703166  0.500000  1
  As  As17  1  0.410776  0.113709  0.000000  1
  As  As18  1  0.886291  0.297068  0.000000  1
  As  As19  1  0.702932  0.589224  0.000000  1
  As  As20  1  0.000000  0.000000  0.000000  1
