# generated using pymatgen
data_Tb5Nd3(HgRh)2
_symmetry_space_group_name_H-M   'P 1'
_cell_length_a   9.74612985
_cell_length_b   9.74613003
_cell_length_c   9.74613000
_cell_angle_alpha   60.00000011
_cell_angle_beta   59.99999950
_cell_angle_gamma   60.00000224
_symmetry_Int_Tables_number   1
_chemical_formula_structural   Tb5Nd3(HgRh)2
_chemical_formula_sum   'Tb10 Nd6 Hg4 Rh4'
_cell_volume   654.60844402
_cell_formula_units_Z   2
loop_
 _symmetry_equiv_pos_site_id
 _symmetry_equiv_pos_as_xyz
  1  'x, y, z'
loop_
 _atom_site_type_symbol
 _atom_site_label
 _atom_site_symmetry_multiplicity
 _atom_site_fract_x
 _atom_site_fract_y
 _atom_site_fract_z
 _atom_site_occupancy
  Tb  Tb0  1  0.599992  0.599992  0.599992  1
  Tb  Tb1  1  0.599992  0.599992  0.200024  1
  Tb  Tb2  1  0.599992  0.200024  0.599992  1
  Tb  Tb3  1  0.200024  0.599992  0.599992  1
  Tb  Tb4  1  0.061865  0.438135  0.438135  1
  Tb  Tb5  1  0.438135  0.061865  0.061865  1
  Tb  Tb6  1  0.438135  0.061865  0.438135  1
  Tb  Tb7  1  0.061865  0.438135  0.061865  1
  Tb  Tb8  1  0.438135  0.438135  0.061865  1
  Tb  Tb9  1  0.061865  0.061865  0.438135  1
  Nd  Nd10  1  0.189628  0.810372  0.810372  1
  Nd  Nd11  1  0.810372  0.189628  0.189628  1
  Nd  Nd12  1  0.810372  0.189628  0.810372  1
  Nd  Nd13  1  0.189628  0.810372  0.189628  1
  Nd  Nd14  1  0.810372  0.810372  0.189628  1
  Nd  Nd15  1  0.189628  0.189628  0.810372  1
  Hg  Hg16  1  0.833107  0.833107  0.833107  1
  Hg  Hg17  1  0.833107  0.833107  0.500679  1
  Hg  Hg18  1  0.833107  0.500679  0.833107  1
  Hg  Hg19  1  0.500679  0.833107  0.833107  1
  Rh  Rh20  1  0.392233  0.392233  0.392233  1
  Rh  Rh21  1  0.392233  0.392233  0.823300  1
  Rh  Rh22  1  0.392233  0.823300  0.392233  1
  Rh  Rh23  1  0.823300  0.392233  0.392233  1
