# generated using pymatgen
data_Ti6V4Ga5As
_symmetry_space_group_name_H-M   'P 1'
_cell_length_a   7.50379448
_cell_length_b   7.51782129
_cell_length_c   5.05728200
_cell_angle_alpha   90.00000000
_cell_angle_beta   90.00000000
_cell_angle_gamma   120.06185756
_symmetry_Int_Tables_number   1
_chemical_formula_structural   Ti6V4Ga5As
_chemical_formula_sum   'Ti6 V4 Ga5 As1'
_cell_volume   246.91625990
_cell_formula_units_Z   1
loop_
 _symmetry_equiv_pos_site_id
 _symmetry_equiv_pos_as_xyz
  1  'x, y, z'
loop_
 _atom_site_type_symbol
 _atom_site_label
 _atom_site_symmetry_multiplicity
 _atom_site_fract_x
 _atom_site_fract_y
 _atom_site_fract_z
 _atom_site_occupancy
  Ti  Ti0  1  0.756581  0.758231  0.750000  1
  Ti  Ti1  1  0.243419  0.001650  0.750000  1
  Ti  Ti2  1  0.000000  0.248484  0.750000  1
  Ti  Ti3  1  0.243848  0.243586  0.250000  1
  Ti  Ti4  1  0.756152  0.999739  0.250000  1
  Ti  Ti5  1  0.000000  0.754301  0.250000  1
  V  V6  1  0.670519  0.333848  0.999820  1
  V  V7  1  0.329481  0.663331  0.999820  1
  V  V8  1  0.329481  0.663331  0.500180  1
  V  V9  1  0.670519  0.333848  0.500180  1
  Ga  Ga10  1  0.402100  0.399602  0.750000  1
  Ga  Ga11  1  0.597900  0.997503  0.750000  1
  Ga  Ga12  1  0.000000  0.606544  0.750000  1
  Ga  Ga13  1  0.600500  0.600828  0.250000  1
  Ga  Ga14  1  0.399500  0.000327  0.250000  1
  As  As15  1  0.000000  0.394847  0.250000  1
