# generated using pymatgen
data_Dy2FeNiIr2
_symmetry_space_group_name_H-M   'P 1'
_cell_length_a   5.07085976
_cell_length_b   5.16661975
_cell_length_c   5.16661917
_cell_angle_alpha   64.33785777
_cell_angle_beta   62.64115433
_cell_angle_gamma   62.64115850
_symmetry_Int_Tables_number   1
_chemical_formula_structural   Dy2FeNiIr2
_chemical_formula_sum   'Dy2 Fe1 Ni1 Ir2'
_cell_volume   102.46280656
_cell_formula_units_Z   1
loop_
 _symmetry_equiv_pos_site_id
 _symmetry_equiv_pos_as_xyz
  1  'x, y, z'
loop_
 _atom_site_type_symbol
 _atom_site_label
 _atom_site_symmetry_multiplicity
 _atom_site_fract_x
 _atom_site_fract_y
 _atom_site_fract_z
 _atom_site_occupancy
  Dy  Dy0  1  0.749389  0.752958  0.752958  1
  Dy  Dy1  1  0.500611  0.497042  0.497042  1
  Fe  Fe2  1  0.125000  0.125000  0.125000  1
  Ni  Ni3  1  0.625000  0.125000  0.125000  1
  Ir  Ir4  1  0.125000  0.625000  0.125000  1
  Ir  Ir5  1  0.125000  0.125000  0.625000  1
