# generated using pymatgen
data_Ti2Be9Co
_symmetry_space_group_name_H-M   'P 1'
_cell_length_a   7.38550088
_cell_length_b   7.38550025
_cell_length_c   7.38549997
_cell_angle_alpha   34.14055644
_cell_angle_beta   34.14055973
_cell_angle_gamma   34.14054842
_symmetry_Int_Tables_number   1
_chemical_formula_structural   Ti2Be9Co
_chemical_formula_sum   'Ti2 Be9 Co1'
_cell_volume   113.12967055
_cell_formula_units_Z   1
loop_
 _symmetry_equiv_pos_site_id
 _symmetry_equiv_pos_as_xyz
  1  'x, y, z'
loop_
 _atom_site_type_symbol
 _atom_site_label
 _atom_site_symmetry_multiplicity
 _atom_site_fract_x
 _atom_site_fract_y
 _atom_site_fract_z
 _atom_site_occupancy
  Ti  Ti0  1  0.145841  0.145841  0.145841  1
  Ti  Ti1  1  0.000497  0.000497  0.000497  1
  Be  Be2  1  0.415484  0.918973  0.415484  1
  Be  Be3  1  0.415484  0.415484  0.918973  1
  Be  Be4  1  0.918973  0.415484  0.415484  1
  Be  Be5  1  0.584187  0.080536  0.584187  1
  Be  Be6  1  0.584187  0.584187  0.080536  1
  Be  Be7  1  0.080536  0.584187  0.584187  1
  Be  Be8  1  0.666189  0.666189  0.666189  1
  Be  Be9  1  0.332518  0.332518  0.332518  1
  Be  Be10  1  0.500642  0.500642  0.500642  1
  Co  Co11  1  0.855461  0.855461  0.855461  1
