# generated using pymatgen
data_Er8Tm2In8IrPt3
_symmetry_space_group_name_H-M   'P 1'
_cell_length_a   3.59631700
_cell_length_b   8.10499069
_cell_length_c   18.14729700
_cell_angle_alpha   89.97743812
_cell_angle_beta   90.00000000
_cell_angle_gamma   90.00000000
_symmetry_Int_Tables_number   1
_chemical_formula_structural   Er8Tm2In8IrPt3
_chemical_formula_sum   'Er8 Tm2 In8 Ir1 Pt3'
_cell_volume   528.95947363
_cell_formula_units_Z   1
loop_
 _symmetry_equiv_pos_site_id
 _symmetry_equiv_pos_as_xyz
  1  'x, y, z'
loop_
 _atom_site_type_symbol
 _atom_site_label
 _atom_site_symmetry_multiplicity
 _atom_site_fract_x
 _atom_site_fract_y
 _atom_site_fract_z
 _atom_site_occupancy
  Er  Er0  1  0.000000  0.383378  0.914867  1
  Er  Er1  1  0.000000  0.616896  0.085880  1
  Er  Er2  1  0.000000  0.236939  0.222016  1
  Er  Er3  1  0.000000  0.757704  0.779654  1
  Er  Er4  1  0.000000  0.257288  0.720808  1
  Er  Er5  1  0.000000  0.750837  0.279762  1
  Er  Er6  1  0.000000  0.999767  0.000200  1
  Er  Er7  1  0.000000  0.500523  0.499625  1
  Tm  Tm8  1  0.000000  0.114715  0.411998  1
  Tm  Tm9  1  0.000000  0.883044  0.585393  1
  In  In10  1  0.500000  0.422411  0.351198  1
  In  In11  1  0.500000  0.576855  0.648672  1
  In  In12  1  0.500000  0.076657  0.851491  1
  In  In13  1  0.500000  0.925701  0.149424  1
  In  In14  1  0.500000  0.291977  0.066210  1
  In  In15  1  0.500000  0.707886  0.933606  1
  In  In16  1  0.500000  0.207882  0.566447  1
  In  In17  1  0.500000  0.793550  0.432337  1
  Ir  Ir18  1  0.500000  0.022305  0.304135  1
  Pt  Pt19  1  0.500000  0.975066  0.696330  1
  Pt  Pt20  1  0.500000  0.475351  0.803412  1
  Pt  Pt21  1  0.500000  0.523268  0.196533  1
