# generated using pymatgen
data_Sc3U(Be4Ru5)2
_symmetry_space_group_name_H-M   'P 1'
_cell_length_a   3.23166900
_cell_length_b   8.60845080
_cell_length_c   10.20236573
_cell_angle_alpha   89.94197658
_cell_angle_beta   90.00000000
_cell_angle_gamma   90.00000000
_symmetry_Int_Tables_number   1
_chemical_formula_structural   Sc3U(Be4Ru5)2
_chemical_formula_sum   'Sc3 U1 Be8 Ru10'
_cell_volume   283.82623675
_cell_formula_units_Z   1
loop_
 _symmetry_equiv_pos_site_id
 _symmetry_equiv_pos_as_xyz
  1  'x, y, z'
loop_
 _atom_site_type_symbol
 _atom_site_label
 _atom_site_symmetry_multiplicity
 _atom_site_fract_x
 _atom_site_fract_y
 _atom_site_fract_z
 _atom_site_occupancy
  Sc  Sc0  1  0.500000  0.159517  0.815436  1
  Sc  Sc1  1  0.500000  0.654233  0.682282  1
  Sc  Sc2  1  0.500000  0.344840  0.321917  1
  U  U3  1  0.500000  0.846561  0.177850  1
  Be  Be4  1  0.500000  0.963211  0.597466  1
  Be  Be5  1  0.500000  0.041092  0.411720  1
  Be  Be6  1  0.500000  0.834827  0.895334  1
  Be  Be7  1  0.500000  0.162772  0.096561  1
  Be  Be8  1  0.500000  0.658862  0.412949  1
  Be  Be9  1  0.500000  0.343520  0.596210  1
  Be  Be10  1  0.500000  0.458927  0.903035  1
  Be  Be11  1  0.500000  0.530174  0.091521  1
  Ru  Ru12  1  0.000000  0.654214  0.951918  1
  Ru  Ru13  1  0.000000  0.340729  0.047264  1
  Ru  Ru14  1  0.000000  0.843685  0.454861  1
  Ru  Ru15  1  0.000000  0.158234  0.546177  1
  Ru  Ru16  1  0.000000  0.990209  0.003224  1
  Ru  Ru17  1  0.000000  0.400887  0.755045  1
  Ru  Ru18  1  0.000000  0.616358  0.239618  1
  Ru  Ru19  1  0.000000  0.498390  0.495250  1
  Ru  Ru20  1  0.000000  0.904972  0.744554  1
  Ru  Ru21  1  0.000000  0.093785  0.259809  1
