# generated using pymatgen
data_Zr10Cu2Sn4BiSb
_symmetry_space_group_name_H-M   'P 1'
_cell_length_a   8.70815407
_cell_length_b   8.70776043
_cell_length_c   5.86946900
_cell_angle_alpha   90.00000000
_cell_angle_beta   90.00000000
_cell_angle_gamma   119.99529859
_symmetry_Int_Tables_number   1
_chemical_formula_structural   Zr10Cu2Sn4BiSb
_chemical_formula_sum   'Zr10 Cu2 Sn4 Bi1 Sb1'
_cell_volume   385.46290836
_cell_formula_units_Z   1
loop_
 _symmetry_equiv_pos_site_id
 _symmetry_equiv_pos_as_xyz
  1  'x, y, z'
loop_
 _atom_site_type_symbol
 _atom_site_label
 _atom_site_symmetry_multiplicity
 _atom_site_fract_x
 _atom_site_fract_y
 _atom_site_fract_z
 _atom_site_occupancy
  Zr  Zr0  1  0.669882  0.335989  0.998119  1
  Zr  Zr1  1  0.332035  0.663671  0.998218  1
  Zr  Zr2  1  0.332035  0.663671  0.501782  1
  Zr  Zr3  1  0.669882  0.335989  0.501881  1
  Zr  Zr4  1  0.734812  0.734510  0.750000  1
  Zr  Zr5  1  0.263834  0.000285  0.750000  1
  Zr  Zr6  1  0.000616  0.266069  0.750000  1
  Zr  Zr7  1  0.261123  0.266394  0.250000  1
  Zr  Zr8  1  0.739769  0.001093  0.250000  1
  Zr  Zr9  1  0.995815  0.732493  0.250000  1
  Cu  Cu10  1  0.999418  0.998936  0.503190  1
  Cu  Cu11  1  0.999418  0.998936  0.996810  1
  Sn  Sn12  1  0.386187  0.384945  0.750000  1
  Sn  Sn13  1  0.615580  0.999409  0.750000  1
  Sn  Sn14  1  0.000641  0.616648  0.750000  1
  Sn  Sn15  1  0.613397  0.614132  0.250000  1
  Bi  Bi16  1  0.385918  0.000451  0.250000  1
  Sb  Sb17  1  0.999638  0.386380  0.250000  1
