# generated using pymatgen
data_Eu3Cd(Rh2O7)2
_symmetry_space_group_name_H-M   'P 1'
_cell_length_a   7.35902870
_cell_length_b   7.24168356
_cell_length_c   7.35902900
_cell_angle_alpha   59.46251167
_cell_angle_beta   60.00000313
_cell_angle_gamma   59.46250795
_symmetry_Int_Tables_number   1
_chemical_formula_structural   Eu3Cd(Rh2O7)2
_chemical_formula_sum   'Eu3 Cd1 Rh4 O14'
_cell_volume   275.03571593
_cell_formula_units_Z   1
loop_
 _symmetry_equiv_pos_site_id
 _symmetry_equiv_pos_as_xyz
  1  'x, y, z'
loop_
 _atom_site_type_symbol
 _atom_site_label
 _atom_site_symmetry_multiplicity
 _atom_site_fract_x
 _atom_site_fract_y
 _atom_site_fract_z
 _atom_site_occupancy
  Eu  Eu0  1  0.125000  0.125000  0.125000  1
  Eu  Eu1  1  0.625000  0.125000  0.125000  1
  Eu  Eu2  1  0.125000  0.125000  0.625000  1
  Cd  Cd3  1  0.125000  0.625000  0.125000  1
  Rh  Rh4  1  0.625000  0.625000  0.625000  1
  Rh  Rh5  1  0.625000  0.625000  0.125000  1
  Rh  Rh6  1  0.125000  0.625000  0.625000  1
  Rh  Rh7  1  0.625000  0.125000  0.625000  1
  O  O8  1  0.247414  0.257756  0.247414  1
  O  O9  1  0.299618  0.701879  0.299618  1
  O  O10  1  0.956564  0.959256  0.542090  1
  O  O11  1  0.542090  0.959256  0.542090  1
  O  O12  1  0.698885  0.701879  0.299618  1
  O  O13  1  0.950382  0.548121  0.551115  1
  O  O14  1  0.707910  0.290744  0.707910  1
  O  O15  1  0.293436  0.290744  0.707910  1
  O  O16  1  0.707910  0.290744  0.293436  1
  O  O17  1  0.299618  0.701879  0.698885  1
  O  O18  1  0.950382  0.548121  0.950382  1
  O  O19  1  0.551115  0.548121  0.950382  1
  O  O20  1  0.002586  0.992244  0.002586  1
  O  O21  1  0.542090  0.959256  0.956564  1
