# generated using pymatgen
data_K8Eu3TmF20
_symmetry_space_group_name_H-M   'P 1'
_cell_length_a   6.54231471
_cell_length_b   7.40663800
_cell_length_c   10.82420800
_cell_angle_alpha   90.00000000
_cell_angle_beta   90.67478063
_cell_angle_gamma   90.00000000
_symmetry_Int_Tables_number   1
_chemical_formula_structural   K8Eu3TmF20
_chemical_formula_sum   'K8 Eu3 Tm1 F20'
_cell_volume   524.46747473
_cell_formula_units_Z   1
loop_
 _symmetry_equiv_pos_site_id
 _symmetry_equiv_pos_as_xyz
  1  'x, y, z'
loop_
 _atom_site_type_symbol
 _atom_site_label
 _atom_site_symmetry_multiplicity
 _atom_site_fract_x
 _atom_site_fract_y
 _atom_site_fract_z
 _atom_site_occupancy
  K  K0  1  0.534479  0.498914  0.831539  1
  K  K1  1  0.463597  0.506231  0.167835  1
  K  K2  1  0.034313  0.505269  0.671989  1
  K  K3  1  0.463597  0.993769  0.167835  1
  K  K4  1  0.965438  0.498427  0.327930  1
  K  K5  1  0.534479  0.001086  0.831539  1
  K  K6  1  0.965438  0.001573  0.327930  1
  K  K7  1  0.034313  0.994731  0.671989  1
  Eu  Eu8  1  0.560107  0.750000  0.501993  1
  Eu  Eu9  1  0.438376  0.250000  0.497933  1
  Eu  Eu10  1  0.059090  0.250000  0.997710  1
  Tm  Tm11  1  0.938535  0.750000  0.002020  1
  F  F12  1  0.840513  0.750000  0.809244  1
  F  F13  1  0.163776  0.250000  0.195831  1
  F  F14  1  0.334335  0.250000  0.696735  1
  F  F15  1  0.663778  0.750000  0.304098  1
  F  F16  1  0.366476  0.750000  0.671708  1
  F  F17  1  0.632387  0.250000  0.327965  1
  F  F18  1  0.867879  0.250000  0.826252  1
  F  F19  1  0.130763  0.750000  0.165445  1
  F  F20  1  0.907308  0.750000  0.510188  1
  F  F21  1  0.091602  0.250000  0.489600  1
  F  F22  1  0.405060  0.250000  0.988890  1
  F  F23  1  0.607983  0.750000  0.011474  1
  F  F24  1  0.650083  0.031937  0.583619  1
  F  F25  1  0.347981  0.967566  0.416451  1
  F  F26  1  0.149242  0.957676  0.925324  1
  F  F27  1  0.347981  0.532434  0.416451  1
  F  F28  1  0.850884  0.024343  0.076771  1
  F  F29  1  0.650083  0.468063  0.583619  1
  F  F30  1  0.850884  0.475657  0.076771  1
  F  F31  1  0.149242  0.542324  0.925324  1
