# generated using pymatgen
data_Ta2GaFeBr16
_symmetry_space_group_name_H-M   'P 1'
_cell_length_a   10.48482665
_cell_length_b   10.48482599
_cell_length_c   9.46165800
_cell_angle_alpha   90.00000000
_cell_angle_beta   90.00000000
_cell_angle_gamma   128.28598454
_symmetry_Int_Tables_number   1
_chemical_formula_structural   Ta2GaFeBr16
_chemical_formula_sum   'Ta2 Ga1 Fe1 Br16'
_cell_volume   816.43107052
_cell_formula_units_Z   1
loop_
 _symmetry_equiv_pos_site_id
 _symmetry_equiv_pos_as_xyz
  1  'x, y, z'
loop_
 _atom_site_type_symbol
 _atom_site_label
 _atom_site_symmetry_multiplicity
 _atom_site_fract_x
 _atom_site_fract_y
 _atom_site_fract_z
 _atom_site_occupancy
  Ta  Ta0  1  0.614350  0.385650  0.250000  1
  Ta  Ta1  1  0.386962  0.613038  0.750000  1
  Ga  Ga2  1  0.185308  0.814692  0.750000  1
  Fe  Fe3  1  0.812029  0.187971  0.250000  1
  Br  Br4  1  0.527209  0.074358  0.250000  1
  Br  Br5  1  0.075395  0.529228  0.750000  1
  Br  Br6  1  0.470772  0.924605  0.750000  1
  Br  Br7  1  0.925642  0.472791  0.250000  1
  Br  Br8  1  0.631452  0.368548  0.990184  1
  Br  Br9  1  0.369080  0.630920  0.009436  1
  Br  Br10  1  0.631452  0.368548  0.509816  1
  Br  Br11  1  0.369080  0.630920  0.490564  1
  Br  Br12  1  0.328007  0.262842  0.250000  1
  Br  Br13  1  0.262143  0.326726  0.750000  1
  Br  Br14  1  0.673274  0.737857  0.750000  1
  Br  Br15  1  0.737158  0.671993  0.250000  1
  Br  Br16  1  0.879213  0.120787  0.452719  1
  Br  Br17  1  0.121131  0.878869  0.542713  1
  Br  Br18  1  0.879213  0.120787  0.047281  1
  Br  Br19  1  0.121131  0.878869  0.957287  1
