# generated using pymatgen
data_Pt(BrF5)2
_symmetry_space_group_name_H-M   'P 1'
_cell_length_a   14.47857100
_cell_length_b   5.23407317
_cell_length_c   6.67997603
_cell_angle_alpha   64.59407116
_cell_angle_beta   90.00000000
_cell_angle_gamma   90.00000000
_symmetry_Int_Tables_number   1
_chemical_formula_structural   Pt(BrF5)2
_chemical_formula_sum   'Pt2 Br4 F20'
_cell_volume   457.26507366
_cell_formula_units_Z   2
loop_
 _symmetry_equiv_pos_site_id
 _symmetry_equiv_pos_as_xyz
  1  'x, y, z'
loop_
 _atom_site_type_symbol
 _atom_site_label
 _atom_site_symmetry_multiplicity
 _atom_site_fract_x
 _atom_site_fract_y
 _atom_site_fract_z
 _atom_site_occupancy
  Pt  Pt0  1  0.000000  0.000000  0.000000  1
  Pt  Pt1  1  0.500000  0.000000  0.500000  1
  Br  Br2  1  0.366675  0.676502  0.174503  1
  Br  Br3  1  0.866675  0.323498  0.325497  1
  Br  Br4  1  0.133325  0.676502  0.674503  1
  Br  Br5  1  0.633325  0.323498  0.825497  1
  F  F6  1  0.675272  0.006494  0.044247  1
  F  F7  1  0.175272  0.993506  0.455753  1
  F  F8  1  0.324728  0.993506  0.955753  1
  F  F9  1  0.824728  0.006494  0.544247  1
  F  F10  1  0.711526  0.533980  0.898342  1
  F  F11  1  0.211526  0.466020  0.601658  1
  F  F12  1  0.965087  0.031297  0.275039  1
  F  F13  1  0.465087  0.968703  0.224961  1
  F  F14  1  0.034913  0.968703  0.724961  1
  F  F15  1  0.534913  0.031297  0.775039  1
  F  F16  1  0.902331  0.715928  0.042169  1
  F  F17  1  0.402331  0.284072  0.457831  1
  F  F18  1  0.097669  0.284072  0.957831  1
  F  F19  1  0.597669  0.715928  0.542169  1
  F  F20  1  0.914165  0.304374  0.825499  1
  F  F21  1  0.414165  0.695626  0.674501  1
  F  F22  1  0.085835  0.695626  0.174501  1
  F  F23  1  0.585835  0.304374  0.325499  1
  F  F24  1  0.788474  0.533980  0.398342  1
  F  F25  1  0.288474  0.466020  0.101658  1
