# generated using pymatgen
data_PrNpCd2O7
_symmetry_space_group_name_H-M   'P 1'
_cell_length_a   6.54989243
_cell_length_b   6.54989349
_cell_length_c   8.22132300
_cell_angle_alpha   90.00000000
_cell_angle_beta   90.00000000
_cell_angle_gamma   112.14673657
_symmetry_Int_Tables_number   1
_chemical_formula_structural   PrNpCd2O7
_chemical_formula_sum   'Pr2 Np2 Cd4 O14'
_cell_volume   326.68180222
_cell_formula_units_Z   2
loop_
 _symmetry_equiv_pos_site_id
 _symmetry_equiv_pos_as_xyz
  1  'x, y, z'
loop_
 _atom_site_type_symbol
 _atom_site_label
 _atom_site_symmetry_multiplicity
 _atom_site_fract_x
 _atom_site_fract_y
 _atom_site_fract_z
 _atom_site_occupancy
  Pr  Pr0  1  0.000000  0.000000  0.000000  1
  Pr  Pr1  1  0.000000  0.000000  0.500000  1
  Np  Np2  1  0.500000  0.500000  0.000000  1
  Np  Np3  1  0.500000  0.500000  0.500000  1
  Cd  Cd4  1  0.487619  0.975190  0.750000  1
  Cd  Cd5  1  0.512381  0.024810  0.250000  1
  Cd  Cd6  1  0.975190  0.487619  0.750000  1
  Cd  Cd7  1  0.024810  0.512381  0.250000  1
  O  O8  1  0.558302  0.558302  0.750000  1
  O  O9  1  0.441698  0.441698  0.250000  1
  O  O10  1  0.847971  0.124093  0.750000  1
  O  O11  1  0.152029  0.875907  0.250000  1
  O  O12  1  0.124093  0.847971  0.750000  1
  O  O13  1  0.875907  0.152029  0.250000  1
  O  O14  1  0.423113  0.180254  0.978128  1
  O  O15  1  0.576887  0.819746  0.478128  1
  O  O16  1  0.180254  0.423113  0.978128  1
  O  O17  1  0.819746  0.576887  0.478128  1
  O  O18  1  0.423113  0.180254  0.521872  1
  O  O19  1  0.576887  0.819746  0.021872  1
  O  O20  1  0.819746  0.576887  0.021872  1
  O  O21  1  0.180254  0.423113  0.521872  1
