# generated using pymatgen
data_Na(NbS2)6
_symmetry_space_group_name_H-M   'P 1'
_cell_length_a   5.83223735
_cell_length_b   5.83223777
_cell_length_c   14.74992848
_cell_angle_alpha   86.14106426
_cell_angle_beta   86.14106415
_cell_angle_gamma   120.00522594
_symmetry_Int_Tables_number   1
_chemical_formula_structural   Na(NbS2)6
_chemical_formula_sum   'Na1 Nb6 S12'
_cell_volume   430.52389396
_cell_formula_units_Z   1
loop_
 _symmetry_equiv_pos_site_id
 _symmetry_equiv_pos_as_xyz
  1  'x, y, z'
loop_
 _atom_site_type_symbol
 _atom_site_label
 _atom_site_symmetry_multiplicity
 _atom_site_fract_x
 _atom_site_fract_y
 _atom_site_fract_z
 _atom_site_occupancy
  Na  Na0  1  0.000000  0.000000  0.000000  1
  Nb  Nb1  1  0.087450  0.087450  0.741256  1
  Nb  Nb2  1  0.419333  0.751459  0.742157  1
  Nb  Nb3  1  0.751459  0.419333  0.742157  1
  Nb  Nb4  1  0.248541  0.580667  0.257843  1
  Nb  Nb5  1  0.580667  0.248541  0.257843  1
  Nb  Nb6  1  0.912550  0.912550  0.258744  1
  S  S7  1  0.283710  0.283710  0.150053  1
  S  S8  1  0.617041  0.950908  0.150075  1
  S  S9  1  0.950908  0.617041  0.150075  1
  S  S10  1  0.049092  0.382959  0.849925  1
  S  S11  1  0.382959  0.049092  0.849925  1
  S  S12  1  0.716290  0.716290  0.849947  1
  S  S13  1  0.211410  0.211410  0.364012  1
  S  S14  1  0.543828  0.878413  0.363998  1
  S  S15  1  0.878413  0.543828  0.363998  1
  S  S16  1  0.121587  0.456172  0.636002  1
  S  S17  1  0.456172  0.121587  0.636002  1
  S  S18  1  0.788590  0.788590  0.635988  1
