# generated using pymatgen
data_HoTm7Sc11Si16Tc
_symmetry_space_group_name_H-M   'P 1'
_cell_length_a   6.98068849
_cell_length_b   7.31769160
_cell_length_c   13.82739829
_cell_angle_alpha   90.02314350
_cell_angle_beta   90.00408671
_cell_angle_gamma   90.15193344
_symmetry_Int_Tables_number   1
_chemical_formula_structural   HoTm7Sc11Si16Tc
_chemical_formula_sum   'Ho1 Tm7 Sc11 Si16 Tc1'
_cell_volume   706.33588331
_cell_formula_units_Z   1
loop_
 _symmetry_equiv_pos_site_id
 _symmetry_equiv_pos_as_xyz
  1  'x, y, z'
loop_
 _atom_site_type_symbol
 _atom_site_label
 _atom_site_symmetry_multiplicity
 _atom_site_fract_x
 _atom_site_fract_y
 _atom_site_fract_z
 _atom_site_occupancy
  Ho  Ho0  1  0.012010  0.178141  0.092792  1
  Tm  Tm1  1  0.992773  0.817456  0.900821  1
  Tm  Tm2  1  0.487942  0.673354  0.902702  1
  Tm  Tm3  1  0.992757  0.817468  0.599059  1
  Tm  Tm4  1  0.511381  0.322819  0.094925  1
  Tm  Tm5  1  0.012072  0.178642  0.406811  1
  Tm  Tm6  1  0.511462  0.322634  0.405156  1
  Tm  Tm7  1  0.487930  0.673252  0.597183  1
  Sc  Sc8  1  0.841446  0.496040  0.250140  1
  Sc  Sc9  1  0.342363  0.004203  0.250144  1
  Sc  Sc10  1  0.656628  0.994164  0.749995  1
  Sc  Sc11  1  0.326055  0.178398  0.627627  1
  Sc  Sc12  1  0.672145  0.824353  0.374613  1
  Sc  Sc13  1  0.172464  0.674226  0.376894  1
  Sc  Sc14  1  0.672129  0.824104  0.125521  1
  Sc  Sc15  1  0.827162  0.330826  0.628653  1
  Sc  Sc16  1  0.326217  0.178291  0.872281  1
  Sc  Sc17  1  0.826949  0.331063  0.871306  1
  Sc  Sc18  1  0.172503  0.674058  0.123213  1
  Si  Si19  1  0.028435  0.115890  0.749970  1
  Si  Si20  1  0.973018  0.887611  0.250168  1
  Si  Si21  1  0.469282  0.613480  0.250035  1
  Si  Si22  1  0.518005  0.397459  0.749969  1
  Si  Si23  1  0.284547  0.858830  0.750003  1
  Si  Si24  1  0.717220  0.131599  0.250318  1
  Si  Si25  1  0.215397  0.369366  0.250314  1
  Si  Si26  1  0.793818  0.631351  0.749965  1
  Si  Si27  1  0.157022  0.466717  0.547572  1
  Si  Si28  1  0.841379  0.535364  0.463435  1
  Si  Si29  1  0.344342  0.965428  0.463189  1
  Si  Si30  1  0.841212  0.535861  0.036427  1
  Si  Si31  1  0.659328  0.034178  0.539859  1
  Si  Si32  1  0.157053  0.467219  0.952250  1
  Si  Si33  1  0.659121  0.034124  0.960068  1
  Si  Si34  1  0.345137  0.964997  0.036672  1
  Tc  Tc35  1  0.151294  0.497030  0.749953  1
