# generated using pymatgen
data_CaSm3(B4Ru)4
_symmetry_space_group_name_H-M   'P 1'
_cell_length_a   3.58590300
_cell_length_b   6.01161026
_cell_length_c   11.62587931
_cell_angle_alpha   89.96667178
_cell_angle_beta   90.00000000
_cell_angle_gamma   90.00000000
_symmetry_Int_Tables_number   1
_chemical_formula_structural   CaSm3(B4Ru)4
_chemical_formula_sum   'Ca1 Sm3 B16 Ru4'
_cell_volume   250.61963393
_cell_formula_units_Z   1
loop_
 _symmetry_equiv_pos_site_id
 _symmetry_equiv_pos_as_xyz
  1  'x, y, z'
loop_
 _atom_site_type_symbol
 _atom_site_label
 _atom_site_symmetry_multiplicity
 _atom_site_fract_x
 _atom_site_fract_y
 _atom_site_fract_z
 _atom_site_occupancy
  Ca  Ca0  1  0.000000  0.871131  0.850535  1
  Sm  Sm1  1  0.000000  0.627764  0.349791  1
  Sm  Sm2  1  0.000000  0.371631  0.651708  1
  Sm  Sm3  1  0.000000  0.127870  0.148916  1
  B  B4  1  0.500000  0.786207  0.183301  1
  B  B5  1  0.500000  0.212632  0.815753  1
  B  B6  1  0.500000  0.285727  0.315276  1
  B  B7  1  0.500000  0.714516  0.685902  1
  B  B8  1  0.500000  0.862975  0.029405  1
  B  B9  1  0.500000  0.137454  0.968403  1
  B  B10  1  0.500000  0.361670  0.469775  1
  B  B11  1  0.500000  0.637824  0.531449  1
  B  B12  1  0.500000  0.888713  0.454500  1
  B  B13  1  0.500000  0.109974  0.547094  1
  B  B14  1  0.500000  0.390132  0.044385  1
  B  B15  1  0.500000  0.614187  0.952537  1
  B  B16  1  0.500000  0.975986  0.309792  1
  B  B17  1  0.500000  0.023758  0.691963  1
  B  B18  1  0.500000  0.475687  0.189289  1
  B  B19  1  0.500000  0.524186  0.809641  1
  Ru  Ru20  1  0.000000  0.638739  0.090871  1
  Ru  Ru21  1  0.000000  0.361894  0.909292  1
  Ru  Ru22  1  0.000000  0.138783  0.408699  1
  Ru  Ru23  1  0.000000  0.860560  0.591722  1
