# generated using pymatgen
data_Ho9Tm3Si11Ni
_symmetry_space_group_name_H-M   'P 1'
_cell_length_a   3.83568600
_cell_length_b   5.65222052
_cell_length_c   23.55514584
_cell_angle_alpha   82.58235798
_cell_angle_beta   90.00000000
_cell_angle_gamma   90.00000000
_symmetry_Int_Tables_number   1
_chemical_formula_structural   Ho9Tm3Si11Ni
_chemical_formula_sum   'Ho9 Tm3 Si11 Ni1'
_cell_volume   506.40529451
_cell_formula_units_Z   1
loop_
 _symmetry_equiv_pos_site_id
 _symmetry_equiv_pos_as_xyz
  1  'x, y, z'
loop_
 _atom_site_type_symbol
 _atom_site_label
 _atom_site_symmetry_multiplicity
 _atom_site_fract_x
 _atom_site_fract_y
 _atom_site_fract_z
 _atom_site_occupancy
  Ho  Ho0  1  0.000000  0.914824  0.939935  1
  Ho  Ho1  1  0.500000  0.449254  0.393692  1
  Ho  Ho2  1  0.500000  0.438913  0.892987  1
  Ho  Ho3  1  0.000000  0.556474  0.106686  1
  Ho  Ho4  1  0.000000  0.557304  0.607816  1
  Ho  Ho5  1  0.500000  0.257449  0.226750  1
  Ho  Ho6  1  0.500000  0.245248  0.720985  1
  Ho  Ho7  1  0.000000  0.747799  0.274073  1
  Ho  Ho8  1  0.000000  0.736224  0.772649  1
  Tm  Tm9  1  0.500000  0.080993  0.059623  1
  Tm  Tm10  1  0.500000  0.091927  0.564847  1
  Tm  Tm11  1  0.000000  0.924530  0.440783  1
  Si  Si12  1  0.500000  0.621782  0.012438  1
  Si  Si13  1  0.500000  0.628016  0.512732  1
  Si  Si14  1  0.000000  0.381918  0.488255  1
  Si  Si15  1  0.000000  0.373398  0.987388  1
  Si  Si16  1  0.500000  0.770042  0.179458  1
  Si  Si17  1  0.500000  0.778784  0.678214  1
  Si  Si18  1  0.000000  0.236068  0.321191  1
  Si  Si19  1  0.000000  0.222155  0.818695  1
  Si  Si20  1  0.500000  0.959840  0.347180  1
  Si  Si21  1  0.500000  0.952089  0.844819  1
  Si  Si22  1  0.000000  0.044909  0.153526  1
  Ni  Ni23  1  0.000000  0.030057  0.655275  1
