# generated using pymatgen
data_NaLa4(AsRu)10
_symmetry_space_group_name_H-M   'P 1'
_cell_length_a   9.42020500
_cell_length_b   8.58357433
_cell_length_c   9.42020500
_cell_angle_alpha   56.71977329
_cell_angle_beta   90.00000000
_cell_angle_gamma   56.71976531
_symmetry_Int_Tables_number   1
_chemical_formula_structural   NaLa4(AsRu)10
_chemical_formula_sum   'Na1 La4 As10 Ru10'
_cell_volume   480.40880943
_cell_formula_units_Z   1
loop_
 _symmetry_equiv_pos_site_id
 _symmetry_equiv_pos_as_xyz
  1  'x, y, z'
loop_
 _atom_site_type_symbol
 _atom_site_label
 _atom_site_symmetry_multiplicity
 _atom_site_fract_x
 _atom_site_fract_y
 _atom_site_fract_z
 _atom_site_occupancy
  Na  Na0  1  0.000000  0.000000  0.000000  1
  La  La1  1  0.197412  0.000000  0.602749  1
  La  La2  1  0.397251  0.000000  0.197412  1
  La  La3  1  0.602749  0.000000  0.802588  1
  La  La4  1  0.802588  0.000000  0.397251  1
  As  As5  1  0.164063  0.272243  0.763083  1
  As  As6  1  0.366612  0.266775  0.366612  1
  As  As7  1  0.563693  0.272243  0.964672  1
  As  As8  1  0.763083  0.272243  0.563693  1
  As  As9  1  0.964672  0.272243  0.164063  1
  As  As10  1  0.633388  0.733225  0.633388  1
  As  As11  1  0.835937  0.727757  0.236917  1
  As  As12  1  0.035327  0.727757  0.835937  1
  As  As13  1  0.236917  0.727757  0.436307  1
  As  As14  1  0.436307  0.727757  0.035327  1
  Ru  Ru15  1  0.948697  0.501333  0.848447  1
  Ru  Ru16  1  0.151553  0.498667  0.450031  1
  Ru  Ru17  1  0.349780  0.498667  0.051303  1
  Ru  Ru18  1  0.549969  0.501333  0.650220  1
  Ru  Ru19  1  0.750000  0.500000  0.250000  1
  Ru  Ru20  1  0.848447  0.501333  0.549969  1
  Ru  Ru21  1  0.051303  0.498667  0.151553  1
  Ru  Ru22  1  0.250000  0.500000  0.750000  1
  Ru  Ru23  1  0.450031  0.498667  0.349780  1
  Ru  Ru24  1  0.650220  0.501333  0.948697  1
