# generated using pymatgen
data_Ho16ScHg3Rh4
_symmetry_space_group_name_H-M   'P 1'
_cell_length_a   9.62980201
_cell_length_b   9.56279743
_cell_length_c   9.56279900
_cell_angle_alpha   59.99999802
_cell_angle_beta   60.22990257
_cell_angle_gamma   60.22989987
_symmetry_Int_Tables_number   1
_chemical_formula_structural   Ho16ScHg3Rh4
_chemical_formula_sum   'Ho16 Sc1 Hg3 Rh4'
_cell_volume   624.84569648
_cell_formula_units_Z   1
loop_
 _symmetry_equiv_pos_site_id
 _symmetry_equiv_pos_as_xyz
  1  'x, y, z'
loop_
 _atom_site_type_symbol
 _atom_site_label
 _atom_site_symmetry_multiplicity
 _atom_site_fract_x
 _atom_site_fract_y
 _atom_site_fract_z
 _atom_site_occupancy
  Ho  Ho0  1  0.807641  0.191190  0.191190  1
  Ho  Ho1  1  0.180947  0.815767  0.815767  1
  Ho  Ho2  1  0.180947  0.815767  0.187518  1
  Ho  Ho3  1  0.807641  0.191190  0.809980  1
  Ho  Ho4  1  0.180947  0.187518  0.815767  1
  Ho  Ho5  1  0.807641  0.809980  0.191190  1
  Ho  Ho6  1  0.938630  0.564476  0.564476  1
  Ho  Ho7  1  0.566360  0.934656  0.934656  1
  Ho  Ho8  1  0.566360  0.934656  0.564327  1
  Ho  Ho9  1  0.938630  0.564476  0.932418  1
  Ho  Ho10  1  0.566360  0.564327  0.934656  1
  Ho  Ho11  1  0.938630  0.932418  0.564476  1
  Ho  Ho12  1  0.348904  0.348404  0.348404  1
  Ho  Ho13  1  0.348904  0.348404  0.954289  1
  Ho  Ho14  1  0.348904  0.954289  0.348404  1
  Ho  Ho15  1  0.935329  0.354890  0.354890  1
  Sc  Sc16  1  0.300729  0.566424  0.566424  1
  Hg  Hg17  1  0.585658  0.587541  0.587541  1
  Hg  Hg18  1  0.585658  0.587541  0.239262  1
  Hg  Hg19  1  0.585658  0.239262  0.587541  1
  Rh  Rh20  1  0.135485  0.146915  0.146915  1
  Rh  Rh21  1  0.135485  0.146915  0.570686  1
  Rh  Rh22  1  0.135485  0.570686  0.146915  1
  Rh  Rh23  1  0.573068  0.142311  0.142311  1
