# generated using pymatgen
data_NdGeRu2C
_symmetry_space_group_name_H-M   'P 1'
_cell_length_a   5.92890339
_cell_length_b   5.92890343
_cell_length_c   7.36160500
_cell_angle_alpha   90.00000000
_cell_angle_beta   90.00000000
_cell_angle_gamma   140.55663081
_symmetry_Int_Tables_number   1
_chemical_formula_structural   NdGeRu2C
_chemical_formula_sum   'Nd2 Ge2 Ru4 C2'
_cell_volume   164.40330162
_cell_formula_units_Z   2
loop_
 _symmetry_equiv_pos_site_id
 _symmetry_equiv_pos_as_xyz
  1  'x, y, z'
loop_
 _atom_site_type_symbol
 _atom_site_label
 _atom_site_symmetry_multiplicity
 _atom_site_fract_x
 _atom_site_fract_y
 _atom_site_fract_z
 _atom_site_occupancy
  Nd  Nd0  1  0.548728  0.451272  0.250000  1
  Nd  Nd1  1  0.451272  0.548728  0.750000  1
  Ge  Ge2  1  0.269444  0.730556  0.250000  1
  Ge  Ge3  1  0.730556  0.269444  0.750000  1
  Ru  Ru4  1  0.836979  0.163021  0.057802  1
  Ru  Ru5  1  0.163021  0.836979  0.942198  1
  Ru  Ru6  1  0.163021  0.836979  0.557802  1
  Ru  Ru7  1  0.836979  0.163021  0.442198  1
  C  C8  1  0.000000  0.000000  0.000000  1
  C  C9  1  0.000000  0.000000  0.500000  1
