# generated using pymatgen
data_CeNd4(BN3)2
_symmetry_space_group_name_H-M   'P 1'
_cell_length_a   6.41795442
_cell_length_b   6.41795482
_cell_length_c   8.82090821
_cell_angle_alpha   74.51655073
_cell_angle_beta   74.51654932
_cell_angle_gamma   32.48663998
_symmetry_Int_Tables_number   1
_chemical_formula_structural   CeNd4(BN3)2
_chemical_formula_sum   'Ce1 Nd4 B2 N6'
_cell_volume   187.45212001
_cell_formula_units_Z   1
loop_
 _symmetry_equiv_pos_site_id
 _symmetry_equiv_pos_as_xyz
  1  'x, y, z'
loop_
 _atom_site_type_symbol
 _atom_site_label
 _atom_site_symmetry_multiplicity
 _atom_site_fract_x
 _atom_site_fract_y
 _atom_site_fract_z
 _atom_site_occupancy
  Ce  Ce0  1  0.000000  0.000000  0.000000  1
  Nd  Nd1  1  0.623509  0.623509  0.625010  1
  Nd  Nd2  1  0.309412  0.309412  0.816434  1
  Nd  Nd3  1  0.690588  0.690588  0.183566  1
  Nd  Nd4  1  0.376491  0.376491  0.374990  1
  B  B5  1  0.054508  0.054508  0.410137  1
  B  B6  1  0.945492  0.945492  0.589863  1
  N  N7  1  0.026240  0.026240  0.256119  1
  N  N8  1  0.353634  0.353634  0.076824  1
  N  N9  1  0.825995  0.825995  0.588692  1
  N  N10  1  0.973760  0.973760  0.743881  1
  N  N11  1  0.646366  0.646366  0.923176  1
  N  N12  1  0.174005  0.174005  0.411308  1
