# generated using pymatgen
data_HfUV12P7
_symmetry_space_group_name_H-M   'P 1'
_cell_length_a   10.01592900
_cell_length_b   10.01592892
_cell_length_c   3.29891200
_cell_angle_alpha   90.00000000
_cell_angle_beta   90.00000000
_cell_angle_gamma   120.00001017
_symmetry_Int_Tables_number   1
_chemical_formula_structural   HfUV12P7
_chemical_formula_sum   'Hf1 U1 V12 P7'
_cell_volume   286.60501743
_cell_formula_units_Z   1
loop_
 _symmetry_equiv_pos_site_id
 _symmetry_equiv_pos_as_xyz
  1  'x, y, z'
loop_
 _atom_site_type_symbol
 _atom_site_label
 _atom_site_symmetry_multiplicity
 _atom_site_fract_x
 _atom_site_fract_y
 _atom_site_fract_z
 _atom_site_occupancy
  Hf  Hf0  1  0.333333  0.666667  0.000000  1
  U  U1  1  0.666667  0.333333  0.500000  1
  V  V2  1  0.437147  0.051661  0.000000  1
  V  V3  1  0.948339  0.385487  0.000000  1
  V  V4  1  0.614513  0.562853  0.000000  1
  V  V5  1  0.381390  0.432309  0.500000  1
  V  V6  1  0.567691  0.949082  0.500000  1
  V  V7  1  0.050918  0.618610  0.500000  1
  V  V8  1  0.163644  0.277968  0.000000  1
  V  V9  1  0.722032  0.885677  0.000000  1
  V  V10  1  0.114323  0.836356  0.000000  1
  V  V11  1  0.215269  0.084715  0.500000  1
  V  V12  1  0.915285  0.130553  0.500000  1
  V  V13  1  0.869447  0.784731  0.500000  1
  P  P14  1  0.135114  0.431021  0.500000  1
  P  P15  1  0.568979  0.704092  0.500000  1
  P  P16  1  0.295908  0.864886  0.500000  1
  P  P17  1  0.000000  0.000000  0.000000  1
  P  P18  1  0.411852  0.277714  0.000000  1
  P  P19  1  0.722286  0.134140  0.000000  1
  P  P20  1  0.865860  0.588148  0.000000  1
