# generated using pymatgen
data_YEr5OsPd
_symmetry_space_group_name_H-M   'P 1'
_cell_length_a   6.38772450
_cell_length_b   7.24997558
_cell_length_c   9.14918500
_cell_angle_alpha   90.00000000
_cell_angle_beta   90.00000000
_cell_angle_gamma   90.29103436
_symmetry_Int_Tables_number   1
_chemical_formula_structural   YEr5OsPd
_chemical_formula_sum   'Y2 Er10 Os2 Pd2'
_cell_volume   423.70103726
_cell_formula_units_Z   2
loop_
 _symmetry_equiv_pos_site_id
 _symmetry_equiv_pos_as_xyz
  1  'x, y, z'
loop_
 _atom_site_type_symbol
 _atom_site_label
 _atom_site_symmetry_multiplicity
 _atom_site_fract_x
 _atom_site_fract_y
 _atom_site_fract_z
 _atom_site_occupancy
  Y  Y0  1  0.120642  0.477353  0.750000  1
  Y  Y1  1  0.879358  0.522647  0.250000  1
  Er  Er2  1  0.621652  0.042373  0.250000  1
  Er  Er3  1  0.378348  0.957627  0.750000  1
  Er  Er4  1  0.179221  0.183142  0.061275  1
  Er  Er5  1  0.820779  0.816858  0.938725  1
  Er  Er6  1  0.661940  0.324655  0.941582  1
  Er  Er7  1  0.820779  0.816858  0.561275  1
  Er  Er8  1  0.338060  0.675345  0.058418  1
  Er  Er9  1  0.179221  0.183142  0.438725  1
  Er  Er10  1  0.338060  0.675345  0.441582  1
  Er  Er11  1  0.661940  0.324655  0.558418  1
  Os  Os12  1  0.456070  0.384834  0.250000  1
  Os  Os13  1  0.543930  0.615166  0.750000  1
  Pd  Pd14  1  0.952838  0.110616  0.750000  1
  Pd  Pd15  1  0.047162  0.889384  0.250000  1
