# generated using pymatgen
data_Hf4Fe8Si7Ge
_symmetry_space_group_name_H-M   'P 1'
_cell_length_a   5.03494900
_cell_length_b   7.05898301
_cell_length_c   7.46414211
_cell_angle_alpha   90.08629914
_cell_angle_beta   90.00000000
_cell_angle_gamma   90.00000000
_symmetry_Int_Tables_number   1
_chemical_formula_structural   Hf4Fe8Si7Ge
_chemical_formula_sum   'Hf4 Fe8 Si7 Ge1'
_cell_volume   265.28739738
_cell_formula_units_Z   1
loop_
 _symmetry_equiv_pos_site_id
 _symmetry_equiv_pos_as_xyz
  1  'x, y, z'
loop_
 _atom_site_type_symbol
 _atom_site_label
 _atom_site_symmetry_multiplicity
 _atom_site_fract_x
 _atom_site_fract_y
 _atom_site_fract_z
 _atom_site_occupancy
  Hf  Hf0  1  0.750000  0.910207  0.246695  1
  Hf  Hf1  1  0.250000  0.092947  0.752350  1
  Hf  Hf2  1  0.750000  0.406161  0.753035  1
  Hf  Hf3  1  0.250000  0.592230  0.245300  1
  Fe  Fe4  1  0.750000  0.518060  0.099731  1
  Fe  Fe5  1  0.250000  0.482332  0.893100  1
  Fe  Fe6  1  0.750000  0.016905  0.891568  1
  Fe  Fe7  1  0.250000  0.983854  0.108379  1
  Fe  Fe8  1  0.006235  0.754103  0.614708  1
  Fe  Fe9  1  0.496260  0.245280  0.390577  1
  Fe  Fe10  1  0.003740  0.245280  0.390577  1
  Fe  Fe11  1  0.493765  0.754103  0.614708  1
  Si  Si12  1  0.250000  0.449014  0.586921  1
  Si  Si13  1  0.750000  0.048538  0.586300  1
  Si  Si14  1  0.250000  0.948901  0.413727  1
  Si  Si15  1  0.000068  0.750479  0.943009  1
  Si  Si16  1  0.499779  0.250099  0.056411  1
  Si  Si17  1  0.000221  0.250099  0.056411  1
  Si  Si18  1  0.499932  0.750479  0.943009  1
  Ge  Ge19  1  0.750000  0.550930  0.413485  1
