# generated using pymatgen
data_LiBe5(SiRu2)6
_symmetry_space_group_name_H-M   'P 1'
_cell_length_a   4.05884200
_cell_length_b   5.75413200
_cell_length_c   12.17562000
_cell_angle_alpha   90.00000000
_cell_angle_beta   90.00228222
_cell_angle_gamma   90.00000000
_symmetry_Int_Tables_number   1
_chemical_formula_structural   LiBe5(SiRu2)6
_chemical_formula_sum   'Li1 Be5 Si6 Ru12'
_cell_volume   284.36297639
_cell_formula_units_Z   1
loop_
 _symmetry_equiv_pos_site_id
 _symmetry_equiv_pos_as_xyz
  1  'x, y, z'
loop_
 _atom_site_type_symbol
 _atom_site_label
 _atom_site_symmetry_multiplicity
 _atom_site_fract_x
 _atom_site_fract_y
 _atom_site_fract_z
 _atom_site_occupancy
  Li  Li0  1  0.000000  0.500001  0.000000  1
  Be  Be1  1  0.499741  0.000000  0.167582  1
  Be  Be2  1  0.999721  0.500001  0.333952  1
  Be  Be3  1  0.500000  0.000000  0.500000  1
  Be  Be4  1  0.000280  0.500001  0.666048  1
  Be  Be5  1  0.500259  0.000000  0.832418  1
  Si  Si6  1  0.000000  0.000000  0.000000  1
  Si  Si7  1  0.499790  0.500001  0.163620  1
  Si  Si8  1  0.999748  0.000000  0.334458  1
  Si  Si9  1  0.500000  0.500001  0.500000  1
  Si  Si10  1  0.000253  0.000000  0.665542  1
  Si  Si11  1  0.500210  0.500001  0.836381  1
  Ru  Ru12  1  0.500000  0.242011  0.000000  1
  Ru  Ru13  1  0.500000  0.757989  0.000000  1
  Ru  Ru14  1  0.999788  0.246996  0.170746  1
  Ru  Ru15  1  0.999788  0.753004  0.170746  1
  Ru  Ru16  1  0.499785  0.251122  0.334043  1
  Ru  Ru17  1  0.499785  0.748879  0.334043  1
  Ru  Ru18  1  0.000000  0.250256  0.500000  1
  Ru  Ru19  1  0.000000  0.749744  0.500000  1
  Ru  Ru20  1  0.500216  0.251122  0.665957  1
  Ru  Ru21  1  0.500216  0.748879  0.665957  1
  Ru  Ru22  1  0.000212  0.246996  0.829254  1
  Ru  Ru23  1  0.000212  0.753004  0.829254  1
