# generated using pymatgen
data_Zr2UAl3FeCo2
_symmetry_space_group_name_H-M   'P 1'
_cell_length_a   6.77860829
_cell_length_b   7.03446239
_cell_length_c   3.52228300
_cell_angle_alpha   90.00000000
_cell_angle_beta   90.00000000
_cell_angle_gamma   121.66544079
_symmetry_Int_Tables_number   1
_chemical_formula_structural   Zr2UAl3FeCo2
_chemical_formula_sum   'Zr2 U1 Al3 Fe1 Co2'
_cell_volume   142.95209577
_cell_formula_units_Z   1
loop_
 _symmetry_equiv_pos_site_id
 _symmetry_equiv_pos_as_xyz
  1  'x, y, z'
loop_
 _atom_site_type_symbol
 _atom_site_label
 _atom_site_symmetry_multiplicity
 _atom_site_fract_x
 _atom_site_fract_y
 _atom_site_fract_z
 _atom_site_occupancy
  Zr  Zr0  1  0.412879  0.408718  0.500000  1
  Zr  Zr1  1  0.586966  0.994267  0.500000  1
  U  U2  1  0.990021  0.568066  0.500000  1
  Al  Al3  1  0.741187  0.755772  0.000000  1
  Al  Al4  1  0.256962  0.010193  0.000000  1
  Al  Al5  1  0.000083  0.228140  0.000000  1
  Fe  Fe6  1  0.708907  0.372950  0.000000  1
  Co  Co7  1  0.300994  0.665245  0.000000  1
  Co  Co8  1  0.002003  0.996649  0.500000  1
