# generated using pymatgen
data_NaPu7(US5)4
_symmetry_space_group_name_H-M   'P 1'
_cell_length_a   7.32382192
_cell_length_b   7.89609010
_cell_length_c   11.56394900
_cell_angle_alpha   89.98069119
_cell_angle_beta   89.79272366
_cell_angle_gamma   90.05502629
_symmetry_Int_Tables_number   1
_chemical_formula_structural   NaPu7(US5)4
_chemical_formula_sum   'Na1 Pu7 U4 S20'
_cell_volume   668.73333378
_cell_formula_units_Z   1
loop_
 _symmetry_equiv_pos_site_id
 _symmetry_equiv_pos_as_xyz
  1  'x, y, z'
loop_
 _atom_site_type_symbol
 _atom_site_label
 _atom_site_symmetry_multiplicity
 _atom_site_fract_x
 _atom_site_fract_y
 _atom_site_fract_z
 _atom_site_occupancy
  Na  Na0  1  0.534823  0.502639  0.322923  1
  Pu  Pu1  1  0.969946  0.997551  0.824434  1
  Pu  Pu2  1  0.471576  0.003321  0.678213  1
  Pu  Pu3  1  0.029180  0.496679  0.180410  1
  Pu  Pu4  1  0.469498  0.496843  0.672538  1
  Pu  Pu5  1  0.032592  0.002003  0.175597  1
  Pu  Pu6  1  0.527314  0.994304  0.322518  1
  Pu  Pu7  1  0.966393  0.503402  0.828077  1
  U  U8  1  0.075556  0.752732  0.491486  1
  U  U9  1  0.425369  0.748989  0.989451  1
  U  U10  1  0.921109  0.252248  0.507333  1
  U  U11  1  0.573240  0.249095  0.011862  1
  S  S12  1  0.832812  0.955188  0.594637  1
  S  S13  1  0.679487  0.547879  0.079020  1
  S  S14  1  0.161262  0.457247  0.409617  1
  S  S15  1  0.330223  0.046157  0.907503  1
  S  S16  1  0.170003  0.049260  0.409030  1
  S  S17  1  0.329522  0.452772  0.906813  1
  S  S18  1  0.830490  0.547160  0.595690  1
  S  S19  1  0.671404  0.951030  0.089710  1
  S  S20  1  0.847227  0.757692  0.310076  1
  S  S21  1  0.660390  0.751753  0.807921  1
  S  S22  1  0.158072  0.250625  0.689992  1
  S  S23  1  0.330426  0.239709  0.186198  1
  S  S24  1  0.454739  0.759290  0.503483  1
  S  S25  1  0.044083  0.751006  0.999427  1
  S  S26  1  0.545242  0.240862  0.505932  1
  S  S27  1  0.958159  0.247321  0.000488  1
  S  S28  1  0.191096  0.749385  0.717664  1
  S  S29  1  0.306935  0.754059  0.212533  1
  S  S30  1  0.810293  0.240688  0.281831  1
  S  S31  1  0.691536  0.251112  0.787592  1
