# generated using pymatgen
data_Ho3ErFe5Si10Rh
_symmetry_space_group_name_H-M   'P 1'
_cell_length_a   8.00131911
_cell_length_b   8.00167778
_cell_length_c   8.00165258
_cell_angle_alpha   140.43808519
_cell_angle_beta   108.22585785
_cell_angle_gamma   85.19879420
_symmetry_Int_Tables_number   1
_chemical_formula_structural   Ho3ErFe5Si10Rh
_chemical_formula_sum   'Ho3 Er1 Fe5 Si10 Rh1'
_cell_volume   299.24189464
_cell_formula_units_Z   1
loop_
 _symmetry_equiv_pos_site_id
 _symmetry_equiv_pos_as_xyz
  1  'x, y, z'
loop_
 _atom_site_type_symbol
 _atom_site_label
 _atom_site_symmetry_multiplicity
 _atom_site_fract_x
 _atom_site_fract_y
 _atom_site_fract_z
 _atom_site_occupancy
  Ho  Ho0  1  0.368373  0.144886  0.236325  1
  Ho  Ho1  1  0.091498  0.355199  0.723500  1
  Ho  Ho2  1  0.908544  0.632005  0.263690  1
  Er  Er3  1  0.631724  0.868055  0.776730  1
  Fe  Fe4  1  0.234034  0.643681  0.589622  1
  Fe  Fe5  1  0.766038  0.355710  0.409598  1
  Fe  Fe6  1  0.054096  0.144300  0.910509  1
  Fe  Fe7  1  0.945652  0.856364  0.089925  1
  Fe  Fe8  1  0.500015  0.749971  0.250050  1
  Si  Si9  1  0.285691  0.035396  0.749976  1
  Si  Si10  1  0.711443  0.961504  0.249897  1
  Si  Si11  1  0.714448  0.464545  0.749928  1
  Si  Si12  1  0.288730  0.538723  0.250282  1
  Si  Si13  1  0.423114  0.610101  0.838758  1
  Si  Si14  1  0.577064  0.415772  0.187278  1
  Si  Si15  1  0.771208  0.084128  0.661290  1
  Si  Si16  1  0.228697  0.889895  0.312947  1
  Si  Si17  1  0.999807  0.750018  0.749913  1
  Si  Si18  1  0.999787  0.249853  0.249746  1
  Rh  Rh19  1  0.500035  0.249894  0.750036  1
