# generated using pymatgen
data_Sm2Si3Ir
_symmetry_space_group_name_H-M   'P 1'
_cell_length_a   8.23961051
_cell_length_b   8.21395312
_cell_length_c   5.84979878
_cell_angle_alpha   69.40890468
_cell_angle_beta   68.93914039
_cell_angle_gamma   41.65197097
_symmetry_Int_Tables_number   1
_chemical_formula_structural   Sm2Si3Ir
_chemical_formula_sum   'Sm4 Si6 Ir2'
_cell_volume   243.32989748
_cell_formula_units_Z   2
loop_
 _symmetry_equiv_pos_site_id
 _symmetry_equiv_pos_as_xyz
  1  'x, y, z'
loop_
 _atom_site_type_symbol
 _atom_site_label
 _atom_site_symmetry_multiplicity
 _atom_site_fract_x
 _atom_site_fract_y
 _atom_site_fract_z
 _atom_site_occupancy
  Sm  Sm0  1  0.250572  0.749427  0.250573  1
  Sm  Sm1  1  0.250000  0.250000  0.249999  1
  Sm  Sm2  1  0.750000  0.750000  0.750000  1
  Sm  Sm3  1  0.749427  0.250573  0.749427  1
  Si  Si4  1  0.832878  0.832879  0.167122  1
  Si  Si5  1  0.833868  0.333649  0.166131  1
  Si  Si6  1  0.666351  0.166131  0.333649  1
  Si  Si7  1  0.333648  0.833869  0.666352  1
  Si  Si8  1  0.166130  0.666352  0.833869  1
  Si  Si9  1  0.167121  0.167122  0.832879  1
  Ir  Ir10  1  0.666338  0.666339  0.333661  1
  Ir  Ir11  1  0.333661  0.333662  0.666339  1
