# generated using pymatgen
data_Yb3PaTaSn3O14
_symmetry_space_group_name_H-M   'P 1'
_cell_length_a   7.43417140
_cell_length_b   7.43417154
_cell_length_c   7.43417072
_cell_angle_alpha   59.64287133
_cell_angle_beta   59.64286993
_cell_angle_gamma   59.64286942
_symmetry_Int_Tables_number   1
_chemical_formula_structural   Yb3PaTaSn3O14
_chemical_formula_sum   'Yb3 Pa1 Ta1 Sn3 O14'
_cell_volume   288.16683491
_cell_formula_units_Z   1
loop_
 _symmetry_equiv_pos_site_id
 _symmetry_equiv_pos_as_xyz
  1  'x, y, z'
loop_
 _atom_site_type_symbol
 _atom_site_label
 _atom_site_symmetry_multiplicity
 _atom_site_fract_x
 _atom_site_fract_y
 _atom_site_fract_z
 _atom_site_occupancy
  Yb  Yb0  1  0.625000  0.625000  0.125000  1
  Yb  Yb1  1  0.625000  0.125000  0.625000  1
  Yb  Yb2  1  0.125000  0.625000  0.625000  1
  Pa  Pa3  1  0.625000  0.625000  0.625000  1
  Ta  Ta4  1  0.125000  0.125000  0.125000  1
  Sn  Sn5  1  0.125000  0.125000  0.625000  1
  Sn  Sn6  1  0.125000  0.625000  0.125000  1
  Sn  Sn7  1  0.625000  0.125000  0.125000  1
  O  O8  1  0.738565  0.738565  0.738565  1
  O  O9  1  0.511435  0.511435  0.511435  1
  O  O10  1  0.046819  0.449555  0.046819  1
  O  O11  1  0.785246  0.219392  0.785246  1
  O  O12  1  0.046819  0.046819  0.449555  1
  O  O13  1  0.449555  0.046819  0.046819  1
  O  O14  1  0.030608  0.464754  0.464754  1
  O  O15  1  0.464754  0.464754  0.030608  1
  O  O16  1  0.464754  0.030608  0.464754  1
  O  O17  1  0.219392  0.785246  0.785246  1
  O  O18  1  0.800445  0.203181  0.203181  1
  O  O19  1  0.203181  0.800445  0.203181  1
  O  O20  1  0.785246  0.785246  0.219392  1
  O  O21  1  0.203181  0.203181  0.800445  1
