# generated using pymatgen
data_Y2Ir3W
_symmetry_space_group_name_H-M   'P 1'
_cell_length_a   5.59552133
_cell_length_b   5.24716030
_cell_length_c   5.59552200
_cell_angle_alpha   57.77841193
_cell_angle_beta   60.00000785
_cell_angle_gamma   57.77840907
_symmetry_Int_Tables_number   1
_chemical_formula_structural   Y2Ir3W
_chemical_formula_sum   'Y2 Ir3 W1'
_cell_volume   112.11404826
_cell_formula_units_Z   1
loop_
 _symmetry_equiv_pos_site_id
 _symmetry_equiv_pos_as_xyz
  1  'x, y, z'
loop_
 _atom_site_type_symbol
 _atom_site_label
 _atom_site_symmetry_multiplicity
 _atom_site_fract_x
 _atom_site_fract_y
 _atom_site_fract_z
 _atom_site_occupancy
  Y  Y0  1  0.498972  0.503085  0.498972  1
  Y  Y1  1  0.751028  0.746915  0.751028  1
  Ir  Ir2  1  0.625000  0.125000  0.125000  1
  Ir  Ir3  1  0.125000  0.125000  0.125000  1
  Ir  Ir4  1  0.125000  0.125000  0.625000  1
  W  W5  1  0.125000  0.625000  0.125000  1
