# generated using pymatgen
data_Ti4Nb2Co16Si7
_symmetry_space_group_name_H-M   'P 1'
_cell_length_a   7.86510569
_cell_length_b   7.86601252
_cell_length_c   7.86601301
_cell_angle_alpha   60.00558970
_cell_angle_beta   59.99668831
_cell_angle_gamma   59.99668531
_symmetry_Int_Tables_number   1
_chemical_formula_structural   Ti4Nb2Co16Si7
_chemical_formula_sum   'Ti4 Nb2 Co16 Si7'
_cell_volume   344.10853878
_cell_formula_units_Z   1
loop_
 _symmetry_equiv_pos_site_id
 _symmetry_equiv_pos_as_xyz
  1  'x, y, z'
loop_
 _atom_site_type_symbol
 _atom_site_label
 _atom_site_symmetry_multiplicity
 _atom_site_fract_x
 _atom_site_fract_y
 _atom_site_fract_z
 _atom_site_occupancy
  Ti  Ti0  1  0.203116  0.201901  0.798088  1
  Ti  Ti1  1  0.203116  0.798088  0.201901  1
  Ti  Ti2  1  0.203615  0.797465  0.797465  1
  Ti  Ti3  1  0.798576  0.202544  0.202544  1
  Nb  Nb4  1  0.800329  0.799307  0.200662  1
  Nb  Nb5  1  0.800329  0.200662  0.799307  1
  Co  Co6  1  0.618696  0.142417  0.619040  1
  Co  Co7  1  0.141847  0.619227  0.619227  1
  Co  Co8  1  0.618696  0.619040  0.142417  1
  Co  Co9  1  0.618363  0.619268  0.619268  1
  Co  Co10  1  0.380120  0.857579  0.380976  1
  Co  Co11  1  0.856856  0.380737  0.380737  1
  Co  Co12  1  0.380121  0.380976  0.857579  1
  Co  Co13  1  0.380274  0.380785  0.380785  1
  Co  Co14  1  0.498424  0.833637  0.833637  1
  Co  Co15  1  0.833314  0.499684  0.833871  1
  Co  Co16  1  0.833314  0.833871  0.499684  1
  Co  Co17  1  0.833529  0.832597  0.832597  1
  Co  Co18  1  0.166852  0.500315  0.166134  1
  Co  Co19  1  0.498741  0.167390  0.167390  1
  Co  Co20  1  0.166852  0.166134  0.500315  1
  Co  Co21  1  0.165687  0.166371  0.166371  1
  Si  Si22  1  0.499071  0.499973  0.499973  1
  Si  Si23  1  0.498504  0.501307  0.001546  1
  Si  Si24  1  0.498504  0.001546  0.501307  1
  Si  Si25  1  0.001312  0.998492  0.498873  1
  Si  Si26  1  0.001312  0.498873  0.998491  1
  Si  Si27  1  0.003120  0.499907  0.499907  1
  Si  Si28  1  0.497403  0.999902  0.999902  1
