# generated using pymatgen
data_PrGd3(WO6)2
_symmetry_space_group_name_H-M   'P 1'
_cell_length_a   5.50784800
_cell_length_b   7.85730542
_cell_length_c   11.67410049
_cell_angle_alpha   75.74856898
_cell_angle_beta   90.00000000
_cell_angle_gamma   90.00000000
_symmetry_Int_Tables_number   1
_chemical_formula_structural   PrGd3(WO6)2
_chemical_formula_sum   'Pr2 Gd6 W4 O24'
_cell_volume   489.67001347
_cell_formula_units_Z   2
loop_
 _symmetry_equiv_pos_site_id
 _symmetry_equiv_pos_as_xyz
  1  'x, y, z'
loop_
 _atom_site_type_symbol
 _atom_site_label
 _atom_site_symmetry_multiplicity
 _atom_site_fract_x
 _atom_site_fract_y
 _atom_site_fract_z
 _atom_site_occupancy
  Pr  Pr0  1  0.684267  0.500000  0.750000  1
  Pr  Pr1  1  0.315733  0.500000  0.250000  1
  Gd  Gd2  1  0.740064  0.000000  0.750000  1
  Gd  Gd3  1  0.259936  0.000000  0.250000  1
  Gd  Gd4  1  0.188141  0.796647  0.576510  1
  Gd  Gd5  1  0.811859  0.796647  0.076510  1
  Gd  Gd6  1  0.188141  0.203353  0.923490  1
  Gd  Gd7  1  0.811859  0.203353  0.423490  1
  W  W8  1  0.252411  0.727020  0.884390  1
  W  W9  1  0.747589  0.727020  0.384390  1
  W  W10  1  0.252411  0.272980  0.615610  1
  W  W11  1  0.747589  0.272980  0.115610  1
  O  O12  1  0.043549  0.938944  0.895815  1
  O  O13  1  0.526655  0.846971  0.930225  1
  O  O14  1  0.956451  0.938944  0.395815  1
  O  O15  1  0.454069  0.791717  0.729271  1
  O  O16  1  0.473345  0.846971  0.430225  1
  O  O17  1  0.986622  0.717041  0.771528  1
  O  O18  1  0.545931  0.791717  0.229271  1
  O  O19  1  0.851239  0.641261  0.544353  1
  O  O20  1  0.350161  0.495755  0.886991  1
  O  O21  1  0.013378  0.717041  0.271528  1
  O  O22  1  0.350161  0.504245  0.613009  1
  O  O23  1  0.851239  0.358739  0.955647  1
  O  O24  1  0.148761  0.641261  0.044353  1
  O  O25  1  0.649839  0.495755  0.386991  1
  O  O26  1  0.986622  0.282959  0.728472  1
  O  O27  1  0.649839  0.504245  0.113009  1
  O  O28  1  0.148761  0.358739  0.455647  1
  O  O29  1  0.454069  0.208283  0.770729  1
  O  O30  1  0.013378  0.282959  0.228472  1
  O  O31  1  0.526655  0.153029  0.569775  1
  O  O32  1  0.545931  0.208283  0.270729  1
  O  O33  1  0.043549  0.061056  0.604185  1
  O  O34  1  0.473345  0.153029  0.069775  1
  O  O35  1  0.956451  0.061056  0.104185  1
