# generated using pymatgen
data_PuHf4N5
_symmetry_space_group_name_H-M   'P 1'
_cell_length_a   13.66446129
_cell_length_b   13.66446232
_cell_length_c   13.66446200
_cell_angle_alpha   13.53835091
_cell_angle_beta   13.53835086
_cell_angle_gamma   13.53835156
_symmetry_Int_Tables_number   1
_chemical_formula_structural   PuHf4N5
_chemical_formula_sum   'Pu1 Hf4 N5'
_cell_volume   121.65016146
_cell_formula_units_Z   1
loop_
 _symmetry_equiv_pos_site_id
 _symmetry_equiv_pos_as_xyz
  1  'x, y, z'
loop_
 _atom_site_type_symbol
 _atom_site_label
 _atom_site_symmetry_multiplicity
 _atom_site_fract_x
 _atom_site_fract_y
 _atom_site_fract_z
 _atom_site_occupancy
  Pu  Pu0  1  0.000000  0.000000  0.000000  1
  Hf  Hf1  1  0.597539  0.597539  0.597539  1
  Hf  Hf2  1  0.198285  0.198285  0.198285  1
  Hf  Hf3  1  0.801715  0.801715  0.801715  1
  Hf  Hf4  1  0.402461  0.402461  0.402461  1
  N  N5  1  0.500000  0.500000  0.500000  1
  N  N6  1  0.706537  0.706537  0.706537  1
  N  N7  1  0.102423  0.102423  0.102423  1
  N  N8  1  0.293463  0.293463  0.293463  1
  N  N9  1  0.897577  0.897577  0.897577  1
