# generated using pymatgen
data_SrCaNdNbO6
_symmetry_space_group_name_H-M   'P 1'
_cell_length_a   8.32387431
_cell_length_b   8.32387794
_cell_length_c   10.08295747
_cell_angle_alpha   66.73796818
_cell_angle_beta   66.73797478
_cell_angle_gamma   92.43381543
_symmetry_Int_Tables_number   1
_chemical_formula_structural   SrCaNdNbO6
_chemical_formula_sum   'Sr4 Ca4 Nd4 Nb4 O24'
_cell_volume   573.12130210
_cell_formula_units_Z   4
loop_
 _symmetry_equiv_pos_site_id
 _symmetry_equiv_pos_as_xyz
  1  'x, y, z'
loop_
 _atom_site_type_symbol
 _atom_site_label
 _atom_site_symmetry_multiplicity
 _atom_site_fract_x
 _atom_site_fract_y
 _atom_site_fract_z
 _atom_site_occupancy
  Sr  Sr0  1  0.401823  0.856498  0.251735  1
  Sr  Sr1  1  0.901821  0.356499  0.251734  1
  Sr  Sr2  1  0.106499  0.151823  0.751734  1
  Sr  Sr3  1  0.606498  0.651820  0.751736  1
  Ca  Ca4  1  0.501921  0.993830  0.501956  1
  Ca  Ca5  1  0.743826  0.751918  0.001958  1
  Ca  Ca6  1  0.001919  0.493828  0.501959  1
  Ca  Ca7  1  0.243824  0.251919  0.001956  1
  Nd  Nd8  1  0.080235  0.643648  0.756010  1
  Nd  Nd9  1  0.580235  0.143654  0.756006  1
  Nd  Nd10  1  0.393649  0.330233  0.256007  1
  Nd  Nd11  1  0.893656  0.830238  0.256005  1
  Nb  Nb12  1  0.750849  0.247159  0.000799  1
  Nb  Nb13  1  0.250842  0.747164  0.000804  1
  Nb  Nb14  1  0.497170  0.500846  0.500798  1
  Nb  Nb15  1  0.997165  0.000848  0.500803  1
  O  O16  1  0.262511  0.996325  0.435256  1
  O  O17  1  0.762512  0.496324  0.435256  1
  O  O18  1  0.746324  0.512511  0.935256  1
  O  O19  1  0.246322  0.012511  0.935258  1
  O  O20  1  0.241150  0.535162  0.564171  1
  O  O21  1  0.741148  0.035163  0.564169  1
  O  O22  1  0.785162  0.991149  0.064170  1
  O  O23  1  0.285163  0.491150  0.064169  1
  O  O24  1  0.587121  0.762174  0.441267  1
  O  O25  1  0.087116  0.262170  0.441270  1
  O  O26  1  0.012169  0.337116  0.941270  1
  O  O27  1  0.512171  0.837118  0.941268  1
  O  O28  1  0.935238  0.742162  0.546993  1
  O  O29  1  0.435243  0.242158  0.546997  1
  O  O30  1  0.492157  0.185241  0.046996  1
  O  O31  1  0.992161  0.685240  0.046994  1
  O  O32  1  0.955470  0.905947  0.731157  1
  O  O33  1  0.455472  0.405948  0.731157  1
  O  O34  1  0.155951  0.705470  0.231156  1
  O  O35  1  0.655945  0.205470  0.231159  1
  O  O36  1  0.529207  0.571571  0.270654  1
  O  O37  1  0.029209  0.071576  0.270654  1
  O  O38  1  0.321572  0.779208  0.770652  1
  O  O39  1  0.821573  0.279207  0.770654  1
