# generated using pymatgen
data_CaPr11(Si7Br3)2
_symmetry_space_group_name_H-M   'P 1'
_cell_length_a   4.12967000
_cell_length_b   11.84410795
_cell_length_c   16.73736400
_cell_angle_alpha   90.21828269
_cell_angle_beta   90.00000000
_cell_angle_gamma   90.00000000
_symmetry_Int_Tables_number   1
_chemical_formula_structural   CaPr11(Si7Br3)2
_chemical_formula_sum   'Ca1 Pr11 Si14 Br6'
_cell_volume   818.65631328
_cell_formula_units_Z   1
loop_
 _symmetry_equiv_pos_site_id
 _symmetry_equiv_pos_as_xyz
  1  'x, y, z'
loop_
 _atom_site_type_symbol
 _atom_site_label
 _atom_site_symmetry_multiplicity
 _atom_site_fract_x
 _atom_site_fract_y
 _atom_site_fract_z
 _atom_site_occupancy
  Ca  Ca0  1  0.000000  0.942542  0.376629  1
  Pr  Pr1  1  0.500000  0.342011  0.500398  1
  Pr  Pr2  1  0.000000  0.657556  0.000703  1
  Pr  Pr3  1  0.500000  0.358764  0.757251  1
  Pr  Pr4  1  0.000000  0.640080  0.744402  1
  Pr  Pr5  1  0.500000  0.358061  0.242776  1
  Pr  Pr6  1  0.000000  0.642552  0.257332  1
  Pr  Pr7  1  0.500000  0.065034  0.879948  1
  Pr  Pr8  1  0.000000  0.935514  0.619081  1
  Pr  Pr9  1  0.500000  0.065079  0.118928  1
  Pr  Pr10  1  0.500000  0.356541  0.999871  1
  Pr  Pr11  1  0.000000  0.642695  0.500783  1
  Si  Si12  1  0.000000  0.151882  0.999635  1
  Si  Si13  1  0.500000  0.845600  0.501127  1
  Si  Si14  1  0.500000  0.566935  0.877346  1
  Si  Si15  1  0.000000  0.432168  0.623778  1
  Si  Si16  1  0.500000  0.567494  0.124297  1
  Si  Si17  1  0.000000  0.433746  0.376003  1
  Si  Si18  1  0.000000  0.253460  0.873890  1
  Si  Si19  1  0.500000  0.745926  0.626846  1
  Si  Si20  1  0.000000  0.253900  0.125006  1
  Si  Si21  1  0.500000  0.744913  0.375856  1
  Si  Si22  1  0.000000  0.457772  0.877121  1
  Si  Si23  1  0.500000  0.541911  0.624071  1
  Si  Si24  1  0.500000  0.542273  0.377084  1
  Si  Si25  1  0.000000  0.458541  0.123660  1
  Br  Br26  1  0.500000  0.107854  0.693424  1
  Br  Br27  1  0.000000  0.891390  0.805914  1
  Br  Br28  1  0.000000  0.139862  0.499782  1
  Br  Br29  1  0.500000  0.860686  0.998254  1
  Br  Br30  1  0.500000  0.105465  0.307566  1
  Br  Br31  1  0.000000  0.891786  0.191240  1
