# generated using pymatgen
data_CeY2Er(Si3Rh)2
_symmetry_space_group_name_H-M   'P 1'
_cell_length_a   8.18432057
_cell_length_b   8.18432095
_cell_length_c   8.03423600
_cell_angle_alpha   90.00000000
_cell_angle_beta   90.00000000
_cell_angle_gamma   120.04263220
_symmetry_Int_Tables_number   1
_chemical_formula_structural   CeY2Er(Si3Rh)2
_chemical_formula_sum   'Ce2 Y4 Er2 Si12 Rh4'
_cell_volume   465.85822846
_cell_formula_units_Z   2
loop_
 _symmetry_equiv_pos_site_id
 _symmetry_equiv_pos_as_xyz
  1  'x, y, z'
loop_
 _atom_site_type_symbol
 _atom_site_label
 _atom_site_symmetry_multiplicity
 _atom_site_fract_x
 _atom_site_fract_y
 _atom_site_fract_z
 _atom_site_occupancy
  Ce  Ce0  1  0.999892  0.000108  0.250000  1
  Ce  Ce1  1  0.999980  0.000020  0.750000  1
  Y  Y2  1  0.492925  0.507075  0.250000  1
  Y  Y3  1  0.492860  0.985789  0.250000  1
  Y  Y4  1  0.014211  0.507140  0.250000  1
  Y  Y5  1  0.508078  0.491922  0.750000  1
  Er  Er6  1  0.985404  0.492639  0.750000  1
  Er  Er7  1  0.507361  0.014596  0.750000  1
  Si  Si8  1  0.832853  0.167147  0.503816  1
  Si  Si9  1  0.833041  0.665695  0.502655  1
  Si  Si10  1  0.334305  0.166959  0.502655  1
  Si  Si11  1  0.832853  0.167147  0.996184  1
  Si  Si12  1  0.833041  0.665695  0.997345  1
  Si  Si13  1  0.334305  0.166959  0.997345  1
  Si  Si14  1  0.167400  0.832600  0.000713  1
  Si  Si15  1  0.664830  0.832556  0.001059  1
  Si  Si16  1  0.167444  0.335170  0.001059  1
  Si  Si17  1  0.167400  0.832600  0.499287  1
  Si  Si18  1  0.664830  0.832556  0.498941  1
  Si  Si19  1  0.167444  0.335170  0.498941  1
  Rh  Rh20  1  0.666990  0.333010  0.474335  1
  Rh  Rh21  1  0.666990  0.333010  0.025665  1
  Rh  Rh22  1  0.332780  0.667220  0.966660  1
  Rh  Rh23  1  0.332780  0.667220  0.533340  1
