# generated using pymatgen
data_TbDy3Re5Ru3
_symmetry_space_group_name_H-M   'P 1'
_cell_length_a   5.33663300
_cell_length_b   5.20352305
_cell_length_c   9.16297701
_cell_angle_alpha   89.99929724
_cell_angle_beta   90.00409671
_cell_angle_gamma   119.01367995
_symmetry_Int_Tables_number   1
_chemical_formula_structural   TbDy3Re5Ru3
_chemical_formula_sum   'Tb1 Dy3 Re5 Ru3'
_cell_volume   222.51699179
_cell_formula_units_Z   1
loop_
 _symmetry_equiv_pos_site_id
 _symmetry_equiv_pos_as_xyz
  1  'x, y, z'
loop_
 _atom_site_type_symbol
 _atom_site_label
 _atom_site_symmetry_multiplicity
 _atom_site_fract_x
 _atom_site_fract_y
 _atom_site_fract_z
 _atom_site_occupancy
  Tb  Tb0  1  0.668956  0.334461  0.562504  1
  Dy  Dy1  1  0.328879  0.664440  0.435634  1
  Dy  Dy2  1  0.328854  0.664397  0.064240  1
  Dy  Dy3  1  0.669211  0.334632  0.937296  1
  Re  Re4  1  0.171445  0.341807  0.750429  1
  Re  Re5  1  0.170951  0.832118  0.750371  1
  Re  Re6  1  0.656719  0.827765  0.750449  1
  Re  Re7  1  0.838081  0.665098  0.249680  1
  Re  Re8  1  0.837773  0.173239  0.249713  1
  Ru  Ru9  1  0.987504  0.992566  0.498159  1
  Ru  Ru10  1  0.987298  0.992506  0.001820  1
  Ru  Ru11  1  0.354329  0.176970  0.249706  1
