# generated using pymatgen
data_Zr6Ti3Al13Pd6Rh
_symmetry_space_group_name_H-M   'P 1'
_cell_length_a   8.84453257
_cell_length_b   8.84453296
_cell_length_c   8.84453235
_cell_angle_alpha   59.80791326
_cell_angle_beta   59.80790848
_cell_angle_gamma   59.80791635
_symmetry_Int_Tables_number   1
_chemical_formula_structural   Zr6Ti3Al13Pd6Rh
_chemical_formula_sum   'Zr6 Ti3 Al13 Pd6 Rh1'
_cell_volume   487.09296661
_cell_formula_units_Z   1
loop_
 _symmetry_equiv_pos_site_id
 _symmetry_equiv_pos_as_xyz
  1  'x, y, z'
loop_
 _atom_site_type_symbol
 _atom_site_label
 _atom_site_symmetry_multiplicity
 _atom_site_fract_x
 _atom_site_fract_y
 _atom_site_fract_z
 _atom_site_occupancy
  Zr  Zr0  1  0.690028  0.690028  0.308747  1
  Zr  Zr1  1  0.310412  0.688625  0.310412  1
  Zr  Zr2  1  0.688625  0.310412  0.310412  1
  Zr  Zr3  1  0.310412  0.310412  0.688625  1
  Zr  Zr4  1  0.690028  0.308747  0.690028  1
  Zr  Zr5  1  0.308747  0.690028  0.690028  1
  Ti  Ti6  1  0.880831  0.880831  0.355758  1
  Ti  Ti7  1  0.880831  0.355758  0.880831  1
  Ti  Ti8  1  0.355758  0.880831  0.880831  1
  Al  Al9  1  0.882790  0.882790  0.882790  1
  Al  Al10  1  0.118985  0.118985  0.643623  1
  Al  Al11  1  0.118985  0.643623  0.118985  1
  Al  Al12  1  0.643623  0.118985  0.118985  1
  Al  Al13  1  0.120155  0.120155  0.120155  1
  Al  Al14  1  0.665902  0.665902  0.001398  1
  Al  Al15  1  0.665902  0.001398  0.665902  1
  Al  Al16  1  0.001398  0.665902  0.665902  1
  Al  Al17  1  0.664717  0.664717  0.664717  1
  Al  Al18  1  0.334354  0.334354  0.997113  1
  Al  Al19  1  0.334354  0.997113  0.334354  1
  Al  Al20  1  0.997113  0.334354  0.334354  1
  Al  Al21  1  0.333835  0.333835  0.333835  1
  Pd  Pd22  1  0.999085  0.999085  0.502096  1
  Pd  Pd23  1  0.499773  0.999590  0.499773  1
  Pd  Pd24  1  0.999590  0.499773  0.499773  1
  Pd  Pd25  1  0.499773  0.499773  0.999590  1
  Pd  Pd26  1  0.999085  0.502096  0.999085  1
  Pd  Pd27  1  0.502096  0.999085  0.999085  1
  Rh  Rh28  1  0.002815  0.002815  0.002815  1
