# generated using pymatgen
data_Sr7CeBi6
_symmetry_space_group_name_H-M   'P 1'
_cell_length_a   8.78422656
_cell_length_b   8.78422759
_cell_length_c   8.78422608
_cell_angle_alpha   109.73473453
_cell_angle_beta   109.73473202
_cell_angle_gamma   109.73473172
_symmetry_Int_Tables_number   1
_chemical_formula_structural   Sr7CeBi6
_chemical_formula_sum   'Sr7 Ce1 Bi6'
_cell_volume   516.62822384
_cell_formula_units_Z   1
loop_
 _symmetry_equiv_pos_site_id
 _symmetry_equiv_pos_as_xyz
  1  'x, y, z'
loop_
 _atom_site_type_symbol
 _atom_site_label
 _atom_site_symmetry_multiplicity
 _atom_site_fract_x
 _atom_site_fract_y
 _atom_site_fract_z
 _atom_site_occupancy
  Sr  Sr0  1  0.494560  0.004204  0.864147  1
  Sr  Sr1  1  0.864147  0.494560  0.004204  1
  Sr  Sr2  1  0.143925  0.143925  0.143925  1
  Sr  Sr3  1  0.004204  0.864147  0.494560  1
  Sr  Sr4  1  0.497430  0.999337  0.353446  1
  Sr  Sr5  1  0.999337  0.353446  0.497430  1
  Sr  Sr6  1  0.353446  0.497430  0.999337  1
  Ce  Ce7  1  0.648157  0.648157  0.648157  1
  Bi  Bi8  1  0.742766  0.862937  0.104104  1
  Bi  Bi9  1  0.388954  0.268039  0.627994  1
  Bi  Bi10  1  0.268039  0.627994  0.388954  1
  Bi  Bi11  1  0.862937  0.104104  0.742766  1
  Bi  Bi12  1  0.627994  0.388954  0.268039  1
  Bi  Bi13  1  0.104104  0.742766  0.862937  1
