# generated using pymatgen
data_Nd17Dy2TmSn16
_symmetry_space_group_name_H-M   'P 1'
_cell_length_a   8.25476500
_cell_length_b   8.40903244
_cell_length_c   15.95243900
_cell_angle_alpha   90.00000000
_cell_angle_beta   90.00000000
_cell_angle_gamma   89.96846130
_symmetry_Int_Tables_number   1
_chemical_formula_structural   Nd17Dy2TmSn16
_chemical_formula_sum   'Nd17 Dy2 Tm1 Sn16'
_cell_volume   1107.33179180
_cell_formula_units_Z   1
loop_
 _symmetry_equiv_pos_site_id
 _symmetry_equiv_pos_as_xyz
  1  'x, y, z'
loop_
 _atom_site_type_symbol
 _atom_site_label
 _atom_site_symmetry_multiplicity
 _atom_site_fract_x
 _atom_site_fract_y
 _atom_site_fract_z
 _atom_site_occupancy
  Nd  Nd0  1  0.017943  0.181012  0.401445  1
  Nd  Nd1  1  0.367205  0.837790  0.120777  1
  Nd  Nd2  1  0.133441  0.336927  0.620639  1
  Nd  Nd3  1  0.481359  0.681742  0.901992  1
  Nd  Nd4  1  0.866945  0.662228  0.121941  1
  Nd  Nd5  1  0.133441  0.336927  0.879361  1
  Nd  Nd6  1  0.481359  0.681742  0.598008  1
  Nd  Nd7  1  0.631898  0.162248  0.620179  1
  Nd  Nd8  1  0.803329  0.498089  0.750000  1
  Nd  Nd9  1  0.866945  0.662228  0.378059  1
  Nd  Nd10  1  0.017943  0.181012  0.098555  1
  Nd  Nd11  1  0.982358  0.819760  0.901866  1
  Nd  Nd12  1  0.631898  0.162248  0.879821  1
  Nd  Nd13  1  0.518298  0.319088  0.099126  1
  Nd  Nd14  1  0.367205  0.837790  0.379223  1
  Nd  Nd15  1  0.982358  0.819760  0.598134  1
  Nd  Nd16  1  0.518298  0.319088  0.400874  1
  Dy  Dy17  1  0.198723  0.502267  0.250000  1
  Dy  Dy18  1  0.698992  0.997905  0.250000  1
  Tm  Tm19  1  0.301161  0.002839  0.750000  1
  Sn  Sn20  1  0.792211  0.463562  0.541480  1
  Sn  Sn21  1  0.708067  0.964864  0.455650  1
  Sn  Sn22  1  0.674195  0.857969  0.750000  1
  Sn  Sn23  1  0.207550  0.534522  0.455674  1
  Sn  Sn24  1  0.292218  0.034736  0.955865  1
  Sn  Sn25  1  0.824751  0.352266  0.250000  1
  Sn  Sn26  1  0.792211  0.463562  0.958520  1
  Sn  Sn27  1  0.563495  0.616907  0.250000  1
  Sn  Sn28  1  0.207550  0.534522  0.044326  1
  Sn  Sn29  1  0.432183  0.382086  0.750000  1
  Sn  Sn30  1  0.178267  0.648648  0.750000  1
  Sn  Sn31  1  0.937342  0.114197  0.750000  1
  Sn  Sn32  1  0.292218  0.034736  0.544135  1
  Sn  Sn33  1  0.708067  0.964864  0.044350  1
  Sn  Sn34  1  0.324169  0.146528  0.250000  1
  Sn  Sn35  1  0.064413  0.883343  0.250000  1
