# generated using pymatgen
data_Fe3Cu(SbO3)8
_symmetry_space_group_name_H-M   'P 1'
_cell_length_a   4.74199163
_cell_length_b   9.48347926
_cell_length_c   9.49253800
_cell_angle_alpha   90.00000000
_cell_angle_beta   90.00000000
_cell_angle_gamma   90.25379677
_symmetry_Int_Tables_number   1
_chemical_formula_structural   Fe3Cu(SbO3)8
_chemical_formula_sum   'Fe3 Cu1 Sb8 O24'
_cell_volume   426.88074467
_cell_formula_units_Z   1
loop_
 _symmetry_equiv_pos_site_id
 _symmetry_equiv_pos_as_xyz
  1  'x, y, z'
loop_
 _atom_site_type_symbol
 _atom_site_label
 _atom_site_symmetry_multiplicity
 _atom_site_fract_x
 _atom_site_fract_y
 _atom_site_fract_z
 _atom_site_occupancy
  Fe  Fe0  1  0.500300  0.750044  0.500000  1
  Fe  Fe1  1  0.000000  0.000000  0.000000  1
  Fe  Fe2  1  0.499700  0.249956  0.500000  1
  Cu  Cu3  1  0.000000  0.500000  0.000000  1
  Sb  Sb4  1  0.000000  0.000000  0.332088  1
  Sb  Sb5  1  0.000000  0.500000  0.331687  1
  Sb  Sb6  1  0.502118  0.251181  0.832387  1
  Sb  Sb7  1  0.497882  0.748819  0.832387  1
  Sb  Sb8  1  0.502118  0.251181  0.167613  1
  Sb  Sb9  1  0.497882  0.748819  0.167613  1
  Sb  Sb10  1  0.000000  0.000000  0.667912  1
  Sb  Sb11  1  0.000000  0.500000  0.668313  1
  O  O12  1  0.315191  0.156965  0.000000  1
  O  O13  1  0.304948  0.653060  0.000000  1
  O  O14  1  0.187645  0.406049  0.500000  1
  O  O15  1  0.188053  0.906125  0.500000  1
  O  O16  1  0.811947  0.093875  0.500000  1
  O  O17  1  0.812355  0.593951  0.500000  1
  O  O18  1  0.695052  0.346940  0.000000  1
  O  O19  1  0.684809  0.843035  0.000000  1
  O  O20  1  0.301182  0.151116  0.326097  1
  O  O21  1  0.301285  0.650160  0.327113  1
  O  O22  1  0.198508  0.400855  0.827739  1
  O  O23  1  0.199140  0.900308  0.826572  1
  O  O24  1  0.800860  0.099692  0.826572  1
  O  O25  1  0.801492  0.599145  0.827739  1
  O  O26  1  0.800860  0.099692  0.173428  1
  O  O27  1  0.801492  0.599145  0.172261  1
  O  O28  1  0.198508  0.400855  0.172261  1
  O  O29  1  0.199140  0.900308  0.173428  1
  O  O30  1  0.698715  0.349840  0.327113  1
  O  O31  1  0.698818  0.848884  0.326097  1
  O  O32  1  0.301182  0.151116  0.673903  1
  O  O33  1  0.301285  0.650160  0.672887  1
  O  O34  1  0.698715  0.349840  0.672887  1
  O  O35  1  0.698818  0.848884  0.673903  1
