# generated using pymatgen
data_Ti13V7Si15Ge
_symmetry_space_group_name_H-M   'P 1'
_cell_length_a   6.57047210
_cell_length_b   6.56803664
_cell_length_c   12.08451664
_cell_angle_alpha   89.89348357
_cell_angle_beta   89.89894190
_cell_angle_gamma   89.98095075
_symmetry_Int_Tables_number   1
_chemical_formula_structural   Ti13V7Si15Ge
_chemical_formula_sum   'Ti13 V7 Si15 Ge1'
_cell_volume   521.50680200
_cell_formula_units_Z   1
loop_
 _symmetry_equiv_pos_site_id
 _symmetry_equiv_pos_as_xyz
  1  'x, y, z'
loop_
 _atom_site_type_symbol
 _atom_site_label
 _atom_site_symmetry_multiplicity
 _atom_site_fract_x
 _atom_site_fract_y
 _atom_site_fract_z
 _atom_site_occupancy
  Ti  Ti0  1  0.843544  0.998459  0.880445  1
  Ti  Ti1  1  0.004184  0.341300  0.221632  1
  Ti  Ti2  1  0.159347  0.503607  0.470079  1
  Ti  Ti3  1  0.837883  0.498818  0.972951  1
  Ti  Ti4  1  0.503170  0.159196  0.528256  1
  Ti  Ti5  1  0.497090  0.839897  0.030879  1
  Ti  Ti6  1  0.996751  0.662708  0.718472  1
  Ti  Ti7  1  0.343367  0.003123  0.778693  1
  Ti  Ti8  1  0.659955  0.997120  0.280102  1
  Ti  Ti9  1  0.168472  0.167341  0.002464  1
  Ti  Ti10  1  0.333208  0.666816  0.250207  1
  Ti  Ti11  1  0.662067  0.331630  0.748579  1
  Ti  Ti12  1  0.832876  0.832912  0.499181  1
  V  V13  1  0.993444  0.155273  0.619146  1
  V  V14  1  0.348043  0.494151  0.872248  1
  V  V15  1  0.655416  0.506054  0.371466  1
  V  V16  1  0.493224  0.346883  0.129530  1
  V  V17  1  0.504331  0.654520  0.626725  1
  V  V18  1  0.006190  0.845439  0.121423  1
  V  V19  1  0.155498  0.994130  0.378385  1
  Si  Si20  1  0.202030  0.542519  0.063150  1
  Si  Si21  1  0.796805  0.457100  0.562019  1
  Si  Si22  1  0.540982  0.203233  0.938885  1
  Si  Si23  1  0.456827  0.796888  0.436969  1
  Si  Si24  1  0.957387  0.703416  0.312351  1
  Si  Si25  1  0.298002  0.042981  0.188463  1
  Si  Si26  1  0.701798  0.956068  0.685657  1
  Si  Si27  1  0.293079  0.365801  0.669762  1
  Si  Si28  1  0.141252  0.790053  0.922907  1
  Si  Si29  1  0.866748  0.208560  0.422058  1
  Si  Si30  1  0.791076  0.135901  0.080216  1
  Si  Si31  1  0.208469  0.867655  0.576697  1
  Si  Si32  1  0.708832  0.634008  0.173229  1
  Si  Si33  1  0.366595  0.291976  0.327941  1
  Si  Si34  1  0.632035  0.703595  0.825263  1
  Ge  Ge35  1  0.040022  0.300866  0.813573  1
