# generated using pymatgen
data_Ta2Mn3Ge
_symmetry_space_group_name_H-M   'P 1'
_cell_length_a   4.90337500
_cell_length_b   4.90337548
_cell_length_c   7.95474600
_cell_angle_alpha   90.00000000
_cell_angle_beta   90.00000000
_cell_angle_gamma   120.00001702
_symmetry_Int_Tables_number   1
_chemical_formula_structural   Ta2Mn3Ge
_chemical_formula_sum   'Ta4 Mn6 Ge2'
_cell_volume   165.63310121
_cell_formula_units_Z   2
loop_
 _symmetry_equiv_pos_site_id
 _symmetry_equiv_pos_as_xyz
  1  'x, y, z'
loop_
 _atom_site_type_symbol
 _atom_site_label
 _atom_site_symmetry_multiplicity
 _atom_site_fract_x
 _atom_site_fract_y
 _atom_site_fract_z
 _atom_site_occupancy
  Ta  Ta0  1  0.333333  0.666667  0.435130  1
  Ta  Ta1  1  0.666667  0.333333  0.564870  1
  Ta  Ta2  1  0.666667  0.333333  0.935130  1
  Ta  Ta3  1  0.333333  0.666667  0.064870  1
  Mn  Mn4  1  0.826635  0.173365  0.250000  1
  Mn  Mn5  1  0.826635  0.653271  0.250000  1
  Mn  Mn6  1  0.346729  0.173365  0.250000  1
  Mn  Mn7  1  0.173365  0.826635  0.750000  1
  Mn  Mn8  1  0.173365  0.346729  0.750000  1
  Mn  Mn9  1  0.653271  0.826635  0.750000  1
  Ge  Ge10  1  0.000000  0.000000  0.500000  1
  Ge  Ge11  1  0.000000  0.000000  0.000000  1
