# generated using pymatgen
data_Tb13Lu3(InRh)4
_symmetry_space_group_name_H-M   'P 1'
_cell_length_a   9.66989841
_cell_length_b   9.65838802
_cell_length_c   9.65126517
_cell_angle_alpha   60.10329379
_cell_angle_beta   60.00683537
_cell_angle_gamma   59.91182129
_symmetry_Int_Tables_number   1
_chemical_formula_structural   Tb13Lu3(InRh)4
_chemical_formula_sum   'Tb13 Lu3 In4 Rh4'
_cell_volume   637.47832340
_cell_formula_units_Z   1
loop_
 _symmetry_equiv_pos_site_id
 _symmetry_equiv_pos_as_xyz
  1  'x, y, z'
loop_
 _atom_site_type_symbol
 _atom_site_label
 _atom_site_symmetry_multiplicity
 _atom_site_fract_x
 _atom_site_fract_y
 _atom_site_fract_z
 _atom_site_occupancy
  Tb  Tb0  1  0.649474  0.049599  0.650672  1
  Tb  Tb1  1  0.061386  0.062706  0.438591  1
  Tb  Tb2  1  0.438591  0.437317  0.061386  1
  Tb  Tb3  1  0.650672  0.650255  0.649474  1
  Tb  Tb4  1  0.812199  0.187662  0.187369  1
  Tb  Tb5  1  0.187369  0.812770  0.812199  1
  Tb  Tb6  1  0.049930  0.649556  0.649955  1
  Tb  Tb7  1  0.438998  0.062449  0.060963  1
  Tb  Tb8  1  0.438066  0.061934  0.438066  1
  Tb  Tb9  1  0.062019  0.437981  0.062019  1
  Tb  Tb10  1  0.649955  0.650560  0.049930  1
  Tb  Tb11  1  0.188042  0.811958  0.188042  1
  Tb  Tb12  1  0.060963  0.437591  0.438998  1
  Lu  Lu13  1  0.811319  0.811982  0.188214  1
  Lu  Lu14  1  0.812176  0.187824  0.812176  1
  Lu  Lu15  1  0.188214  0.188485  0.811319  1
  In  In16  1  0.417242  0.416759  0.417605  1
  In  In17  1  0.417614  0.416769  0.748381  1
  In  In18  1  0.417605  0.748393  0.417242  1
  In  In19  1  0.748381  0.417235  0.417614  1
  Rh  Rh20  1  0.859535  0.424369  0.856934  1
  Rh  Rh21  1  0.856934  0.859163  0.859535  1
  Rh  Rh22  1  0.857385  0.857070  0.425933  1
  Rh  Rh23  1  0.425933  0.859614  0.857385  1
