# generated using pymatgen
data_Nd4Er3TmAu4
_symmetry_space_group_name_H-M   'P 1'
_cell_length_a   5.01660700
_cell_length_b   7.30594600
_cell_length_c   9.08400200
_cell_angle_alpha   89.49837341
_cell_angle_beta   90.00000000
_cell_angle_gamma   90.00000000
_symmetry_Int_Tables_number   1
_chemical_formula_structural   Nd4Er3TmAu4
_chemical_formula_sum   'Nd4 Er3 Tm1 Au4'
_cell_volume   332.92554109
_cell_formula_units_Z   1
loop_
 _symmetry_equiv_pos_site_id
 _symmetry_equiv_pos_as_xyz
  1  'x, y, z'
loop_
 _atom_site_type_symbol
 _atom_site_label
 _atom_site_symmetry_multiplicity
 _atom_site_fract_x
 _atom_site_fract_y
 _atom_site_fract_z
 _atom_site_occupancy
  Nd  Nd0  1  0.250000  0.490230  0.178479  1
  Nd  Nd1  1  0.250000  0.989688  0.324132  1
  Nd  Nd2  1  0.750000  0.512050  0.819195  1
  Nd  Nd3  1  0.750000  0.009010  0.677280  1
  Er  Er4  1  0.250000  0.348551  0.581602  1
  Er  Er5  1  0.750000  0.149335  0.080750  1
  Er  Er6  1  0.750000  0.651029  0.416834  1
  Tm  Tm7  1  0.250000  0.852256  0.920814  1
  Au  Au8  1  0.250000  0.244400  0.904067  1
  Au  Au9  1  0.250000  0.743116  0.603190  1
  Au  Au10  1  0.750000  0.754124  0.093319  1
  Au  Au11  1  0.750000  0.256210  0.400336  1
