# generated using pymatgen
data_Tm10In2Bi3Pb
_symmetry_space_group_name_H-M   'P 1'
_cell_length_a   6.49075600
_cell_length_b   8.95700837
_cell_length_c   8.95706350
_cell_angle_alpha   119.85444027
_cell_angle_beta   89.99964950
_cell_angle_gamma   90.00003359
_symmetry_Int_Tables_number   1
_chemical_formula_structural   Tm10In2Bi3Pb
_chemical_formula_sum   'Tm10 In2 Bi3 Pb1'
_cell_volume   451.63717846
_cell_formula_units_Z   1
loop_
 _symmetry_equiv_pos_site_id
 _symmetry_equiv_pos_as_xyz
  1  'x, y, z'
loop_
 _atom_site_type_symbol
 _atom_site_label
 _atom_site_symmetry_multiplicity
 _atom_site_fract_x
 _atom_site_fract_y
 _atom_site_fract_z
 _atom_site_occupancy
  Tm  Tm0  1  0.496065  0.329547  0.660198  1
  Tm  Tm1  1  0.496306  0.674725  0.341979  1
  Tm  Tm2  1  0.003691  0.674724  0.341980  1
  Tm  Tm3  1  0.003933  0.329548  0.660199  1
  Tm  Tm4  1  0.750001  0.232039  0.996351  1
  Tm  Tm5  1  0.750001  0.768664  0.762482  1
  Tm  Tm6  1  0.750001  0.002242  0.237090  1
  Tm  Tm7  1  0.250003  0.767089  0.999978  1
  Tm  Tm8  1  0.250001  0.231200  0.242142  1
  Tm  Tm9  1  0.249999  0.990427  0.758484  1
  In  In10  1  0.250000  0.603291  0.605410  1
  In  In11  1  0.250000  0.999186  0.395938  1
  Bi  Bi12  1  0.750000  0.606504  0.000138  1
  Bi  Bi13  1  0.749999  0.395884  0.391863  1
  Bi  Bi14  1  0.250000  0.390923  0.001301  1
  Pb  Pb15  1  0.749996  0.004005  0.604466  1
