# generated using pymatgen
data_Sm7HfBePd24
_symmetry_space_group_name_H-M   'P 1'
_cell_length_a   8.40034272
_cell_length_b   8.40034252
_cell_length_c   8.40034300
_cell_angle_alpha   89.64889813
_cell_angle_beta   89.64889813
_cell_angle_gamma   89.64889488
_symmetry_Int_Tables_number   1
_chemical_formula_structural   Sm7HfBePd24
_chemical_formula_sum   'Sm7 Hf1 Be1 Pd24'
_cell_volume   592.74330258
_cell_formula_units_Z   1
loop_
 _symmetry_equiv_pos_site_id
 _symmetry_equiv_pos_as_xyz
  1  'x, y, z'
loop_
 _atom_site_type_symbol
 _atom_site_label
 _atom_site_symmetry_multiplicity
 _atom_site_fract_x
 _atom_site_fract_y
 _atom_site_fract_z
 _atom_site_occupancy
  Sm  Sm0  1  0.747975  0.747975  0.747975  1
  Sm  Sm1  1  0.748787  0.748787  0.250558  1
  Sm  Sm2  1  0.748787  0.250558  0.748787  1
  Sm  Sm3  1  0.251962  0.251962  0.750498  1
  Sm  Sm4  1  0.251962  0.750498  0.251962  1
  Sm  Sm5  1  0.250558  0.748787  0.748787  1
  Sm  Sm6  1  0.750498  0.251962  0.251962  1
  Hf  Hf7  1  0.254434  0.254434  0.254434  1
  Be  Be8  1  0.995495  0.995495  0.995495  1
  Pd  Pd9  1  0.255023  0.494311  0.009102  1
  Pd  Pd10  1  0.745307  0.497712  0.000237  1
  Pd  Pd11  1  0.009102  0.255023  0.494311  1
  Pd  Pd12  1  0.494311  0.255023  0.009102  1
  Pd  Pd13  1  0.000237  0.745307  0.497712  1
  Pd  Pd14  1  0.497712  0.745307  0.000237  1
  Pd  Pd15  1  0.494311  0.009102  0.255023  1
  Pd  Pd16  1  0.255023  0.009102  0.494311  1
  Pd  Pd17  1  0.497712  0.000237  0.745307  1
  Pd  Pd18  1  0.745307  0.000237  0.497712  1
  Pd  Pd19  1  0.009102  0.494311  0.255023  1
  Pd  Pd20  1  0.000237  0.497712  0.745307  1
  Pd  Pd21  1  0.252334  0.494446  0.494446  1
  Pd  Pd22  1  0.748859  0.498971  0.498971  1
  Pd  Pd23  1  0.494446  0.252334  0.494446  1
  Pd  Pd24  1  0.498971  0.748859  0.498971  1
  Pd  Pd25  1  0.494446  0.494446  0.252334  1
  Pd  Pd26  1  0.498971  0.498971  0.748859  1
  Pd  Pd27  1  0.265158  0.008355  0.008355  1
  Pd  Pd28  1  0.726450  0.999906  0.999906  1
  Pd  Pd29  1  0.008355  0.265158  0.008355  1
  Pd  Pd30  1  0.999906  0.726450  0.999906  1
  Pd  Pd31  1  0.008355  0.008355  0.265158  1
  Pd  Pd32  1  0.999906  0.999906  0.726450  1
