# generated using pymatgen
data_Li6TbSm4Eu(WO6)4
_symmetry_space_group_name_H-M   'P 1'
_cell_length_a   10.82605950
_cell_length_b   10.80961319
_cell_length_c   10.81582002
_cell_angle_alpha   109.41929586
_cell_angle_beta   109.48088239
_cell_angle_gamma   109.52544125
_symmetry_Int_Tables_number   1
_chemical_formula_structural   Li6TbSm4Eu(WO6)4
_chemical_formula_sum   'Li12 Tb2 Sm8 Eu2 W8 O48'
_cell_volume   974.21258562
_cell_formula_units_Z   2
loop_
 _symmetry_equiv_pos_site_id
 _symmetry_equiv_pos_as_xyz
  1  'x, y, z'
loop_
 _atom_site_type_symbol
 _atom_site_label
 _atom_site_symmetry_multiplicity
 _atom_site_fract_x
 _atom_site_fract_y
 _atom_site_fract_z
 _atom_site_occupancy
  Li  Li0  1  0.749594  0.375133  0.125064  1
  Li  Li1  1  0.875502  0.750000  0.125099  1
  Li  Li2  1  0.125332  0.374970  0.249982  1
  Li  Li3  1  0.624634  0.875043  0.249952  1
  Li  Li4  1  0.249943  0.124293  0.373880  1
  Li  Li5  1  0.623921  0.249544  0.373911  1
  Li  Li6  1  0.374868  0.749895  0.624853  1
  Li  Li7  1  0.750024  0.875003  0.624894  1
  Li  Li8  1  0.375082  0.124950  0.750511  1
  Li  Li9  1  0.875427  0.625477  0.750451  1
  Li  Li10  1  0.125457  0.249894  0.875687  1
  Li  Li11  1  0.250232  0.625785  0.875735  1
  Tb  Tb12  1  0.374874  0.249408  0.125290  1
  Tb  Tb13  1  0.250432  0.875887  0.125281  1
  Sm  Sm14  1  0.125157  0.750403  0.374531  1
  Sm  Sm15  1  0.749358  0.624108  0.374548  1
  Sm  Sm16  1  0.875159  0.249954  0.624917  1
  Sm  Sm17  1  0.249785  0.374974  0.624924  1
  Sm  Sm18  1  0.624942  0.374957  0.749890  1
  Sm  Sm19  1  0.125578  0.875599  0.751185  1
  Sm  Sm20  1  0.750186  0.125047  0.875035  1
  Sm  Sm21  1  0.624839  0.749967  0.875029  1
  Eu  Eu22  1  0.875040  0.125135  0.250217  1
  Eu  Eu23  1  0.374627  0.624585  0.249219  1
  W  W24  1  0.001710  0.000480  0.001283  1
  W  W25  1  0.000686  0.501371  0.000220  1
  W  W26  1  0.499538  0.498847  0.000224  1
  W  W27  1  0.499551  0.000792  0.001255  1
  W  W28  1  0.499444  0.999782  0.498491  1
  W  W29  1  0.000030  0.500183  0.500011  1
  W  W30  1  0.999998  0.999829  0.500006  1
  W  W31  1  0.499039  0.498710  0.498489  1
  O  O32  1  0.327839  0.405992  0.025862  1
  O  O33  1  0.198042  0.619882  0.025876  1
  O  O34  1  0.696921  0.172991  0.081058  1
  O  O35  1  0.884160  0.908096  0.081036  1
  O  O36  1  0.615723  0.918546  0.091725  1
  O  O37  1  0.976020  0.173214  0.091758  1
  O  O38  1  0.590167  0.416874  0.116859  1
  O  O39  1  0.026693  0.700005  0.116879  1
  O  O40  1  0.200660  0.080424  0.172697  1
  O  O41  1  0.472044  0.092282  0.172659  1
  O  O42  1  0.116139  0.525223  0.198132  1
  O  O43  1  0.582040  0.672957  0.198175  1
  O  O44  1  0.326108  0.415553  0.299550  1
  O  O45  1  0.473439  0.884004  0.299567  1
  O  O46  1  0.908210  0.525196  0.327029  1
  O  O47  1  0.918767  0.801780  0.326983  1
  O  O48  1  0.578372  0.406090  0.379690  1
  O  O49  1  0.301301  0.973591  0.379674  1
  O  O50  1  0.826876  0.024799  0.408832  1
  O  O51  1  0.081980  0.384045  0.408847  1
  O  O52  1  0.826994  0.302719  0.419116  1
  O  O53  1  0.092144  0.116374  0.419170  1
  O  O54  1  0.591689  0.672251  0.475153  1
  O  O55  1  0.383443  0.802882  0.475121  1
  O  O56  1  0.617120  0.198400  0.524890  1
  O  O57  1  0.407758  0.326486  0.524856  1
  O  O58  1  0.173195  0.698416  0.581500  1
  O  O59  1  0.908312  0.883112  0.581462  1
  O  O60  1  0.918889  0.616772  0.591791  1
  O  O61  1  0.172901  0.975008  0.591797  1
  O  O62  1  0.697170  0.024597  0.616043  1
  O  O63  1  0.418869  0.591443  0.616030  1
  O  O64  1  0.081239  0.197992  0.673118  1
  O  O65  1  0.091890  0.475139  0.673080  1
  O  O66  1  0.524083  0.116345  0.696625  1
  O  O67  1  0.672564  0.580309  0.696637  1
  O  O68  1  0.418809  0.326803  0.801904  1
  O  O69  1  0.883103  0.475083  0.801936  1
  O  O70  1  0.803825  0.919467  0.827547  1
  O  O71  1  0.523701  0.908061  0.827554  1
  O  O72  1  0.975900  0.303209  0.883632  1
  O  O73  1  0.407748  0.580412  0.883674  1
  O  O74  1  0.383254  0.082672  0.910031  1
  O  O75  1  0.026767  0.827340  0.910010  1
  O  O76  1  0.120347  0.093666  0.921781  1
  O  O77  1  0.301379  0.828062  0.921730  1
  O  O78  1  0.802638  0.383740  0.975414  1
  O  O79  1  0.672783  0.591692  0.975444  1
