# generated using pymatgen
data_Tb3Ho9Tc3Pt
_symmetry_space_group_name_H-M   'P 1'
_cell_length_a   6.28935802
_cell_length_b   7.38923462
_cell_length_c   9.15262000
_cell_angle_alpha   90.00000000
_cell_angle_beta   90.00000000
_cell_angle_gamma   89.94833178
_symmetry_Int_Tables_number   1
_chemical_formula_structural   Tb3Ho9Tc3Pt
_chemical_formula_sum   'Tb3 Ho9 Tc3 Pt1'
_cell_volume   425.35449736
_cell_formula_units_Z   1
loop_
 _symmetry_equiv_pos_site_id
 _symmetry_equiv_pos_as_xyz
  1  'x, y, z'
loop_
 _atom_site_type_symbol
 _atom_site_label
 _atom_site_symmetry_multiplicity
 _atom_site_fract_x
 _atom_site_fract_y
 _atom_site_fract_z
 _atom_site_occupancy
  Tb  Tb0  1  0.873210  0.542970  0.250000  1
  Tb  Tb1  1  0.127915  0.455570  0.750000  1
  Tb  Tb2  1  0.371344  0.965186  0.750000  1
  Ho  Ho3  1  0.329921  0.676286  0.067039  1
  Ho  Ho4  1  0.164845  0.177627  0.435811  1
  Ho  Ho5  1  0.667336  0.318228  0.558799  1
  Ho  Ho6  1  0.837361  0.827288  0.940044  1
  Ho  Ho7  1  0.667336  0.318228  0.941201  1
  Ho  Ho8  1  0.837361  0.827288  0.559956  1
  Ho  Ho9  1  0.329921  0.676286  0.432961  1
  Ho  Ho10  1  0.164845  0.177627  0.064189  1
  Ho  Ho11  1  0.622966  0.038412  0.250000  1
  Tc  Tc12  1  0.037885  0.885891  0.250000  1
  Tc  Tc13  1  0.463548  0.386827  0.250000  1
  Tc  Tc14  1  0.956750  0.113631  0.750000  1
  Pt  Pt15  1  0.547456  0.612653  0.750000  1
