# generated using pymatgen
data_Zr2ScTiFe8
_symmetry_space_group_name_H-M   'P 1'
_cell_length_a   8.54653955
_cell_length_b   8.54653966
_cell_length_c   8.54653859
_cell_angle_alpha   33.55421476
_cell_angle_beta   33.55421531
_cell_angle_gamma   33.55422594
_symmetry_Int_Tables_number   1
_chemical_formula_structural   Zr2ScTiFe8
_chemical_formula_sum   'Zr2 Sc1 Ti1 Fe8'
_cell_volume   169.87565204
_cell_formula_units_Z   1
loop_
 _symmetry_equiv_pos_site_id
 _symmetry_equiv_pos_as_xyz
  1  'x, y, z'
loop_
 _atom_site_type_symbol
 _atom_site_label
 _atom_site_symmetry_multiplicity
 _atom_site_fract_x
 _atom_site_fract_y
 _atom_site_fract_z
 _atom_site_occupancy
  Zr  Zr0  1  0.998913  0.998913  0.998913  1
  Zr  Zr1  1  0.500860  0.500860  0.500860  1
  Sc  Sc2  1  0.375267  0.375267  0.375267  1
  Ti  Ti3  1  0.874754  0.874754  0.874754  1
  Fe  Fe4  1  0.436251  0.937047  0.436251  1
  Fe  Fe5  1  0.937783  0.439718  0.937783  1
  Fe  Fe6  1  0.436251  0.436251  0.937047  1
  Fe  Fe7  1  0.937783  0.937783  0.439718  1
  Fe  Fe8  1  0.187747  0.187747  0.187747  1
  Fe  Fe9  1  0.687627  0.687627  0.687627  1
  Fe  Fe10  1  0.937047  0.436251  0.436251  1
  Fe  Fe11  1  0.439718  0.937783  0.937783  1
