# generated using pymatgen
data_Tb6Sm4Sn5Sb3
_symmetry_space_group_name_H-M   'P 1'
_cell_length_a   8.15911600
_cell_length_b   8.24677404
_cell_length_c   15.51206026
_cell_angle_alpha   90.17030849
_cell_angle_beta   90.00000000
_cell_angle_gamma   90.00000000
_symmetry_Int_Tables_number   1
_chemical_formula_structural   Tb6Sm4Sn5Sb3
_chemical_formula_sum   'Tb12 Sm8 Sn10 Sb6'
_cell_volume   1043.74586362
_cell_formula_units_Z   2
loop_
 _symmetry_equiv_pos_site_id
 _symmetry_equiv_pos_as_xyz
  1  'x, y, z'
loop_
 _atom_site_type_symbol
 _atom_site_label
 _atom_site_symmetry_multiplicity
 _atom_site_fract_x
 _atom_site_fract_y
 _atom_site_fract_z
 _atom_site_occupancy
  Tb  Tb0  1  0.370352  0.838509  0.878107  1
  Tb  Tb1  1  0.870352  0.661491  0.621893  1
  Tb  Tb2  1  0.628373  0.160846  0.377642  1
  Tb  Tb3  1  0.128373  0.339154  0.122358  1
  Tb  Tb4  1  0.630661  0.162531  0.121729  1
  Tb  Tb5  1  0.130661  0.337469  0.378271  1
  Tb  Tb6  1  0.369368  0.838888  0.622588  1
  Tb  Tb7  1  0.869368  0.661112  0.877412  1
  Tb  Tb8  1  0.199186  0.499763  0.749665  1
  Tb  Tb9  1  0.699186  0.000237  0.750335  1
  Tb  Tb10  1  0.801168  0.499863  0.249081  1
  Tb  Tb11  1  0.301168  0.000137  0.250919  1
  Sm  Sm12  1  0.530321  0.325193  0.898745  1
  Sm  Sm13  1  0.030321  0.174807  0.601255  1
  Sm  Sm14  1  0.471316  0.678076  0.398576  1
  Sm  Sm15  1  0.971316  0.821924  0.101424  1
  Sm  Sm16  1  0.473492  0.675903  0.100827  1
  Sm  Sm17  1  0.973492  0.824097  0.399173  1
  Sm  Sm18  1  0.526172  0.319893  0.600520  1
  Sm  Sm19  1  0.026172  0.180107  0.899480  1
  Sn  Sn20  1  0.287505  0.034635  0.456938  1
  Sn  Sn21  1  0.787505  0.465365  0.043062  1
  Sn  Sn22  1  0.566159  0.622869  0.749460  1
  Sn  Sn23  1  0.066159  0.877131  0.750540  1
  Sn  Sn24  1  0.433390  0.376934  0.249945  1
  Sn  Sn25  1  0.933390  0.123066  0.250055  1
  Sn  Sn26  1  0.333232  0.144995  0.750915  1
  Sn  Sn27  1  0.833232  0.355005  0.749085  1
  Sn  Sn28  1  0.667829  0.855577  0.249890  1
  Sn  Sn29  1  0.167829  0.644423  0.250110  1
  Sb  Sb30  1  0.284584  0.033315  0.044075  1
  Sb  Sb31  1  0.784584  0.466685  0.455925  1
  Sb  Sb32  1  0.712615  0.965929  0.544110  1
  Sb  Sb33  1  0.212615  0.534071  0.955890  1
  Sb  Sb34  1  0.714278  0.966845  0.955455  1
  Sb  Sb35  1  0.214278  0.533155  0.544545  1
