# generated using pymatgen
data_Ho10Zn3Co
_symmetry_space_group_name_H-M   'P 1'
_cell_length_a   9.32810900
_cell_length_b   9.32810930
_cell_length_c   9.51037000
_cell_angle_alpha   90.00000000
_cell_angle_beta   90.00000000
_cell_angle_gamma   119.99999538
_symmetry_Int_Tables_number   1
_chemical_formula_structural   Ho10Zn3Co
_chemical_formula_sum   'Ho20 Zn6 Co2'
_cell_volume   716.66352906
_cell_formula_units_Z   2
loop_
 _symmetry_equiv_pos_site_id
 _symmetry_equiv_pos_as_xyz
  1  'x, y, z'
loop_
 _atom_site_type_symbol
 _atom_site_label
 _atom_site_symmetry_multiplicity
 _atom_site_fract_x
 _atom_site_fract_y
 _atom_site_fract_z
 _atom_site_occupancy
  Ho  Ho0  1  0.000000  0.000000  0.500000  1
  Ho  Ho1  1  0.000000  0.000000  0.000000  1
  Ho  Ho2  1  0.542876  0.457124  0.250000  1
  Ho  Ho3  1  0.542876  0.085752  0.250000  1
  Ho  Ho4  1  0.914248  0.457124  0.250000  1
  Ho  Ho5  1  0.457124  0.542876  0.750000  1
  Ho  Ho6  1  0.457124  0.914248  0.750000  1
  Ho  Ho7  1  0.085752  0.542876  0.750000  1
  Ho  Ho8  1  0.209601  0.790399  0.437574  1
  Ho  Ho9  1  0.209601  0.419203  0.437574  1
  Ho  Ho10  1  0.580797  0.790399  0.437574  1
  Ho  Ho11  1  0.790399  0.209601  0.562426  1
  Ho  Ho12  1  0.790399  0.580797  0.562426  1
  Ho  Ho13  1  0.419203  0.209601  0.562426  1
  Ho  Ho14  1  0.790399  0.209601  0.937574  1
  Ho  Ho15  1  0.790399  0.580797  0.937574  1
  Ho  Ho16  1  0.419203  0.209601  0.937574  1
  Ho  Ho17  1  0.209601  0.790399  0.062426  1
  Ho  Ho18  1  0.209601  0.419203  0.062426  1
  Ho  Ho19  1  0.580797  0.790399  0.062426  1
  Zn  Zn20  1  0.885901  0.114099  0.250000  1
  Zn  Zn21  1  0.885901  0.771800  0.250000  1
  Zn  Zn22  1  0.228200  0.114099  0.250000  1
  Zn  Zn23  1  0.114099  0.885901  0.750000  1
  Zn  Zn24  1  0.114099  0.228200  0.750000  1
  Zn  Zn25  1  0.771800  0.885901  0.750000  1
  Co  Co26  1  0.333333  0.666667  0.250000  1
  Co  Co27  1  0.666667  0.333333  0.750000  1
