# generated using pymatgen
data_Hf3Nb3Co16Si7
_symmetry_space_group_name_H-M   'P 1'
_cell_length_a   7.95517712
_cell_length_b   7.98009465
_cell_length_c   7.95517712
_cell_angle_alpha   120.01182894
_cell_angle_beta   89.79997690
_cell_angle_gamma   120.01182894
_symmetry_Int_Tables_number   1
_chemical_formula_structural   Hf3Nb3Co16Si7
_chemical_formula_sum   'Hf3 Nb3 Co16 Si7'
_cell_volume   357.59376248
_cell_formula_units_Z   1
loop_
 _symmetry_equiv_pos_site_id
 _symmetry_equiv_pos_as_xyz
  1  'x, y, z'
loop_
 _atom_site_type_symbol
 _atom_site_label
 _atom_site_symmetry_multiplicity
 _atom_site_fract_x
 _atom_site_fract_y
 _atom_site_fract_z
 _atom_site_occupancy
  Hf  Hf0  1  0.205372  0.000000  0.205372  1
  Hf  Hf1  1  0.797171  0.000000  0.201978  1
  Hf  Hf2  1  0.201978  0.000000  0.797171  1
  Nb  Nb3  1  0.205002  0.411187  0.205002  1
  Nb  Nb4  1  0.797067  0.000000  0.797067  1
  Nb  Nb5  1  0.793816  0.588813  0.793816  1
  Co  Co6  1  0.379294  0.757799  0.140435  1
  Co  Co7  1  0.505476  0.337532  0.168841  1
  Co  Co8  1  0.832613  0.335942  0.167569  1
  Co  Co9  1  0.831311  0.662470  0.167946  1
  Co  Co10  1  0.621493  0.242201  0.382635  1
  Co  Co11  1  0.140435  0.757799  0.379294  1
  Co  Co12  1  0.618039  0.761562  0.382718  1
  Co  Co13  1  0.168841  0.337532  0.505476  1
  Co  Co14  1  0.831629  0.664060  0.496673  1
  Co  Co15  1  0.382635  0.242201  0.621493  1
  Co  Co16  1  0.856477  0.238438  0.621156  1
  Co  Co17  1  0.382718  0.761562  0.618039  1
  Co  Co18  1  0.167946  0.662470  0.831311  1
  Co  Co19  1  0.167569  0.335942  0.832613  1
  Co  Co20  1  0.496673  0.664060  0.831629  1
  Co  Co21  1  0.621156  0.238438  0.856477  1
  Si  Si22  1  0.500674  0.000000  0.997987  1
  Si  Si23  1  0.998042  0.497669  0.998042  1
  Si  Si24  1  0.500056  0.500000  0.000056  1
  Si  Si25  1  0.997987  0.000000  0.500674  1
  Si  Si26  1  0.498100  0.000000  0.498100  1
  Si  Si27  1  0.000056  0.500000  0.500056  1
  Si  Si28  1  0.500373  0.502331  0.500373  1
