# generated using pymatgen
data_Hf18Re4AsW4Se
_symmetry_space_group_name_H-M   'P 1'
_cell_length_a   8.71417406
_cell_length_b   8.67793596
_cell_length_c   8.60294600
_cell_angle_alpha   90.00000000
_cell_angle_beta   90.00000000
_cell_angle_gamma   119.86252599
_symmetry_Int_Tables_number   1
_chemical_formula_structural   Hf18Re4AsW4Se
_chemical_formula_sum   'Hf18 Re4 As1 W4 Se1'
_cell_volume   564.18359533
_cell_formula_units_Z   1
loop_
 _symmetry_equiv_pos_site_id
 _symmetry_equiv_pos_as_xyz
  1  'x, y, z'
loop_
 _atom_site_type_symbol
 _atom_site_label
 _atom_site_symmetry_multiplicity
 _atom_site_fract_x
 _atom_site_fract_y
 _atom_site_fract_z
 _atom_site_occupancy
  Hf  Hf0  1  0.193539  0.806265  0.452496  1
  Hf  Hf1  1  0.193539  0.387274  0.452496  1
  Hf  Hf2  1  0.611893  0.805946  0.451288  1
  Hf  Hf3  1  0.806734  0.193761  0.546974  1
  Hf  Hf4  1  0.806734  0.612975  0.546974  1
  Hf  Hf5  1  0.387700  0.193851  0.548339  1
  Hf  Hf6  1  0.806734  0.193761  0.953026  1
  Hf  Hf7  1  0.806734  0.612975  0.953026  1
  Hf  Hf8  1  0.387700  0.193851  0.951661  1
  Hf  Hf9  1  0.193539  0.806265  0.047504  1
  Hf  Hf10  1  0.193539  0.387274  0.047504  1
  Hf  Hf11  1  0.611893  0.805946  0.048712  1
  Hf  Hf12  1  0.540577  0.460039  0.250000  1
  Hf  Hf13  1  0.540577  0.080539  0.250000  1
  Hf  Hf14  1  0.919394  0.459697  0.250000  1
  Hf  Hf15  1  0.455688  0.543573  0.750000  1
  Hf  Hf16  1  0.455688  0.912114  0.750000  1
  Hf  Hf17  1  0.087965  0.543982  0.750000  1
  Re  Re18  1  0.890141  0.111480  0.250000  1
  Re  Re19  1  0.890141  0.778660  0.250000  1
  Re  Re20  1  0.109696  0.888355  0.750000  1
  Re  Re21  1  0.109696  0.221341  0.750000  1
  As  As22  1  0.333381  0.666692  0.250000  1
  W  W23  1  0.219614  0.109807  0.250000  1
  W  W24  1  0.780551  0.890275  0.750000  1
  W  W25  1  0.000108  0.000053  0.499544  1
  W  W26  1  0.000108  0.000053  0.000456  1
  Se  Se27  1  0.666397  0.333198  0.750000  1
