# generated using pymatgen
data_AlVGaMo5
_symmetry_space_group_name_H-M   'P 1'
_cell_length_a   4.96854100
_cell_length_b   4.96545800
_cell_length_c   4.90087200
_cell_angle_alpha   90.00000000
_cell_angle_beta   90.00000000
_cell_angle_gamma   90.00000000
_symmetry_Int_Tables_number   1
_chemical_formula_structural   AlVGaMo5
_chemical_formula_sum   'Al1 V1 Ga1 Mo5'
_cell_volume   120.90981330
_cell_formula_units_Z   1
loop_
 _symmetry_equiv_pos_site_id
 _symmetry_equiv_pos_as_xyz
  1  'x, y, z'
loop_
 _atom_site_type_symbol
 _atom_site_label
 _atom_site_symmetry_multiplicity
 _atom_site_fract_x
 _atom_site_fract_y
 _atom_site_fract_z
 _atom_site_occupancy
  Al  Al0  1  0.000000  0.000000  0.005065  1
  V  V1  1  0.000000  0.500000  0.249397  1
  Ga  Ga2  1  0.500000  0.500000  0.494864  1
  Mo  Mo3  1  0.500000  0.749910  0.998349  1
  Mo  Mo4  1  0.248931  0.000000  0.501487  1
  Mo  Mo5  1  0.000000  0.500000  0.751001  1
  Mo  Mo6  1  0.500000  0.250090  0.998349  1
  Mo  Mo7  1  0.751069  0.000000  0.501487  1
