# generated using pymatgen
data_Cs3Dy(TaS4)2
_symmetry_space_group_name_H-M   'P 1'
_cell_length_a   9.81370040
_cell_length_b   10.82433421
_cell_length_c   11.54599799
_cell_angle_alpha   107.46738330
_cell_angle_beta   103.81765308
_cell_angle_gamma   113.38971658
_symmetry_Int_Tables_number   1
_chemical_formula_structural   Cs3Dy(TaS4)2
_chemical_formula_sum   'Cs6 Dy2 Ta4 S16'
_cell_volume   979.92749959
_cell_formula_units_Z   2
loop_
 _symmetry_equiv_pos_site_id
 _symmetry_equiv_pos_as_xyz
  1  'x, y, z'
loop_
 _atom_site_type_symbol
 _atom_site_label
 _atom_site_symmetry_multiplicity
 _atom_site_fract_x
 _atom_site_fract_y
 _atom_site_fract_z
 _atom_site_occupancy
  Cs  Cs0  1  0.000001  0.500002  0.000001  1
  Cs  Cs1  1  0.500002  0.500002  0.000005  1
  Cs  Cs2  1  0.265665  0.015681  0.031244  1
  Cs  Cs3  1  0.482937  0.732944  0.465851  1
  Cs  Cs4  1  0.517067  0.267060  0.534156  1
  Cs  Cs5  1  0.734332  0.984318  0.968747  1
  Dy  Dy6  1  0.998805  0.248784  0.497653  1
  Dy  Dy7  1  0.001192  0.751214  0.502343  1
  Ta  Ta8  1  0.766631  0.356611  0.266471  1
  Ta  Ta9  1  0.999808  0.909840  0.266424  1
  Ta  Ta10  1  0.000192  0.090158  0.733573  1
  Ta  Ta11  1  0.233368  0.643386  0.733531  1
  S  S12  1  0.657337  0.275553  0.043895  1
  S  S13  1  0.886503  0.768281  0.043837  1
  S  S14  1  0.112396  0.159918  0.310182  1
  S  S15  1  0.697828  0.150295  0.310214  1
  S  S16  1  0.041058  0.502825  0.354506  1
  S  S17  1  0.813429  0.851710  0.354503  1
  S  S18  1  0.187830  0.857884  0.365938  1
  S  S19  1  0.678136  0.508136  0.365974  1
  S  S20  1  0.321855  0.491861  0.634028  1
  S  S21  1  0.812178  0.142112  0.634062  1
  S  S22  1  0.186563  0.148282  0.645497  1
  S  S23  1  0.958946  0.497180  0.645499  1
  S  S24  1  0.302169  0.849698  0.689787  1
  S  S25  1  0.887608  0.840093  0.689820  1
  S  S26  1  0.113494  0.231718  0.956151  1
  S  S27  1  0.342665  0.724448  0.956104  1
