# generated using pymatgen
data_Dy8Hg2IrRh
_symmetry_space_group_name_H-M   'P 1'
_cell_length_a   9.62009563
_cell_length_b   9.59588486
_cell_length_c   9.59588317
_cell_angle_alpha   59.83524434
_cell_angle_beta   59.91650296
_cell_angle_gamma   59.91650436
_symmetry_Int_Tables_number   1
_chemical_formula_structural   Dy8Hg2IrRh
_chemical_formula_sum   'Dy16 Hg4 Ir2 Rh2'
_cell_volume   624.80256677
_cell_formula_units_Z   2
loop_
 _symmetry_equiv_pos_site_id
 _symmetry_equiv_pos_as_xyz
  1  'x, y, z'
loop_
 _atom_site_type_symbol
 _atom_site_label
 _atom_site_symmetry_multiplicity
 _atom_site_fract_x
 _atom_site_fract_y
 _atom_site_fract_z
 _atom_site_occupancy
  Dy  Dy0  1  0.690047  0.309953  0.309953  1
  Dy  Dy1  1  0.689998  0.690215  0.311045  1
  Dy  Dy2  1  0.308742  0.690215  0.311045  1
  Dy  Dy3  1  0.936755  0.938788  0.561732  1
  Dy  Dy4  1  0.149415  0.148611  0.552559  1
  Dy  Dy5  1  0.562726  0.938788  0.561732  1
  Dy  Dy6  1  0.150087  0.149303  0.149303  1
  Dy  Dy7  1  0.308742  0.311045  0.690215  1
  Dy  Dy8  1  0.938761  0.561239  0.561239  1
  Dy  Dy9  1  0.562726  0.561732  0.938788  1
  Dy  Dy10  1  0.563451  0.936549  0.936549  1
  Dy  Dy11  1  0.936755  0.561732  0.938788  1
  Dy  Dy12  1  0.149415  0.552559  0.148611  1
  Dy  Dy13  1  0.309923  0.690077  0.690077  1
  Dy  Dy14  1  0.689998  0.311045  0.690215  1
  Dy  Dy15  1  0.551306  0.149303  0.149303  1
  Hg  Hg16  1  0.914903  0.915284  0.254908  1
  Hg  Hg17  1  0.254254  0.915465  0.915465  1
  Hg  Hg18  1  0.914903  0.254908  0.915284  1
  Hg  Hg19  1  0.914814  0.915465  0.915465  1
  Ir  Ir20  1  0.358795  0.357368  0.357368  1
  Ir  Ir21  1  0.926470  0.357368  0.357368  1
  Rh  Rh22  1  0.358506  0.357089  0.925898  1
  Rh  Rh23  1  0.358506  0.925898  0.357089  1
