# generated using pymatgen
data_Er2Si2P4Pd20Au
_symmetry_space_group_name_H-M   'P 1'
_cell_length_a   8.64684525
_cell_length_b   8.64474335
_cell_length_c   8.64684475
_cell_angle_alpha   60.00803770
_cell_angle_beta   59.93837071
_cell_angle_gamma   60.00803471
_symmetry_Int_Tables_number   1
_chemical_formula_structural   Er2Si2P4Pd20Au
_chemical_formula_sum   'Er2 Si2 P4 Pd20 Au1'
_cell_volume   456.88032958
_cell_formula_units_Z   1
loop_
 _symmetry_equiv_pos_site_id
 _symmetry_equiv_pos_as_xyz
  1  'x, y, z'
loop_
 _atom_site_type_symbol
 _atom_site_label
 _atom_site_symmetry_multiplicity
 _atom_site_fract_x
 _atom_site_fract_y
 _atom_site_fract_z
 _atom_site_occupancy
  Er  Er0  1  0.752137  0.749799  0.748265  1
  Er  Er1  1  0.251735  0.250201  0.247863  1
  Si  Si2  1  0.737795  0.264011  0.262205  1
  Si  Si3  1  0.737795  0.735989  0.262205  1
  P  P4  1  0.737268  0.264893  0.732946  1
  P  P5  1  0.267054  0.735107  0.262732  1
  P  P6  1  0.265602  0.736791  0.734398  1
  P  P7  1  0.265602  0.263209  0.734398  1
  Pd  Pd8  1  0.341893  0.001490  0.001028  1
  Pd  Pd9  1  0.001176  0.655366  0.346763  1
  Pd  Pd10  1  0.343190  0.000000  0.656810  1
  Pd  Pd11  1  0.002424  0.654519  0.997576  1
  Pd  Pd12  1  0.653237  0.344634  0.998824  1
  Pd  Pd13  1  0.615498  0.616823  0.150854  1
  Pd  Pd14  1  0.383456  0.847511  0.384768  1
  Pd  Pd15  1  0.154648  0.615036  0.615278  1
  Pd  Pd16  1  0.652428  0.000000  0.347572  1
  Pd  Pd17  1  0.998972  0.344411  0.658107  1
  Pd  Pd18  1  0.653237  0.003306  0.998824  1
  Pd  Pd19  1  0.001176  0.996694  0.346763  1
  Pd  Pd20  1  0.615232  0.152489  0.616544  1
  Pd  Pd21  1  0.341893  0.655589  0.001028  1
  Pd  Pd22  1  0.383456  0.384267  0.384768  1
  Pd  Pd23  1  0.615232  0.615733  0.616544  1
  Pd  Pd24  1  0.384722  0.384964  0.845352  1
  Pd  Pd25  1  0.998972  0.998510  0.658107  1
  Pd  Pd26  1  0.849146  0.383177  0.384502  1
  Pd  Pd27  1  0.002424  0.345481  0.997576  1
  Au  Au28  1  0.992599  0.000000  0.007401  1
