# generated using pymatgen
data_Pr5P12Ru17Rh2
_symmetry_space_group_name_H-M   'P 1'
_cell_length_a   12.69025900
_cell_length_b   12.65164457
_cell_length_c   4.02962000
_cell_angle_alpha   90.00000000
_cell_angle_beta   90.00000000
_cell_angle_gamma   120.10102287
_symmetry_Int_Tables_number   1
_chemical_formula_structural   Pr5P12Ru17Rh2
_chemical_formula_sum   'Pr5 P12 Ru17 Rh2'
_cell_volume   559.71789554
_cell_formula_units_Z   1
loop_
 _symmetry_equiv_pos_site_id
 _symmetry_equiv_pos_as_xyz
  1  'x, y, z'
loop_
 _atom_site_type_symbol
 _atom_site_label
 _atom_site_symmetry_multiplicity
 _atom_site_fract_x
 _atom_site_fract_y
 _atom_site_fract_z
 _atom_site_occupancy
  Pr  Pr0  1  0.000919  0.183849  0.500000  1
  Pr  Pr1  1  0.817070  0.816151  0.500000  1
  Pr  Pr2  1  0.184334  0.000000  0.500000  1
  Pr  Pr3  1  0.665672  0.331645  0.000000  1
  Pr  Pr4  1  0.334028  0.668355  0.000000  1
  P  P5  1  0.999245  0.810932  0.000000  1
  P  P6  1  0.188313  0.189068  0.000000  1
  P  P7  1  0.813110  0.000000  0.000000  1
  P  P8  1  0.695162  0.170664  0.500000  1
  P  P9  1  0.824101  0.522077  0.500000  1
  P  P10  1  0.475692  0.301309  0.500000  1
  P  P11  1  0.174384  0.698691  0.500000  1
  P  P12  1  0.524498  0.829336  0.500000  1
  P  P13  1  0.302023  0.477923  0.500000  1
  P  P14  1  0.999849  0.372646  0.000000  1
  P  P15  1  0.627203  0.627354  0.000000  1
  P  P16  1  0.375160  0.000000  0.000000  1
  Ru  Ru17  1  0.554808  0.000000  0.000000  1
  Ru  Ru18  1  0.999020  0.711875  0.500000  1
  Ru  Ru19  1  0.287145  0.288125  0.500000  1
  Ru  Ru20  1  0.715382  0.000000  0.500000  1
  Ru  Ru21  1  0.806476  0.184709  0.000000  1
  Ru  Ru22  1  0.814150  0.619910  0.000000  1
  Ru  Ru23  1  0.377773  0.193526  0.000000  1
  Ru  Ru24  1  0.184247  0.806474  0.000000  1
  Ru  Ru25  1  0.621767  0.815291  0.000000  1
  Ru  Ru26  1  0.194240  0.380090  0.000000  1
  Ru  Ru27  1  0.875435  0.367141  0.500000  1
  Ru  Ru28  1  0.630752  0.507955  0.500000  1
  Ru  Ru29  1  0.491769  0.123733  0.500000  1
  Ru  Ru30  1  0.368037  0.876267  0.500000  1
  Ru  Ru31  1  0.508293  0.632859  0.500000  1
  Ru  Ru32  1  0.122797  0.492045  0.500000  1
  Ru  Ru33  1  0.000976  0.000000  0.000000  1
  Rh  Rh34  1  0.999647  0.553122  0.000000  1
  Rh  Rh35  1  0.446525  0.446878  0.000000  1
