# generated using pymatgen
data_Pr4Ga18RuRh5
_symmetry_space_group_name_H-M   'P 1'
_cell_length_a   7.64337242
_cell_length_b   7.64336922
_cell_length_c   9.71861550
_cell_angle_alpha   90.12061107
_cell_angle_beta   90.12055200
_cell_angle_gamma   119.21133301
_symmetry_Int_Tables_number   1
_chemical_formula_structural   Pr4Ga18RuRh5
_chemical_formula_sum   'Pr4 Ga18 Ru1 Rh5'
_cell_volume   495.56195772
_cell_formula_units_Z   1
loop_
 _symmetry_equiv_pos_site_id
 _symmetry_equiv_pos_as_xyz
  1  'x, y, z'
loop_
 _atom_site_type_symbol
 _atom_site_label
 _atom_site_symmetry_multiplicity
 _atom_site_fract_x
 _atom_site_fract_y
 _atom_site_fract_z
 _atom_site_occupancy
  Pr  Pr0  1  0.997938  0.669466  0.250633  1
  Pr  Pr1  1  0.002062  0.330534  0.749367  1
  Pr  Pr2  1  0.669465  0.997937  0.250632  1
  Pr  Pr3  1  0.330535  0.002063  0.749368  1
  Ga  Ga4  1  0.127451  0.127451  0.251248  1
  Ga  Ga5  1  0.872549  0.872549  0.748752  1
  Ga  Ga6  1  0.004945  0.335432  0.076801  1
  Ga  Ga7  1  0.995055  0.664568  0.923199  1
  Ga  Ga8  1  0.994982  0.665876  0.576833  1
  Ga  Ga9  1  0.334121  0.005017  0.423167  1
  Ga  Ga10  1  0.005018  0.334124  0.423167  1
  Ga  Ga11  1  0.665879  0.994983  0.576833  1
  Ga  Ga12  1  0.664566  0.995054  0.923199  1
  Ga  Ga13  1  0.335434  0.004946  0.076801  1
  Ga  Ga14  1  0.331727  0.331728  0.556599  1
  Ga  Ga15  1  0.668273  0.668272  0.443401  1
  Ga  Ga16  1  0.666363  0.666363  0.057598  1
  Ga  Ga17  1  0.333637  0.333637  0.942402  1
  Ga  Ga18  1  0.339100  0.545225  0.249770  1
  Ga  Ga19  1  0.660900  0.454775  0.750230  1
  Ga  Ga20  1  0.545225  0.339100  0.249768  1
  Ga  Ga21  1  0.454775  0.660900  0.750232  1
  Ru  Ru22  1  0.000000  0.000000  0.500000  1
  Rh  Rh23  1  0.670565  0.329435  0.000000  1
  Rh  Rh24  1  0.329435  0.670565  0.000000  1
  Rh  Rh25  1  0.329502  0.670495  0.500000  1
  Rh  Rh26  1  0.670498  0.329505  0.500000  1
  Rh  Rh27  1  0.000000  0.000000  0.000000  1
