# generated using pymatgen
data_Ho3ErSi4(PdRu)2
_symmetry_space_group_name_H-M   'P 1'
_cell_length_a   4.26734200
_cell_length_b   6.92391632
_cell_length_c   7.40990835
_cell_angle_alpha   90.64444946
_cell_angle_beta   90.00000000
_cell_angle_gamma   90.00000000
_symmetry_Int_Tables_number   1
_chemical_formula_structural   Ho3ErSi4(PdRu)2
_chemical_formula_sum   'Ho3 Er1 Si4 Pd2 Ru2'
_cell_volume   218.92463020
_cell_formula_units_Z   1
loop_
 _symmetry_equiv_pos_site_id
 _symmetry_equiv_pos_as_xyz
  1  'x, y, z'
loop_
 _atom_site_type_symbol
 _atom_site_label
 _atom_site_symmetry_multiplicity
 _atom_site_fract_x
 _atom_site_fract_y
 _atom_site_fract_z
 _atom_site_occupancy
  Ho  Ho0  1  0.250000  0.994278  0.807078  1
  Ho  Ho1  1  0.750000  0.005831  0.193020  1
  Ho  Ho2  1  0.250000  0.500239  0.689124  1
  Er  Er3  1  0.750000  0.500024  0.310109  1
  Si  Si4  1  0.250000  0.300283  0.090359  1
  Si  Si5  1  0.750000  0.699687  0.910373  1
  Si  Si6  1  0.250000  0.787819  0.381267  1
  Si  Si7  1  0.750000  0.212234  0.618264  1
  Pd  Pd8  1  0.750000  0.835379  0.573113  1
  Pd  Pd9  1  0.250000  0.164458  0.426382  1
  Ru  Ru10  1  0.750000  0.345567  0.933676  1
  Ru  Ru11  1  0.250000  0.654200  0.067235  1
