# generated using pymatgen
data_Nb12Al9Zn13IrPt
_symmetry_space_group_name_H-M   'P 1'
_cell_length_a   8.85710500
_cell_length_b   8.85710431
_cell_length_c   8.16863300
_cell_angle_alpha   90.00000000
_cell_angle_beta   90.00000000
_cell_angle_gamma   119.99999138
_symmetry_Int_Tables_number   1
_chemical_formula_structural   Nb12Al9Zn13IrPt
_chemical_formula_sum   'Nb12 Al9 Zn13 Ir1 Pt1'
_cell_volume   554.96245975
_cell_formula_units_Z   1
loop_
 _symmetry_equiv_pos_site_id
 _symmetry_equiv_pos_as_xyz
  1  'x, y, z'
loop_
 _atom_site_type_symbol
 _atom_site_label
 _atom_site_symmetry_multiplicity
 _atom_site_fract_x
 _atom_site_fract_y
 _atom_site_fract_z
 _atom_site_occupancy
  Nb  Nb0  1  0.332722  0.000057  0.069788  1
  Nb  Nb1  1  0.667335  0.000057  0.930212  1
  Nb  Nb2  1  0.999943  0.332665  0.069788  1
  Nb  Nb3  1  0.666248  0.000862  0.570387  1
  Nb  Nb4  1  0.999138  0.333752  0.429613  1
  Nb  Nb5  1  0.999943  0.667278  0.930212  1
  Nb  Nb6  1  0.334613  0.000862  0.429613  1
  Nb  Nb7  1  0.999138  0.665387  0.570387  1
  Nb  Nb8  1  0.667335  0.667278  0.069788  1
  Nb  Nb9  1  0.332722  0.332665  0.930212  1
  Nb  Nb10  1  0.334613  0.333752  0.570387  1
  Nb  Nb11  1  0.666248  0.665387  0.429613  1
  Al  Al12  1  0.666667  0.333333  0.500000  1
  Al  Al13  1  0.666667  0.333333  0.000000  1
  Al  Al14  1  0.333333  0.666667  0.000000  1
  Al  Al15  1  0.172890  0.999820  0.751115  1
  Al  Al16  1  0.826931  0.999820  0.248885  1
  Al  Al17  1  0.000180  0.173069  0.751115  1
  Al  Al18  1  0.000180  0.827110  0.248885  1
  Al  Al19  1  0.826931  0.827110  0.751115  1
  Al  Al20  1  0.172890  0.173069  0.248885  1
  Zn  Zn21  1  0.161473  0.495703  0.746944  1
  Zn  Zn22  1  0.839117  0.504790  0.250121  1
  Zn  Zn23  1  0.504297  0.665770  0.746944  1
  Zn  Zn24  1  0.495210  0.160883  0.749879  1
  Zn  Zn25  1  0.495210  0.334327  0.250121  1
  Zn  Zn26  1  0.504297  0.838527  0.253056  1
  Zn  Zn27  1  0.334230  0.838527  0.746944  1
  Zn  Zn28  1  0.665673  0.504790  0.749879  1
  Zn  Zn29  1  0.665673  0.160883  0.250121  1
  Zn  Zn30  1  0.334230  0.495703  0.253056  1
  Zn  Zn31  1  0.839117  0.334327  0.749879  1
  Zn  Zn32  1  0.161473  0.665770  0.253056  1
  Zn  Zn33  1  0.333333  0.666667  0.500000  1
  Ir  Ir34  1  0.000000  0.000000  0.000000  1
  Pt  Pt35  1  0.000000  0.000000  0.500000  1
