# generated using pymatgen
data_Dy8Ho2IrPt5
_symmetry_space_group_name_H-M   'P 1'
_cell_length_a   11.05305000
_cell_length_b   11.05305000
_cell_length_c   6.42054400
_cell_angle_alpha   90.00000000
_cell_angle_beta   90.00000000
_cell_angle_gamma   90.00000000
_symmetry_Int_Tables_number   1
_chemical_formula_structural   Dy8Ho2IrPt5
_chemical_formula_sum   'Dy16 Ho4 Ir2 Pt10'
_cell_volume   784.39731026
_cell_formula_units_Z   2
loop_
 _symmetry_equiv_pos_site_id
 _symmetry_equiv_pos_as_xyz
  1  'x, y, z'
loop_
 _atom_site_type_symbol
 _atom_site_label
 _atom_site_symmetry_multiplicity
 _atom_site_fract_x
 _atom_site_fract_y
 _atom_site_fract_z
 _atom_site_occupancy
  Dy  Dy0  1  0.292171  0.088755  0.376811  1
  Dy  Dy1  1  0.292171  0.911245  0.876811  1
  Dy  Dy2  1  0.707829  0.088755  0.876811  1
  Dy  Dy3  1  0.707829  0.911245  0.376811  1
  Dy  Dy4  1  0.588755  0.792171  0.876811  1
  Dy  Dy5  1  0.588755  0.207829  0.376811  1
  Dy  Dy6  1  0.411245  0.792171  0.376811  1
  Dy  Dy7  1  0.411245  0.207829  0.876811  1
  Dy  Dy8  1  0.205297  0.411990  0.623703  1
  Dy  Dy9  1  0.205297  0.588010  0.123703  1
  Dy  Dy10  1  0.794703  0.411990  0.123703  1
  Dy  Dy11  1  0.794703  0.588010  0.623703  1
  Dy  Dy12  1  0.911990  0.705297  0.123703  1
  Dy  Dy13  1  0.911990  0.294703  0.623703  1
  Dy  Dy14  1  0.088010  0.705297  0.623703  1
  Dy  Dy15  1  0.088010  0.294703  0.123703  1
  Ho  Ho16  1  0.000000  0.000000  0.500816  1
  Ho  Ho17  1  0.000000  0.000000  0.000816  1
  Ho  Ho18  1  0.500000  0.500000  0.000816  1
  Ho  Ho19  1  0.500000  0.500000  0.500816  1
  Ir  Ir20  1  0.000000  0.500000  0.878197  1
  Ir  Ir21  1  0.000000  0.500000  0.378197  1
  Pt  Pt22  1  0.846523  0.152135  0.250007  1
  Pt  Pt23  1  0.846523  0.847865  0.750007  1
  Pt  Pt24  1  0.153477  0.152135  0.750007  1
  Pt  Pt25  1  0.153477  0.847865  0.250007  1
  Pt  Pt26  1  0.652135  0.346523  0.750007  1
  Pt  Pt27  1  0.652135  0.653477  0.250007  1
  Pt  Pt28  1  0.347865  0.346523  0.250007  1
  Pt  Pt29  1  0.347865  0.653477  0.750007  1
  Pt  Pt30  1  0.500000  0.000000  0.118090  1
  Pt  Pt31  1  0.500000  0.000000  0.618090  1
