# generated using pymatgen
data_Y3ErLu4In3Co
_symmetry_space_group_name_H-M   'P 1'
_cell_length_a   10.18962700
_cell_length_b   10.18962689
_cell_length_c   7.03021600
_cell_angle_alpha   90.00000000
_cell_angle_beta   90.00000000
_cell_angle_gamma   119.99999711
_symmetry_Int_Tables_number   1
_chemical_formula_structural   Y3ErLu4In3Co
_chemical_formula_sum   'Y6 Er2 Lu8 In6 Co2'
_cell_volume   632.14379825
_cell_formula_units_Z   2
loop_
 _symmetry_equiv_pos_site_id
 _symmetry_equiv_pos_as_xyz
  1  'x, y, z'
loop_
 _atom_site_type_symbol
 _atom_site_label
 _atom_site_symmetry_multiplicity
 _atom_site_fract_x
 _atom_site_fract_y
 _atom_site_fract_z
 _atom_site_occupancy
  Y  Y0  1  0.534588  0.069177  0.791000  1
  Y  Y1  1  0.930823  0.465412  0.791000  1
  Y  Y2  1  0.534588  0.465412  0.791000  1
  Y  Y3  1  0.465412  0.930823  0.291000  1
  Y  Y4  1  0.069177  0.534588  0.291000  1
  Y  Y5  1  0.465412  0.534588  0.291000  1
  Er  Er6  1  0.000000  0.000000  0.779545  1
  Er  Er7  1  0.000000  0.000000  0.279545  1
  Lu  Lu8  1  0.820983  0.641969  0.496011  1
  Lu  Lu9  1  0.358031  0.179017  0.496011  1
  Lu  Lu10  1  0.820983  0.179017  0.496011  1
  Lu  Lu11  1  0.179017  0.358031  0.996011  1
  Lu  Lu12  1  0.641969  0.820983  0.996011  1
  Lu  Lu13  1  0.179017  0.820983  0.996011  1
  Lu  Lu14  1  0.666667  0.333333  0.186552  1
  Lu  Lu15  1  0.333333  0.666667  0.686552  1
  In  In16  1  0.836927  0.673853  0.043156  1
  In  In17  1  0.326147  0.163073  0.043156  1
  In  In18  1  0.836927  0.163073  0.043156  1
  In  In19  1  0.163073  0.326147  0.543156  1
  In  In20  1  0.673853  0.836927  0.543156  1
  In  In21  1  0.163073  0.836927  0.543156  1
  Co  Co22  1  0.666667  0.333333  0.561354  1
  Co  Co23  1  0.333333  0.666667  0.061354  1
