# generated using pymatgen
data_NdSmEr8(In2Pd)4
_symmetry_space_group_name_H-M   'P 1'
_cell_length_a   3.60695200
_cell_length_b   8.16656676
_cell_length_c   18.29608671
_cell_angle_alpha   90.04955726
_cell_angle_beta   90.00000000
_cell_angle_gamma   90.00000000
_symmetry_Int_Tables_number   1
_chemical_formula_structural   NdSmEr8(In2Pd)4
_chemical_formula_sum   'Nd1 Sm1 Er8 In8 Pd4'
_cell_volume   538.93690902
_cell_formula_units_Z   1
loop_
 _symmetry_equiv_pos_site_id
 _symmetry_equiv_pos_as_xyz
  1  'x, y, z'
loop_
 _atom_site_type_symbol
 _atom_site_label
 _atom_site_symmetry_multiplicity
 _atom_site_fract_x
 _atom_site_fract_y
 _atom_site_fract_z
 _atom_site_occupancy
  Nd  Nd0  1  0.000000  0.500000  0.500000  1
  Sm  Sm1  1  0.000000  0.000000  0.000000  1
  Er  Er2  1  0.000000  0.739006  0.281630  1
  Er  Er3  1  0.000000  0.260994  0.718370  1
  Er  Er4  1  0.000000  0.760996  0.781643  1
  Er  Er5  1  0.000000  0.239004  0.218357  1
  Er  Er6  1  0.000000  0.619916  0.084292  1
  Er  Er7  1  0.000000  0.380084  0.915708  1
  Er  Er8  1  0.000000  0.879935  0.584303  1
  Er  Er9  1  0.000000  0.120065  0.415697  1
  In  In10  1  0.500000  0.702066  0.932388  1
  In  In11  1  0.500000  0.297934  0.067612  1
  In  In12  1  0.500000  0.798958  0.432130  1
  In  In13  1  0.500000  0.201042  0.567870  1
  In  In14  1  0.500000  0.582199  0.652943  1
  In  In15  1  0.500000  0.417801  0.347057  1
  In  In16  1  0.500000  0.918046  0.152497  1
  In  In17  1  0.500000  0.081954  0.847503  1
  Pd  Pd18  1  0.500000  0.523962  0.195684  1
  Pd  Pd19  1  0.500000  0.476038  0.804316  1
  Pd  Pd20  1  0.500000  0.976060  0.695791  1
  Pd  Pd21  1  0.500000  0.023940  0.304209  1
