# generated using pymatgen
data_TbEu3(OsC2)2
_symmetry_space_group_name_H-M   'P 1'
_cell_length_a   5.26923400
_cell_length_b   6.60317579
_cell_length_c   10.43402800
_cell_angle_alpha   90.45014154
_cell_angle_beta   90.00000000
_cell_angle_gamma   90.00000000
_symmetry_Int_Tables_number   1
_chemical_formula_structural   TbEu3(OsC2)2
_chemical_formula_sum   'Tb2 Eu6 Os4 C8'
_cell_volume   363.02701021
_cell_formula_units_Z   2
loop_
 _symmetry_equiv_pos_site_id
 _symmetry_equiv_pos_as_xyz
  1  'x, y, z'
loop_
 _atom_site_type_symbol
 _atom_site_label
 _atom_site_symmetry_multiplicity
 _atom_site_fract_x
 _atom_site_fract_y
 _atom_site_fract_z
 _atom_site_occupancy
  Tb  Tb0  1  0.250000  0.681499  0.550888  1
  Tb  Tb1  1  0.750000  0.318501  0.449112  1
  Eu  Eu2  1  0.750000  0.804745  0.051499  1
  Eu  Eu3  1  0.250000  0.195255  0.948501  1
  Eu  Eu4  1  0.250000  0.530102  0.221436  1
  Eu  Eu5  1  0.750000  0.469898  0.778564  1
  Eu  Eu6  1  0.750000  0.968122  0.713005  1
  Eu  Eu7  1  0.250000  0.031878  0.286995  1
  Os  Os8  1  0.250000  0.732099  0.844544  1
  Os  Os9  1  0.750000  0.267901  0.155456  1
  Os  Os10  1  0.750000  0.768729  0.359675  1
  Os  Os11  1  0.250000  0.231271  0.640325  1
  C  C12  1  0.250000  0.469919  0.749618  1
  C  C13  1  0.750000  0.530081  0.250382  1
  C  C14  1  0.750000  0.031125  0.266522  1
  C  C15  1  0.250000  0.968875  0.733478  1
  C  C16  1  0.250000  0.795473  0.019476  1
  C  C17  1  0.750000  0.204527  0.980524  1
  C  C18  1  0.750000  0.682861  0.534050  1
  C  C19  1  0.250000  0.317139  0.465950  1
