# generated using pymatgen
data_ZnGaCoH8
_symmetry_space_group_name_H-M   'P 1'
_cell_length_a   7.89981389
_cell_length_b   5.74500401
_cell_length_c   4.63007357
_cell_angle_alpha   50.41047558
_cell_angle_beta   79.55204143
_cell_angle_gamma   89.74190024
_symmetry_Int_Tables_number   1
_chemical_formula_structural   ZnGaCoH8
_chemical_formula_sum   'Zn1 Ga1 Co1 H8'
_cell_volume   157.53084203
_cell_formula_units_Z   1
loop_
 _symmetry_equiv_pos_site_id
 _symmetry_equiv_pos_as_xyz
  1  'x, y, z'
loop_
 _atom_site_type_symbol
 _atom_site_label
 _atom_site_symmetry_multiplicity
 _atom_site_fract_x
 _atom_site_fract_y
 _atom_site_fract_z
 _atom_site_occupancy
  Zn  Zn0  1  0.846501  0.754800  0.783681  1
  Ga  Ga1  1  0.849036  0.258996  0.778925  1
  Co  Co2  1  0.848636  0.759034  0.279355  1
  H  H3  1  0.282800  0.303284  0.913895  1
  H  H4  1  0.425269  0.955874  0.621544  1
  H  H5  1  0.697566  0.863274  0.411729  1
  H  H6  1  0.998420  0.935092  0.267965  1
  H  H7  1  0.001884  0.668671  0.131742  1
  H  H8  1  0.697453  0.578193  0.299493  1
  H  H9  1  0.344008  0.961312  0.729125  1
  H  H10  1  0.290982  0.472757  0.799772  1
