# generated using pymatgen
data_Cs4SbRh7S16
_symmetry_space_group_name_H-M   'P 1'
_cell_length_a   6.25774367
_cell_length_b   7.24704215
_cell_length_c   16.10254913
_cell_angle_alpha   89.81707298
_cell_angle_beta   90.03001556
_cell_angle_gamma   89.80091525
_symmetry_Int_Tables_number   1
_chemical_formula_structural   Cs4SbRh7S16
_chemical_formula_sum   'Cs4 Sb1 Rh7 S16'
_cell_volume   730.24449590
_cell_formula_units_Z   1
loop_
 _symmetry_equiv_pos_site_id
 _symmetry_equiv_pos_as_xyz
  1  'x, y, z'
loop_
 _atom_site_type_symbol
 _atom_site_label
 _atom_site_symmetry_multiplicity
 _atom_site_fract_x
 _atom_site_fract_y
 _atom_site_fract_z
 _atom_site_occupancy
  Cs  Cs0  1  0.356310  0.995700  0.995196  1
  Cs  Cs1  1  0.643690  0.504300  0.504804  1
  Cs  Cs2  1  0.028935  0.996410  0.504146  1
  Cs  Cs3  1  0.971065  0.503590  0.995854  1
  Sb  Sb4  1  0.500000  0.250000  0.250000  1
  Rh  Rh5  1  0.001474  0.998611  0.250473  1
  Rh  Rh6  1  0.002314  0.000017  0.750107  1
  Rh  Rh7  1  0.998526  0.501389  0.249527  1
  Rh  Rh8  1  0.997686  0.499983  0.749893  1
  Rh  Rh9  1  0.500000  0.750000  0.750000  1
  Rh  Rh10  1  0.500000  0.750000  0.250000  1
  Rh  Rh11  1  0.500000  0.250000  0.750000  1
  S  S12  1  0.852444  0.250804  0.330073  1
  S  S13  1  0.833430  0.750699  0.676491  1
  S  S14  1  0.164665  0.750770  0.175202  1
  S  S15  1  0.166485  0.250223  0.823751  1
  S  S16  1  0.147556  0.249196  0.169927  1
  S  S17  1  0.166570  0.749301  0.823509  1
  S  S18  1  0.835335  0.749230  0.324798  1
  S  S19  1  0.833515  0.249777  0.676249  1
  S  S20  1  0.679669  0.984989  0.171239  1
  S  S21  1  0.670204  0.999706  0.822262  1
  S  S22  1  0.320331  0.515011  0.328761  1
  S  S23  1  0.329796  0.500294  0.677738  1
  S  S24  1  0.327421  0.983986  0.328573  1
  S  S25  1  0.336563  0.000273  0.677272  1
  S  S26  1  0.672579  0.516014  0.171427  1
  S  S27  1  0.663437  0.499727  0.822728  1
