# generated using pymatgen
data_TmZnCdCuPt2
_symmetry_space_group_name_H-M   'P 1'
_cell_length_a   5.24871496
_cell_length_b   5.22169352
_cell_length_c   5.54480700
_cell_angle_alpha   57.93104946
_cell_angle_beta   58.11567514
_cell_angle_gamma   58.51241259
_symmetry_Int_Tables_number   1
_chemical_formula_structural   TmZnCdCuPt2
_chemical_formula_sum   'Tm1 Zn1 Cd1 Cu1 Pt2'
_cell_volume   102.98544531
_cell_formula_units_Z   1
loop_
 _symmetry_equiv_pos_site_id
 _symmetry_equiv_pos_as_xyz
  1  'x, y, z'
loop_
 _atom_site_type_symbol
 _atom_site_label
 _atom_site_symmetry_multiplicity
 _atom_site_fract_x
 _atom_site_fract_y
 _atom_site_fract_z
 _atom_site_occupancy
  Tm  Tm0  1  0.995063  0.991498  0.006720  1
  Zn  Zn1  1  0.628603  0.128591  0.621403  1
  Cd  Cd2  1  0.246144  0.244076  0.254890  1
  Cu  Cu3  1  0.127155  0.629123  0.621861  1
  Pt  Pt4  1  0.626518  0.628356  0.621804  1
  Pt  Pt5  1  0.626518  0.628356  0.123324  1
