# generated using pymatgen
data_ErTm3CdPt
_symmetry_space_group_name_H-M   'P 1'
_cell_length_a   9.57085066
_cell_length_b   9.57085074
_cell_length_c   9.57085100
_cell_angle_alpha   60.00000256
_cell_angle_beta   60.00000229
_cell_angle_gamma   59.99999980
_symmetry_Int_Tables_number   1
_chemical_formula_structural   ErTm3CdPt
_chemical_formula_sum   'Er4 Tm12 Cd4 Pt4'
_cell_volume   619.92143857
_cell_formula_units_Z   4
loop_
 _symmetry_equiv_pos_site_id
 _symmetry_equiv_pos_as_xyz
  1  'x, y, z'
loop_
 _atom_site_type_symbol
 _atom_site_label
 _atom_site_symmetry_multiplicity
 _atom_site_fract_x
 _atom_site_fract_y
 _atom_site_fract_z
 _atom_site_occupancy
  Er  Er0  1  0.353049  0.353049  0.353049  1
  Er  Er1  1  0.353049  0.353049  0.940855  1
  Er  Er2  1  0.353049  0.940855  0.353049  1
  Er  Er3  1  0.940855  0.353049  0.353049  1
  Tm  Tm4  1  0.811023  0.188977  0.188977  1
  Tm  Tm5  1  0.188977  0.811023  0.811023  1
  Tm  Tm6  1  0.188977  0.811023  0.188977  1
  Tm  Tm7  1  0.811023  0.188977  0.811023  1
  Tm  Tm8  1  0.188977  0.188977  0.811023  1
  Tm  Tm9  1  0.811023  0.811023  0.188977  1
  Tm  Tm10  1  0.934819  0.565181  0.565181  1
  Tm  Tm11  1  0.565181  0.934819  0.934819  1
  Tm  Tm12  1  0.565181  0.934819  0.565181  1
  Tm  Tm13  1  0.934819  0.565181  0.934819  1
  Tm  Tm14  1  0.565181  0.565181  0.934819  1
  Tm  Tm15  1  0.934819  0.934819  0.565181  1
  Cd  Cd16  1  0.582404  0.582404  0.582404  1
  Cd  Cd17  1  0.582404  0.582404  0.252787  1
  Cd  Cd18  1  0.582404  0.252787  0.582404  1
  Cd  Cd19  1  0.252787  0.582404  0.582404  1
  Pt  Pt20  1  0.143361  0.143361  0.143361  1
  Pt  Pt21  1  0.143361  0.143361  0.569917  1
  Pt  Pt22  1  0.143361  0.569917  0.143361  1
  Pt  Pt23  1  0.569917  0.143361  0.143361  1
