# generated using pymatgen
data_La5AgRu2
_symmetry_space_group_name_H-M   'P 1'
_cell_length_a   9.10513050
_cell_length_b   9.10513015
_cell_length_c   9.10513007
_cell_angle_alpha   127.82647865
_cell_angle_beta   127.82647610
_cell_angle_gamma   76.90629779
_symmetry_Int_Tables_number   1
_chemical_formula_structural   La5AgRu2
_chemical_formula_sum   'La10 Ag2 Ru4'
_cell_volume   457.21509837
_cell_formula_units_Z   2
loop_
 _symmetry_equiv_pos_site_id
 _symmetry_equiv_pos_as_xyz
  1  'x, y, z'
loop_
 _atom_site_type_symbol
 _atom_site_label
 _atom_site_symmetry_multiplicity
 _atom_site_fract_x
 _atom_site_fract_y
 _atom_site_fract_z
 _atom_site_occupancy
  La  La0  1  0.000000  0.000000  0.000000  1
  La  La1  1  0.500000  0.500000  0.000000  1
  La  La2  1  0.790631  0.290631  0.819763  1
  La  La3  1  0.209369  0.709369  0.180237  1
  La  La4  1  0.470869  0.970869  0.180237  1
  La  La5  1  0.290631  0.470869  0.500000  1
  La  La6  1  0.029131  0.209369  0.500000  1
  La  La7  1  0.529131  0.029131  0.819763  1
  La  La8  1  0.709369  0.529131  0.500000  1
  La  La9  1  0.970869  0.790631  0.500000  1
  Ag  Ag10  1  0.250000  0.250000  0.000000  1
  Ag  Ag11  1  0.750000  0.750000  0.000000  1
  Ru  Ru12  1  0.142916  0.642916  0.785831  1
  Ru  Ru13  1  0.857084  0.357084  0.214169  1
  Ru  Ru14  1  0.642916  0.857084  0.500000  1
  Ru  Ru15  1  0.357084  0.142916  0.500000  1
