# generated using pymatgen
data_Sc8IrRu3Pt4
_symmetry_space_group_name_H-M   'P 1'
_cell_length_a   6.44360200
_cell_length_b   6.46740300
_cell_length_c   6.61943200
_cell_angle_alpha   90.00008758
_cell_angle_beta   90.00160501
_cell_angle_gamma   89.99944972
_symmetry_Int_Tables_number   1
_chemical_formula_structural   Sc8IrRu3Pt4
_chemical_formula_sum   'Sc8 Ir1 Ru3 Pt4'
_cell_volume   275.85404486
_cell_formula_units_Z   1
loop_
 _symmetry_equiv_pos_site_id
 _symmetry_equiv_pos_as_xyz
  1  'x, y, z'
loop_
 _atom_site_type_symbol
 _atom_site_label
 _atom_site_symmetry_multiplicity
 _atom_site_fract_x
 _atom_site_fract_y
 _atom_site_fract_z
 _atom_site_occupancy
  Sc  Sc0  1  0.500334  0.999909  0.248523  1
  Sc  Sc1  1  0.500332  0.500106  0.248521  1
  Sc  Sc2  1  0.999988  0.999852  0.248594  1
  Sc  Sc3  1  0.999988  0.500135  0.248598  1
  Sc  Sc4  1  0.999663  0.999902  0.751399  1
  Sc  Sc5  1  0.999667  0.500118  0.751397  1
  Sc  Sc6  1  0.500016  0.999851  0.751475  1
  Sc  Sc7  1  0.500016  0.500133  0.751472  1
  Ir  Ir8  1  0.750043  0.250001  0.000090  1
  Ru  Ru9  1  0.250036  0.749999  0.499985  1
  Ru  Ru10  1  0.749968  0.250000  0.500029  1
  Ru  Ru11  1  0.249966  0.750000  0.999985  1
  Pt  Pt12  1  0.249918  0.250001  0.999969  1
  Pt  Pt13  1  0.750058  0.749998  0.999966  1
  Pt  Pt14  1  0.749940  0.750002  0.499993  1
  Pt  Pt15  1  0.250064  0.249998  0.499999  1
