# generated using pymatgen
data_Hf2Ga3MoRu6
_symmetry_space_group_name_H-M   'P 1'
_cell_length_a   4.40842600
_cell_length_b   6.25602200
_cell_length_c   13.18598001
_cell_angle_alpha   90.00000000
_cell_angle_beta   90.00429555
_cell_angle_gamma   90.00000000
_symmetry_Int_Tables_number   1
_chemical_formula_structural   Hf2Ga3MoRu6
_chemical_formula_sum   'Hf4 Ga6 Mo2 Ru12'
_cell_volume   363.65891151
_cell_formula_units_Z   2
loop_
 _symmetry_equiv_pos_site_id
 _symmetry_equiv_pos_as_xyz
  1  'x, y, z'
loop_
 _atom_site_type_symbol
 _atom_site_label
 _atom_site_symmetry_multiplicity
 _atom_site_fract_x
 _atom_site_fract_y
 _atom_site_fract_z
 _atom_site_occupancy
  Hf  Hf0  1  0.999788  0.000000  0.332757  1
  Hf  Hf1  1  0.500007  0.500000  0.500115  1
  Hf  Hf2  1  0.000153  0.000000  0.666479  1
  Hf  Hf3  1  0.500232  0.500000  0.833886  1
  Ga  Ga4  1  0.000125  0.500000  0.999644  1
  Ga  Ga5  1  0.499709  0.000000  0.167118  1
  Ga  Ga6  1  0.999783  0.500000  0.332925  1
  Ga  Ga7  1  0.499977  0.000000  0.499009  1
  Ga  Ga8  1  0.000207  0.500000  0.667604  1
  Ga  Ga9  1  0.500206  0.000000  0.833605  1
  Mo  Mo10  1  0.999852  0.000000  0.997932  1
  Mo  Mo11  1  0.499960  0.500000  0.168723  1
  Ru  Ru12  1  0.500004  0.243763  0.005036  1
  Ru  Ru13  1  0.500004  0.756236  0.005036  1
  Ru  Ru14  1  0.999831  0.256080  0.161723  1
  Ru  Ru15  1  0.999831  0.743920  0.161723  1
  Ru  Ru16  1  0.499771  0.255552  0.326239  1
  Ru  Ru17  1  0.499771  0.744447  0.326239  1
  Ru  Ru18  1  0.999989  0.249281  0.498392  1
  Ru  Ru19  1  0.999989  0.750719  0.498392  1
  Ru  Ru20  1  0.500170  0.250801  0.668194  1
  Ru  Ru21  1  0.500170  0.749198  0.668194  1
  Ru  Ru22  1  0.000237  0.244351  0.840519  1
  Ru  Ru23  1  0.000237  0.755649  0.840519  1
