# generated using pymatgen
data_Dy3Tm(Si3Ni5)4
_symmetry_space_group_name_H-M   'P 1'
_cell_length_a   3.79623800
_cell_length_b   6.56326702
_cell_length_c   18.76606307
_cell_angle_alpha   89.99004218
_cell_angle_beta   90.00000000
_cell_angle_gamma   90.00000000
_symmetry_Int_Tables_number   1
_chemical_formula_structural   Dy3Tm(Si3Ni5)4
_chemical_formula_sum   'Dy3 Tm1 Si12 Ni20'
_cell_volume   467.57003504
_cell_formula_units_Z   1
loop_
 _symmetry_equiv_pos_site_id
 _symmetry_equiv_pos_as_xyz
  1  'x, y, z'
loop_
 _atom_site_type_symbol
 _atom_site_label
 _atom_site_symmetry_multiplicity
 _atom_site_fract_x
 _atom_site_fract_y
 _atom_site_fract_z
 _atom_site_occupancy
  Dy  Dy0  1  0.750000  0.124540  0.643731  1
  Dy  Dy1  1  0.750000  0.375639  0.144254  1
  Dy  Dy2  1  0.250000  0.624051  0.855989  1
  Tm  Tm3  1  0.250000  0.876284  0.355737  1
  Si  Si4  1  0.250000  0.077016  0.086741  1
  Si  Si5  1  0.750000  0.922535  0.913671  1
  Si  Si6  1  0.750000  0.580278  0.413277  1
  Si  Si7  1  0.250000  0.422545  0.585667  1
  Si  Si8  1  0.250000  0.656488  0.074168  1
  Si  Si9  1  0.750000  0.343415  0.926270  1
  Si  Si10  1  0.750000  0.155013  0.425673  1
  Si  Si11  1  0.250000  0.843487  0.573940  1
  Si  Si12  1  0.250000  0.380295  0.262796  1
  Si  Si13  1  0.750000  0.619504  0.737241  1
  Si  Si14  1  0.750000  0.879915  0.238127  1
  Si  Si15  1  0.250000  0.119883  0.762549  1
  Ni  Ni16  1  0.250000  0.070552  0.207628  1
  Ni  Ni17  1  0.750000  0.928790  0.792947  1
  Ni  Ni18  1  0.750000  0.571340  0.293400  1
  Ni  Ni19  1  0.250000  0.428874  0.706601  1
  Ni  Ni20  1  0.250000  0.616290  0.482916  1
  Ni  Ni21  1  0.750000  0.386370  0.515440  1
  Ni  Ni22  1  0.750000  0.113752  0.016526  1
  Ni  Ni23  1  0.250000  0.885858  0.983829  1
  Ni  Ni24  1  0.250000  0.686259  0.199541  1
  Ni  Ni25  1  0.750000  0.313888  0.800948  1
  Ni  Ni26  1  0.750000  0.184822  0.301323  1
  Ni  Ni27  1  0.250000  0.813964  0.698977  1
  Ni  Ni28  1  0.250000  0.353173  0.384172  1
  Ni  Ni29  1  0.750000  0.645749  0.615699  1
  Ni  Ni30  1  0.750000  0.853619  0.116404  1
  Ni  Ni31  1  0.250000  0.146301  0.884157  1
  Ni  Ni32  1  0.250000  0.365100  0.005698  1
  Ni  Ni33  1  0.750000  0.634749  0.994745  1
  Ni  Ni34  1  0.750000  0.865587  0.494201  1
  Ni  Ni35  1  0.250000  0.134074  0.505019  1
