# generated using pymatgen
data_UPa2(TiBr6)3
_symmetry_space_group_name_H-M   'P 1'
_cell_length_a   6.78734361
_cell_length_b   6.78888099
_cell_length_c   21.74260200
_cell_angle_alpha   89.98188007
_cell_angle_beta   90.03944742
_cell_angle_gamma   120.01575134
_symmetry_Int_Tables_number   1
_chemical_formula_structural   UPa2(TiBr6)3
_chemical_formula_sum   'U1 Pa2 Ti3 Br18'
_cell_volume   867.50327396
_cell_formula_units_Z   1
loop_
 _symmetry_equiv_pos_site_id
 _symmetry_equiv_pos_as_xyz
  1  'x, y, z'
loop_
 _atom_site_type_symbol
 _atom_site_label
 _atom_site_symmetry_multiplicity
 _atom_site_fract_x
 _atom_site_fract_y
 _atom_site_fract_z
 _atom_site_occupancy
  U  U0  1  0.651111  0.984167  0.665470  1
  Pa  Pa1  1  0.348571  0.015950  0.334389  1
  Pa  Pa2  1  0.666903  0.333707  0.000088  1
  Ti  Ti3  1  0.016085  0.349144  0.334396  1
  Ti  Ti4  1  0.333597  0.666028  0.000103  1
  Ti  Ti5  1  0.983936  0.651083  0.665459  1
  Br  Br6  1  0.333277  0.980360  0.073755  1
  Br  Br7  1  0.330681  0.663236  0.261019  1
  Br  Br8  1  0.016274  0.036409  0.260288  1
  Br  Br9  1  0.328764  0.348423  0.408416  1
  Br  Br10  1  0.673383  0.650062  0.592217  1
  Br  Br11  1  0.647357  0.666214  0.074129  1
  Br  Br12  1  0.014636  0.662395  0.407827  1
  Br  Br13  1  0.702139  0.350145  0.260883  1
  Br  Br14  1  0.986604  0.342000  0.592796  1
  Br  Br15  1  0.701794  0.034025  0.407731  1
  Br  Br16  1  0.648269  0.980664  0.926627  1
  Br  Br17  1  0.019383  0.351690  0.073753  1
  Br  Br18  1  0.985089  0.961198  0.738766  1
  Br  Br19  1  0.671680  0.341189  0.738128  1
  Br  Br20  1  0.293644  0.963562  0.592913  1
  Br  Br21  1  0.019759  0.666901  0.926441  1
  Br  Br22  1  0.333514  0.352686  0.926183  1
  Br  Br23  1  0.293550  0.648763  0.738223  1
