# generated using pymatgen
data_Tm12InFe2AgRu
_symmetry_space_group_name_H-M   'P 1'
_cell_length_a   8.21219246
_cell_length_b   8.21219090
_cell_length_c   8.21219186
_cell_angle_alpha   106.79789451
_cell_angle_beta   110.45676918
_cell_angle_gamma   111.19252355
_symmetry_Int_Tables_number   1
_chemical_formula_structural   Tm12InFe2AgRu
_chemical_formula_sum   'Tm12 In1 Fe2 Ag1 Ru1'
_cell_volume   425.62879760
_cell_formula_units_Z   1
loop_
 _symmetry_equiv_pos_site_id
 _symmetry_equiv_pos_as_xyz
  1  'x, y, z'
loop_
 _atom_site_type_symbol
 _atom_site_label
 _atom_site_symmetry_multiplicity
 _atom_site_fract_x
 _atom_site_fract_y
 _atom_site_fract_z
 _atom_site_occupancy
  Tm  Tm0  1  0.192142  0.422814  0.230672  1
  Tm  Tm1  1  0.807858  0.577186  0.769328  1
  Tm  Tm2  1  0.192142  0.961472  0.769328  1
  Tm  Tm3  1  0.944177  0.194850  0.749327  1
  Tm  Tm4  1  0.807858  0.038528  0.230672  1
  Tm  Tm5  1  0.055823  0.805150  0.250673  1
  Tm  Tm6  1  0.445523  0.194850  0.250673  1
  Tm  Tm7  1  0.554477  0.805150  0.749327  1
  Tm  Tm8  1  0.307898  0.309846  0.617742  1
  Tm  Tm9  1  0.692102  0.690154  0.382258  1
  Tm  Tm10  1  0.692102  0.309846  0.001948  1
  Tm  Tm11  1  0.307898  0.690154  0.998052  1
  In  In12  1  0.000000  0.500000  0.500000  1
  Fe  Fe13  1  0.383304  0.383304  0.000000  1
  Fe  Fe14  1  0.616696  0.616696  0.000000  1
  Ag  Ag15  1  0.500000  0.000000  0.500000  1
  Ru  Ru16  1  0.000000  0.000000  0.000000  1
