# generated using pymatgen
data_Tb3Nd2Co19(Si2P)4
_symmetry_space_group_name_H-M   'P 1'
_cell_length_a   12.18353000
_cell_length_b   12.19028482
_cell_length_c   3.72736200
_cell_angle_alpha   90.00000000
_cell_angle_beta   90.00000000
_cell_angle_gamma   119.99485668
_symmetry_Int_Tables_number   1
_chemical_formula_structural   Tb3Nd2Co19(Si2P)4
_chemical_formula_sum   'Tb3 Nd2 Co19 Si8 P4'
_cell_volume   479.44820953
_cell_formula_units_Z   1
loop_
 _symmetry_equiv_pos_site_id
 _symmetry_equiv_pos_as_xyz
  1  'x, y, z'
loop_
 _atom_site_type_symbol
 _atom_site_label
 _atom_site_symmetry_multiplicity
 _atom_site_fract_x
 _atom_site_fract_y
 _atom_site_fract_z
 _atom_site_occupancy
  Tb  Tb0  1  0.182885  0.998986  0.500000  1
  Tb  Tb1  1  0.001081  0.184477  0.500000  1
  Tb  Tb2  1  0.814925  0.815007  0.500000  1
  Nd  Nd3  1  0.333224  0.666995  0.000000  1
  Nd  Nd4  1  0.665179  0.332977  0.000000  1
  Co  Co5  1  0.197289  0.371005  0.000000  1
  Co  Co6  1  0.628275  0.824999  0.000000  1
  Co  Co7  1  0.174533  0.803865  0.000000  1
  Co  Co8  1  0.823225  0.626782  0.000000  1
  Co  Co9  1  0.803590  0.175187  0.000000  1
  Co  Co10  1  0.376199  0.201788  0.000000  1
  Co  Co11  1  0.558053  0.000770  0.000000  1
  Co  Co12  1  0.000287  0.558604  0.000000  1
  Co  Co13  1  0.441074  0.444534  0.000000  1
  Co  Co14  1  0.122539  0.477464  0.500000  1
  Co  Co15  1  0.522625  0.644977  0.500000  1
  Co  Co16  1  0.355400  0.878899  0.500000  1
  Co  Co17  1  0.637803  0.515574  0.500000  1
  Co  Co18  1  0.878137  0.355740  0.500000  1
  Co  Co19  1  0.477246  0.123814  0.500000  1
  Co  Co20  1  0.724473  0.000282  0.500000  1
  Co  Co21  1  0.998978  0.723565  0.500000  1
  Co  Co22  1  0.281887  0.277192  0.500000  1
  Co  Co23  1  0.000778  0.000658  0.000000  1
  Si  Si24  1  0.370148  0.000475  0.000000  1
  Si  Si25  1  0.000199  0.370398  0.000000  1
  Si  Si26  1  0.629764  0.629419  0.000000  1
  Si  Si27  1  0.318208  0.475009  0.500000  1
  Si  Si28  1  0.525316  0.844055  0.500000  1
  Si  Si29  1  0.156332  0.682052  0.500000  1
  Si  Si30  1  0.842249  0.524633  0.500000  1
  Si  Si31  1  0.682400  0.157119  0.500000  1
  P  P32  1  0.475689  0.313180  0.500000  1
  P  P33  1  0.819194  0.000154  0.000000  1
  P  P34  1  0.998569  0.818144  0.000000  1
  P  P35  1  0.182244  0.181219  0.000000  1
