# generated using pymatgen
data_La4V3TcF28
_symmetry_space_group_name_H-M   'P 1'
_cell_length_a   5.73847363
_cell_length_b   9.27798450
_cell_length_c   12.34771254
_cell_angle_alpha   62.69304862
_cell_angle_beta   90.04908114
_cell_angle_gamma   90.00346508
_symmetry_Int_Tables_number   1
_chemical_formula_structural   La4V3TcF28
_chemical_formula_sum   'La4 V3 Tc1 F28'
_cell_volume   584.14933278
_cell_formula_units_Z   1
loop_
 _symmetry_equiv_pos_site_id
 _symmetry_equiv_pos_as_xyz
  1  'x, y, z'
loop_
 _atom_site_type_symbol
 _atom_site_label
 _atom_site_symmetry_multiplicity
 _atom_site_fract_x
 _atom_site_fract_y
 _atom_site_fract_z
 _atom_site_occupancy
  La  La0  1  0.758309  0.808371  0.264312  1
  La  La1  1  0.258488  0.193537  0.232686  1
  La  La2  1  0.241969  0.195332  0.730758  1
  La  La3  1  0.740309  0.807384  0.771334  1
  V  V4  1  0.745064  0.274278  0.955936  1
  V  V5  1  0.755059  0.273838  0.455807  1
  V  V6  1  0.254659  0.726152  0.044050  1
  Tc  Tc7  1  0.244662  0.726896  0.543245  1
  F  F8  1  0.962466  0.713513  0.457373  1
  F  F9  1  0.472666  0.284515  0.042051  1
  F  F10  1  0.027589  0.284589  0.541690  1
  F  F11  1  0.527529  0.714864  0.958761  1
  F  F12  1  0.060306  0.710050  0.925689  1
  F  F13  1  0.560516  0.289847  0.574212  1
  F  F14  1  0.939912  0.289864  0.074392  1
  F  F15  1  0.444810  0.707204  0.422239  1
  F  F16  1  0.736135  0.497485  0.866786  1
  F  F17  1  0.236223  0.489649  0.638592  1
  F  F18  1  0.264140  0.503529  0.132971  1
  F  F19  1  0.764200  0.497390  0.366901  1
  F  F20  1  0.740354  0.052207  0.043793  1
  F  F21  1  0.240298  0.962821  0.450737  1
  F  F22  1  0.259410  0.946973  0.956525  1
  F  F23  1  0.759476  0.052352  0.543833  1
  F  F24  1  0.046592  0.743395  0.667525  1
  F  F25  1  0.550824  0.255977  0.836375  1
  F  F26  1  0.949257  0.257269  0.335552  1
  F  F27  1  0.448970  0.743418  0.163892  1
  F  F28  1  0.011267  0.267635  0.866664  1
  F  F29  1  0.521525  0.731485  0.635593  1
  F  F30  1  0.988185  0.731822  0.133545  1
  F  F31  1  0.488468  0.269102  0.365696  1
  F  F32  1  0.089211  0.968814  0.230402  1
  F  F33  1  0.589391  0.028913  0.270085  1
  F  F34  1  0.911034  0.030224  0.770300  1
  F  F35  1  0.410723  0.969305  0.729702  1
