# generated using pymatgen
data_Tb7Er3(CoSb2)2
_symmetry_space_group_name_H-M   'P 1'
_cell_length_a   7.90745400
_cell_length_b   8.76074078
_cell_length_c   12.28999073
_cell_angle_alpha   89.90973703
_cell_angle_beta   90.00000000
_cell_angle_gamma   90.00000000
_symmetry_Int_Tables_number   1
_chemical_formula_structural   Tb7Er3(CoSb2)2
_chemical_formula_sum   'Tb14 Er6 Co4 Sb8'
_cell_volume   851.38995262
_cell_formula_units_Z   2
loop_
 _symmetry_equiv_pos_site_id
 _symmetry_equiv_pos_as_xyz
  1  'x, y, z'
loop_
 _atom_site_type_symbol
 _atom_site_label
 _atom_site_symmetry_multiplicity
 _atom_site_fract_x
 _atom_site_fract_y
 _atom_site_fract_z
 _atom_site_occupancy
  Tb  Tb0  1  0.155135  0.749386  0.203302  1
  Tb  Tb1  1  0.655135  0.250614  0.296698  1
  Tb  Tb2  1  0.845196  0.250322  0.796538  1
  Tb  Tb3  1  0.345196  0.749678  0.703462  1
  Tb  Tb4  1  0.451722  0.749411  0.997582  1
  Tb  Tb5  1  0.951722  0.250589  0.502418  1
  Tb  Tb6  1  0.545635  0.250826  0.002070  1
  Tb  Tb7  1  0.045635  0.749174  0.497930  1
  Tb  Tb8  1  0.623825  0.749623  0.308301  1
  Tb  Tb9  1  0.123825  0.250377  0.191699  1
  Tb  Tb10  1  0.377356  0.250903  0.692114  1
  Tb  Tb11  1  0.877356  0.749097  0.807886  1
  Tb  Tb12  1  0.821166  0.965003  0.064932  1
  Tb  Tb13  1  0.321166  0.034997  0.435068  1
  Er  Er14  1  0.175363  0.463277  0.934253  1
  Er  Er15  1  0.675363  0.536723  0.565747  1
  Er  Er16  1  0.176114  0.036505  0.934186  1
  Er  Er17  1  0.676114  0.963495  0.565814  1
  Er  Er18  1  0.824688  0.535271  0.065184  1
  Er  Er19  1  0.324688  0.464729  0.434816  1
  Co  Co20  1  0.436607  0.748976  0.491955  1
  Co  Co21  1  0.936607  0.251024  0.008045  1
  Co  Co22  1  0.567445  0.251485  0.509033  1
  Co  Co23  1  0.067445  0.748515  0.990967  1
  Sb  Sb24  1  0.929127  0.992041  0.326712  1
  Sb  Sb25  1  0.429127  0.007959  0.173288  1
  Sb  Sb26  1  0.069718  0.492252  0.673226  1
  Sb  Sb27  1  0.569718  0.507748  0.826774  1
  Sb  Sb28  1  0.070054  0.007678  0.673369  1
  Sb  Sb29  1  0.570054  0.992322  0.826631  1
  Sb  Sb30  1  0.930846  0.507626  0.326426  1
  Sb  Sb31  1  0.430846  0.492374  0.173574  1
