# generated using pymatgen
data_ErLu2(Co3P2)3
_symmetry_space_group_name_H-M   'P 1'
_cell_length_a   3.65242800
_cell_length_b   10.44364900
_cell_length_c   12.06805400
_cell_angle_alpha   90.00000000
_cell_angle_beta   90.00000000
_cell_angle_gamma   90.00000000
_symmetry_Int_Tables_number   1
_chemical_formula_structural   ErLu2(Co3P2)3
_chemical_formula_sum   'Er2 Lu4 Co18 P12'
_cell_volume   460.33201014
_cell_formula_units_Z   2
loop_
 _symmetry_equiv_pos_site_id
 _symmetry_equiv_pos_as_xyz
  1  'x, y, z'
loop_
 _atom_site_type_symbol
 _atom_site_label
 _atom_site_symmetry_multiplicity
 _atom_site_fract_x
 _atom_site_fract_y
 _atom_site_fract_z
 _atom_site_occupancy
  Er  Er0  1  0.000000  0.500000  0.522893  1
  Er  Er1  1  0.500000  0.000000  0.477107  1
  Lu  Lu2  1  0.500000  0.818532  0.206139  1
  Lu  Lu3  1  0.500000  0.181468  0.206139  1
  Lu  Lu4  1  0.000000  0.681468  0.793861  1
  Lu  Lu5  1  0.000000  0.318532  0.793861  1
  Co  Co6  1  0.500000  0.500000  0.159727  1
  Co  Co7  1  0.000000  0.000000  0.840273  1
  Co  Co8  1  0.500000  0.500000  0.704425  1
  Co  Co9  1  0.000000  0.000000  0.295575  1
  Co  Co10  1  0.000000  0.500000  0.986718  1
  Co  Co11  1  0.500000  0.000000  0.013282  1
  Co  Co12  1  0.500000  0.332869  0.994807  1
  Co  Co13  1  0.500000  0.667131  0.994807  1
  Co  Co14  1  0.000000  0.167131  0.005193  1
  Co  Co15  1  0.000000  0.832869  0.005193  1
  Co  Co16  1  0.500000  0.297549  0.430531  1
  Co  Co17  1  0.500000  0.702451  0.430531  1
  Co  Co18  1  0.000000  0.202451  0.569469  1
  Co  Co19  1  0.000000  0.797549  0.569469  1
  Co  Co20  1  0.500000  0.878201  0.709449  1
  Co  Co21  1  0.500000  0.121799  0.709449  1
  Co  Co22  1  0.000000  0.621799  0.290551  1
  Co  Co23  1  0.000000  0.378201  0.290551  1
  P  P24  1  0.500000  0.500000  0.882419  1
  P  P25  1  0.000000  0.000000  0.117581  1
  P  P26  1  0.500000  0.500000  0.345338  1
  P  P27  1  0.000000  0.000000  0.654662  1
  P  P28  1  0.500000  0.311996  0.617139  1
  P  P29  1  0.500000  0.688004  0.617139  1
  P  P30  1  0.000000  0.188004  0.382861  1
  P  P31  1  0.000000  0.811996  0.382861  1
  P  P32  1  0.500000  0.846375  0.891398  1
  P  P33  1  0.500000  0.153625  0.891398  1
  P  P34  1  0.000000  0.653625  0.108602  1
  P  P35  1  0.000000  0.346375  0.108602  1
