# generated using pymatgen
data_Sm2Ho3Tm15Pt16
_symmetry_space_group_name_H-M   'P 1'
_cell_length_a   7.43037140
_cell_length_b   7.50630696
_cell_length_c   14.63990215
_cell_angle_alpha   90.01320095
_cell_angle_beta   90.01517883
_cell_angle_gamma   89.99460533
_symmetry_Int_Tables_number   1
_chemical_formula_structural   Sm2Ho3Tm15Pt16
_chemical_formula_sum   'Sm2 Ho3 Tm15 Pt16'
_cell_volume   816.53534361
_cell_formula_units_Z   1
loop_
 _symmetry_equiv_pos_site_id
 _symmetry_equiv_pos_as_xyz
  1  'x, y, z'
loop_
 _atom_site_type_symbol
 _atom_site_label
 _atom_site_symmetry_multiplicity
 _atom_site_fract_x
 _atom_site_fract_y
 _atom_site_fract_z
 _atom_site_occupancy
  Sm  Sm0  1  0.000222  0.177851  0.407210  1
  Sm  Sm1  1  0.500342  0.322857  0.407691  1
  Ho  Ho2  1  0.998739  0.178688  0.092387  1
  Ho  Ho3  1  0.500913  0.679045  0.907573  1
  Ho  Ho4  1  0.001401  0.819608  0.593186  1
  Tm  Tm5  1  0.656432  0.167008  0.623309  1
  Tm  Tm6  1  0.156026  0.332837  0.877480  1
  Tm  Tm7  1  0.343953  0.832871  0.122131  1
  Tm  Tm8  1  0.844689  0.667880  0.377066  1
  Tm  Tm9  1  0.345504  0.831437  0.377370  1
  Tm  Tm10  1  0.844102  0.667405  0.121674  1
  Tm  Tm11  1  0.655869  0.167427  0.877814  1
  Tm  Tm12  1  0.156771  0.333112  0.623062  1
  Tm  Tm13  1  0.501771  0.680935  0.593587  1
  Tm  Tm14  1  0.001720  0.819865  0.906879  1
  Tm  Tm15  1  0.498163  0.320080  0.092925  1
  Tm  Tm16  1  0.818911  0.510229  0.750196  1
  Tm  Tm17  1  0.318890  0.989698  0.750306  1
  Tm  Tm18  1  0.180816  0.490355  0.248764  1
  Tm  Tm19  1  0.680777  0.009737  0.248892  1
  Pt  Pt20  1  0.681292  0.961350  0.459918  1
  Pt  Pt21  1  0.185404  0.533125  0.041624  1
  Pt  Pt22  1  0.315001  0.033095  0.958300  1
  Pt  Pt23  1  0.815166  0.469721  0.543278  1
  Pt  Pt24  1  0.317041  0.030214  0.543488  1
  Pt  Pt25  1  0.816720  0.467126  0.958170  1
  Pt  Pt26  1  0.683588  0.967203  0.041728  1
  Pt  Pt27  1  0.181517  0.538761  0.460071  1
  Pt  Pt28  1  0.453393  0.386482  0.749867  1
  Pt  Pt29  1  0.953313  0.113646  0.750326  1
  Pt  Pt30  1  0.546433  0.615439  0.248863  1
  Pt  Pt31  1  0.046836  0.884246  0.249266  1
  Pt  Pt32  1  0.681317  0.855977  0.749969  1
  Pt  Pt33  1  0.181354  0.644115  0.750585  1
  Pt  Pt34  1  0.318392  0.142788  0.247463  1
  Pt  Pt35  1  0.817222  0.357791  0.247582  1
