# generated using pymatgen
data_NdSi3PRh6
_symmetry_space_group_name_H-M   'P 1'
_cell_length_a   7.07305983
_cell_length_b   7.02073476
_cell_length_c   3.80793500
_cell_angle_alpha   90.00000000
_cell_angle_beta   90.00000000
_cell_angle_gamma   119.75682345
_symmetry_Int_Tables_number   1
_chemical_formula_structural   NdSi3PRh6
_chemical_formula_sum   'Nd1 Si3 P1 Rh6'
_cell_volume   164.16064425
_cell_formula_units_Z   1
loop_
 _symmetry_equiv_pos_site_id
 _symmetry_equiv_pos_as_xyz
  1  'x, y, z'
loop_
 _atom_site_type_symbol
 _atom_site_label
 _atom_site_symmetry_multiplicity
 _atom_site_fract_x
 _atom_site_fract_y
 _atom_site_fract_z
 _atom_site_occupancy
  Nd  Nd0  1  0.998738  0.999396  0.500000  1
  Si  Si1  1  0.666487  0.333185  0.500000  1
  Si  Si2  1  0.198544  0.400667  0.000000  1
  Si  Si3  1  0.198793  0.798141  0.000000  1
  P  P4  1  0.607850  0.803672  0.000000  1
  Rh  Rh5  1  0.466558  0.932968  0.500000  1
  Rh  Rh6  1  0.467884  0.534995  0.500000  1
  Rh  Rh7  1  0.065617  0.532298  0.500000  1
  Rh  Rh8  1  0.799133  0.601692  0.000000  1
  Rh  Rh9  1  0.798359  0.196556  0.000000  1
  Rh  Rh10  1  0.398705  0.199761  0.000000  1
