# generated using pymatgen
data_NbSi4Mo3Ir4
_symmetry_space_group_name_H-M   'P 1'
_cell_length_a   3.85304500
_cell_length_b   6.32737239
_cell_length_c   7.19548887
_cell_angle_alpha   90.27614099
_cell_angle_beta   90.00000000
_cell_angle_gamma   90.00000000
_symmetry_Int_Tables_number   1
_chemical_formula_structural   NbSi4Mo3Ir4
_chemical_formula_sum   'Nb1 Si4 Mo3 Ir4'
_cell_volume   175.42146684
_cell_formula_units_Z   1
loop_
 _symmetry_equiv_pos_site_id
 _symmetry_equiv_pos_as_xyz
  1  'x, y, z'
loop_
 _atom_site_type_symbol
 _atom_site_label
 _atom_site_symmetry_multiplicity
 _atom_site_fract_x
 _atom_site_fract_y
 _atom_site_fract_z
 _atom_site_occupancy
  Nb  Nb0  1  0.250000  0.474954  0.169564  1
  Si  Si1  1  0.250000  0.230445  0.870121  1
  Si  Si2  1  0.250000  0.736777  0.623973  1
  Si  Si3  1  0.750000  0.771617  0.124476  1
  Si  Si4  1  0.750000  0.258076  0.380103  1
  Mo  Mo5  1  0.750000  0.527728  0.831645  1
  Mo  Mo6  1  0.250000  0.973065  0.334813  1
  Mo  Mo7  1  0.750000  0.026108  0.666880  1
  Ir  Ir8  1  0.250000  0.852420  0.937302  1
  Ir  Ir9  1  0.250000  0.354261  0.562125  1
  Ir  Ir10  1  0.750000  0.646012  0.437499  1
  Ir  Ir11  1  0.750000  0.148536  0.061499  1
