# generated using pymatgen
data_Zr5BeTlPb2
_symmetry_space_group_name_H-M   'P 1'
_cell_length_a   8.78036500
_cell_length_b   8.78214086
_cell_length_c   5.87420600
_cell_angle_alpha   90.00000000
_cell_angle_beta   90.00000000
_cell_angle_gamma   120.00669418
_symmetry_Int_Tables_number   1
_chemical_formula_structural   Zr5BeTlPb2
_chemical_formula_sum   'Zr10 Be2 Tl2 Pb4'
_cell_volume   392.25047080
_cell_formula_units_Z   2
loop_
 _symmetry_equiv_pos_site_id
 _symmetry_equiv_pos_as_xyz
  1  'x, y, z'
loop_
 _atom_site_type_symbol
 _atom_site_label
 _atom_site_symmetry_multiplicity
 _atom_site_fract_x
 _atom_site_fract_y
 _atom_site_fract_z
 _atom_site_occupancy
  Zr  Zr0  1  0.665562  0.332456  0.498279  1
  Zr  Zr1  1  0.334438  0.666895  0.498279  1
  Zr  Zr2  1  0.334438  0.666895  0.001721  1
  Zr  Zr3  1  0.665562  0.332456  0.001721  1
  Zr  Zr4  1  0.755258  0.756695  0.250000  1
  Zr  Zr5  1  0.244742  0.001438  0.250000  1
  Zr  Zr6  1  0.000000  0.244059  0.250000  1
  Zr  Zr7  1  0.243782  0.243049  0.750000  1
  Zr  Zr8  1  0.756218  0.999267  0.750000  1
  Zr  Zr9  1  0.000000  0.757076  0.750000  1
  Be  Be10  1  0.000000  0.000634  0.499190  1
  Be  Be11  1  0.000000  0.000634  0.000810  1
  Tl  Tl12  1  0.389030  0.388915  0.250000  1
  Tl  Tl13  1  0.610970  0.999885  0.250000  1
  Pb  Pb14  1  0.000000  0.611772  0.250000  1
  Pb  Pb15  1  0.610224  0.610126  0.750000  1
  Pb  Pb16  1  0.389776  0.999902  0.750000  1
  Pb  Pb17  1  0.000000  0.387846  0.750000  1
