# generated using pymatgen
data_Tm5Lu7TlCo5
_symmetry_space_group_name_H-M   'P 1'
_cell_length_a   8.10346538
_cell_length_b   8.10353976
_cell_length_c   8.10346500
_cell_angle_alpha   106.64248666
_cell_angle_beta   111.02383383
_cell_angle_gamma   110.78357810
_symmetry_Int_Tables_number   1
_chemical_formula_structural   Tm5Lu7TlCo5
_chemical_formula_sum   'Tm5 Lu7 Tl1 Co5'
_cell_volume   408.88829001
_cell_formula_units_Z   1
loop_
 _symmetry_equiv_pos_site_id
 _symmetry_equiv_pos_as_xyz
  1  'x, y, z'
loop_
 _atom_site_type_symbol
 _atom_site_label
 _atom_site_symmetry_multiplicity
 _atom_site_fract_x
 _atom_site_fract_y
 _atom_site_fract_z
 _atom_site_occupancy
  Tm  Tm0  1  0.472962  0.286660  0.185809  1
  Tm  Tm1  1  0.100851  0.286660  0.813699  1
  Tm  Tm2  1  0.898731  0.713159  0.185818  1
  Tm  Tm3  1  0.527341  0.713159  0.814428  1
  Tm  Tm4  1  0.304520  0.618375  0.313855  1
  Lu  Lu5  1  0.305198  0.991383  0.686184  1
  Lu  Lu6  1  0.694889  0.380868  0.685979  1
  Lu  Lu7  1  0.695078  0.009159  0.314082  1
  Lu  Lu8  1  0.193092  0.213215  0.406673  1
  Lu  Lu9  1  0.807314  0.786688  0.593639  1
  Lu  Lu10  1  0.193048  0.786688  0.979373  1
  Lu  Lu11  1  0.806542  0.213215  0.020124  1
  Tl  Tl12  1  0.999753  0.499968  0.500214  1
  Co  Co13  1  0.500236  0.613647  0.113410  1
  Co  Co14  1  0.499958  0.386188  0.886230  1
  Co  Co15  1  0.375743  0.000449  0.375750  1
  Co  Co16  1  0.624700  0.000449  0.624707  1
  Co  Co17  1  0.000045  0.000069  0.000024  1
