# generated using pymatgen
data_La4In(Ga2Cu)5
_symmetry_space_group_name_H-M   'P 1'
_cell_length_a   8.60236926
_cell_length_b   8.60236923
_cell_length_c   8.60236900
_cell_angle_alpha   137.87869307
_cell_angle_beta   105.63933331
_cell_angle_gamma   89.35211025
_symmetry_Int_Tables_number   1
_chemical_formula_structural   La4In(Ga2Cu)5
_chemical_formula_sum   'La4 In1 Ga10 Cu5'
_cell_volume   393.22112550
_cell_formula_units_Z   1
loop_
 _symmetry_equiv_pos_site_id
 _symmetry_equiv_pos_as_xyz
  1  'x, y, z'
loop_
 _atom_site_type_symbol
 _atom_site_label
 _atom_site_symmetry_multiplicity
 _atom_site_fract_x
 _atom_site_fract_y
 _atom_site_fract_z
 _atom_site_occupancy
  La  La0  1  0.633459  0.875686  0.763937  1
  La  La1  1  0.366541  0.130477  0.242227  1
  La  La2  1  0.111750  0.369523  0.736063  1
  La  La3  1  0.888250  0.624314  0.257773  1
  In  In4  1  0.500000  0.250000  0.750000  1
  Ga  Ga5  1  0.254062  0.004062  0.750000  1
  Ga  Ga6  1  0.741540  0.991540  0.250000  1
  Ga  Ga7  1  0.745938  0.495938  0.750000  1
  Ga  Ga8  1  0.258460  0.508460  0.250000  1
  Ga  Ga9  1  0.467613  0.639934  0.866604  1
  Ga  Ga10  1  0.532387  0.398992  0.172323  1
  Ga  Ga11  1  0.773330  0.101008  0.633396  1
  Ga  Ga12  1  0.226670  0.860066  0.327677  1
  Ga  Ga13  1  0.000000  0.750000  0.750000  1
  Ga  Ga14  1  0.000000  0.250000  0.250000  1
  Cu  Cu15  1  0.244442  0.628030  0.614605  1
  Cu  Cu16  1  0.755558  0.370162  0.383587  1
  Cu  Cu17  1  0.013425  0.129838  0.885395  1
  Cu  Cu18  1  0.986575  0.871970  0.116413  1
  Cu  Cu19  1  0.500000  0.750000  0.250000  1
