# generated using pymatgen
data_Pr8Cd2IrPt
_symmetry_space_group_name_H-M   'P 1'
_cell_length_a   10.07483851
_cell_length_b   10.07483805
_cell_length_c   10.06047100
_cell_angle_alpha   60.04716488
_cell_angle_beta   60.04716638
_cell_angle_gamma   60.16570058
_symmetry_Int_Tables_number   1
_chemical_formula_structural   Pr8Cd2IrPt
_chemical_formula_sum   'Pr16 Cd4 Ir2 Pt2'
_cell_volume   723.48646966
_cell_formula_units_Z   2
loop_
 _symmetry_equiv_pos_site_id
 _symmetry_equiv_pos_as_xyz
  1  'x, y, z'
loop_
 _atom_site_type_symbol
 _atom_site_label
 _atom_site_symmetry_multiplicity
 _atom_site_fract_x
 _atom_site_fract_y
 _atom_site_fract_z
 _atom_site_occupancy
  Pr  Pr0  1  0.350215  0.350215  0.345738  1
  Pr  Pr1  1  0.350215  0.350215  0.953832  1
  Pr  Pr2  1  0.354580  0.947644  0.348887  1
  Pr  Pr3  1  0.947644  0.354580  0.348887  1
  Pr  Pr4  1  0.806068  0.189775  0.191337  1
  Pr  Pr5  1  0.189775  0.806068  0.812820  1
  Pr  Pr6  1  0.189775  0.806068  0.191337  1
  Pr  Pr7  1  0.806068  0.189775  0.812820  1
  Pr  Pr8  1  0.190978  0.190978  0.809022  1
  Pr  Pr9  1  0.810035  0.810035  0.189965  1
  Pr  Pr10  1  0.939568  0.562830  0.561241  1
  Pr  Pr11  1  0.562830  0.939568  0.936361  1
  Pr  Pr12  1  0.562830  0.939568  0.561241  1
  Pr  Pr13  1  0.939568  0.562830  0.936361  1
  Pr  Pr14  1  0.562628  0.562628  0.937372  1
  Pr  Pr15  1  0.938829  0.938829  0.561171  1
  Cd  Cd16  1  0.580355  0.580355  0.580340  1
  Cd  Cd17  1  0.580355  0.580355  0.258949  1
  Cd  Cd18  1  0.579869  0.259144  0.580493  1
  Cd  Cd19  1  0.259144  0.579869  0.580493  1
  Ir  Ir20  1  0.141681  0.572509  0.142905  1
  Ir  Ir21  1  0.572509  0.141681  0.142905  1
  Pt  Pt22  1  0.142240  0.142240  0.144778  1
  Pt  Pt23  1  0.142240  0.142240  0.570742  1
