# generated using pymatgen
data_Y4AgRh
_symmetry_space_group_name_H-M   'P 1'
_cell_length_a   9.59070908
_cell_length_b   9.58721072
_cell_length_c   9.58920554
_cell_angle_alpha   60.01513222
_cell_angle_beta   59.98263570
_cell_angle_gamma   60.00184889
_symmetry_Int_Tables_number   1
_chemical_formula_structural   Y4AgRh
_chemical_formula_sum   'Y16 Ag4 Rh4'
_cell_volume   623.46100030
_cell_formula_units_Z   4
loop_
 _symmetry_equiv_pos_site_id
 _symmetry_equiv_pos_as_xyz
  1  'x, y, z'
loop_
 _atom_site_type_symbol
 _atom_site_label
 _atom_site_symmetry_multiplicity
 _atom_site_fract_x
 _atom_site_fract_y
 _atom_site_fract_z
 _atom_site_occupancy
  Y  Y0  1  0.603421  0.603491  0.603459  1
  Y  Y1  1  0.603465  0.603405  0.189672  1
  Y  Y2  1  0.603456  0.189653  0.603409  1
  Y  Y3  1  0.189623  0.603467  0.603478  1
  Y  Y4  1  0.062535  0.437464  0.437463  1
  Y  Y5  1  0.437466  0.062529  0.062529  1
  Y  Y6  1  0.436930  0.063065  0.436927  1
  Y  Y7  1  0.063064  0.436927  0.063083  1
  Y  Y8  1  0.437184  0.437186  0.062812  1
  Y  Y9  1  0.062796  0.062817  0.437193  1
  Y  Y10  1  0.185776  0.814218  0.814228  1
  Y  Y11  1  0.814219  0.185790  0.185764  1
  Y  Y12  1  0.814538  0.185466  0.814549  1
  Y  Y13  1  0.185437  0.814561  0.185457  1
  Y  Y14  1  0.814363  0.814363  0.185638  1
  Y  Y15  1  0.185645  0.185646  0.814363  1
  Ag  Ag16  1  0.832024  0.832045  0.832060  1
  Ag  Ag17  1  0.832051  0.832002  0.503877  1
  Ag  Ag18  1  0.832038  0.503910  0.832003  1
  Ag  Ag19  1  0.503873  0.832044  0.832063  1
  Rh  Rh20  1  0.393956  0.393551  0.393854  1
  Rh  Rh21  1  0.393544  0.393966  0.818622  1
  Rh  Rh22  1  0.393834  0.818619  0.393967  1
  Rh  Rh23  1  0.818764  0.393815  0.393533  1
