# generated using pymatgen
data_Er8Sc11Si16W
_symmetry_space_group_name_H-M   'P 1'
_cell_length_a   7.04157697
_cell_length_b   7.29133000
_cell_length_c   13.83036977
_cell_angle_alpha   90.16913109
_cell_angle_beta   89.62899893
_cell_angle_gamma   89.68849059
_symmetry_Int_Tables_number   1
_chemical_formula_structural   Er8Sc11Si16W
_chemical_formula_sum   'Er8 Sc11 Si16 W1'
_cell_volume   710.05667768
_cell_formula_units_Z   1
loop_
 _symmetry_equiv_pos_site_id
 _symmetry_equiv_pos_as_xyz
  1  'x, y, z'
loop_
 _atom_site_type_symbol
 _atom_site_label
 _atom_site_symmetry_multiplicity
 _atom_site_fract_x
 _atom_site_fract_y
 _atom_site_fract_z
 _atom_site_occupancy
  Er  Er0  1  0.011826  0.174995  0.096958  1
  Er  Er1  1  0.989186  0.825563  0.899289  1
  Er  Er2  1  0.487352  0.678122  0.899930  1
  Er  Er3  1  0.992949  0.829279  0.595697  1
  Er  Er4  1  0.512996  0.323272  0.096460  1
  Er  Er5  1  0.010128  0.175376  0.403851  1
  Er  Er6  1  0.507318  0.323202  0.409629  1
  Er  Er7  1  0.487651  0.676059  0.595844  1
  Sc  Sc8  1  0.162764  0.496460  0.745466  1
  Sc  Sc9  1  0.838340  0.497238  0.251606  1
  Sc  Sc10  1  0.337633  0.003356  0.252152  1
  Sc  Sc11  1  0.658301  0.001134  0.747438  1
  Sc  Sc12  1  0.666301  0.825530  0.378997  1
  Sc  Sc13  1  0.168225  0.678187  0.378058  1
  Sc  Sc14  1  0.669667  0.824353  0.124460  1
  Sc  Sc15  1  0.832074  0.323205  0.623621  1
  Sc  Sc16  1  0.332589  0.176414  0.874823  1
  Sc  Sc17  1  0.829738  0.322726  0.872232  1
  Sc  Sc18  1  0.170451  0.677003  0.125591  1
  Si  Si19  1  0.041868  0.120154  0.745055  1
  Si  Si20  1  0.964579  0.886763  0.251223  1
  Si  Si21  1  0.467602  0.615919  0.250727  1
  Si  Si22  1  0.530266  0.375920  0.745954  1
  Si  Si23  1  0.286791  0.878581  0.745792  1
  Si  Si24  1  0.711840  0.128213  0.250788  1
  Si  Si25  1  0.215784  0.371961  0.250534  1
  Si  Si26  1  0.783920  0.625757  0.746852  1
  Si  Si27  1  0.176501  0.451214  0.540518  1
  Si  Si28  1  0.842045  0.531573  0.460669  1
  Si  Si29  1  0.332272  0.969723  0.471091  1
  Si  Si30  1  0.844510  0.534529  0.039110  1
  Si  Si31  1  0.646969  0.034832  0.545043  1
  Si  Si32  1  0.155259  0.466639  0.959120  1
  Si  Si33  1  0.661343  0.035351  0.958865  1
  Si  Si34  1  0.340529  0.963780  0.038456  1
  W  W35  1  0.332434  0.177618  0.628101  1
