# generated using pymatgen
data_Na5TmCl8
_symmetry_space_group_name_H-M   'P 1'
_cell_length_a   6.93561500
_cell_length_b   6.93561343
_cell_length_c   8.05507900
_cell_angle_alpha   90.00000000
_cell_angle_beta   90.00000000
_cell_angle_gamma   106.79957015
_symmetry_Int_Tables_number   1
_chemical_formula_structural   Na5TmCl8
_chemical_formula_sum   'Na5 Tm1 Cl8'
_cell_volume   370.93477304
_cell_formula_units_Z   1
loop_
 _symmetry_equiv_pos_site_id
 _symmetry_equiv_pos_as_xyz
  1  'x, y, z'
loop_
 _atom_site_type_symbol
 _atom_site_label
 _atom_site_symmetry_multiplicity
 _atom_site_fract_x
 _atom_site_fract_y
 _atom_site_fract_z
 _atom_site_occupancy
  Na  Na0  1  0.500000  0.000000  0.233360  1
  Na  Na1  1  0.000000  0.500000  0.766640  1
  Na  Na2  1  0.500000  0.000000  0.766640  1
  Na  Na3  1  0.000000  0.500000  0.233360  1
  Na  Na4  1  0.500000  0.500000  0.000000  1
  Tm  Tm5  1  0.500000  0.500000  0.500000  1
  Cl  Cl6  1  0.253709  0.746291  0.000000  1
  Cl  Cl7  1  0.746291  0.253709  0.000000  1
  Cl  Cl8  1  0.277727  0.277727  0.270465  1
  Cl  Cl9  1  0.722273  0.722273  0.270465  1
  Cl  Cl10  1  0.264480  0.735520  0.500000  1
  Cl  Cl11  1  0.277727  0.277727  0.729535  1
  Cl  Cl12  1  0.722273  0.722273  0.729535  1
  Cl  Cl13  1  0.735520  0.264480  0.500000  1
