# generated using pymatgen
data_Dy3Ho9Tc4
_symmetry_space_group_name_H-M   'P 1'
_cell_length_a   6.25932212
_cell_length_b   7.37989507
_cell_length_c   9.12858400
_cell_angle_alpha   90.00000000
_cell_angle_beta   90.00000000
_cell_angle_gamma   89.98084466
_symmetry_Int_Tables_number   1
_chemical_formula_structural   Dy3Ho9Tc4
_chemical_formula_sum   'Dy3 Ho9 Tc4'
_cell_volume   421.67793939
_cell_formula_units_Z   1
loop_
 _symmetry_equiv_pos_site_id
 _symmetry_equiv_pos_as_xyz
  1  'x, y, z'
loop_
 _atom_site_type_symbol
 _atom_site_label
 _atom_site_symmetry_multiplicity
 _atom_site_fract_x
 _atom_site_fract_y
 _atom_site_fract_z
 _atom_site_occupancy
  Dy  Dy0  1  0.872054  0.541573  0.250000  1
  Dy  Dy1  1  0.628379  0.042275  0.250000  1
  Dy  Dy2  1  0.127866  0.458014  0.750000  1
  Ho  Ho3  1  0.340496  0.676246  0.061905  1
  Ho  Ho4  1  0.159523  0.175645  0.438188  1
  Ho  Ho5  1  0.659150  0.324061  0.562409  1
  Ho  Ho6  1  0.840442  0.824132  0.937551  1
  Ho  Ho7  1  0.659150  0.324061  0.937591  1
  Ho  Ho8  1  0.840442  0.824132  0.562449  1
  Ho  Ho9  1  0.340496  0.676246  0.438095  1
  Ho  Ho10  1  0.159523  0.175645  0.061812  1
  Ho  Ho11  1  0.372153  0.958108  0.750000  1
  Tc  Tc12  1  0.040632  0.886052  0.250000  1
  Tc  Tc13  1  0.459217  0.386206  0.250000  1
  Tc  Tc14  1  0.958984  0.113692  0.750000  1
  Tc  Tc15  1  0.541492  0.613911  0.750000  1
