# generated using pymatgen
data_HoEr4Pd9
_symmetry_space_group_name_H-M   'P 1'
_cell_length_a   9.72896200
_cell_length_b   9.72264290
_cell_length_c   5.75492400
_cell_angle_alpha   90.00000000
_cell_angle_beta   90.00000000
_cell_angle_gamma   90.02465053
_symmetry_Int_Tables_number   1
_chemical_formula_structural   HoEr4Pd9
_chemical_formula_sum   'Ho2 Er8 Pd18'
_cell_volume   544.36525085
_cell_formula_units_Z   2
loop_
 _symmetry_equiv_pos_site_id
 _symmetry_equiv_pos_as_xyz
  1  'x, y, z'
loop_
 _atom_site_type_symbol
 _atom_site_label
 _atom_site_symmetry_multiplicity
 _atom_site_fract_x
 _atom_site_fract_y
 _atom_site_fract_z
 _atom_site_occupancy
  Ho  Ho0  1  0.453099  0.808132  0.000000  1
  Ho  Ho1  1  0.546901  0.191868  0.000000  1
  Er  Er2  1  0.191653  0.546863  0.000000  1
  Er  Er3  1  0.808347  0.453137  0.000000  1
  Er  Er4  1  0.500000  0.500000  0.500000  1
  Er  Er5  1  0.308058  0.046982  0.500000  1
  Er  Er6  1  0.691942  0.953018  0.500000  1
  Er  Er7  1  0.953078  0.691800  0.500000  1
  Er  Er8  1  0.046922  0.308200  0.500000  1
  Er  Er9  1  0.000000  0.000000  0.000000  1
  Pd  Pd10  1  0.190873  0.808637  0.250728  1
  Pd  Pd11  1  0.809127  0.191363  0.749272  1
  Pd  Pd12  1  0.809127  0.191363  0.250728  1
  Pd  Pd13  1  0.190873  0.808637  0.749272  1
  Pd  Pd14  1  0.441105  0.781755  0.500000  1
  Pd  Pd15  1  0.558895  0.218245  0.500000  1
  Pd  Pd16  1  0.218385  0.558899  0.500000  1
  Pd  Pd17  1  0.781615  0.441101  0.500000  1
  Pd  Pd18  1  0.308281  0.308825  0.249887  1
  Pd  Pd19  1  0.691719  0.691175  0.750113  1
  Pd  Pd20  1  0.691719  0.691175  0.249887  1
  Pd  Pd21  1  0.308281  0.308825  0.750113  1
  Pd  Pd22  1  0.280876  0.059182  0.000000  1
  Pd  Pd23  1  0.719124  0.940818  0.000000  1
  Pd  Pd24  1  0.941229  0.718192  0.000000  1
  Pd  Pd25  1  0.058771  0.281808  0.000000  1
  Pd  Pd26  1  0.000000  0.000000  0.500000  1
  Pd  Pd27  1  0.500000  0.500000  0.000000  1
