# generated using pymatgen
data_Sm3Ho5(HgPt)2
_symmetry_space_group_name_H-M   'P 1'
_cell_length_a   9.68968220
_cell_length_b   9.68968256
_cell_length_c   9.68968100
_cell_angle_alpha   60.00000191
_cell_angle_beta   60.00000069
_cell_angle_gamma   60.00000365
_symmetry_Int_Tables_number   1
_chemical_formula_structural   Sm3Ho5(HgPt)2
_chemical_formula_sum   'Sm6 Ho10 Hg4 Pt4'
_cell_volume   643.30005029
_cell_formula_units_Z   2
loop_
 _symmetry_equiv_pos_site_id
 _symmetry_equiv_pos_as_xyz
  1  'x, y, z'
loop_
 _atom_site_type_symbol
 _atom_site_label
 _atom_site_symmetry_multiplicity
 _atom_site_fract_x
 _atom_site_fract_y
 _atom_site_fract_z
 _atom_site_occupancy
  Sm  Sm0  1  0.938009  0.561991  0.561991  1
  Sm  Sm1  1  0.561991  0.938009  0.938009  1
  Sm  Sm2  1  0.561991  0.938009  0.561991  1
  Sm  Sm3  1  0.938009  0.561991  0.938009  1
  Sm  Sm4  1  0.561991  0.561991  0.938009  1
  Sm  Sm5  1  0.938009  0.938009  0.561991  1
  Ho  Ho6  1  0.352789  0.352789  0.352789  1
  Ho  Ho7  1  0.352789  0.352789  0.941633  1
  Ho  Ho8  1  0.352789  0.941633  0.352789  1
  Ho  Ho9  1  0.941633  0.352789  0.352789  1
  Ho  Ho10  1  0.811251  0.188749  0.188749  1
  Ho  Ho11  1  0.188749  0.811251  0.811251  1
  Ho  Ho12  1  0.188749  0.811251  0.188749  1
  Ho  Ho13  1  0.811251  0.188749  0.811251  1
  Ho  Ho14  1  0.188749  0.188749  0.811251  1
  Ho  Ho15  1  0.811251  0.811251  0.188749  1
  Hg  Hg16  1  0.583835  0.583835  0.583835  1
  Hg  Hg17  1  0.583835  0.583835  0.248496  1
  Hg  Hg18  1  0.583835  0.248496  0.583835  1
  Hg  Hg19  1  0.248496  0.583835  0.583835  1
  Pt  Pt20  1  0.143192  0.143192  0.143192  1
  Pt  Pt21  1  0.143192  0.143192  0.570425  1
  Pt  Pt22  1  0.143192  0.570425  0.143192  1
  Pt  Pt23  1  0.570425  0.143192  0.143192  1
