# generated using pymatgen
data_Tm20Cd6NiRh
_symmetry_space_group_name_H-M   'P 1'
_cell_length_a   9.50789300
_cell_length_b   9.50789422
_cell_length_c   9.67185500
_cell_angle_alpha   90.00000000
_cell_angle_beta   90.00000000
_cell_angle_gamma   119.99999922
_symmetry_Int_Tables_number   1
_chemical_formula_structural   Tm20Cd6NiRh
_chemical_formula_sum   'Tm20 Cd6 Ni1 Rh1'
_cell_volume   757.19726962
_cell_formula_units_Z   1
loop_
 _symmetry_equiv_pos_site_id
 _symmetry_equiv_pos_as_xyz
  1  'x, y, z'
loop_
 _atom_site_type_symbol
 _atom_site_label
 _atom_site_symmetry_multiplicity
 _atom_site_fract_x
 _atom_site_fract_y
 _atom_site_fract_z
 _atom_site_occupancy
  Tm  Tm0  1  0.000000  0.000000  0.499745  1
  Tm  Tm1  1  0.000000  0.000000  0.000255  1
  Tm  Tm2  1  0.543065  0.456935  0.250000  1
  Tm  Tm3  1  0.543065  0.086129  0.250000  1
  Tm  Tm4  1  0.913871  0.456935  0.250000  1
  Tm  Tm5  1  0.456974  0.543026  0.750000  1
  Tm  Tm6  1  0.456974  0.913947  0.750000  1
  Tm  Tm7  1  0.086053  0.543026  0.750000  1
  Tm  Tm8  1  0.209457  0.790543  0.440369  1
  Tm  Tm9  1  0.209457  0.418914  0.440369  1
  Tm  Tm10  1  0.581086  0.790543  0.440369  1
  Tm  Tm11  1  0.788932  0.211068  0.562111  1
  Tm  Tm12  1  0.788932  0.577864  0.562111  1
  Tm  Tm13  1  0.422136  0.211068  0.562111  1
  Tm  Tm14  1  0.788932  0.211068  0.937889  1
  Tm  Tm15  1  0.788932  0.577864  0.937889  1
  Tm  Tm16  1  0.422136  0.211068  0.937889  1
  Tm  Tm17  1  0.209457  0.790543  0.059631  1
  Tm  Tm18  1  0.209457  0.418914  0.059631  1
  Tm  Tm19  1  0.581086  0.790543  0.059631  1
  Cd  Cd20  1  0.885389  0.114611  0.250000  1
  Cd  Cd21  1  0.885389  0.770779  0.250000  1
  Cd  Cd22  1  0.229221  0.114611  0.250000  1
  Cd  Cd23  1  0.114816  0.885184  0.750000  1
  Cd  Cd24  1  0.114816  0.229632  0.750000  1
  Cd  Cd25  1  0.770368  0.885184  0.750000  1
  Ni  Ni26  1  0.666667  0.333333  0.750000  1
  Rh  Rh27  1  0.333333  0.666667  0.250000  1
