# generated using pymatgen
data_Ho6VFe3(Co7P6)2
_symmetry_space_group_name_H-M   'P 1'
_cell_length_a   3.70601300
_cell_length_b   10.58149500
_cell_length_c   12.14515400
_cell_angle_alpha   90.00000000
_cell_angle_beta   90.00000000
_cell_angle_gamma   90.00000000
_symmetry_Int_Tables_number   1
_chemical_formula_structural   Ho6VFe3(Co7P6)2
_chemical_formula_sum   'Ho6 V1 Fe3 Co14 P12'
_cell_volume   476.27413340
_cell_formula_units_Z   1
loop_
 _symmetry_equiv_pos_site_id
 _symmetry_equiv_pos_as_xyz
  1  'x, y, z'
loop_
 _atom_site_type_symbol
 _atom_site_label
 _atom_site_symmetry_multiplicity
 _atom_site_fract_x
 _atom_site_fract_y
 _atom_site_fract_z
 _atom_site_occupancy
  Ho  Ho0  1  0.000000  0.500000  0.523663  1
  Ho  Ho1  1  0.500000  0.000000  0.477644  1
  Ho  Ho2  1  0.500000  0.819528  0.204463  1
  Ho  Ho3  1  0.500000  0.180472  0.204463  1
  Ho  Ho4  1  0.000000  0.680508  0.796784  1
  Ho  Ho5  1  0.000000  0.319492  0.796784  1
  V  V6  1  0.500000  0.500000  0.152805  1
  Fe  Fe7  1  0.000000  0.500000  0.986866  1
  Fe  Fe8  1  0.500000  0.000000  0.010787  1
  Fe  Fe9  1  0.000000  0.000000  0.844258  1
  Co  Co10  1  0.500000  0.296137  0.431196  1
  Co  Co11  1  0.500000  0.703863  0.431196  1
  Co  Co12  1  0.000000  0.203206  0.569544  1
  Co  Co13  1  0.000000  0.796794  0.569544  1
  Co  Co14  1  0.500000  0.879186  0.708755  1
  Co  Co15  1  0.500000  0.120814  0.708755  1
  Co  Co16  1  0.000000  0.621451  0.291891  1
  Co  Co17  1  0.000000  0.378549  0.291891  1
  Co  Co18  1  0.500000  0.330252  0.993425  1
  Co  Co19  1  0.500000  0.669748  0.993425  1
  Co  Co20  1  0.000000  0.167285  0.005682  1
  Co  Co21  1  0.000000  0.832715  0.005682  1
  Co  Co22  1  0.500000  0.500000  0.700243  1
  Co  Co23  1  0.000000  0.000000  0.298386  1
  P  P24  1  0.500000  0.309807  0.617138  1
  P  P25  1  0.500000  0.690193  0.617138  1
  P  P26  1  0.000000  0.189325  0.384035  1
  P  P27  1  0.000000  0.810675  0.384035  1
  P  P28  1  0.500000  0.500000  0.883865  1
  P  P29  1  0.000000  0.000000  0.115634  1
  P  P30  1  0.500000  0.848060  0.892111  1
  P  P31  1  0.500000  0.151940  0.892111  1
  P  P32  1  0.000000  0.654105  0.105509  1
  P  P33  1  0.000000  0.345895  0.105509  1
  P  P34  1  0.500000  0.500000  0.346897  1
  P  P35  1  0.000000  0.000000  0.657889  1
