# generated using pymatgen
data_Tm2Lu2ThRh3
_symmetry_space_group_name_H-M   'P 1'
_cell_length_a   8.27804400
_cell_length_b   8.17923032
_cell_length_c   6.19763500
_cell_angle_alpha   90.00000000
_cell_angle_beta   90.00000000
_cell_angle_gamma   119.60590321
_symmetry_Int_Tables_number   1
_chemical_formula_structural   Tm2Lu2ThRh3
_chemical_formula_sum   'Tm4 Lu4 Th2 Rh6'
_cell_volume   364.84449290
_cell_formula_units_Z   2
loop_
 _symmetry_equiv_pos_site_id
 _symmetry_equiv_pos_as_xyz
  1  'x, y, z'
loop_
 _atom_site_type_symbol
 _atom_site_label
 _atom_site_symmetry_multiplicity
 _atom_site_fract_x
 _atom_site_fract_y
 _atom_site_fract_z
 _atom_site_occupancy
  Tm  Tm0  1  0.000000  0.253830  0.250000  1
  Tm  Tm1  1  0.246939  0.249108  0.750000  1
  Tm  Tm2  1  0.753061  0.002169  0.750000  1
  Tm  Tm3  1  0.000000  0.752037  0.750000  1
  Lu  Lu4  1  0.670102  0.331008  0.501659  1
  Lu  Lu5  1  0.329898  0.660906  0.501659  1
  Lu  Lu6  1  0.329898  0.660906  0.998341  1
  Lu  Lu7  1  0.670102  0.331008  0.998341  1
  Th  Th8  1  0.747976  0.753483  0.250000  1
  Th  Th9  1  0.252024  0.005506  0.250000  1
  Rh  Rh10  1  0.398790  0.388312  0.250000  1
  Rh  Rh11  1  0.601210  0.989521  0.250000  1
  Rh  Rh12  1  0.000000  0.619002  0.250000  1
  Rh  Rh13  1  0.600925  0.599926  0.750000  1
  Rh  Rh14  1  0.399075  0.999001  0.750000  1
  Rh  Rh15  1  0.000000  0.404279  0.750000  1
