# generated using pymatgen
data_Tm4As6Ru5Rh2
_symmetry_space_group_name_H-M   'P 1'
_cell_length_a   7.19914944
_cell_length_b   7.19914824
_cell_length_c   7.19544376
_cell_angle_alpha   109.33371602
_cell_angle_beta   109.33371257
_cell_angle_gamma   109.76733100
_symmetry_Int_Tables_number   1
_chemical_formula_structural   Tm4As6Ru5Rh2
_chemical_formula_sum   'Tm4 As6 Ru5 Rh2'
_cell_volume   286.99784912
_cell_formula_units_Z   1
loop_
 _symmetry_equiv_pos_site_id
 _symmetry_equiv_pos_as_xyz
  1  'x, y, z'
loop_
 _atom_site_type_symbol
 _atom_site_label
 _atom_site_symmetry_multiplicity
 _atom_site_fract_x
 _atom_site_fract_y
 _atom_site_fract_z
 _atom_site_occupancy
  Tm  Tm0  1  0.001093  0.001093  0.500915  1
  Tm  Tm1  1  0.499419  0.999419  0.998838  1
  Tm  Tm2  1  0.999419  0.499419  0.998838  1
  Tm  Tm3  1  0.499822  0.499822  0.500915  1
  As  As4  1  0.316769  0.003139  0.319908  1
  As  As5  1  0.003139  0.316769  0.319908  1
  As  As6  1  0.002239  0.683071  0.685310  1
  As  As7  1  0.313856  0.313856  0.996409  1
  As  As8  1  0.682554  0.682554  0.996409  1
  As  As9  1  0.683071  0.002239  0.685310  1
  Ru  Ru10  1  0.498658  0.250689  0.749347  1
  Ru  Ru11  1  0.750170  0.250170  0.500340  1
  Ru  Ru12  1  0.250170  0.750170  0.500340  1
  Ru  Ru13  1  0.250689  0.498658  0.749347  1
  Ru  Ru14  1  0.000600  0.000600  0.001201  1
  Rh  Rh15  1  0.749774  0.498559  0.248333  1
  Rh  Rh16  1  0.498559  0.749774  0.248333  1
