# generated using pymatgen
data_Pr2Te2MoO10
_symmetry_space_group_name_H-M   'P 1'
_cell_length_a   7.07404232
_cell_length_b   7.07404344
_cell_length_c   12.14020230
_cell_angle_alpha   91.03523790
_cell_angle_beta   91.03523839
_cell_angle_gamma   47.05479781
_symmetry_Int_Tables_number   1
_chemical_formula_structural   Pr2Te2MoO10
_chemical_formula_sum   'Pr4 Te4 Mo2 O20'
_cell_volume   444.62244864
_cell_formula_units_Z   2
loop_
 _symmetry_equiv_pos_site_id
 _symmetry_equiv_pos_as_xyz
  1  'x, y, z'
loop_
 _atom_site_type_symbol
 _atom_site_label
 _atom_site_symmetry_multiplicity
 _atom_site_fract_x
 _atom_site_fract_y
 _atom_site_fract_z
 _atom_site_occupancy
  Pr  Pr0  1  0.358077  0.834375  0.444508  1
  Pr  Pr1  1  0.834375  0.358077  0.944508  1
  Pr  Pr2  1  0.165625  0.641923  0.055492  1
  Pr  Pr3  1  0.641923  0.165625  0.555492  1
  Te  Te4  1  0.051767  0.557848  0.356980  1
  Te  Te5  1  0.948233  0.442152  0.643020  1
  Te  Te6  1  0.557848  0.051767  0.856980  1
  Te  Te7  1  0.442152  0.948233  0.143020  1
  Mo  Mo8  1  0.206792  0.793208  0.750000  1
  Mo  Mo9  1  0.793208  0.206792  0.250000  1
  O  O10  1  0.463478  0.701239  0.060380  1
  O  O11  1  0.701239  0.463478  0.560380  1
  O  O12  1  0.916824  0.103584  0.106547  1
  O  O13  1  0.963598  0.778592  0.237164  1
  O  O14  1  0.751514  0.802357  0.448750  1
  O  O15  1  0.036402  0.221408  0.762836  1
  O  O16  1  0.083176  0.896416  0.893453  1
  O  O17  1  0.103584  0.916824  0.606547  1
  O  O18  1  0.248486  0.197643  0.551250  1
  O  O19  1  0.778592  0.963598  0.737164  1
  O  O20  1  0.307853  0.483048  0.722473  1
  O  O21  1  0.692147  0.516952  0.277527  1
  O  O22  1  0.536522  0.298761  0.939620  1
  O  O23  1  0.802357  0.751514  0.948750  1
  O  O24  1  0.221408  0.036402  0.262836  1
  O  O25  1  0.516952  0.692147  0.777527  1
  O  O26  1  0.197643  0.248486  0.051250  1
  O  O27  1  0.896416  0.083176  0.393453  1
  O  O28  1  0.298761  0.536522  0.439620  1
  O  O29  1  0.483048  0.307853  0.222473  1
