# generated using pymatgen
data_CaY(NbS2)8
_symmetry_space_group_name_H-M   'P 1'
_cell_length_a   6.74500800
_cell_length_b   6.74500826
_cell_length_c   13.81760700
_cell_angle_alpha   90.00000000
_cell_angle_beta   90.00000000
_cell_angle_gamma   120.00000853
_symmetry_Int_Tables_number   1
_chemical_formula_structural   CaY(NbS2)8
_chemical_formula_sum   'Ca1 Y1 Nb8 S16'
_cell_volume   544.41287280
_cell_formula_units_Z   1
loop_
 _symmetry_equiv_pos_site_id
 _symmetry_equiv_pos_as_xyz
  1  'x, y, z'
loop_
 _atom_site_type_symbol
 _atom_site_label
 _atom_site_symmetry_multiplicity
 _atom_site_fract_x
 _atom_site_fract_y
 _atom_site_fract_z
 _atom_site_occupancy
  Ca  Ca0  1  0.000000  0.000000  0.000000  1
  Y  Y1  1  0.000000  0.000000  0.500000  1
  Nb  Nb2  1  0.504323  0.495677  0.748841  1
  Nb  Nb3  1  0.008645  0.504323  0.251159  1
  Nb  Nb4  1  0.495677  0.991355  0.251159  1
  Nb  Nb5  1  0.504323  0.008645  0.748841  1
  Nb  Nb6  1  0.991355  0.495677  0.748841  1
  Nb  Nb7  1  0.495677  0.504323  0.251159  1
  Nb  Nb8  1  0.000000  0.000000  0.748881  1
  Nb  Nb9  1  0.000000  0.000000  0.251119  1
  S  S10  1  0.831658  0.168342  0.364125  1
  S  S11  1  0.831658  0.663315  0.364125  1
  S  S12  1  0.336685  0.168342  0.364125  1
  S  S13  1  0.662316  0.831157  0.860655  1
  S  S14  1  0.168342  0.336685  0.635875  1
  S  S15  1  0.168843  0.831157  0.860655  1
  S  S16  1  0.168843  0.337684  0.860655  1
  S  S17  1  0.831157  0.168843  0.139345  1
  S  S18  1  0.337684  0.168843  0.139345  1
  S  S19  1  0.663315  0.831658  0.635875  1
  S  S20  1  0.333333  0.666667  0.136346  1
  S  S21  1  0.666667  0.333333  0.634501  1
  S  S22  1  0.666667  0.333333  0.863654  1
  S  S23  1  0.333333  0.666667  0.365499  1
  S  S24  1  0.831157  0.662316  0.139345  1
  S  S25  1  0.168342  0.831658  0.635875  1
