# generated using pymatgen
data_Dy4Tc3B8Ru
_symmetry_space_group_name_H-M   'P 1'
_cell_length_a   5.94417275
_cell_length_b   5.29333700
_cell_length_c   6.42952992
_cell_angle_alpha   90.00000000
_cell_angle_beta   90.10970446
_cell_angle_gamma   90.00000000
_symmetry_Int_Tables_number   1
_chemical_formula_structural   Dy4Tc3B8Ru
_chemical_formula_sum   'Dy4 Tc3 B8 Ru1'
_cell_volume   202.30163470
_cell_formula_units_Z   1
loop_
 _symmetry_equiv_pos_site_id
 _symmetry_equiv_pos_as_xyz
  1  'x, y, z'
loop_
 _atom_site_type_symbol
 _atom_site_label
 _atom_site_symmetry_multiplicity
 _atom_site_fract_x
 _atom_site_fract_y
 _atom_site_fract_z
 _atom_site_occupancy
  Dy  Dy0  1  0.013499  0.250000  0.339743  1
  Dy  Dy1  1  0.512408  0.250000  0.161264  1
  Dy  Dy2  1  0.987282  0.750000  0.660805  1
  Dy  Dy3  1  0.486037  0.750000  0.838123  1
  Tc  Tc4  1  0.181988  0.250000  0.815023  1
  Tc  Tc5  1  0.680107  0.250000  0.684494  1
  Tc  Tc6  1  0.819796  0.750000  0.185365  1
  B  B7  1  0.371041  0.079806  0.537818  1
  B  B8  1  0.871125  0.421439  0.962934  1
  B  B9  1  0.629798  0.580645  0.463089  1
  B  B10  1  0.129315  0.919583  0.036239  1
  B  B11  1  0.629798  0.919355  0.463089  1
  B  B12  1  0.129315  0.580417  0.036239  1
  B  B13  1  0.371041  0.420194  0.537818  1
  B  B14  1  0.871125  0.078561  0.962934  1
  Ru  Ru15  1  0.316326  0.750000  0.315025  1
