# generated using pymatgen
data_PrSm(Ga3Pd)2
_symmetry_space_group_name_H-M   'P 1'
_cell_length_a   6.08844591
_cell_length_b   6.08844515
_cell_length_c   5.89697100
_cell_angle_alpha   90.00000000
_cell_angle_beta   90.00000000
_cell_angle_gamma   116.23259721
_symmetry_Int_Tables_number   1
_chemical_formula_structural   PrSm(Ga3Pd)2
_chemical_formula_sum   'Pr1 Sm1 Ga6 Pd2'
_cell_volume   196.08198427
_cell_formula_units_Z   1
loop_
 _symmetry_equiv_pos_site_id
 _symmetry_equiv_pos_as_xyz
  1  'x, y, z'
loop_
 _atom_site_type_symbol
 _atom_site_label
 _atom_site_symmetry_multiplicity
 _atom_site_fract_x
 _atom_site_fract_y
 _atom_site_fract_z
 _atom_site_occupancy
  Pr  Pr0  1  0.234322  0.765678  0.750000  1
  Sm  Sm1  1  0.767255  0.232745  0.250000  1
  Ga  Ga2  1  0.666607  0.333393  0.750000  1
  Ga  Ga3  1  0.333242  0.666758  0.250000  1
  Ga  Ga4  1  0.715112  0.715263  0.000274  1
  Ga  Ga5  1  0.715112  0.715263  0.499726  1
  Ga  Ga6  1  0.284737  0.284888  0.000274  1
  Ga  Ga7  1  0.284737  0.284888  0.499726  1
  Pd  Pd8  1  0.905529  0.094471  0.750000  1
  Pd  Pd9  1  0.093344  0.906656  0.250000  1
