# generated using pymatgen
data_Pu2AlZn2Ge
_symmetry_space_group_name_H-M   'P 1'
_cell_length_a   5.35127684
_cell_length_b   5.62557473
_cell_length_c   5.35127681
_cell_angle_alpha   61.67019750
_cell_angle_beta   59.20770602
_cell_angle_gamma   61.67019346
_symmetry_Int_Tables_number   1
_chemical_formula_structural   Pu2AlZn2Ge
_chemical_formula_sum   'Pu2 Al1 Zn2 Ge1'
_cell_volume   115.95567268
_cell_formula_units_Z   1
loop_
 _symmetry_equiv_pos_site_id
 _symmetry_equiv_pos_as_xyz
  1  'x, y, z'
loop_
 _atom_site_type_symbol
 _atom_site_label
 _atom_site_symmetry_multiplicity
 _atom_site_fract_x
 _atom_site_fract_y
 _atom_site_fract_z
 _atom_site_occupancy
  Pu  Pu0  1  0.262099  0.221253  0.262099  1
  Pu  Pu1  1  0.987901  0.028747  0.987901  1
  Al  Al2  1  0.625000  0.625000  0.625000  1
  Zn  Zn3  1  0.625000  0.625000  0.125000  1
  Zn  Zn4  1  0.125000  0.625000  0.625000  1
  Ge  Ge5  1  0.625000  0.125000  0.625000  1
