# generated using pymatgen
data_Ho(ZnAg)6
_symmetry_space_group_name_H-M   'P 1'
_cell_length_a   7.06010070
_cell_length_b   7.06010090
_cell_length_c   7.06010087
_cell_angle_alpha   98.07584009
_cell_angle_beta   97.61661194
_cell_angle_gamma   136.63317636
_symmetry_Int_Tables_number   1
_chemical_formula_structural   Ho(ZnAg)6
_chemical_formula_sum   'Ho1 Zn6 Ag6'
_cell_volume   224.54418559
_cell_formula_units_Z   1
loop_
 _symmetry_equiv_pos_site_id
 _symmetry_equiv_pos_as_xyz
  1  'x, y, z'
loop_
 _atom_site_type_symbol
 _atom_site_label
 _atom_site_symmetry_multiplicity
 _atom_site_fract_x
 _atom_site_fract_y
 _atom_site_fract_z
 _atom_site_occupancy
  Ho  Ho0  1  0.000000  0.000000  0.000000  1
  Zn  Zn1  1  0.000000  0.000000  0.500000  1
  Zn  Zn2  1  0.500000  0.500000  0.500000  1
  Zn  Zn3  1  0.500000  0.000000  0.000000  1
  Zn  Zn4  1  0.000000  0.500000  0.000000  1
  Zn  Zn5  1  0.722793  0.500000  0.222793  1
  Zn  Zn6  1  0.277207  0.500000  0.777207  1
  Ag  Ag7  1  0.000000  0.347735  0.347735  1
  Ag  Ag8  1  0.000000  0.652265  0.652265  1
  Ag  Ag9  1  0.654669  0.000000  0.654669  1
  Ag  Ag10  1  0.345331  0.000000  0.345331  1
  Ag  Ag11  1  0.500000  0.302189  0.802189  1
  Ag  Ag12  1  0.500000  0.697811  0.197811  1
