# generated using pymatgen
data_Tm5ReBMoC6
_symmetry_space_group_name_H-M   'P 1'
_cell_length_a   8.25766900
_cell_length_b   8.25766922
_cell_length_c   3.38019100
_cell_angle_alpha   90.00000000
_cell_angle_beta   90.00000000
_cell_angle_gamma   121.89699547
_symmetry_Int_Tables_number   1
_chemical_formula_structural   Tm5ReBMoC6
_chemical_formula_sum   'Tm5 Re1 B1 Mo1 C6'
_cell_volume   195.68772112
_cell_formula_units_Z   1
loop_
 _symmetry_equiv_pos_site_id
 _symmetry_equiv_pos_as_xyz
  1  'x, y, z'
loop_
 _atom_site_type_symbol
 _atom_site_label
 _atom_site_symmetry_multiplicity
 _atom_site_fract_x
 _atom_site_fract_y
 _atom_site_fract_z
 _atom_site_occupancy
  Tm  Tm0  1  0.498751  0.501249  0.000000  1
  Tm  Tm1  1  0.080897  0.330008  0.500000  1
  Tm  Tm2  1  0.921264  0.671067  0.500000  1
  Tm  Tm3  1  0.669992  0.919103  0.500000  1
  Tm  Tm4  1  0.328933  0.078736  0.500000  1
  Re  Re5  1  0.286473  0.713527  0.000000  1
  B  B6  1  0.999626  0.000374  0.000000  1
  Mo  Mo7  1  0.713721  0.286279  0.000000  1
  C  C8  1  0.624614  0.375386  0.500000  1
  C  C9  1  0.373616  0.626384  0.500000  1
  C  C10  1  0.184001  0.183100  0.000000  1
  C  C11  1  0.816900  0.815999  0.000000  1
  C  C12  1  0.002380  0.501168  0.000000  1
  C  C13  1  0.498832  0.997620  0.000000  1
