# generated using pymatgen
data_Sr3TmHgPb11
_symmetry_space_group_name_H-M   'P 1'
_cell_length_a   10.08855000
_cell_length_b   7.01578194
_cell_length_c   7.02618595
_cell_angle_alpha   89.73367957
_cell_angle_beta   90.00000000
_cell_angle_gamma   90.00000000
_symmetry_Int_Tables_number   1
_chemical_formula_structural   Sr3TmHgPb11
_chemical_formula_sum   'Sr3 Tm1 Hg1 Pb11'
_cell_volume   497.30151287
_cell_formula_units_Z   1
loop_
 _symmetry_equiv_pos_site_id
 _symmetry_equiv_pos_as_xyz
  1  'x, y, z'
loop_
 _atom_site_type_symbol
 _atom_site_label
 _atom_site_symmetry_multiplicity
 _atom_site_fract_x
 _atom_site_fract_y
 _atom_site_fract_z
 _atom_site_occupancy
  Sr  Sr0  1  0.250000  0.495755  0.502641  1
  Sr  Sr1  1  0.750000  0.996697  0.001387  1
  Sr  Sr2  1  0.750000  0.505283  0.500274  1
  Tm  Tm3  1  0.250000  0.009569  0.001880  1
  Hg  Hg4  1  0.750000  0.493594  0.995411  1
  Pb  Pb5  1  0.002909  0.238171  0.751103  1
  Pb  Pb6  1  0.496354  0.248254  0.244739  1
  Pb  Pb7  1  0.491956  0.757308  0.242906  1
  Pb  Pb8  1  0.005641  0.751447  0.759308  1
  Pb  Pb9  1  0.008044  0.757308  0.242906  1
  Pb  Pb10  1  0.494359  0.751447  0.759308  1
  Pb  Pb11  1  0.497091  0.238171  0.751103  1
  Pb  Pb12  1  0.003646  0.248254  0.244739  1
  Pb  Pb13  1  0.250000  0.997718  0.502233  1
  Pb  Pb14  1  0.250000  0.507168  0.001309  1
  Pb  Pb15  1  0.750000  0.003853  0.498751  1
