# generated using pymatgen
data_Nb6AsAuC2
_symmetry_space_group_name_H-M   'P 1'
_cell_length_a   5.74630343
_cell_length_b   5.74630358
_cell_length_c   8.48082600
_cell_angle_alpha   90.00000000
_cell_angle_beta   90.00000000
_cell_angle_gamma   146.45101201
_symmetry_Int_Tables_number   1
_chemical_formula_structural   Nb6AsAuC2
_chemical_formula_sum   'Nb6 As1 Au1 C2'
_cell_volume   154.76232946
_cell_formula_units_Z   1
loop_
 _symmetry_equiv_pos_site_id
 _symmetry_equiv_pos_as_xyz
  1  'x, y, z'
loop_
 _atom_site_type_symbol
 _atom_site_label
 _atom_site_symmetry_multiplicity
 _atom_site_fract_x
 _atom_site_fract_y
 _atom_site_fract_z
 _atom_site_occupancy
  Nb  Nb0  1  0.874947  0.125051  0.038599  1
  Nb  Nb1  1  0.540125  0.459873  0.250000  1
  Nb  Nb2  1  0.874947  0.125051  0.461401  1
  Nb  Nb3  1  0.129805  0.870193  0.561266  1
  Nb  Nb4  1  0.443031  0.556967  0.750000  1
  Nb  Nb5  1  0.129805  0.870193  0.938734  1
  As  As6  1  0.756848  0.243150  0.750000  1
  Au  Au7  1  0.245190  0.754808  0.250000  1
  C  C8  1  0.502645  0.497353  0.996716  1
  C  C9  1  0.502645  0.497353  0.503284  1
