# generated using pymatgen
data_Y5Cr4(P4Ir5)3
_symmetry_space_group_name_H-M   'P 1'
_cell_length_a   12.67994693
_cell_length_b   12.64225408
_cell_length_c   3.94993700
_cell_angle_alpha   90.00000000
_cell_angle_beta   90.00000000
_cell_angle_gamma   120.11175699
_symmetry_Int_Tables_number   1
_chemical_formula_structural   Y5Cr4(P4Ir5)3
_chemical_formula_sum   'Y5 Cr4 P12 Ir15'
_cell_volume   547.73762361
_cell_formula_units_Z   1
loop_
 _symmetry_equiv_pos_site_id
 _symmetry_equiv_pos_as_xyz
  1  'x, y, z'
loop_
 _atom_site_type_symbol
 _atom_site_label
 _atom_site_symmetry_multiplicity
 _atom_site_fract_x
 _atom_site_fract_y
 _atom_site_fract_z
 _atom_site_occupancy
  Y  Y0  1  0.330771  0.665671  0.000000  1
  Y  Y1  1  0.667202  0.331977  0.000000  1
  Y  Y2  1  0.811871  0.002534  0.500000  1
  Y  Y3  1  0.000892  0.811713  0.500000  1
  Y  Y4  1  0.187251  0.187049  0.500000  1
  Cr  Cr5  1  0.451613  0.998903  0.000000  1
  Cr  Cr6  1  0.005183  0.455572  0.000000  1
  Cr  Cr7  1  0.548819  0.545007  0.000000  1
  Cr  Cr8  1  0.178454  0.380576  0.000000  1
  P  P9  1  0.177586  0.001166  0.000000  1
  P  P10  1  0.007287  0.184649  0.000000  1
  P  P11  1  0.821432  0.822585  0.000000  1
  P  P12  1  0.167580  0.482387  0.500000  1
  P  P13  1  0.514807  0.682091  0.500000  1
  P  P14  1  0.315493  0.833054  0.500000  1
  P  P15  1  0.688214  0.516797  0.500000  1
  P  P16  1  0.832302  0.313894  0.500000  1
  P  P17  1  0.483185  0.167436  0.500000  1
  P  P18  1  0.630615  0.000080  0.000000  1
  P  P19  1  0.001057  0.632258  0.000000  1
  P  P20  1  0.357191  0.363526  0.000000  1
  Ir  Ir21  1  0.356901  0.484307  0.500000  1
  Ir  Ir22  1  0.508081  0.866867  0.500000  1
  Ir  Ir23  1  0.131814  0.641783  0.500000  1
  Ir  Ir24  1  0.870925  0.508837  0.500000  1
  Ir  Ir25  1  0.638771  0.128869  0.500000  1
  Ir  Ir26  1  0.494772  0.359933  0.500000  1
  Ir  Ir27  1  0.623859  0.803604  0.000000  1
  Ir  Ir28  1  0.196430  0.822249  0.000000  1
  Ir  Ir29  1  0.804556  0.624572  0.000000  1
  Ir  Ir30  1  0.819678  0.197926  0.000000  1
  Ir  Ir31  1  0.375399  0.180614  0.000000  1
  Ir  Ir32  1  0.286690  0.000845  0.500000  1
  Ir  Ir33  1  0.000561  0.286450  0.500000  1
  Ir  Ir34  1  0.713550  0.713488  0.500000  1
  Ir  Ir35  1  0.999210  0.000732  0.000000  1
