# generated using pymatgen
data_Sr8Ti3VO16
_symmetry_space_group_name_H-M   'P 1'
_cell_length_a   5.56186550
_cell_length_b   8.85699211
_cell_length_c   8.85706460
_cell_angle_alpha   89.21173938
_cell_angle_beta   71.69517373
_cell_angle_gamma   108.30541375
_symmetry_Int_Tables_number   1
_chemical_formula_structural   Sr8Ti3VO16
_chemical_formula_sum   'Sr8 Ti3 V1 O16'
_cell_volume   390.20181147
_cell_formula_units_Z   1
loop_
 _symmetry_equiv_pos_site_id
 _symmetry_equiv_pos_as_xyz
  1  'x, y, z'
loop_
 _atom_site_type_symbol
 _atom_site_label
 _atom_site_symmetry_multiplicity
 _atom_site_fract_x
 _atom_site_fract_y
 _atom_site_fract_z
 _atom_site_occupancy
  Sr  Sr0  1  0.249617  0.393755  0.893496  1
  Sr  Sr1  1  0.001369  0.645282  0.643146  1
  Sr  Sr2  1  0.750316  0.894304  0.394637  1
  Sr  Sr3  1  0.498855  0.143277  0.145042  1
  Sr  Sr4  1  0.001399  0.356894  0.354676  1
  Sr  Sr5  1  0.750437  0.605472  0.105617  1
  Sr  Sr6  1  0.498691  0.854813  0.856864  1
  Sr  Sr7  1  0.249634  0.106510  0.606223  1
  Ti  Ti8  1  0.498046  0.498285  0.501686  1
  Ti  Ti9  1  0.250476  0.750027  0.250057  1
  Ti  Ti10  1  0.001673  0.001649  0.998378  1
  V  V11  1  0.749279  0.249864  0.750070  1
  O  O12  1  0.249916  0.590504  0.090833  1
  O  O13  1  0.000363  0.840764  0.841577  1
  O  O14  1  0.749882  0.096481  0.596221  1
  O  O15  1  0.499370  0.341304  0.340685  1
  O  O16  1  0.000673  0.158777  0.158915  1
  O  O17  1  0.749760  0.403615  0.903582  1
  O  O18  1  0.499427  0.659375  0.658595  1
  O  O19  1  0.249763  0.908959  0.409789  1
  O  O20  1  0.873936  0.123963  0.875882  1
  O  O21  1  0.624254  0.375563  0.624452  1
  O  O22  1  0.377131  0.625924  0.373982  1
  O  O23  1  0.125418  0.874662  0.125572  1
  O  O24  1  0.373563  0.124289  0.875554  1
  O  O25  1  0.125410  0.376095  0.623919  1
  O  O26  1  0.875480  0.625582  0.374365  1
  O  O27  1  0.625863  0.874013  0.126179  1
