# generated using pymatgen
data_Cs2RbBi(AsSe2)6
_symmetry_space_group_name_H-M   'P 1'
_cell_length_a   10.11920100
_cell_length_b   10.11920027
_cell_length_c   8.48323700
_cell_angle_alpha   90.00000000
_cell_angle_beta   90.00000000
_cell_angle_gamma   120.00000566
_symmetry_Int_Tables_number   1
_chemical_formula_structural   Cs2RbBi(AsSe2)6
_chemical_formula_sum   'Cs2 Rb1 Bi1 As6 Se12'
_cell_volume   752.28884276
_cell_formula_units_Z   1
loop_
 _symmetry_equiv_pos_site_id
 _symmetry_equiv_pos_as_xyz
  1  'x, y, z'
loop_
 _atom_site_type_symbol
 _atom_site_label
 _atom_site_symmetry_multiplicity
 _atom_site_fract_x
 _atom_site_fract_y
 _atom_site_fract_z
 _atom_site_occupancy
  Cs  Cs0  1  0.333333  0.666667  0.856828  1
  Cs  Cs1  1  0.666667  0.333333  0.143172  1
  Rb  Rb2  1  0.000000  0.000000  0.000000  1
  Bi  Bi3  1  0.000000  0.000000  0.500000  1
  As  As4  1  0.290721  0.839316  0.393123  1
  As  As5  1  0.160684  0.451406  0.393123  1
  As  As6  1  0.548594  0.709279  0.393123  1
  As  As7  1  0.709279  0.160684  0.606877  1
  As  As8  1  0.839316  0.548594  0.606877  1
  As  As9  1  0.451406  0.290721  0.606877  1
  Se  Se10  1  0.260924  0.044492  0.297560  1
  Se  Se11  1  0.955508  0.216433  0.297560  1
  Se  Se12  1  0.783567  0.739076  0.297560  1
  Se  Se13  1  0.739076  0.955508  0.702440  1
  Se  Se14  1  0.044492  0.783567  0.702440  1
  Se  Se15  1  0.216433  0.260924  0.702440  1
  Se  Se16  1  0.523848  0.903808  0.239293  1
  Se  Se17  1  0.096192  0.620039  0.239293  1
  Se  Se18  1  0.379961  0.476152  0.239293  1
  Se  Se19  1  0.476152  0.096192  0.760707  1
  Se  Se20  1  0.903808  0.379961  0.760707  1
  Se  Se21  1  0.620039  0.523848  0.760707  1
