# generated using pymatgen
data_Ho10Er2InCo4Rh
_symmetry_space_group_name_H-M   'P 1'
_cell_length_a   8.25631493
_cell_length_b   8.25547655
_cell_length_c   8.25631476
_cell_angle_alpha   110.95810218
_cell_angle_beta   110.67954762
_cell_angle_gamma   106.81242909
_symmetry_Int_Tables_number   1
_chemical_formula_structural   Ho10Er2InCo4Rh
_chemical_formula_sum   'Ho10 Er2 In1 Co4 Rh1'
_cell_volume   432.48406509
_cell_formula_units_Z   1
loop_
 _symmetry_equiv_pos_site_id
 _symmetry_equiv_pos_as_xyz
  1  'x, y, z'
loop_
 _atom_site_type_symbol
 _atom_site_label
 _atom_site_symmetry_multiplicity
 _atom_site_fract_x
 _atom_site_fract_y
 _atom_site_fract_z
 _atom_site_occupancy
  Ho  Ho0  1  0.314435  0.009504  0.695070  1
  Ho  Ho1  1  0.685565  0.990496  0.304930  1
  Ho  Ho2  1  0.186883  0.290815  0.476902  1
  Ho  Ho3  1  0.813117  0.709185  0.523098  1
  Ho  Ho4  1  0.186087  0.709185  0.896069  1
  Ho  Ho5  1  0.813913  0.290815  0.103931  1
  Ho  Ho6  1  0.409135  0.214667  0.195311  1
  Ho  Ho7  1  0.590865  0.785333  0.804689  1
  Ho  Ho8  1  0.019356  0.214667  0.805533  1
  Ho  Ho9  1  0.980644  0.785333  0.194467  1
  Er  Er10  1  0.314782  0.620290  0.305507  1
  Er  Er11  1  0.685218  0.379710  0.694493  1
  In  In12  1  0.500000  0.500000  0.000000  1
  Co  Co13  1  0.112632  0.612369  0.499737  1
  Co  Co14  1  0.887368  0.387631  0.500263  1
  Co  Co15  1  0.378754  0.000000  0.378754  1
  Co  Co16  1  0.621246  0.000000  0.621246  1
  Rh  Rh17  1  0.000000  0.000000  0.000000  1
