# generated using pymatgen
data_HoEr4PtPb3
_symmetry_space_group_name_H-M   'P 1'
_cell_length_a   9.14870700
_cell_length_b   9.14870717
_cell_length_c   6.78467700
_cell_angle_alpha   90.00000000
_cell_angle_beta   90.00000000
_cell_angle_gamma   120.00001025
_symmetry_Int_Tables_number   1
_chemical_formula_structural   HoEr4PtPb3
_chemical_formula_sum   'Ho2 Er8 Pt2 Pb6'
_cell_volume   491.78945186
_cell_formula_units_Z   2
loop_
 _symmetry_equiv_pos_site_id
 _symmetry_equiv_pos_as_xyz
  1  'x, y, z'
loop_
 _atom_site_type_symbol
 _atom_site_label
 _atom_site_symmetry_multiplicity
 _atom_site_fract_x
 _atom_site_fract_y
 _atom_site_fract_z
 _atom_site_occupancy
  Ho  Ho0  1  0.333333  0.666667  0.000000  1
  Ho  Ho1  1  0.666667  0.333333  0.000000  1
  Er  Er2  1  0.244979  0.000000  0.250247  1
  Er  Er3  1  0.755021  0.000000  0.749753  1
  Er  Er4  1  0.000000  0.244979  0.250247  1
  Er  Er5  1  0.000000  0.755021  0.749753  1
  Er  Er6  1  0.755021  0.755021  0.250247  1
  Er  Er7  1  0.244979  0.244979  0.749753  1
  Er  Er8  1  0.666667  0.333333  0.500000  1
  Er  Er9  1  0.333333  0.666667  0.500000  1
  Pt  Pt10  1  0.000000  0.000000  0.000000  1
  Pt  Pt11  1  0.000000  0.000000  0.500000  1
  Pb  Pb12  1  0.600212  0.000000  0.250341  1
  Pb  Pb13  1  0.399788  0.000000  0.749659  1
  Pb  Pb14  1  0.000000  0.600212  0.250341  1
  Pb  Pb15  1  0.000000  0.399788  0.749659  1
  Pb  Pb16  1  0.399788  0.399788  0.250341  1
  Pb  Pb17  1  0.600212  0.600212  0.749659  1
