# generated using pymatgen
data_Er2TmMg3Pb2Au
_symmetry_space_group_name_H-M   'P 1'
_cell_length_a   7.53071401
_cell_length_b   7.53071475
_cell_length_c   4.47860800
_cell_angle_alpha   90.00000000
_cell_angle_beta   90.00000000
_cell_angle_gamma   119.99294363
_symmetry_Int_Tables_number   1
_chemical_formula_structural   Er2TmMg3Pb2Au
_chemical_formula_sum   'Er2 Tm1 Mg3 Pb2 Au1'
_cell_volume   219.97681619
_cell_formula_units_Z   1
loop_
 _symmetry_equiv_pos_site_id
 _symmetry_equiv_pos_as_xyz
  1  'x, y, z'
loop_
 _atom_site_type_symbol
 _atom_site_label
 _atom_site_symmetry_multiplicity
 _atom_site_fract_x
 _atom_site_fract_y
 _atom_site_fract_z
 _atom_site_occupancy
  Er  Er0  1  0.597006  0.999966  0.000000  1
  Er  Er1  1  0.999966  0.597006  0.000000  1
  Tm  Tm2  1  0.402848  0.402848  0.000000  1
  Mg  Mg3  1  0.233764  0.000056  0.500000  1
  Mg  Mg4  1  0.000056  0.233764  0.500000  1
  Mg  Mg5  1  0.766224  0.766224  0.500000  1
  Pb  Pb6  1  0.333406  0.666556  0.500000  1
  Pb  Pb7  1  0.666556  0.333406  0.500000  1
  Au  Au8  1  0.000174  0.000174  0.000000  1
