# generated using pymatgen
data_Tb5Dy3(HoRh)4
_symmetry_space_group_name_H-M   'P 1'
_cell_length_a   6.28586762
_cell_length_b   7.16479223
_cell_length_c   9.47624224
_cell_angle_alpha   90.00450852
_cell_angle_beta   89.93261540
_cell_angle_gamma   89.98053719
_symmetry_Int_Tables_number   1
_chemical_formula_structural   Tb5Dy3(HoRh)4
_chemical_formula_sum   'Tb5 Dy3 Ho4 Rh4'
_cell_volume   426.78058906
_cell_formula_units_Z   1
loop_
 _symmetry_equiv_pos_site_id
 _symmetry_equiv_pos_as_xyz
  1  'x, y, z'
loop_
 _atom_site_type_symbol
 _atom_site_label
 _atom_site_symmetry_multiplicity
 _atom_site_fract_x
 _atom_site_fract_y
 _atom_site_fract_z
 _atom_site_occupancy
  Tb  Tb0  1  0.169706  0.176854  0.062339  1
  Tb  Tb1  1  0.865336  0.532734  0.250210  1
  Tb  Tb2  1  0.634591  0.031824  0.250189  1
  Tb  Tb3  1  0.133648  0.467734  0.749802  1
  Tb  Tb4  1  0.366298  0.967216  0.749783  1
  Dy  Dy5  1  0.330327  0.676853  0.063005  1
  Dy  Dy6  1  0.169642  0.176747  0.437451  1
  Dy  Dy7  1  0.669518  0.323626  0.563007  1
  Ho  Ho8  1  0.830079  0.823116  0.936233  1
  Ho  Ho9  1  0.669548  0.323414  0.936525  1
  Ho  Ho10  1  0.830106  0.823190  0.563247  1
  Ho  Ho11  1  0.330238  0.676947  0.436914  1
  Rh  Rh12  1  0.061244  0.881355  0.250926  1
  Rh  Rh13  1  0.439789  0.382511  0.250402  1
  Rh  Rh14  1  0.938481  0.117583  0.749735  1
  Rh  Rh15  1  0.561448  0.618296  0.750230  1
