# generated using pymatgen
data_Tb4Al17Si(Pd2Ru)2
_symmetry_space_group_name_H-M   'P 1'
_cell_length_a   7.59695828
_cell_length_b   7.59697370
_cell_length_c   9.45377800
_cell_angle_alpha   90.00000000
_cell_angle_beta   90.00000000
_cell_angle_gamma   119.46908465
_symmetry_Int_Tables_number   1
_chemical_formula_structural   Tb4Al17Si(Pd2Ru)2
_chemical_formula_sum   'Tb4 Al17 Si1 Pd4 Ru2'
_cell_volume   475.02343594
_cell_formula_units_Z   1
loop_
 _symmetry_equiv_pos_site_id
 _symmetry_equiv_pos_as_xyz
  1  'x, y, z'
loop_
 _atom_site_type_symbol
 _atom_site_label
 _atom_site_symmetry_multiplicity
 _atom_site_fract_x
 _atom_site_fract_y
 _atom_site_fract_z
 _atom_site_occupancy
  Tb  Tb0  1  0.993665  0.673692  0.250000  1
  Tb  Tb1  1  0.003659  0.332543  0.750000  1
  Tb  Tb2  1  0.673692  0.993664  0.250000  1
  Tb  Tb3  1  0.332543  0.003659  0.750000  1
  Al  Al4  1  0.880127  0.880127  0.750000  1
  Al  Al5  1  0.001075  0.331969  0.077640  1
  Al  Al6  1  0.999425  0.671820  0.924472  1
  Al  Al7  1  0.999425  0.671820  0.575528  1
  Al  Al8  1  0.331969  0.001075  0.422360  1
  Al  Al9  1  0.001075  0.331969  0.422360  1
  Al  Al10  1  0.671820  0.999425  0.575529  1
  Al  Al11  1  0.671820  0.999425  0.924471  1
  Al  Al12  1  0.331969  0.001075  0.077640  1
  Al  Al13  1  0.327249  0.327249  0.557189  1
  Al  Al14  1  0.668087  0.668088  0.447883  1
  Al  Al15  1  0.668087  0.668088  0.052117  1
  Al  Al16  1  0.327249  0.327249  0.942811  1
  Al  Al17  1  0.337624  0.544801  0.250000  1
  Al  Al18  1  0.660086  0.454484  0.750000  1
  Al  Al19  1  0.544801  0.337625  0.250000  1
  Al  Al20  1  0.454485  0.660086  0.750000  1
  Si  Si21  1  0.124476  0.124477  0.250000  1
  Pd  Pd22  1  0.670982  0.326438  0.000413  1
  Pd  Pd23  1  0.326440  0.670983  0.000414  1
  Pd  Pd24  1  0.326440  0.670983  0.499586  1
  Pd  Pd25  1  0.670982  0.326438  0.499587  1
  Ru  Ru26  1  0.000375  0.000375  0.007794  1
  Ru  Ru27  1  0.000375  0.000375  0.492206  1
