# generated using pymatgen
data_K3Tb(TaS4)2
_symmetry_space_group_name_H-M   'P 1'
_cell_length_a   9.04092358
_cell_length_b   10.32176039
_cell_length_c   11.19332130
_cell_angle_alpha   107.30066088
_cell_angle_beta   102.55810257
_cell_angle_gamma   113.87022482
_symmetry_Int_Tables_number   1
_chemical_formula_structural   K3Tb(TaS4)2
_chemical_formula_sum   'K6 Tb2 Ta4 S16'
_cell_volume   840.96865738
_cell_formula_units_Z   2
loop_
 _symmetry_equiv_pos_site_id
 _symmetry_equiv_pos_as_xyz
  1  'x, y, z'
loop_
 _atom_site_type_symbol
 _atom_site_label
 _atom_site_symmetry_multiplicity
 _atom_site_fract_x
 _atom_site_fract_y
 _atom_site_fract_z
 _atom_site_occupancy
  K  K0  1  0.000000  0.500000  0.000000  1
  K  K1  1  0.500000  0.500000  0.000000  1
  K  K2  1  0.754926  0.004625  0.009393  1
  K  K3  1  0.989099  0.739304  0.478454  1
  K  K4  1  0.010900  0.260696  0.521544  1
  K  K5  1  0.245074  0.995375  0.990606  1
  Tb  Tb6  1  0.492353  0.242309  0.484692  1
  Tb  Tb7  1  0.507647  0.757692  0.515309  1
  Ta  Ta8  1  0.250990  0.351550  0.256341  1
  Ta  Ta9  1  0.505472  0.904939  0.256325  1
  Ta  Ta10  1  0.494528  0.095061  0.743675  1
  Ta  Ta11  1  0.749010  0.648450  0.743658  1
  S  S12  1  0.147686  0.271851  0.028576  1
  S  S13  1  0.381095  0.756988  0.028585  1
  S  S14  1  0.161926  0.132499  0.297476  1
  S  S15  1  0.635614  0.165099  0.297504  1
  S  S16  1  0.306724  0.866113  0.354930  1
  S  S17  1  0.548327  0.488955  0.354969  1
  S  S18  1  0.155502  0.509947  0.359952  1
  S  S19  1  0.704535  0.850091  0.359972  1
  S  S20  1  0.295465  0.149909  0.640028  1
  S  S21  1  0.844498  0.490053  0.640048  1
  S  S22  1  0.451673  0.511045  0.645031  1
  S  S23  1  0.693278  0.133889  0.645071  1
  S  S24  1  0.364386  0.834901  0.702495  1
  S  S25  1  0.838074  0.867501  0.702523  1
  S  S26  1  0.618904  0.243012  0.971415  1
  S  S27  1  0.852314  0.728148  0.971423  1
