# generated using pymatgen
data_NaY6AuBr12
_symmetry_space_group_name_H-M   'P 1'
_cell_length_a   9.30060198
_cell_length_b   9.30055496
_cell_length_c   9.30046060
_cell_angle_alpha   106.72981516
_cell_angle_beta   106.73121827
_cell_angle_gamma   106.73175243
_symmetry_Int_Tables_number   1
_chemical_formula_structural   NaY6AuBr12
_chemical_formula_sum   'Na1 Y6 Au1 Br12'
_cell_volume   674.85005899
_cell_formula_units_Z   1
loop_
 _symmetry_equiv_pos_site_id
 _symmetry_equiv_pos_as_xyz
  1  'x, y, z'
loop_
 _atom_site_type_symbol
 _atom_site_label
 _atom_site_symmetry_multiplicity
 _atom_site_fract_x
 _atom_site_fract_y
 _atom_site_fract_z
 _atom_site_occupancy
  Na  Na0  1  0.500000  0.500000  0.500000  1
  Y  Y1  1  0.111310  0.324600  0.030901  1
  Y  Y2  1  0.324601  0.030902  0.111309  1
  Y  Y3  1  0.030899  0.111306  0.324601  1
  Y  Y4  1  0.969102  0.888694  0.675400  1
  Y  Y5  1  0.675399  0.969099  0.888691  1
  Y  Y6  1  0.888690  0.675400  0.969099  1
  Au  Au7  1  0.000000  0.000000  0.000000  1
  Br  Br8  1  0.216763  0.679215  0.073293  1
  Br  Br9  1  0.447898  0.367888  0.146445  1
  Br  Br10  1  0.679216  0.073293  0.216763  1
  Br  Br11  1  0.926706  0.783235  0.320783  1
  Br  Br12  1  0.146450  0.447910  0.367890  1
  Br  Br13  1  0.367884  0.146446  0.447902  1
  Br  Br14  1  0.632116  0.853554  0.552099  1
  Br  Br15  1  0.853551  0.552090  0.632110  1
  Br  Br16  1  0.073295  0.216765  0.679218  1
  Br  Br17  1  0.320785  0.926708  0.783237  1
  Br  Br18  1  0.552102  0.632112  0.853556  1
  Br  Br19  1  0.783237  0.320785  0.926707  1
