# generated using pymatgen
data_Ho3Hg2Pt2Pb
_symmetry_space_group_name_H-M   'P 1'
_cell_length_a   7.79485038
_cell_length_b   7.79485207
_cell_length_c   3.56810300
_cell_angle_alpha   90.00000000
_cell_angle_beta   90.00000000
_cell_angle_gamma   119.61329828
_symmetry_Int_Tables_number   1
_chemical_formula_structural   Ho3Hg2Pt2Pb
_chemical_formula_sum   'Ho3 Hg2 Pt2 Pb1'
_cell_volume   188.47893547
_cell_formula_units_Z   1
loop_
 _symmetry_equiv_pos_site_id
 _symmetry_equiv_pos_as_xyz
  1  'x, y, z'
loop_
 _atom_site_type_symbol
 _atom_site_label
 _atom_site_symmetry_multiplicity
 _atom_site_fract_x
 _atom_site_fract_y
 _atom_site_fract_z
 _atom_site_occupancy
  Ho  Ho0  1  0.580071  0.999875  0.500000  1
  Ho  Ho1  1  0.411627  0.411627  0.500000  1
  Ho  Ho2  1  0.999875  0.580071  0.500000  1
  Hg  Hg3  1  0.239137  0.001384  0.000000  1
  Hg  Hg4  1  0.001384  0.239136  0.000000  1
  Pt  Pt5  1  0.665920  0.330314  0.000000  1
  Pt  Pt6  1  0.330314  0.665920  0.000000  1
  Pb  Pb7  1  0.771672  0.771672  0.000000  1
