# generated using pymatgen
data_RbHo(PS3)2
_symmetry_space_group_name_H-M   'P 1'
_cell_length_a   7.39920100
_cell_length_b   6.60685533
_cell_length_c   10.40701336
_cell_angle_alpha   86.66161633
_cell_angle_beta   90.00000000
_cell_angle_gamma   90.00000000
_symmetry_Int_Tables_number   1
_chemical_formula_structural   RbHo(PS3)2
_chemical_formula_sum   'Rb2 Ho2 P4 S12'
_cell_volume   507.88820071
_cell_formula_units_Z   2
loop_
 _symmetry_equiv_pos_site_id
 _symmetry_equiv_pos_as_xyz
  1  'x, y, z'
loop_
 _atom_site_type_symbol
 _atom_site_label
 _atom_site_symmetry_multiplicity
 _atom_site_fract_x
 _atom_site_fract_y
 _atom_site_fract_z
 _atom_site_occupancy
  Rb  Rb0  1  0.450930  0.693802  0.499794  1
  Rb  Rb1  1  0.950930  0.306198  0.500206  1
  Ho  Ho2  1  0.678668  0.781492  0.001242  1
  Ho  Ho3  1  0.178668  0.218508  0.998758  1
  P  P4  1  0.935869  0.798205  0.278027  1
  P  P5  1  0.661922  0.328146  0.838385  1
  P  P6  1  0.161922  0.671854  0.161615  1
  P  P7  1  0.435869  0.201795  0.721973  1
  S  S8  1  0.373240  0.949621  0.840821  1
  S  S9  1  0.040396  0.624256  0.987200  1
  S  S10  1  0.232816  0.399718  0.746853  1
  S  S11  1  0.540396  0.375744  0.012800  1
  S  S12  1  0.854058  0.100595  0.846870  1
  S  S13  1  0.354058  0.899405  0.153130  1
  S  S14  1  0.732816  0.600282  0.253147  1
  S  S15  1  0.873240  0.050379  0.159179  1
  S  S16  1  0.514136  0.175240  0.541110  1
  S  S17  1  0.751117  0.596278  0.760481  1
  S  S18  1  0.014136  0.824760  0.458890  1
  S  S19  1  0.251117  0.403722  0.239519  1
