# generated using pymatgen
data_LuMg2Pa(ZnPt)4
_symmetry_space_group_name_H-M   'P 1'
_cell_length_a   3.93073300
_cell_length_b   6.90080094
_cell_length_c   8.15562130
_cell_angle_alpha   89.91536264
_cell_angle_beta   90.00000000
_cell_angle_gamma   90.00000000
_symmetry_Int_Tables_number   1
_chemical_formula_structural   LuMg2Pa(ZnPt)4
_chemical_formula_sum   'Lu1 Mg2 Pa1 Zn4 Pt4'
_cell_volume   221.22266648
_cell_formula_units_Z   1
loop_
 _symmetry_equiv_pos_site_id
 _symmetry_equiv_pos_as_xyz
  1  'x, y, z'
loop_
 _atom_site_type_symbol
 _atom_site_label
 _atom_site_symmetry_multiplicity
 _atom_site_fract_x
 _atom_site_fract_y
 _atom_site_fract_z
 _atom_site_occupancy
  Lu  Lu0  1  0.750000  0.952445  0.680345  1
  Mg  Mg1  1  0.750000  0.448057  0.816081  1
  Mg  Mg2  1  0.250000  0.053146  0.325974  1
  Pa  Pa3  1  0.250000  0.545670  0.176937  1
  Zn  Zn4  1  0.250000  0.624341  0.563686  1
  Zn  Zn5  1  0.750000  0.359217  0.444769  1
  Zn  Zn6  1  0.750000  0.881450  0.057021  1
  Zn  Zn7  1  0.250000  0.134512  0.936102  1
  Pt  Pt8  1  0.250000  0.742846  0.871779  1
  Pt  Pt9  1  0.750000  0.256705  0.133408  1
  Pt  Pt10  1  0.750000  0.754225  0.362324  1
  Pt  Pt11  1  0.250000  0.247387  0.631574  1
