# generated using pymatgen
data_La8AlCo2Si12Rh
_symmetry_space_group_name_H-M   'P 1'
_cell_length_a   8.24599325
_cell_length_b   8.24610865
_cell_length_c   8.76691010
_cell_angle_alpha   90.00199342
_cell_angle_beta   90.00151422
_cell_angle_gamma   120.00069197
_symmetry_Int_Tables_number   1
_chemical_formula_structural   La8AlCo2Si12Rh
_chemical_formula_sum   'La8 Al1 Co2 Si12 Rh1'
_cell_volume   516.25727329
_cell_formula_units_Z   1
loop_
 _symmetry_equiv_pos_site_id
 _symmetry_equiv_pos_as_xyz
  1  'x, y, z'
loop_
 _atom_site_type_symbol
 _atom_site_label
 _atom_site_symmetry_multiplicity
 _atom_site_fract_x
 _atom_site_fract_y
 _atom_site_fract_z
 _atom_site_occupancy
  La  La0  1  0.000005  0.000005  0.247566  1
  La  La1  1  0.999991  0.999997  0.752760  1
  La  La2  1  0.503905  0.496073  0.244880  1
  La  La3  1  0.503889  0.007794  0.244867  1
  La  La4  1  0.992167  0.496082  0.244904  1
  La  La5  1  0.503664  0.496347  0.754970  1
  La  La6  1  0.503678  0.007347  0.754952  1
  La  La7  1  0.992710  0.496358  0.754987  1
  Al  Al8  1  0.333352  0.666664  0.497711  1
  Co  Co9  1  0.666685  0.333339  0.503083  1
  Co  Co10  1  0.666651  0.333330  0.999153  1
  Si  Si11  1  0.161066  0.838951  0.500504  1
  Si  Si12  1  0.161062  0.322099  0.500556  1
  Si  Si13  1  0.677922  0.838958  0.500456  1
  Si  Si14  1  0.825840  0.174180  0.499438  1
  Si  Si15  1  0.825844  0.651663  0.499491  1
  Si  Si16  1  0.348358  0.174174  0.499394  1
  Si  Si17  1  0.829408  0.170573  0.999969  1
  Si  Si18  1  0.829405  0.658843  0.999940  1
  Si  Si19  1  0.341143  0.170577  0.999969  1
  Si  Si20  1  0.166771  0.833221  0.000131  1
  Si  Si21  1  0.166776  0.333566  0.000127  1
  Si  Si22  1  0.666397  0.833202  0.000129  1
  Rh  Rh23  1  0.333308  0.666659  0.000063  1
