# generated using pymatgen
data_Cs9Rb3(AlSe3)4
_symmetry_space_group_name_H-M   'P 1'
_cell_length_a   11.03589148
_cell_length_b   11.03589164
_cell_length_c   14.01666702
_cell_angle_alpha   89.87442724
_cell_angle_beta   89.87443062
_cell_angle_gamma   139.86832180
_symmetry_Int_Tables_number   1
_chemical_formula_structural   Cs9Rb3(AlSe3)4
_chemical_formula_sum   'Cs9 Rb3 Al4 Se12'
_cell_volume   1100.28442097
_cell_formula_units_Z   1
loop_
 _symmetry_equiv_pos_site_id
 _symmetry_equiv_pos_as_xyz
  1  'x, y, z'
loop_
 _atom_site_type_symbol
 _atom_site_label
 _atom_site_symmetry_multiplicity
 _atom_site_fract_x
 _atom_site_fract_y
 _atom_site_fract_z
 _atom_site_occupancy
  Cs  Cs0  1  0.368459  0.368459  0.821159  1
  Cs  Cs1  1  0.164141  0.522818  0.129235  1
  Cs  Cs2  1  0.484839  0.836592  0.875473  1
  Cs  Cs3  1  0.975995  0.334322  0.630100  1
  Cs  Cs4  1  0.666477  0.019492  0.373737  1
  Cs  Cs5  1  0.836592  0.484839  0.875473  1
  Cs  Cs6  1  0.522818  0.164141  0.129235  1
  Cs  Cs7  1  0.019492  0.666477  0.373737  1
  Cs  Cs8  1  0.334322  0.975995  0.630100  1
  Rb  Rb9  1  0.857830  0.857830  0.665432  1
  Rb  Rb10  1  0.139685  0.139685  0.324502  1
  Rb  Rb11  1  0.640439  0.640439  0.169221  1
  Al  Al12  1  0.926682  0.086792  0.001288  1
  Al  Al13  1  0.413528  0.572830  0.498177  1
  Al  Al14  1  0.086792  0.926682  0.001288  1
  Al  Al15  1  0.572830  0.413528  0.498177  1
  Se  Se16  1  0.283926  0.283926  0.565576  1
  Se  Se17  1  0.695942  0.695942  0.424211  1
  Se  Se18  1  0.208179  0.208179  0.073866  1
  Se  Se19  1  0.812791  0.812791  0.923794  1
  Se  Se20  1  0.709119  0.994526  0.118658  1
  Se  Se21  1  0.006093  0.302252  0.887878  1
  Se  Se22  1  0.498933  0.783327  0.617813  1
  Se  Se23  1  0.200977  0.493015  0.383759  1
  Se  Se24  1  0.302252  0.006093  0.887878  1
  Se  Se25  1  0.994526  0.709119  0.118658  1
  Se  Se26  1  0.493015  0.200977  0.383759  1
  Se  Se27  1  0.783327  0.498933  0.617813  1
