# generated using pymatgen
data_Ac4PtRh2
_symmetry_space_group_name_H-M   'P 1'
_cell_length_a   8.14619673
_cell_length_b   8.14073758
_cell_length_c   8.15098908
_cell_angle_alpha   109.07572731
_cell_angle_beta   109.69388826
_cell_angle_gamma   109.64309785
_symmetry_Int_Tables_number   1
_chemical_formula_structural   Ac4PtRh2
_chemical_formula_sum   'Ac8 Pt2 Rh4'
_cell_volume   416.10265501
_cell_formula_units_Z   2
loop_
 _symmetry_equiv_pos_site_id
 _symmetry_equiv_pos_as_xyz
  1  'x, y, z'
loop_
 _atom_site_type_symbol
 _atom_site_label
 _atom_site_symmetry_multiplicity
 _atom_site_fract_x
 _atom_site_fract_y
 _atom_site_fract_z
 _atom_site_occupancy
  Ac  Ac0  1  0.114147  0.497892  0.994416  1
  Ac  Ac1  1  0.504160  0.001489  0.614406  1
  Ac  Ac2  1  0.391983  0.391334  0.390673  1
  Ac  Ac3  1  0.998619  0.113476  0.504691  1
  Ac  Ac4  1  0.885853  0.883745  0.880269  1
  Ac  Ac5  1  0.001381  0.614857  0.506071  1
  Ac  Ac6  1  0.608017  0.499351  0.998690  1
  Ac  Ac7  1  0.495840  0.997329  0.110246  1
  Pt  Pt8  1  0.875624  0.249651  0.125061  1
  Pt  Pt9  1  0.124376  0.874027  0.249438  1
  Rh  Rh10  1  0.375507  0.626139  0.750630  1
  Rh  Rh11  1  0.248820  0.124450  0.874554  1
  Rh  Rh12  1  0.751180  0.375629  0.625735  1
  Rh  Rh13  1  0.624493  0.750633  0.375123  1
