# generated using pymatgen
data_PrThMgNi2
_symmetry_space_group_name_H-M   'P 1'
_cell_length_a   7.60209800
_cell_length_b   7.62703600
_cell_length_c   3.76729200
_cell_angle_alpha   90.00000000
_cell_angle_beta   90.00000000
_cell_angle_gamma   90.00000000
_symmetry_Int_Tables_number   1
_chemical_formula_structural   PrThMgNi2
_chemical_formula_sum   'Pr2 Th2 Mg2 Ni4'
_cell_volume   218.43314737
_cell_formula_units_Z   2
loop_
 _symmetry_equiv_pos_site_id
 _symmetry_equiv_pos_as_xyz
  1  'x, y, z'
loop_
 _atom_site_type_symbol
 _atom_site_label
 _atom_site_symmetry_multiplicity
 _atom_site_fract_x
 _atom_site_fract_y
 _atom_site_fract_z
 _atom_site_occupancy
  Pr  Pr0  1  0.173316  0.327937  0.500000  1
  Pr  Pr1  1  0.673316  0.172063  0.500000  1
  Th  Th2  1  0.328721  0.828962  0.500000  1
  Th  Th3  1  0.828721  0.671038  0.500000  1
  Mg  Mg4  1  0.500110  0.499258  0.000000  1
  Mg  Mg5  1  0.000110  0.000742  0.000000  1
  Ni  Ni6  1  0.122045  0.638306  0.000000  1
  Ni  Ni7  1  0.622045  0.861694  0.000000  1
  Ni  Ni8  1  0.875807  0.396848  0.000000  1
  Ni  Ni9  1  0.375807  0.103152  0.000000  1
