# generated using pymatgen
data_Na3Ga2Pd
_symmetry_space_group_name_H-M   'P 1'
_cell_length_a   9.08638778
_cell_length_b   9.08638916
_cell_length_c   9.08638700
_cell_angle_alpha   59.99999696
_cell_angle_beta   59.99999190
_cell_angle_gamma   60.00000596
_symmetry_Int_Tables_number   1
_chemical_formula_structural   Na3Ga2Pd
_chemical_formula_sum   'Na12 Ga8 Pd4'
_cell_volume   530.46754196
_cell_formula_units_Z   4
loop_
 _symmetry_equiv_pos_site_id
 _symmetry_equiv_pos_as_xyz
  1  'x, y, z'
loop_
 _atom_site_type_symbol
 _atom_site_label
 _atom_site_symmetry_multiplicity
 _atom_site_fract_x
 _atom_site_fract_y
 _atom_site_fract_z
 _atom_site_occupancy
  Na  Na0  1  0.047550  0.452450  0.047550  1
  Na  Na1  1  0.797550  0.202450  0.202450  1
  Na  Na2  1  0.202450  0.797550  0.797550  1
  Na  Na3  1  0.797550  0.202450  0.797550  1
  Na  Na4  1  0.202450  0.202450  0.797550  1
  Na  Na5  1  0.797550  0.797550  0.202450  1
  Na  Na6  1  0.047550  0.047550  0.452450  1
  Na  Na7  1  0.452450  0.047550  0.047550  1
  Na  Na8  1  0.047550  0.452450  0.452450  1
  Na  Na9  1  0.452450  0.452450  0.047550  1
  Na  Na10  1  0.202450  0.797550  0.202450  1
  Na  Na11  1  0.452450  0.047550  0.452450  1
  Ga  Ga12  1  0.826654  0.826654  0.826654  1
  Ga  Ga13  1  0.729965  0.423346  0.423346  1
  Ga  Ga14  1  0.423346  0.729965  0.423346  1
  Ga  Ga15  1  0.423346  0.423346  0.729965  1
  Ga  Ga16  1  0.826654  0.520035  0.826654  1
  Ga  Ga17  1  0.826654  0.826654  0.520035  1
  Ga  Ga18  1  0.520035  0.826654  0.826654  1
  Ga  Ga19  1  0.423346  0.423346  0.423346  1
  Pd  Pd20  1  0.625000  0.625000  0.625000  1
  Pd  Pd21  1  0.125000  0.625000  0.625000  1
  Pd  Pd22  1  0.625000  0.125000  0.625000  1
  Pd  Pd23  1  0.625000  0.625000  0.125000  1
