# generated using pymatgen
data_Er20Si15Rh
_symmetry_space_group_name_H-M   'P 1'
_cell_length_a   7.37213657
_cell_length_b   7.61494650
_cell_length_c   14.45465963
_cell_angle_alpha   90.29883346
_cell_angle_beta   90.35431793
_cell_angle_gamma   90.20630959
_symmetry_Int_Tables_number   1
_chemical_formula_structural   Er20Si15Rh
_chemical_formula_sum   'Er20 Si15 Rh1'
_cell_volume   811.42992593
_cell_formula_units_Z   1
loop_
 _symmetry_equiv_pos_site_id
 _symmetry_equiv_pos_as_xyz
  1  'x, y, z'
loop_
 _atom_site_type_symbol
 _atom_site_label
 _atom_site_symmetry_multiplicity
 _atom_site_fract_x
 _atom_site_fract_y
 _atom_site_fract_z
 _atom_site_occupancy
  Er  Er0  1  0.024874  0.818905  0.599485  1
  Er  Er1  1  0.525822  0.683659  0.597821  1
  Er  Er2  1  0.321224  0.818864  0.121752  1
  Er  Er3  1  0.816663  0.680189  0.122485  1
  Er  Er4  1  0.851584  0.506725  0.749291  1
  Er  Er5  1  0.471463  0.316039  0.099507  1
  Er  Er6  1  0.028156  0.818539  0.901855  1
  Er  Er7  1  0.471922  0.316061  0.401654  1
  Er  Er8  1  0.652723  0.012151  0.257758  1
  Er  Er9  1  0.529605  0.682562  0.900547  1
  Er  Er10  1  0.681469  0.179894  0.877722  1
  Er  Er11  1  0.178114  0.320964  0.623750  1
  Er  Er12  1  0.184140  0.322558  0.875564  1
  Er  Er13  1  0.816393  0.688329  0.382276  1
  Er  Er14  1  0.323139  0.825237  0.377806  1
  Er  Er15  1  0.352462  0.990737  0.747550  1
  Er  Er16  1  0.683587  0.165075  0.618110  1
  Er  Er17  1  0.147120  0.490178  0.252206  1
  Er  Er18  1  0.971102  0.180992  0.098231  1
  Er  Er19  1  0.971713  0.176940  0.401388  1
  Si  Si20  1  0.233379  0.629212  0.750822  1
  Si  Si21  1  0.342938  0.028311  0.541118  1
  Si  Si22  1  0.027121  0.892828  0.246780  1
  Si  Si23  1  0.733905  0.869465  0.752109  1
  Si  Si24  1  0.265641  0.128433  0.246178  1
  Si  Si25  1  0.850991  0.471665  0.541868  1
  Si  Si26  1  0.481252  0.391646  0.748695  1
  Si  Si27  1  0.148495  0.531578  0.461596  1
  Si  Si28  1  0.147383  0.528145  0.039760  1
  Si  Si29  1  0.977867  0.104018  0.751748  1
  Si  Si30  1  0.768467  0.375760  0.248818  1
  Si  Si31  1  0.350587  0.029943  0.959881  1
  Si  Si32  1  0.856101  0.471191  0.959294  1
  Si  Si33  1  0.647017  0.970650  0.039148  1
  Si  Si34  1  0.521980  0.603482  0.248554  1
  Rh  Rh35  1  0.643603  0.979075  0.456873  1
