# generated using pymatgen
data_Ho8Hf5Si16W7
_symmetry_space_group_name_H-M   'P 1'
_cell_length_a   6.80861166
_cell_length_b   7.03195304
_cell_length_c   13.37539902
_cell_angle_alpha   89.93490747
_cell_angle_beta   90.04975157
_cell_angle_gamma   89.87247147
_symmetry_Int_Tables_number   1
_chemical_formula_structural   Ho8Hf5Si16W7
_chemical_formula_sum   'Ho8 Hf5 Si16 W7'
_cell_volume   640.38293792
_cell_formula_units_Z   1
loop_
 _symmetry_equiv_pos_site_id
 _symmetry_equiv_pos_as_xyz
  1  'x, y, z'
loop_
 _atom_site_type_symbol
 _atom_site_label
 _atom_site_symmetry_multiplicity
 _atom_site_fract_x
 _atom_site_fract_y
 _atom_site_fract_z
 _atom_site_occupancy
  Ho  Ho0  1  0.502554  0.671771  0.597859  1
  Ho  Ho1  1  0.002466  0.828580  0.905898  1
  Ho  Ho2  1  0.497367  0.327064  0.092903  1
  Ho  Ho3  1  0.996139  0.173607  0.403924  1
  Ho  Ho4  1  0.497777  0.328355  0.403392  1
  Ho  Ho5  1  0.996586  0.173993  0.094985  1
  Ho  Ho6  1  0.502875  0.673422  0.903488  1
  Ho  Ho7  1  0.003195  0.828232  0.596758  1
  Hf  Hf8  1  0.664640  0.173104  0.626299  1
  Hf  Hf9  1  0.162926  0.329897  0.875551  1
  Hf  Hf10  1  0.337745  0.829276  0.123336  1
  Hf  Hf11  1  0.834872  0.669256  0.373969  1
  Hf  Hf12  1  0.330074  0.824851  0.373502  1
  Si  Si13  1  0.664463  0.966152  0.456689  1
  Si  Si14  1  0.153767  0.535657  0.045884  1
  Si  Si15  1  0.346796  0.035869  0.953239  1
  Si  Si16  1  0.845077  0.464729  0.546836  1
  Si  Si17  1  0.328452  0.042449  0.544338  1
  Si  Si18  1  0.828192  0.460148  0.959340  1
  Si  Si19  1  0.672219  0.960982  0.039675  1
  Si  Si20  1  0.167918  0.532555  0.465505  1
  Si  Si21  1  0.466205  0.380133  0.752928  1
  Si  Si22  1  0.966201  0.119143  0.749811  1
  Si  Si23  1  0.538060  0.614516  0.247164  1
  Si  Si24  1  0.028661  0.879072  0.245235  1
  Si  Si25  1  0.702982  0.869010  0.750923  1
  Si  Si26  1  0.201355  0.633258  0.750416  1
  Si  Si27  1  0.294961  0.137014  0.249007  1
  Si  Si28  1  0.797929  0.366177  0.247624  1
  W  W29  1  0.826475  0.669981  0.123112  1
  W  W30  1  0.672624  0.170567  0.874055  1
  W  W31  1  0.169834  0.328985  0.630155  1
  W  W32  1  0.838912  0.491965  0.750912  1
  W  W33  1  0.339740  0.010809  0.751439  1
  W  W34  1  0.160191  0.507141  0.246733  1
  W  W35  1  0.659769  0.992284  0.247113  1
