# generated using pymatgen
data_Ce5PPb3
_symmetry_space_group_name_H-M   'P 1'
_cell_length_a   9.54323400
_cell_length_b   9.54323443
_cell_length_c   6.64574600
_cell_angle_alpha   90.00000000
_cell_angle_beta   90.00000000
_cell_angle_gamma   120.00000543
_symmetry_Int_Tables_number   1
_chemical_formula_structural   Ce5PPb3
_chemical_formula_sum   'Ce10 P2 Pb6'
_cell_volume   524.16197465
_cell_formula_units_Z   2
loop_
 _symmetry_equiv_pos_site_id
 _symmetry_equiv_pos_as_xyz
  1  'x, y, z'
loop_
 _atom_site_type_symbol
 _atom_site_label
 _atom_site_symmetry_multiplicity
 _atom_site_fract_x
 _atom_site_fract_y
 _atom_site_fract_z
 _atom_site_occupancy
  Ce  Ce0  1  0.243033  0.243033  0.748198  1
  Ce  Ce1  1  0.756967  0.756967  0.251802  1
  Ce  Ce2  1  0.243033  0.000000  0.251802  1
  Ce  Ce3  1  0.756967  0.000000  0.748198  1
  Ce  Ce4  1  0.333333  0.666667  0.500000  1
  Ce  Ce5  1  0.666667  0.333333  0.500000  1
  Ce  Ce6  1  0.000000  0.243033  0.251802  1
  Ce  Ce7  1  0.000000  0.756967  0.748198  1
  Ce  Ce8  1  0.333333  0.666667  0.000000  1
  Ce  Ce9  1  0.666667  0.333333  0.000000  1
  P  P10  1  0.000000  0.000000  0.500000  1
  P  P11  1  0.000000  0.000000  0.000000  1
  Pb  Pb12  1  0.392806  0.392806  0.249695  1
  Pb  Pb13  1  0.607194  0.607194  0.750305  1
  Pb  Pb14  1  0.000000  0.392806  0.750305  1
  Pb  Pb15  1  0.607194  0.000000  0.249695  1
  Pb  Pb16  1  0.392806  0.000000  0.750305  1
  Pb  Pb17  1  0.000000  0.607194  0.249695  1
