# generated using pymatgen
data_TbSm3(OsO4)4
_symmetry_space_group_name_H-M   'P 1'
_cell_length_a   5.45278465
_cell_length_b   7.72988392
_cell_length_c   7.52958098
_cell_angle_alpha   79.34244858
_cell_angle_beta   89.00479061
_cell_angle_gamma   86.36510648
_symmetry_Int_Tables_number   1
_chemical_formula_structural   TbSm3(OsO4)4
_chemical_formula_sum   'Tb1 Sm3 Os4 O16'
_cell_volume   311.26011618
_cell_formula_units_Z   1
loop_
 _symmetry_equiv_pos_site_id
 _symmetry_equiv_pos_as_xyz
  1  'x, y, z'
loop_
 _atom_site_type_symbol
 _atom_site_label
 _atom_site_symmetry_multiplicity
 _atom_site_fract_x
 _atom_site_fract_y
 _atom_site_fract_z
 _atom_site_occupancy
  Tb  Tb0  1  0.694091  0.325240  0.399248  1
  Sm  Sm1  1  0.304627  0.676318  0.598421  1
  Sm  Sm2  1  0.235871  0.622271  0.107736  1
  Sm  Sm3  1  0.762840  0.375706  0.891994  1
  Os  Os4  1  0.783281  0.836630  0.798666  1
  Os  Os5  1  0.743269  0.836744  0.293178  1
  Os  Os6  1  0.255335  0.163959  0.705777  1
  Os  Os7  1  0.215154  0.163424  0.202395  1
  O  O8  1  0.091480  0.942341  0.707028  1
  O  O9  1  0.439661  0.964072  0.212515  1
  O  O10  1  0.665964  0.826743  0.552706  1
  O  O11  1  0.870464  0.828809  0.049609  1
  O  O12  1  0.527046  0.664856  0.878175  1
  O  O13  1  0.005225  0.612452  0.823118  1
  O  O14  1  0.044745  0.702551  0.365139  1
  O  O15  1  0.556505  0.612859  0.325223  1
  O  O16  1  0.447629  0.384417  0.673053  1
  O  O17  1  0.954081  0.298356  0.628936  1
  O  O18  1  0.993046  0.386126  0.181820  1
  O  O19  1  0.474585  0.334191  0.124711  1
  O  O20  1  0.129613  0.174284  0.949824  1
  O  O21  1  0.341911  0.172618  0.447313  1
  O  O22  1  0.557964  0.035495  0.788502  1
  O  O23  1  0.905612  0.059536  0.294914  1
