# generated using pymatgen
data_Hf7Co16ReP12
_symmetry_space_group_name_H-M   'P 1'
_cell_length_a   11.98359990
_cell_length_b   11.98359871
_cell_length_c   3.64265200
_cell_angle_alpha   90.00000000
_cell_angle_beta   90.00000000
_cell_angle_gamma   120.11990664
_symmetry_Int_Tables_number   1
_chemical_formula_structural   Hf7Co16ReP12
_chemical_formula_sum   'Hf7 Co16 Re1 P12'
_cell_volume   452.47737029
_cell_formula_units_Z   1
loop_
 _symmetry_equiv_pos_site_id
 _symmetry_equiv_pos_as_xyz
  1  'x, y, z'
loop_
 _atom_site_type_symbol
 _atom_site_label
 _atom_site_symmetry_multiplicity
 _atom_site_fract_x
 _atom_site_fract_y
 _atom_site_fract_z
 _atom_site_occupancy
  Hf  Hf0  1  0.819596  0.819596  0.500000  1
  Hf  Hf1  1  0.998622  0.174186  0.500000  1
  Hf  Hf2  1  0.556640  0.000431  0.000000  1
  Hf  Hf3  1  0.334421  0.667794  0.000000  1
  Hf  Hf4  1  0.667794  0.334421  0.000000  1
  Hf  Hf5  1  0.000431  0.556640  0.000000  1
  Hf  Hf6  1  0.174186  0.998622  0.500000  1
  Co  Co7  1  0.625539  0.816509  0.000000  1
  Co  Co8  1  0.372952  0.198101  0.000000  1
  Co  Co9  1  0.000172  0.721989  0.500000  1
  Co  Co10  1  0.281075  0.281075  0.500000  1
  Co  Co11  1  0.875610  0.355851  0.500000  1
  Co  Co12  1  0.721989  0.000172  0.500000  1
  Co  Co13  1  0.816509  0.625539  0.000000  1
  Co  Co14  1  0.180045  0.808889  0.000000  1
  Co  Co15  1  0.355851  0.875610  0.500000  1
  Co  Co16  1  0.131607  0.483276  0.500000  1
  Co  Co17  1  0.640317  0.513633  0.500000  1
  Co  Co18  1  0.999961  0.999961  0.000000  1
  Co  Co19  1  0.513633  0.640317  0.500000  1
  Co  Co20  1  0.483276  0.131607  0.500000  1
  Co  Co21  1  0.198101  0.372952  0.000000  1
  Co  Co22  1  0.808889  0.180045  0.000000  1
  Re  Re23  1  0.448369  0.448369  0.000000  1
  P  P24  1  0.004294  0.347403  0.000000  1
  P  P25  1  0.825725  0.516618  0.500000  1
  P  P26  1  0.691892  0.174454  0.500000  1
  P  P27  1  0.175276  0.175276  0.000000  1
  P  P28  1  0.642589  0.642589  0.000000  1
  P  P29  1  0.823200  0.997117  0.000000  1
  P  P30  1  0.516618  0.825725  0.500000  1
  P  P31  1  0.174454  0.691892  0.500000  1
  P  P32  1  0.347403  0.004294  0.000000  1
  P  P33  1  0.480657  0.315190  0.500000  1
  P  P34  1  0.997117  0.823200  0.000000  1
  P  P35  1  0.315190  0.480657  0.500000  1
