# generated using pymatgen
data_Yb7Lu(Ge4Mo3)4
_symmetry_space_group_name_H-M   'P 1'
_cell_length_a   6.83227211
_cell_length_b   7.02314409
_cell_length_c   13.21595059
_cell_angle_alpha   90.08993548
_cell_angle_beta   90.01606407
_cell_angle_gamma   90.17129054
_symmetry_Int_Tables_number   1
_chemical_formula_structural   Yb7Lu(Ge4Mo3)4
_chemical_formula_sum   'Yb7 Lu1 Ge16 Mo12'
_cell_volume   634.15094794
_cell_formula_units_Z   1
loop_
 _symmetry_equiv_pos_site_id
 _symmetry_equiv_pos_as_xyz
  1  'x, y, z'
loop_
 _atom_site_type_symbol
 _atom_site_label
 _atom_site_symmetry_multiplicity
 _atom_site_fract_x
 _atom_site_fract_y
 _atom_site_fract_z
 _atom_site_occupancy
  Yb  Yb0  1  0.492566  0.671303  0.589512  1
  Yb  Yb1  1  0.992390  0.828846  0.910447  1
  Yb  Yb2  1  0.507488  0.328862  0.090006  1
  Yb  Yb3  1  0.007139  0.173167  0.409108  1
  Yb  Yb4  1  0.506640  0.327707  0.410122  1
  Yb  Yb5  1  0.007171  0.172033  0.089890  1
  Yb  Yb6  1  0.492498  0.671044  0.910341  1
  Lu  Lu7  1  0.991137  0.824820  0.592052  1
  Ge  Ge8  1  0.672099  0.956621  0.454916  1
  Ge  Ge9  1  0.170649  0.544461  0.045414  1
  Ge  Ge10  1  0.329905  0.045185  0.954375  1
  Ge  Ge11  1  0.828509  0.454550  0.544806  1
  Ge  Ge12  1  0.327059  0.043528  0.545142  1
  Ge  Ge13  1  0.829440  0.455050  0.954368  1
  Ge  Ge14  1  0.670220  0.955230  0.045626  1
  Ge  Ge15  1  0.171783  0.544273  0.455017  1
  Ge  Ge16  1  0.467106  0.378200  0.748888  1
  Ge  Ge17  1  0.965999  0.121276  0.750010  1
  Ge  Ge18  1  0.534100  0.620062  0.250491  1
  Ge  Ge19  1  0.033953  0.881509  0.249650  1
  Ge  Ge20  1  0.688709  0.852355  0.750621  1
  Ge  Ge21  1  0.191833  0.646536  0.750995  1
  Ge  Ge22  1  0.309119  0.147321  0.249930  1
  Ge  Ge23  1  0.808684  0.354100  0.250156  1
  Mo  Mo24  1  0.664108  0.160045  0.627914  1
  Mo  Mo25  1  0.162127  0.337049  0.870179  1
  Mo  Mo26  1  0.338629  0.836960  0.129165  1
  Mo  Mo27  1  0.840401  0.665367  0.372596  1
  Mo  Mo28  1  0.337919  0.836861  0.371321  1
  Mo  Mo29  1  0.838848  0.663446  0.129422  1
  Mo  Mo30  1  0.662067  0.162923  0.870532  1
  Mo  Mo31  1  0.161870  0.337357  0.628013  1
  Mo  Mo32  1  0.837944  0.487124  0.748702  1
  Mo  Mo33  1  0.336386  0.013513  0.749008  1
  Mo  Mo34  1  0.161832  0.515785  0.250587  1
  Mo  Mo35  1  0.661670  0.985530  0.250678  1
