# generated using pymatgen
data_Ca6TmTh(Si3Pd)4
_symmetry_space_group_name_H-M   'P 1'
_cell_length_a   8.26026000
_cell_length_b   8.26026000
_cell_length_c   8.30582900
_cell_angle_alpha   90.00000000
_cell_angle_beta   90.00000000
_cell_angle_gamma   120.00000001
_symmetry_Int_Tables_number   1
_chemical_formula_structural   Ca6TmTh(Si3Pd)4
_chemical_formula_sum   'Ca6 Tm1 Th1 Si12 Pd4'
_cell_volume   490.79604231
_cell_formula_units_Z   1
loop_
 _symmetry_equiv_pos_site_id
 _symmetry_equiv_pos_as_xyz
  1  'x, y, z'
loop_
 _atom_site_type_symbol
 _atom_site_label
 _atom_site_symmetry_multiplicity
 _atom_site_fract_x
 _atom_site_fract_y
 _atom_site_fract_z
 _atom_site_occupancy
  Ca  Ca0  1  0.501189  0.002377  0.250000  1
  Ca  Ca1  1  0.498865  0.997730  0.750000  1
  Ca  Ca2  1  0.997623  0.498811  0.250000  1
  Ca  Ca3  1  0.002270  0.501135  0.750000  1
  Ca  Ca4  1  0.501189  0.498811  0.250000  1
  Ca  Ca5  1  0.498865  0.501135  0.750000  1
  Tm  Tm6  1  0.000000  0.000000  0.750000  1
  Th  Th7  1  0.000000  0.000000  0.250000  1
  Si  Si8  1  0.164683  0.329365  0.997839  1
  Si  Si9  1  0.835356  0.670713  0.995536  1
  Si  Si10  1  0.670635  0.835317  0.997839  1
  Si  Si11  1  0.835356  0.670713  0.504464  1
  Si  Si12  1  0.329287  0.164644  0.995536  1
  Si  Si13  1  0.164683  0.329365  0.502161  1
  Si  Si14  1  0.164683  0.835317  0.997839  1
  Si  Si15  1  0.329287  0.164644  0.504464  1
  Si  Si16  1  0.835356  0.164644  0.995536  1
  Si  Si17  1  0.670635  0.835317  0.502161  1
  Si  Si18  1  0.835356  0.164644  0.504464  1
  Si  Si19  1  0.164683  0.835317  0.502161  1
  Pd  Pd20  1  0.333333  0.666667  0.002704  1
  Pd  Pd21  1  0.666667  0.333333  0.996581  1
  Pd  Pd22  1  0.666667  0.333333  0.503419  1
  Pd  Pd23  1  0.333333  0.666667  0.497296  1
