# generated using pymatgen
data_Y2Er2CrOsC4
_symmetry_space_group_name_H-M   'P 1'
_cell_length_a   5.04828000
_cell_length_b   6.48343622
_cell_length_c   9.75404518
_cell_angle_alpha   90.24504696
_cell_angle_beta   90.00000000
_cell_angle_gamma   90.00000000
_symmetry_Int_Tables_number   1
_chemical_formula_structural   Y2Er2CrOsC4
_chemical_formula_sum   'Y4 Er4 Cr2 Os2 C8'
_cell_volume   319.24894344
_cell_formula_units_Z   2
loop_
 _symmetry_equiv_pos_site_id
 _symmetry_equiv_pos_as_xyz
  1  'x, y, z'
loop_
 _atom_site_type_symbol
 _atom_site_label
 _atom_site_symmetry_multiplicity
 _atom_site_fract_x
 _atom_site_fract_y
 _atom_site_fract_z
 _atom_site_occupancy
  Y  Y0  1  0.250000  0.530600  0.215140  1
  Y  Y1  1  0.750000  0.469400  0.784860  1
  Y  Y2  1  0.750000  0.972949  0.715989  1
  Y  Y3  1  0.250000  0.027051  0.284011  1
  Er  Er4  1  0.250000  0.681623  0.558939  1
  Er  Er5  1  0.750000  0.318377  0.441061  1
  Er  Er6  1  0.750000  0.823024  0.054773  1
  Er  Er7  1  0.250000  0.176976  0.945227  1
  Cr  Cr8  1  0.250000  0.726528  0.861987  1
  Cr  Cr9  1  0.750000  0.273472  0.138013  1
  Os  Os10  1  0.750000  0.774344  0.362381  1
  Os  Os11  1  0.250000  0.225656  0.637619  1
  C  C12  1  0.250000  0.464652  0.764021  1
  C  C13  1  0.750000  0.535348  0.235979  1
  C  C14  1  0.750000  0.045725  0.256132  1
  C  C15  1  0.250000  0.954275  0.743868  1
  C  C16  1  0.250000  0.815430  0.039439  1
  C  C17  1  0.750000  0.184570  0.960561  1
  C  C18  1  0.750000  0.677002  0.547736  1
  C  C19  1  0.250000  0.322998  0.452264  1
