# generated using pymatgen
data_Ba4Pt6ClO18
_symmetry_space_group_name_H-M   'P 1'
_cell_length_a   8.33842106
_cell_length_b   8.33800752
_cell_length_c   8.33823302
_cell_angle_alpha   109.47579526
_cell_angle_beta   109.47500823
_cell_angle_gamma   109.46068345
_symmetry_Int_Tables_number   1
_chemical_formula_structural   Ba4Pt6ClO18
_chemical_formula_sum   'Ba4 Pt6 Cl1 O18'
_cell_volume   446.28253441
_cell_formula_units_Z   1
loop_
 _symmetry_equiv_pos_site_id
 _symmetry_equiv_pos_as_xyz
  1  'x, y, z'
loop_
 _atom_site_type_symbol
 _atom_site_label
 _atom_site_symmetry_multiplicity
 _atom_site_fract_x
 _atom_site_fract_y
 _atom_site_fract_z
 _atom_site_occupancy
  Ba  Ba0  1  0.000206  0.000294  0.369136  1
  Ba  Ba1  1  0.630878  0.630982  0.631264  1
  Ba  Ba2  1  0.999904  0.368886  0.999864  1
  Ba  Ba3  1  0.368981  0.000174  0.999932  1
  Pt  Pt4  1  0.500070  0.657258  0.157409  1
  Pt  Pt5  1  0.342824  0.842822  0.500081  1
  Pt  Pt6  1  0.842589  0.499827  0.342389  1
  Pt  Pt7  1  0.500020  0.342773  0.842863  1
  Pt  Pt8  1  0.157281  0.499803  0.657035  1
  Pt  Pt9  1  0.657261  0.157283  0.500103  1
  Cl  Cl10  1  0.999974  0.000123  0.000065  1
  O  O11  1  0.642997  0.953854  0.273272  1
  O  O12  1  0.369772  0.726822  0.680607  1
  O  O13  1  0.689091  0.319342  0.046000  1
  O  O14  1  0.680448  0.369733  0.726891  1
  O  O15  1  0.046248  0.689272  0.319411  1
  O  O16  1  0.273245  0.642897  0.953656  1
  O  O17  1  0.319528  0.046369  0.689245  1
  O  O18  1  0.953790  0.273185  0.642978  1
  O  O19  1  0.726840  0.680506  0.369813  1
  O  O20  1  0.357001  0.630231  0.310895  1
  O  O21  1  0.630191  0.310837  0.357017  1
  O  O22  1  0.310964  0.356967  0.630325  1
  O  O23  1  0.637066  0.637047  0.000037  1
  O  O24  1  0.637119  0.000069  0.637239  1
  O  O25  1  0.999914  0.362827  0.362695  1
  O  O26  1  0.362959  0.000122  0.363046  1
  O  O27  1  0.999924  0.636836  0.636737  1
  O  O28  1  0.362915  0.362859  0.999995  1
