# generated using pymatgen
data_Tb4Al6Cu5Si4Ag
_symmetry_space_group_name_H-M   'P 1'
_cell_length_a   8.30098080
_cell_length_b   8.30098016
_cell_length_c   8.30098067
_cell_angle_alpha   139.48562852
_cell_angle_beta   100.15311455
_cell_angle_gamma   93.63945037
_symmetry_Int_Tables_number   1
_chemical_formula_structural   Tb4Al6Cu5Si4Ag
_chemical_formula_sum   'Tb4 Al6 Cu5 Si4 Ag1'
_cell_volume   347.88671892
_cell_formula_units_Z   1
loop_
 _symmetry_equiv_pos_site_id
 _symmetry_equiv_pos_as_xyz
  1  'x, y, z'
loop_
 _atom_site_type_symbol
 _atom_site_label
 _atom_site_symmetry_multiplicity
 _atom_site_fract_x
 _atom_site_fract_y
 _atom_site_fract_z
 _atom_site_occupancy
  Tb  Tb0  1  0.623213  0.876515  0.750179  1
  Tb  Tb1  1  0.376787  0.126966  0.253302  1
  Tb  Tb2  1  0.873663  0.623485  0.246698  1
  Tb  Tb3  1  0.126337  0.373034  0.749821  1
  Al  Al4  1  0.000000  0.250000  0.250000  1
  Al  Al5  1  0.000000  0.750000  0.750000  1
  Al  Al6  1  0.248629  0.498629  0.250000  1
  Al  Al7  1  0.751371  0.001371  0.250000  1
  Al  Al8  1  0.751619  0.501619  0.750000  1
  Al  Al9  1  0.248381  0.998381  0.750000  1
  Cu  Cu10  1  0.987451  0.124462  0.861612  1
  Cu  Cu11  1  0.500000  0.750000  0.250000  1
  Cu  Cu12  1  0.262850  0.625839  0.638388  1
  Cu  Cu13  1  0.737150  0.375538  0.362989  1
  Cu  Cu14  1  0.012549  0.874161  0.137011  1
  Si  Si15  1  0.477795  0.633680  0.863489  1
  Si  Si16  1  0.770190  0.114306  0.636511  1
  Si  Si17  1  0.229810  0.866320  0.344116  1
  Si  Si18  1  0.522205  0.385694  0.155884  1
  Ag  Ag19  1  0.500000  0.250000  0.750000  1
