# generated using pymatgen
data_NdCrF7
_symmetry_space_group_name_H-M   'P 1'
_cell_length_a   5.61565200
_cell_length_b   9.05862923
_cell_length_c   12.06472857
_cell_angle_alpha   62.27845023
_cell_angle_beta   90.00000000
_cell_angle_gamma   90.00000000
_symmetry_Int_Tables_number   1
_chemical_formula_structural   NdCrF7
_chemical_formula_sum   'Nd4 Cr4 F28'
_cell_volume   543.28888592
_cell_formula_units_Z   4
loop_
 _symmetry_equiv_pos_site_id
 _symmetry_equiv_pos_as_xyz
  1  'x, y, z'
loop_
 _atom_site_type_symbol
 _atom_site_label
 _atom_site_symmetry_multiplicity
 _atom_site_fract_x
 _atom_site_fract_y
 _atom_site_fract_z
 _atom_site_occupancy
  Nd  Nd0  1  0.758542  0.807122  0.266886  1
  Nd  Nd1  1  0.258542  0.192878  0.233114  1
  Nd  Nd2  1  0.241458  0.192878  0.733114  1
  Nd  Nd3  1  0.741458  0.807122  0.766886  1
  Cr  Cr4  1  0.244274  0.726338  0.543257  1
  Cr  Cr5  1  0.744274  0.273662  0.956743  1
  Cr  Cr6  1  0.755726  0.273662  0.456743  1
  Cr  Cr7  1  0.255726  0.726338  0.043257  1
  F  F8  1  0.969252  0.714890  0.459015  1
  F  F9  1  0.469252  0.285110  0.040985  1
  F  F10  1  0.030748  0.285110  0.540985  1
  F  F11  1  0.530748  0.714890  0.959015  1
  F  F12  1  0.059316  0.708457  0.925588  1
  F  F13  1  0.559316  0.291543  0.574412  1
  F  F14  1  0.940684  0.291543  0.074412  1
  F  F15  1  0.440684  0.708457  0.425588  1
  F  F16  1  0.734367  0.503283  0.864303  1
  F  F17  1  0.234367  0.496717  0.635697  1
  F  F18  1  0.265633  0.496717  0.135697  1
  F  F19  1  0.765633  0.503283  0.364303  1
  F  F20  1  0.739970  0.045104  0.045694  1
  F  F21  1  0.239970  0.954896  0.454306  1
  F  F22  1  0.260030  0.954896  0.954306  1
  F  F23  1  0.760030  0.045104  0.545694  1
  F  F24  1  0.050753  0.742209  0.664559  1
  F  F25  1  0.550753  0.257791  0.835441  1
  F  F26  1  0.949247  0.257791  0.335441  1
  F  F27  1  0.449247  0.742209  0.164559  1
  F  F28  1  0.012447  0.268636  0.867426  1
  F  F29  1  0.512447  0.731364  0.632574  1
  F  F30  1  0.987553  0.731364  0.132574  1
  F  F31  1  0.487553  0.268636  0.367426  1
  F  F32  1  0.091517  0.968087  0.228919  1
  F  F33  1  0.591517  0.031913  0.271081  1
  F  F34  1  0.908483  0.031913  0.771081  1
  F  F35  1  0.408483  0.968087  0.728919  1
