# generated using pymatgen
data_Pr9Nd(Pb3Br)2
_symmetry_space_group_name_H-M   'P 1'
_cell_length_a   9.68537800
_cell_length_b   9.68537816
_cell_length_c   6.96019900
_cell_angle_alpha   90.00000000
_cell_angle_beta   90.00000000
_cell_angle_gamma   120.00000629
_symmetry_Int_Tables_number   1
_chemical_formula_structural   Pr9Nd(Pb3Br)2
_chemical_formula_sum   'Pr9 Nd1 Pb6 Br2'
_cell_volume   565.43855513
_cell_formula_units_Z   1
loop_
 _symmetry_equiv_pos_site_id
 _symmetry_equiv_pos_as_xyz
  1  'x, y, z'
loop_
 _atom_site_type_symbol
 _atom_site_label
 _atom_site_symmetry_multiplicity
 _atom_site_fract_x
 _atom_site_fract_y
 _atom_site_fract_z
 _atom_site_occupancy
  Pr  Pr0  1  0.265734  0.000027  0.250055  1
  Pr  Pr1  1  0.734293  0.000027  0.749945  1
  Pr  Pr2  1  0.999973  0.265707  0.250055  1
  Pr  Pr3  1  0.999973  0.734266  0.749945  1
  Pr  Pr4  1  0.734293  0.734266  0.250055  1
  Pr  Pr5  1  0.265734  0.265707  0.749945  1
  Pr  Pr6  1  0.333333  0.666667  0.000000  1
  Pr  Pr7  1  0.666667  0.333333  0.000000  1
  Pr  Pr8  1  0.666667  0.333333  0.500000  1
  Nd  Nd9  1  0.333333  0.666667  0.500000  1
  Pb  Pb10  1  0.612508  0.999866  0.250188  1
  Pb  Pb11  1  0.387358  0.999866  0.749812  1
  Pb  Pb12  1  0.000134  0.612642  0.250188  1
  Pb  Pb13  1  0.000134  0.387492  0.749812  1
  Pb  Pb14  1  0.387358  0.387492  0.250188  1
  Pb  Pb15  1  0.612508  0.612642  0.749812  1
  Br  Br16  1  0.000000  0.000000  0.000000  1
  Br  Br17  1  0.000000  0.000000  0.500000  1
