# generated using pymatgen
data_Tb11CeTc3Ir
_symmetry_space_group_name_H-M   'P 1'
_cell_length_a   6.35184085
_cell_length_b   7.37463382
_cell_length_c   9.30200600
_cell_angle_alpha   90.00000000
_cell_angle_beta   90.00000000
_cell_angle_gamma   91.21007283
_symmetry_Int_Tables_number   1
_chemical_formula_structural   Tb11CeTc3Ir
_chemical_formula_sum   'Tb11 Ce1 Tc3 Ir1'
_cell_volume   435.63204563
_cell_formula_units_Z   1
loop_
 _symmetry_equiv_pos_site_id
 _symmetry_equiv_pos_as_xyz
  1  'x, y, z'
loop_
 _atom_site_type_symbol
 _atom_site_label
 _atom_site_symmetry_multiplicity
 _atom_site_fract_x
 _atom_site_fract_y
 _atom_site_fract_z
 _atom_site_occupancy
  Tb  Tb0  1  0.332610  0.674306  0.064077  1
  Tb  Tb1  1  0.162303  0.179172  0.436430  1
  Tb  Tb2  1  0.669612  0.320717  0.564778  1
  Tb  Tb3  1  0.831463  0.824985  0.933834  1
  Tb  Tb4  1  0.669612  0.320717  0.935222  1
  Tb  Tb5  1  0.831463  0.824985  0.566166  1
  Tb  Tb6  1  0.332610  0.674306  0.435923  1
  Tb  Tb7  1  0.162303  0.179172  0.063570  1
  Tb  Tb8  1  0.623806  0.040768  0.250000  1
  Tb  Tb9  1  0.135525  0.458861  0.750000  1
  Tb  Tb10  1  0.367932  0.960322  0.750000  1
  Ce  Ce11  1  0.857930  0.561573  0.250000  1
  Tc  Tc12  1  0.016604  0.859097  0.250000  1
  Tc  Tc13  1  0.498350  0.391993  0.250000  1
  Tc  Tc14  1  0.964882  0.113966  0.750000  1
  Ir  Ir15  1  0.542997  0.615061  0.750000  1
