# generated using pymatgen
data_Th2Co7SiB2
_symmetry_space_group_name_H-M   'P 1'
_cell_length_a   5.12576300
_cell_length_b   5.12536353
_cell_length_c   6.73588200
_cell_angle_alpha   90.00000000
_cell_angle_beta   90.00000000
_cell_angle_gamma   120.00408048
_symmetry_Int_Tables_number   1
_chemical_formula_structural   Th2Co7SiB2
_chemical_formula_sum   'Th2 Co7 Si1 B2'
_cell_volume   153.24645595
_cell_formula_units_Z   1
loop_
 _symmetry_equiv_pos_site_id
 _symmetry_equiv_pos_as_xyz
  1  'x, y, z'
loop_
 _atom_site_type_symbol
 _atom_site_label
 _atom_site_symmetry_multiplicity
 _atom_site_fract_x
 _atom_site_fract_y
 _atom_site_fract_z
 _atom_site_occupancy
  Th  Th0  1  0.999995  0.000041  0.000000  1
  Th  Th1  1  0.999991  0.000003  0.500000  1
  Co  Co2  1  0.666582  0.333218  0.000000  1
  Co  Co3  1  0.500034  0.000094  0.288697  1
  Co  Co4  1  0.500038  0.499951  0.288642  1
  Co  Co5  1  0.999886  0.499950  0.288636  1
  Co  Co6  1  0.500034  0.000094  0.711303  1
  Co  Co7  1  0.500038  0.499951  0.711357  1
  Co  Co8  1  0.999886  0.499950  0.711363  1
  Si  Si9  1  0.333348  0.666751  0.000000  1
  B  B10  1  0.333307  0.666654  0.500000  1
  B  B11  1  0.666662  0.333347  0.500000  1
