# generated using pymatgen
data_Co4GeAs3
_symmetry_space_group_name_H-M   'P 1'
_cell_length_a   5.26278147
_cell_length_b   5.83761658
_cell_length_c   3.47899900
_cell_angle_alpha   90.00290252
_cell_angle_beta   90.00116598
_cell_angle_gamma   89.87072272
_symmetry_Int_Tables_number   1
_chemical_formula_structural   Co4GeAs3
_chemical_formula_sum   'Co4 Ge1 As3'
_cell_volume   106.88188437
_cell_formula_units_Z   1
loop_
 _symmetry_equiv_pos_site_id
 _symmetry_equiv_pos_as_xyz
  1  'x, y, z'
loop_
 _atom_site_type_symbol
 _atom_site_label
 _atom_site_symmetry_multiplicity
 _atom_site_fract_x
 _atom_site_fract_y
 _atom_site_fract_z
 _atom_site_occupancy
  Co  Co0  1  0.495004  0.695493  0.760816  1
  Co  Co1  1  0.000834  0.800425  0.760835  1
  Co  Co2  1  0.002848  0.201376  0.260800  1
  Co  Co3  1  0.500049  0.304779  0.260825  1
  Ge  Ge4  1  0.697084  0.910914  0.260851  1
  As  As5  1  0.306128  0.085025  0.760846  1
  As  As6  1  0.799849  0.411462  0.760687  1
  As  As7  1  0.198209  0.590527  0.260738  1
