# generated using pymatgen
data_TbScTaFe9
_symmetry_space_group_name_H-M   'P 1'
_cell_length_a   8.37785025
_cell_length_b   8.37785037
_cell_length_c   8.37785108
_cell_angle_alpha   34.33463209
_cell_angle_beta   34.33463002
_cell_angle_gamma   34.33462994
_symmetry_Int_Tables_number   1
_chemical_formula_structural   TbScTaFe9
_chemical_formula_sum   'Tb1 Sc1 Ta1 Fe9'
_cell_volume   166.83950008
_cell_formula_units_Z   1
loop_
 _symmetry_equiv_pos_site_id
 _symmetry_equiv_pos_as_xyz
  1  'x, y, z'
loop_
 _atom_site_type_symbol
 _atom_site_label
 _atom_site_symmetry_multiplicity
 _atom_site_fract_x
 _atom_site_fract_y
 _atom_site_fract_z
 _atom_site_occupancy
  Tb  Tb0  1  0.999998  0.999998  0.999998  1
  Sc  Sc1  1  0.856788  0.856788  0.856788  1
  Ta  Ta2  1  0.143911  0.143911  0.143911  1
  Fe  Fe3  1  0.499849  0.499849  0.499849  1
  Fe  Fe4  1  0.333048  0.333048  0.333048  1
  Fe  Fe5  1  0.666989  0.666989  0.666989  1
  Fe  Fe6  1  0.082338  0.587427  0.587427  1
  Fe  Fe7  1  0.587427  0.587427  0.082338  1
  Fe  Fe8  1  0.587427  0.082338  0.587427  1
  Fe  Fe9  1  0.412310  0.917607  0.412310  1
  Fe  Fe10  1  0.917607  0.412310  0.412310  1
  Fe  Fe11  1  0.412310  0.412310  0.917607  1
