# generated using pymatgen
data_Gd12Mg3Cd9C4
_symmetry_space_group_name_H-M   'P 1'
_cell_length_a   9.72812404
_cell_length_b   9.74321553
_cell_length_c   9.76632000
_cell_angle_alpha   119.92148909
_cell_angle_beta   89.90617107
_cell_angle_gamma   120.05029241
_symmetry_Int_Tables_number   1
_chemical_formula_structural   Gd12Mg3Cd9C4
_chemical_formula_sum   'Gd12 Mg3 Cd9 C4'
_cell_volume   655.36839031
_cell_formula_units_Z   1
loop_
 _symmetry_equiv_pos_site_id
 _symmetry_equiv_pos_as_xyz
  1  'x, y, z'
loop_
 _atom_site_type_symbol
 _atom_site_label
 _atom_site_symmetry_multiplicity
 _atom_site_fract_x
 _atom_site_fract_y
 _atom_site_fract_z
 _atom_site_occupancy
  Gd  Gd0  1  0.937489  0.375339  0.187935  1
  Gd  Gd1  1  0.937947  0.750249  0.188483  1
  Gd  Gd2  1  0.312109  0.750289  0.188533  1
  Gd  Gd3  1  0.686427  0.251093  0.437543  1
  Gd  Gd4  1  0.686391  0.872734  0.437115  1
  Gd  Gd5  1  0.064088  0.251147  0.437925  1
  Gd  Gd6  1  0.312884  0.126092  0.561873  1
  Gd  Gd7  1  0.312970  0.748938  0.562015  1
  Gd  Gd8  1  0.936630  0.748814  0.561216  1
  Gd  Gd9  1  0.687143  0.249711  0.812021  1
  Gd  Gd10  1  0.062806  0.626060  0.812795  1
  Gd  Gd11  1  0.062989  0.249695  0.812682  1
  Mg  Mg12  1  0.999952  0.999950  0.000037  1
  Mg  Mg13  1  0.499954  0.000180  0.000258  1
  Mg  Mg14  1  0.500031  0.500106  0.000041  1
  Cd  Cd15  1  0.706565  0.913458  0.119916  1
  Cd  Cd16  1  0.293238  0.086243  0.204702  1
  Cd  Cd17  1  0.293374  0.411949  0.205365  1
  Cd  Cd18  1  0.618551  0.411825  0.205052  1
  Cd  Cd19  1  0.500075  0.499714  0.499681  1
  Cd  Cd20  1  0.381002  0.588118  0.794861  1
  Cd  Cd21  1  0.706846  0.587707  0.794554  1
  Cd  Cd22  1  0.706744  0.913856  0.794933  1
  Cd  Cd23  1  0.293705  0.086835  0.880608  1
  C  C24  1  0.999531  0.499265  0.999005  1
  C  C25  1  0.999772  0.000902  0.500266  1
  C  C26  1  0.501457  0.001079  0.500378  1
  C  C27  1  0.999340  0.498663  0.500213  1
