# generated using pymatgen
data_Cs3ScSe3
_symmetry_space_group_name_H-M   'P 1'
_cell_length_a   14.57228100
_cell_length_b   8.87928805
_cell_length_c   11.62441451
_cell_angle_alpha   52.39784894
_cell_angle_beta   90.00000000
_cell_angle_gamma   90.00000000
_symmetry_Int_Tables_number   1
_chemical_formula_structural   Cs3ScSe3
_chemical_formula_sum   'Cs12 Sc4 Se12'
_cell_volume   1191.64855959
_cell_formula_units_Z   4
loop_
 _symmetry_equiv_pos_site_id
 _symmetry_equiv_pos_as_xyz
  1  'x, y, z'
loop_
 _atom_site_type_symbol
 _atom_site_label
 _atom_site_symmetry_multiplicity
 _atom_site_fract_x
 _atom_site_fract_y
 _atom_site_fract_z
 _atom_site_occupancy
  Cs  Cs0  1  0.924091  0.646862  0.610666  1
  Cs  Cs1  1  0.424091  0.353138  0.889334  1
  Cs  Cs2  1  0.075909  0.353138  0.389334  1
  Cs  Cs3  1  0.575909  0.646862  0.110666  1
  Cs  Cs4  1  0.634482  0.610674  0.520770  1
  Cs  Cs5  1  0.134482  0.389326  0.979230  1
  Cs  Cs6  1  0.365518  0.389326  0.479230  1
  Cs  Cs7  1  0.865518  0.610674  0.020770  1
  Cs  Cs8  1  0.809997  0.134218  0.577435  1
  Cs  Cs9  1  0.309997  0.865782  0.922565  1
  Cs  Cs10  1  0.190003  0.865782  0.422565  1
  Cs  Cs11  1  0.690003  0.134218  0.077435  1
  Sc  Sc12  1  0.557323  0.937696  0.657293  1
  Sc  Sc13  1  0.057323  0.062304  0.842707  1
  Sc  Sc14  1  0.442677  0.062304  0.342707  1
  Sc  Sc15  1  0.942677  0.937696  0.157293  1
  Se  Se16  1  0.106588  0.858825  0.116557  1
  Se  Se17  1  0.606588  0.141175  0.383443  1
  Se  Se18  1  0.893412  0.141175  0.883443  1
  Se  Se19  1  0.393412  0.858825  0.616557  1
  Se  Se20  1  0.045997  0.878019  0.741560  1
  Se  Se21  1  0.545997  0.121981  0.758440  1
  Se  Se22  1  0.954003  0.121981  0.258440  1
  Se  Se23  1  0.454003  0.878019  0.241560  1
  Se  Se24  1  0.663573  0.650645  0.809939  1
  Se  Se25  1  0.163573  0.349355  0.690061  1
  Se  Se26  1  0.336427  0.349355  0.190061  1
  Se  Se27  1  0.836427  0.650645  0.309939  1
