# generated using pymatgen
data_LaNdB2Pd4Pt3Au
_symmetry_space_group_name_H-M   'P 1'
_cell_length_a   5.54704000
_cell_length_b   5.54703815
_cell_length_c   7.72616100
_cell_angle_alpha   90.00000000
_cell_angle_beta   90.00000000
_cell_angle_gamma   119.99999909
_symmetry_Int_Tables_number   1
_chemical_formula_structural   LaNdB2Pd4Pt3Au
_chemical_formula_sum   'La1 Nd1 B2 Pd4 Pt3 Au1'
_cell_volume   205.88127073
_cell_formula_units_Z   1
loop_
 _symmetry_equiv_pos_site_id
 _symmetry_equiv_pos_as_xyz
  1  'x, y, z'
loop_
 _atom_site_type_symbol
 _atom_site_label
 _atom_site_symmetry_multiplicity
 _atom_site_fract_x
 _atom_site_fract_y
 _atom_site_fract_z
 _atom_site_occupancy
  La  La0  1  0.000000  0.000441  0.502101  1
  Nd  Nd1  1  0.000073  0.000069  0.000382  1
  B  B2  1  0.333410  0.659699  0.998727  1
  B  B3  1  0.666614  0.339428  0.998993  1
  Pd  Pd4  1  0.666928  0.333929  0.499406  1
  Pd  Pd5  1  0.500349  0.000480  0.193308  1
  Pd  Pd6  1  0.500034  0.000254  0.805127  1
  Pd  Pd7  1  0.999712  0.499881  0.196607  1
  Pt  Pt8  1  0.998894  0.499418  0.808385  1
  Pt  Pt9  1  0.500709  0.499463  0.194379  1
  Pt  Pt10  1  0.500408  0.499440  0.803717  1
  Au  Au11  1  0.332869  0.667499  0.498869  1
