# generated using pymatgen
data_Ho2U2Ga12Ru
_symmetry_space_group_name_H-M   'P 1'
_cell_length_a   7.48566651
_cell_length_b   7.48566726
_cell_length_c   7.41258090
_cell_angle_alpha   109.37504686
_cell_angle_beta   109.37505364
_cell_angle_gamma   110.05837551
_symmetry_Int_Tables_number   1
_chemical_formula_structural   Ho2U2Ga12Ru
_chemical_formula_sum   'Ho2 U2 Ga12 Ru1'
_cell_volume   318.16968688
_cell_formula_units_Z   1
loop_
 _symmetry_equiv_pos_site_id
 _symmetry_equiv_pos_as_xyz
  1  'x, y, z'
loop_
 _atom_site_type_symbol
 _atom_site_label
 _atom_site_symmetry_multiplicity
 _atom_site_fract_x
 _atom_site_fract_y
 _atom_site_fract_z
 _atom_site_occupancy
  Ho  Ho0  1  0.000000  0.500000  0.000000  1
  Ho  Ho1  1  0.500000  0.000000  0.000000  1
  U  U2  1  0.500000  0.500000  0.500000  1
  U  U3  1  0.000000  0.000000  0.500000  1
  Ga  Ga4  1  0.750000  0.250000  0.500000  1
  Ga  Ga5  1  0.998721  0.709658  0.708379  1
  Ga  Ga6  1  0.290342  0.001279  0.291621  1
  Ga  Ga7  1  0.499630  0.250130  0.749760  1
  Ga  Ga8  1  0.749870  0.500370  0.250240  1
  Ga  Ga9  1  0.250000  0.750000  0.500000  1
  Ga  Ga10  1  0.250130  0.499630  0.749760  1
  Ga  Ga11  1  0.709658  0.998721  0.708379  1
  Ga  Ga12  1  0.500370  0.749870  0.250240  1
  Ga  Ga13  1  0.709235  0.709235  0.000000  1
  Ga  Ga14  1  0.290765  0.290765  0.000000  1
  Ga  Ga15  1  0.001279  0.290342  0.291621  1
  Ru  Ru16  1  0.000000  0.000000  0.000000  1
