# generated using pymatgen
data_Lu4Al15Si3RuRh5
_symmetry_space_group_name_H-M   'P 1'
_cell_length_a   7.50433540
_cell_length_b   7.45207360
_cell_length_c   9.34072563
_cell_angle_alpha   90.02754321
_cell_angle_beta   89.93635468
_cell_angle_gamma   119.79200972
_symmetry_Int_Tables_number   1
_chemical_formula_structural   Lu4Al15Si3RuRh5
_chemical_formula_sum   'Lu4 Al15 Si3 Ru1 Rh5'
_cell_volume   453.32195700
_cell_formula_units_Z   1
loop_
 _symmetry_equiv_pos_site_id
 _symmetry_equiv_pos_as_xyz
  1  'x, y, z'
loop_
 _atom_site_type_symbol
 _atom_site_label
 _atom_site_symmetry_multiplicity
 _atom_site_fract_x
 _atom_site_fract_y
 _atom_site_fract_z
 _atom_site_occupancy
  Lu  Lu0  1  0.993924  0.664397  0.246598  1
  Lu  Lu1  1  0.005910  0.342783  0.755852  1
  Lu  Lu2  1  0.676898  0.002635  0.246853  1
  Lu  Lu3  1  0.316974  0.989479  0.750458  1
  Al  Al4  1  0.127715  0.125737  0.249511  1
  Al  Al5  1  0.871425  0.872232  0.749464  1
  Al  Al6  1  0.338742  0.002159  0.420394  1
  Al  Al7  1  0.001359  0.330873  0.427301  1
  Al  Al8  1  0.665854  0.002548  0.576784  1
  Al  Al9  1  0.662034  0.999757  0.921664  1
  Al  Al10  1  0.341279  0.003706  0.078861  1
  Al  Al11  1  0.332289  0.330335  0.557828  1
  Al  Al12  1  0.663819  0.668625  0.443060  1
  Al  Al13  1  0.664191  0.666565  0.057032  1
  Al  Al14  1  0.337392  0.331041  0.943970  1
  Al  Al15  1  0.338172  0.552608  0.249755  1
  Al  Al16  1  0.661427  0.448170  0.751403  1
  Al  Al17  1  0.550256  0.343505  0.248214  1
  Al  Al18  1  0.454575  0.658671  0.749839  1
  Si  Si19  1  0.000527  0.329145  0.078273  1
  Si  Si20  1  0.994838  0.669316  0.929673  1
  Si  Si21  1  0.998173  0.665438  0.567931  1
  Ru  Ru22  1  0.691499  0.337464  0.001161  1
  Rh  Rh23  1  0.309838  0.663100  0.996574  1
  Rh  Rh24  1  0.318340  0.670820  0.503016  1
  Rh  Rh25  1  0.680772  0.335730  0.499499  1
  Rh  Rh26  1  0.000684  0.000085  0.998777  1
  Rh  Rh27  1  0.001098  0.993071  0.500254  1
