# generated using pymatgen
data_CsThAgS3
_symmetry_space_group_name_H-M   'P 1'
_cell_length_a   4.26152500
_cell_length_b   8.08631999
_cell_length_c   10.80480100
_cell_angle_alpha   90.00000000
_cell_angle_beta   90.00000000
_cell_angle_gamma   74.72203588
_symmetry_Int_Tables_number   1
_chemical_formula_structural   CsThAgS3
_chemical_formula_sum   'Cs2 Th2 Ag2 S6'
_cell_volume   359.17531500
_cell_formula_units_Z   2
loop_
 _symmetry_equiv_pos_site_id
 _symmetry_equiv_pos_as_xyz
  1  'x, y, z'
loop_
 _atom_site_type_symbol
 _atom_site_label
 _atom_site_symmetry_multiplicity
 _atom_site_fract_x
 _atom_site_fract_y
 _atom_site_fract_z
 _atom_site_occupancy
  Cs  Cs0  1  0.739597  0.520808  0.250000  1
  Cs  Cs1  1  0.260402  0.479194  0.750000  1
  Th  Th2  1  0.000000  0.000000  0.000000  1
  Th  Th3  1  0.000000  0.000000  0.500000  1
  Ag  Ag4  1  0.456008  0.087983  0.250000  1
  Ag  Ag5  1  0.543992  0.912017  0.750000  1
  S  S6  1  0.384634  0.230731  0.041158  1
  S  S7  1  0.053919  0.892159  0.250000  1
  S  S8  1  0.384634  0.230731  0.458842  1
  S  S9  1  0.615366  0.769269  0.541159  1
  S  S10  1  0.946080  0.107841  0.750000  1
  S  S11  1  0.615366  0.769269  0.958842  1
