# generated using pymatgen
data_Tm4Lu4B24RhW3
_symmetry_space_group_name_H-M   'P 1'
_cell_length_a   3.56675500
_cell_length_b   9.18231148
_cell_length_c   11.57524281
_cell_angle_alpha   90.16415640
_cell_angle_beta   90.00000000
_cell_angle_gamma   90.00000000
_symmetry_Int_Tables_number   1
_chemical_formula_structural   Tm4Lu4B24RhW3
_chemical_formula_sum   'Tm4 Lu4 B24 Rh1 W3'
_cell_volume   379.09986219
_cell_formula_units_Z   1
loop_
 _symmetry_equiv_pos_site_id
 _symmetry_equiv_pos_as_xyz
  1  'x, y, z'
loop_
 _atom_site_type_symbol
 _atom_site_label
 _atom_site_symmetry_multiplicity
 _atom_site_fract_x
 _atom_site_fract_y
 _atom_site_fract_z
 _atom_site_occupancy
  Tm  Tm0  1  0.500000  0.318248  0.414585  1
  Tm  Tm1  1  0.500000  0.679662  0.588472  1
  Tm  Tm2  1  0.500000  0.178730  0.912690  1
  Tm  Tm3  1  0.500000  0.823851  0.083120  1
  Lu  Lu4  1  0.500000  0.444909  0.128901  1
  Lu  Lu5  1  0.500000  0.555636  0.873210  1
  Lu  Lu6  1  0.500000  0.053943  0.626638  1
  Lu  Lu7  1  0.500000  0.942453  0.371559  1
  B  B8  1  0.000000  0.099123  0.471527  1
  B  B9  1  0.000000  0.895298  0.526569  1
  B  B10  1  0.000000  0.399607  0.973128  1
  B  B11  1  0.000000  0.602495  0.030043  1
  B  B12  1  0.000000  0.130826  0.318910  1
  B  B13  1  0.000000  0.867871  0.682008  1
  B  B14  1  0.000000  0.369451  0.817200  1
  B  B15  1  0.000000  0.632365  0.183710  1
  B  B16  1  0.000000  0.051723  0.065255  1
  B  B17  1  0.000000  0.948883  0.935181  1
  B  B18  1  0.000000  0.449358  0.562993  1
  B  B19  1  0.000000  0.555328  0.433143  1
  B  B20  1  0.000000  0.483634  0.288187  1
  B  B21  1  0.000000  0.522253  0.713010  1
  B  B22  1  0.000000  0.021617  0.785830  1
  B  B23  1  0.000000  0.977149  0.213092  1
  B  B24  1  0.000000  0.253401  0.078862  1
  B  B25  1  0.000000  0.747854  0.922605  1
  B  B26  1  0.000000  0.246222  0.577019  1
  B  B27  1  0.000000  0.749623  0.420223  1
  B  B28  1  0.000000  0.297669  0.238199  1
  B  B29  1  0.000000  0.703783  0.764364  1
  B  B30  1  0.000000  0.204262  0.735630  1
  B  B31  1  0.000000  0.791602  0.264376  1
  Rh  Rh32  1  0.500000  0.639474  0.320070  1
  W  W33  1  0.500000  0.140261  0.181278  1
  W  W34  1  0.500000  0.860511  0.820251  1
  W  W35  1  0.500000  0.360922  0.678163  1
