# generated using pymatgen
data_KYbPS4
_symmetry_space_group_name_H-M   'P 1'
_cell_length_a   6.40545900
_cell_length_b   6.64015600
_cell_length_c   16.71590700
_cell_angle_alpha   90.00000000
_cell_angle_beta   90.00000000
_cell_angle_gamma   90.00000000
_symmetry_Int_Tables_number   1
_chemical_formula_structural   KYbPS4
_chemical_formula_sum   'K4 Yb4 P4 S16'
_cell_volume   710.98180145
_cell_formula_units_Z   4
loop_
 _symmetry_equiv_pos_site_id
 _symmetry_equiv_pos_as_xyz
  1  'x, y, z'
loop_
 _atom_site_type_symbol
 _atom_site_label
 _atom_site_symmetry_multiplicity
 _atom_site_fract_x
 _atom_site_fract_y
 _atom_site_fract_z
 _atom_site_occupancy
  K  K0  1  0.975849  0.250000  0.215022  1
  K  K1  1  0.524151  0.250000  0.715022  1
  K  K2  1  0.024151  0.750000  0.784978  1
  K  K3  1  0.475849  0.750000  0.284978  1
  Yb  Yb4  1  0.209105  0.750000  0.524010  1
  Yb  Yb5  1  0.790895  0.250000  0.475990  1
  Yb  Yb6  1  0.290895  0.750000  0.024010  1
  Yb  Yb7  1  0.709105  0.250000  0.975990  1
  P  P8  1  0.716481  0.750000  0.589322  1
  P  P9  1  0.783519  0.750000  0.089322  1
  P  P10  1  0.216481  0.250000  0.910678  1
  P  P11  1  0.283519  0.250000  0.410678  1
  S  S12  1  0.131977  0.250000  0.028543  1
  S  S13  1  0.462883  0.750000  0.663345  1
  S  S14  1  0.368023  0.250000  0.528543  1
  S  S15  1  0.096004  0.495528  0.389488  1
  S  S16  1  0.403996  0.495528  0.889488  1
  S  S17  1  0.596004  0.995528  0.110512  1
  S  S18  1  0.096004  0.004472  0.389488  1
  S  S19  1  0.903996  0.504472  0.610512  1
  S  S20  1  0.631977  0.750000  0.471457  1
  S  S21  1  0.596004  0.504472  0.110512  1
  S  S22  1  0.868023  0.750000  0.971457  1
  S  S23  1  0.962883  0.250000  0.836655  1
  S  S24  1  0.537117  0.250000  0.336655  1
  S  S25  1  0.403996  0.004472  0.889488  1
  S  S26  1  0.903996  0.995528  0.610512  1
  S  S27  1  0.037117  0.750000  0.163345  1
