# generated using pymatgen
data_Ca8TbYb(Sn3H)2
_symmetry_space_group_name_H-M   'P 1'
_cell_length_a   9.40483249
_cell_length_b   9.40483123
_cell_length_c   9.40237098
_cell_angle_alpha   128.57343271
_cell_angle_beta   128.57343208
_cell_angle_gamma   75.65296617
_symmetry_Int_Tables_number   1
_chemical_formula_structural   Ca8TbYb(Sn3H)2
_chemical_formula_sum   'Ca8 Tb1 Yb1 Sn6 H2'
_cell_volume   494.61902224
_cell_formula_units_Z   1
loop_
 _symmetry_equiv_pos_site_id
 _symmetry_equiv_pos_as_xyz
  1  'x, y, z'
loop_
 _atom_site_type_symbol
 _atom_site_label
 _atom_site_symmetry_multiplicity
 _atom_site_fract_x
 _atom_site_fract_y
 _atom_site_fract_z
 _atom_site_occupancy
  Ca  Ca0  1  0.501135  0.498576  0.999001  1
  Ca  Ca1  1  0.998576  0.001135  0.999001  1
  Ca  Ca2  1  0.008870  0.186474  0.501001  1
  Ca  Ca3  1  0.686474  0.508870  0.501001  1
  Ca  Ca4  1  0.489081  0.989081  0.177534  1
  Ca  Ca5  1  0.809158  0.309158  0.819187  1
  Ca  Ca6  1  0.990790  0.813873  0.500978  1
  Ca  Ca7  1  0.313873  0.490790  0.500978  1
  Tb  Tb8  1  0.190107  0.690107  0.176309  1
  Yb  Yb9  1  0.512867  0.012867  0.827891  1
  Sn  Sn10  1  0.250750  0.259641  0.004772  1
  Sn  Sn11  1  0.759641  0.750750  0.004772  1
  Sn  Sn12  1  0.872995  0.372995  0.247232  1
  Sn  Sn13  1  0.129157  0.629157  0.759907  1
  Sn  Sn14  1  0.366128  0.122600  0.496329  1
  Sn  Sn15  1  0.622600  0.866128  0.496329  1
  H  H16  1  0.250987  0.750987  0.490213  1
  H  H17  1  0.746812  0.246812  0.497564  1
