# generated using pymatgen
data_Ti7Nb3(Sn3B)2
_symmetry_space_group_name_H-M   'P 1'
_cell_length_a   8.15576600
_cell_length_b   8.15576553
_cell_length_c   5.42906000
_cell_angle_alpha   90.00000000
_cell_angle_beta   90.00000000
_cell_angle_gamma   120.00000191
_symmetry_Int_Tables_number   1
_chemical_formula_structural   Ti7Nb3(Sn3B)2
_chemical_formula_sum   'Ti7 Nb3 Sn6 B2'
_cell_volume   312.74095154
_cell_formula_units_Z   1
loop_
 _symmetry_equiv_pos_site_id
 _symmetry_equiv_pos_as_xyz
  1  'x, y, z'
loop_
 _atom_site_type_symbol
 _atom_site_label
 _atom_site_symmetry_multiplicity
 _atom_site_fract_x
 _atom_site_fract_y
 _atom_site_fract_z
 _atom_site_occupancy
  Ti  Ti0  1  0.666667  0.333333  0.998768  1
  Ti  Ti1  1  0.333333  0.666667  0.998768  1
  Ti  Ti2  1  0.333333  0.666667  0.501232  1
  Ti  Ti3  1  0.666667  0.333333  0.501232  1
  Ti  Ti4  1  0.227047  0.227047  0.250000  1
  Ti  Ti5  1  0.772953  0.000000  0.250000  1
  Ti  Ti6  1  0.000000  0.772953  0.250000  1
  Nb  Nb7  1  0.770520  0.770520  0.750000  1
  Nb  Nb8  1  0.229480  0.000000  0.750000  1
  Nb  Nb9  1  0.000000  0.229480  0.750000  1
  Sn  Sn10  1  0.402086  0.402086  0.750000  1
  Sn  Sn11  1  0.597914  0.000000  0.750000  1
  Sn  Sn12  1  0.000000  0.597914  0.750000  1
  Sn  Sn13  1  0.599305  0.599305  0.250000  1
  Sn  Sn14  1  0.400695  0.000000  0.250000  1
  Sn  Sn15  1  0.000000  0.400695  0.250000  1
  B  B16  1  0.000000  0.000000  0.004930  1
  B  B17  1  0.000000  0.000000  0.495070  1
