# generated using pymatgen
data_DyNb9Se16
_symmetry_space_group_name_H-M   'P 1'
_cell_length_a   6.99877100
_cell_length_b   6.99877220
_cell_length_c   13.84273500
_cell_angle_alpha   90.00000000
_cell_angle_beta   90.00000000
_cell_angle_gamma   120.00000851
_symmetry_Int_Tables_number   1
_chemical_formula_structural   DyNb9Se16
_chemical_formula_sum   'Dy1 Nb9 Se16'
_cell_volume   587.21364830
_cell_formula_units_Z   1
loop_
 _symmetry_equiv_pos_site_id
 _symmetry_equiv_pos_as_xyz
  1  'x, y, z'
loop_
 _atom_site_type_symbol
 _atom_site_label
 _atom_site_symmetry_multiplicity
 _atom_site_fract_x
 _atom_site_fract_y
 _atom_site_fract_z
 _atom_site_occupancy
  Dy  Dy0  1  0.000000  0.000000  0.000000  1
  Nb  Nb1  1  0.000000  0.000000  0.259640  1
  Nb  Nb2  1  0.000000  0.000000  0.740360  1
  Nb  Nb3  1  0.506711  0.013423  0.260562  1
  Nb  Nb4  1  0.493289  0.986577  0.739438  1
  Nb  Nb5  1  0.986577  0.493289  0.260562  1
  Nb  Nb6  1  0.013423  0.506711  0.739438  1
  Nb  Nb7  1  0.506711  0.493289  0.260562  1
  Nb  Nb8  1  0.493289  0.506711  0.739438  1
  Nb  Nb9  1  0.000000  0.000000  0.500000  1
  Se  Se10  1  0.333333  0.666667  0.615190  1
  Se  Se11  1  0.666667  0.333333  0.384810  1
  Se  Se12  1  0.666667  0.333333  0.135281  1
  Se  Se13  1  0.333333  0.666667  0.864719  1
  Se  Se14  1  0.169953  0.339905  0.139597  1
  Se  Se15  1  0.830047  0.660095  0.860403  1
  Se  Se16  1  0.660095  0.830047  0.139597  1
  Se  Se17  1  0.831855  0.663710  0.619512  1
  Se  Se18  1  0.339905  0.169953  0.860403  1
  Se  Se19  1  0.168145  0.336290  0.380488  1
  Se  Se20  1  0.169953  0.830047  0.139597  1
  Se  Se21  1  0.336290  0.168145  0.619512  1
  Se  Se22  1  0.830047  0.169953  0.860403  1
  Se  Se23  1  0.663710  0.831855  0.380488  1
  Se  Se24  1  0.831855  0.168145  0.619512  1
  Se  Se25  1  0.168145  0.831855  0.380488  1
