# generated using pymatgen
data_Er2PaGa6Co7Ni2
_symmetry_space_group_name_H-M   'P 1'
_cell_length_a   8.58504673
_cell_length_b   8.58504656
_cell_length_c   4.15799600
_cell_angle_alpha   90.00000000
_cell_angle_beta   90.00000000
_cell_angle_gamma   119.95283258
_symmetry_Int_Tables_number   1
_chemical_formula_structural   Er2PaGa6Co7Ni2
_chemical_formula_sum   'Er2 Pa1 Ga6 Co7 Ni2'
_cell_volume   265.52550078
_cell_formula_units_Z   1
loop_
 _symmetry_equiv_pos_site_id
 _symmetry_equiv_pos_as_xyz
  1  'x, y, z'
loop_
 _atom_site_type_symbol
 _atom_site_label
 _atom_site_symmetry_multiplicity
 _atom_site_fract_x
 _atom_site_fract_y
 _atom_site_fract_z
 _atom_site_occupancy
  Er  Er0  1  0.665797  0.334390  0.500000  1
  Er  Er1  1  0.334390  0.665797  0.500000  1
  Pa  Pa2  1  0.999429  0.999429  0.000000  1
  Ga  Ga3  1  0.493462  0.493462  0.000000  1
  Ga  Ga4  1  0.506252  0.001135  0.000000  1
  Ga  Ga5  1  0.001135  0.506252  0.000000  1
  Ga  Ga6  1  0.719484  0.719484  0.500000  1
  Ga  Ga7  1  0.279972  0.001107  0.500000  1
  Ga  Ga8  1  0.001107  0.279972  0.500000  1
  Co  Co9  1  0.826544  0.177082  0.000000  1
  Co  Co10  1  0.823634  0.649715  0.000000  1
  Co  Co11  1  0.348785  0.173787  0.000000  1
  Co  Co12  1  0.177082  0.826544  0.000000  1
  Co  Co13  1  0.649715  0.823634  0.000000  1
  Co  Co14  1  0.173787  0.348785  0.000000  1
  Co  Co15  1  0.302144  0.302144  0.500000  1
  Ni  Ni16  1  0.696826  0.000455  0.500000  1
  Ni  Ni17  1  0.000455  0.696826  0.500000  1
