# generated using pymatgen
data_Mn4AlGaPd10
_symmetry_space_group_name_H-M   'P 1'
_cell_length_a   4.10277600
_cell_length_b   5.47233440
_cell_length_c   10.72373278
_cell_angle_alpha   89.95616039
_cell_angle_beta   90.00000000
_cell_angle_gamma   90.00000000
_symmetry_Int_Tables_number   1
_chemical_formula_structural   Mn4AlGaPd10
_chemical_formula_sum   'Mn4 Al1 Ga1 Pd10'
_cell_volume   240.76662836
_cell_formula_units_Z   1
loop_
 _symmetry_equiv_pos_site_id
 _symmetry_equiv_pos_as_xyz
  1  'x, y, z'
loop_
 _atom_site_type_symbol
 _atom_site_label
 _atom_site_symmetry_multiplicity
 _atom_site_fract_x
 _atom_site_fract_y
 _atom_site_fract_z
 _atom_site_occupancy
  Mn  Mn0  1  0.500000  0.178278  0.362424  1
  Mn  Mn1  1  0.500000  0.821722  0.637576  1
  Mn  Mn2  1  0.500000  0.678130  0.138423  1
  Mn  Mn3  1  0.500000  0.321870  0.861577  1
  Al  Al4  1  0.000000  0.500000  0.500000  1
  Ga  Ga5  1  0.000000  0.000000  0.000000  1
  Pd  Pd6  1  0.500000  0.188175  0.109805  1
  Pd  Pd7  1  0.500000  0.811825  0.890195  1
  Pd  Pd8  1  0.500000  0.685799  0.392099  1
  Pd  Pd9  1  0.500000  0.314201  0.607901  1
  Pd  Pd10  1  0.000000  0.000000  0.500000  1
  Pd  Pd11  1  0.000000  0.500000  0.000000  1
  Pd  Pd12  1  0.000000  0.921420  0.241488  1
  Pd  Pd13  1  0.000000  0.078580  0.758512  1
  Pd  Pd14  1  0.000000  0.421361  0.260582  1
  Pd  Pd15  1  0.000000  0.578639  0.739418  1
