# generated using pymatgen
data_Ac4Ni12Sn25
_symmetry_space_group_name_H-M   'P 1'
_cell_length_a   10.59431175
_cell_length_b   10.59431248
_cell_length_c   10.59431200
_cell_angle_alpha   109.47121781
_cell_angle_beta   109.47121919
_cell_angle_gamma   109.47122340
_symmetry_Int_Tables_number   1
_chemical_formula_structural   Ac4Ni12Sn25
_chemical_formula_sum   'Ac4 Ni12 Sn25'
_cell_volume   915.36942654
_cell_formula_units_Z   1
loop_
 _symmetry_equiv_pos_site_id
 _symmetry_equiv_pos_as_xyz
  1  'x, y, z'
loop_
 _atom_site_type_symbol
 _atom_site_label
 _atom_site_symmetry_multiplicity
 _atom_site_fract_x
 _atom_site_fract_y
 _atom_site_fract_z
 _atom_site_occupancy
  Ac  Ac0  1  0.500000  0.000000  0.000000  1
  Ac  Ac1  1  0.000000  0.500000  0.000000  1
  Ac  Ac2  1  0.000000  0.000000  0.500000  1
  Ac  Ac3  1  0.500000  0.500000  0.500000  1
  Ni  Ni4  1  0.319382  0.837214  0.156597  1
  Ni  Ni5  1  0.482168  0.319382  0.162785  1
  Ni  Ni6  1  0.843402  0.680617  0.162785  1
  Ni  Ni7  1  0.837214  0.156597  0.319382  1
  Ni  Ni8  1  0.162785  0.482168  0.319382  1
  Ni  Ni9  1  0.319382  0.162785  0.482168  1
  Ni  Ni10  1  0.680617  0.837214  0.517832  1
  Ni  Ni11  1  0.162785  0.843402  0.680617  1
  Ni  Ni12  1  0.837214  0.517832  0.680617  1
  Ni  Ni13  1  0.156597  0.319382  0.837214  1
  Ni  Ni14  1  0.517832  0.680617  0.837214  1
  Ni  Ni15  1  0.680617  0.162785  0.843402  1
  Sn  Sn16  1  0.000000  0.000000  0.000000  1
  Sn  Sn17  1  0.372404  0.629125  0.001529  1
  Sn  Sn18  1  0.876233  0.250264  0.126497  1
  Sn  Sn19  1  0.250264  0.374031  0.123767  1
  Sn  Sn20  1  0.749736  0.873503  0.123767  1
  Sn  Sn21  1  0.374031  0.123767  0.250264  1
  Sn  Sn22  1  0.126497  0.876233  0.250264  1
  Sn  Sn23  1  0.627596  0.629125  0.256722  1
  Sn  Sn24  1  0.743278  0.372404  0.370876  1
  Sn  Sn25  1  0.998472  0.627596  0.370876  1
  Sn  Sn26  1  0.629125  0.001529  0.372404  1
  Sn  Sn27  1  0.370876  0.743278  0.372404  1
  Sn  Sn28  1  0.123767  0.250264  0.374031  1
  Sn  Sn29  1  0.876233  0.749735  0.625968  1
  Sn  Sn30  1  0.629125  0.256722  0.627596  1
  Sn  Sn31  1  0.370876  0.998472  0.627596  1
  Sn  Sn32  1  0.001529  0.372404  0.629125  1
  Sn  Sn33  1  0.256722  0.627596  0.629125  1
  Sn  Sn34  1  0.372404  0.370876  0.743278  1
  Sn  Sn35  1  0.625968  0.876233  0.749735  1
  Sn  Sn36  1  0.873503  0.123767  0.749736  1
  Sn  Sn37  1  0.250264  0.126497  0.876233  1
  Sn  Sn38  1  0.749735  0.625968  0.876233  1
  Sn  Sn39  1  0.123767  0.749736  0.873503  1
  Sn  Sn40  1  0.627596  0.370876  0.998472  1
