# generated using pymatgen
data_La6Hf2Bi3Sb7
_symmetry_space_group_name_H-M   'P 1'
_cell_length_a   9.68853400
_cell_length_b   9.68853487
_cell_length_c   6.49984700
_cell_angle_alpha   90.00000000
_cell_angle_beta   90.00000000
_cell_angle_gamma   120.00000385
_symmetry_Int_Tables_number   1
_chemical_formula_structural   La6Hf2Bi3Sb7
_chemical_formula_sum   'La6 Hf2 Bi3 Sb7'
_cell_volume   528.38432236
_cell_formula_units_Z   1
loop_
 _symmetry_equiv_pos_site_id
 _symmetry_equiv_pos_as_xyz
  1  'x, y, z'
loop_
 _atom_site_type_symbol
 _atom_site_label
 _atom_site_symmetry_multiplicity
 _atom_site_fract_x
 _atom_site_fract_y
 _atom_site_fract_z
 _atom_site_occupancy
  La  La0  1  0.618755  0.997449  0.247967  1
  La  La1  1  0.618755  0.621306  0.752033  1
  La  La2  1  0.378694  0.997449  0.752033  1
  La  La3  1  0.378694  0.381245  0.247967  1
  La  La4  1  0.002551  0.621306  0.247967  1
  La  La5  1  0.002551  0.381245  0.752033  1
  Hf  Hf6  1  0.000000  0.000000  0.000000  1
  Hf  Hf7  1  0.000000  0.000000  0.500000  1
  Bi  Bi8  1  0.333333  0.666667  0.500000  1
  Bi  Bi9  1  0.666667  0.333333  0.000000  1
  Bi  Bi10  1  0.666667  0.333333  0.500000  1
  Sb  Sb11  1  0.333333  0.666667  0.000000  1
  Sb  Sb12  1  0.744251  0.000913  0.749657  1
  Sb  Sb13  1  0.744251  0.743338  0.250343  1
  Sb  Sb14  1  0.999087  0.255749  0.250343  1
  Sb  Sb15  1  0.999087  0.743338  0.749657  1
  Sb  Sb16  1  0.256662  0.000913  0.250343  1
  Sb  Sb17  1  0.256662  0.255749  0.749657  1
