# generated using pymatgen
data_TbNd2Dy3(RuO7)2
_symmetry_space_group_name_H-M   'P 1'
_cell_length_a   6.46006311
_cell_length_b   6.46241453
_cell_length_c   7.50939900
_cell_angle_alpha   90.00000000
_cell_angle_beta   90.00000000
_cell_angle_gamma   110.17640055
_symmetry_Int_Tables_number   1
_chemical_formula_structural   TbNd2Dy3(RuO7)2
_chemical_formula_sum   'Tb1 Nd2 Dy3 Ru2 O14'
_cell_volume   294.26158870
_cell_formula_units_Z   1
loop_
 _symmetry_equiv_pos_site_id
 _symmetry_equiv_pos_as_xyz
  1  'x, y, z'
loop_
 _atom_site_type_symbol
 _atom_site_label
 _atom_site_symmetry_multiplicity
 _atom_site_fract_x
 _atom_site_fract_y
 _atom_site_fract_z
 _atom_site_occupancy
  Tb  Tb0  1  0.480972  0.928255  0.750000  1
  Nd  Nd1  1  0.999961  0.000103  0.499820  1
  Nd  Nd2  1  0.999961  0.000103  0.000180  1
  Dy  Dy3  1  0.518683  0.070705  0.250000  1
  Dy  Dy4  1  0.929202  0.481316  0.750000  1
  Dy  Dy5  1  0.070594  0.518523  0.250000  1
  Ru  Ru6  1  0.500097  0.500058  0.499705  1
  Ru  Ru7  1  0.500097  0.500058  0.000295  1
  O  O8  1  0.589408  0.588771  0.750000  1
  O  O9  1  0.410706  0.410782  0.250000  1
  O  O10  1  0.839266  0.116977  0.750000  1
  O  O11  1  0.162161  0.883675  0.250000  1
  O  O12  1  0.114830  0.837991  0.750000  1
  O  O13  1  0.883486  0.161991  0.250000  1
  O  O14  1  0.440035  0.182058  0.963258  1
  O  O15  1  0.560127  0.818080  0.462048  1
  O  O16  1  0.182162  0.440486  0.962840  1
  O  O17  1  0.817964  0.559722  0.462808  1
  O  O18  1  0.440035  0.182058  0.536742  1
  O  O19  1  0.560127  0.818080  0.037952  1
  O  O20  1  0.817964  0.559722  0.037192  1
  O  O21  1  0.182162  0.440486  0.537160  1
