# generated using pymatgen
data_Hf16Co3Tc4Ni
_symmetry_space_group_name_H-M   'P 1'
_cell_length_a   8.63428562
_cell_length_b   8.63428579
_cell_length_c   8.63428612
_cell_angle_alpha   59.95902198
_cell_angle_beta   59.95902516
_cell_angle_gamma   59.95902622
_symmetry_Int_Tables_number   1
_chemical_formula_structural   Hf16Co3Tc4Ni
_chemical_formula_sum   'Hf16 Co3 Tc4 Ni1'
_cell_volume   454.73722700
_cell_formula_units_Z   1
loop_
 _symmetry_equiv_pos_site_id
 _symmetry_equiv_pos_as_xyz
  1  'x, y, z'
loop_
 _atom_site_type_symbol
 _atom_site_label
 _atom_site_symmetry_multiplicity
 _atom_site_fract_x
 _atom_site_fract_y
 _atom_site_fract_z
 _atom_site_occupancy
  Hf  Hf0  1  0.695320  0.102494  0.102494  1
  Hf  Hf1  1  0.102494  0.695320  0.102494  1
  Hf  Hf2  1  0.102494  0.102494  0.695320  1
  Hf  Hf3  1  0.099454  0.099454  0.099454  1
  Hf  Hf4  1  0.315065  0.315065  0.685030  1
  Hf  Hf5  1  0.685300  0.685300  0.315450  1
  Hf  Hf6  1  0.315065  0.685030  0.315065  1
  Hf  Hf7  1  0.685300  0.315450  0.685300  1
  Hf  Hf8  1  0.685030  0.315065  0.315065  1
  Hf  Hf9  1  0.315450  0.685300  0.685300  1
  Hf  Hf10  1  0.955896  0.955896  0.541104  1
  Hf  Hf11  1  0.547810  0.547810  0.952446  1
  Hf  Hf12  1  0.955896  0.541104  0.955896  1
  Hf  Hf13  1  0.547810  0.952446  0.547810  1
  Hf  Hf14  1  0.541104  0.955896  0.955896  1
  Hf  Hf15  1  0.952446  0.547810  0.547810  1
  Co  Co16  1  0.328548  0.890034  0.890034  1
  Co  Co17  1  0.890034  0.328548  0.890034  1
  Co  Co18  1  0.890034  0.890034  0.328548  1
  Tc  Tc19  1  0.999746  0.333144  0.333144  1
  Tc  Tc20  1  0.333144  0.999746  0.333144  1
  Tc  Tc21  1  0.333144  0.333144  0.999746  1
  Tc  Tc22  1  0.333347  0.333347  0.333347  1
  Ni  Ni23  1  0.890066  0.890066  0.890066  1
