# generated using pymatgen
data_Tb4B16Mo3W
_symmetry_space_group_name_H-M   'P 1'
_cell_length_a   3.63417300
_cell_length_b   6.04118900
_cell_length_c   11.67976200
_cell_angle_alpha   90.00325044
_cell_angle_beta   90.00000000
_cell_angle_gamma   90.00000000
_symmetry_Int_Tables_number   1
_chemical_formula_structural   Tb4B16Mo3W
_chemical_formula_sum   'Tb4 B16 Mo3 W1'
_cell_volume   256.42597368
_cell_formula_units_Z   1
loop_
 _symmetry_equiv_pos_site_id
 _symmetry_equiv_pos_as_xyz
  1  'x, y, z'
loop_
 _atom_site_type_symbol
 _atom_site_label
 _atom_site_symmetry_multiplicity
 _atom_site_fract_x
 _atom_site_fract_y
 _atom_site_fract_z
 _atom_site_occupancy
  Tb  Tb0  1  0.000000  0.626661  0.350235  1
  Tb  Tb1  1  0.000000  0.373368  0.649964  1
  Tb  Tb2  1  0.000000  0.126714  0.149882  1
  Tb  Tb3  1  0.000000  0.873555  0.849980  1
  B  B4  1  0.500000  0.786445  0.186351  1
  B  B5  1  0.500000  0.214059  0.813973  1
  B  B6  1  0.500000  0.285944  0.313971  1
  B  B7  1  0.500000  0.714040  0.686084  1
  B  B8  1  0.500000  0.866444  0.031892  1
  B  B9  1  0.500000  0.134043  0.967867  1
  B  B10  1  0.500000  0.366316  0.467989  1
  B  B11  1  0.500000  0.633736  0.532030  1
  B  B12  1  0.500000  0.886131  0.452761  1
  B  B13  1  0.500000  0.113795  0.547298  1
  B  B14  1  0.500000  0.385964  0.047088  1
  B  B15  1  0.500000  0.613567  0.952592  1
  B  B16  1  0.500000  0.975987  0.306901  1
  B  B17  1  0.500000  0.024123  0.693135  1
  B  B18  1  0.500000  0.475581  0.193168  1
  B  B19  1  0.500000  0.523924  0.806940  1
  Mo  Mo20  1  0.000000  0.369910  0.916033  1
  Mo  Mo21  1  0.000000  0.129448  0.416396  1
  Mo  Mo22  1  0.000000  0.870444  0.583543  1
  W  W23  1  0.000000  0.629803  0.083928  1
