# generated using pymatgen
data_Tb3Dy(MgPt)4
_symmetry_space_group_name_H-M   'P 1'
_cell_length_a   4.17374600
_cell_length_b   7.14387153
_cell_length_c   8.67530700
_cell_angle_alpha   91.31153296
_cell_angle_beta   90.00000000
_cell_angle_gamma   90.00000000
_symmetry_Int_Tables_number   1
_chemical_formula_structural   Tb3Dy(MgPt)4
_chemical_formula_sum   'Tb3 Dy1 Mg4 Pt4'
_cell_volume   258.60130619
_cell_formula_units_Z   1
loop_
 _symmetry_equiv_pos_site_id
 _symmetry_equiv_pos_as_xyz
  1  'x, y, z'
loop_
 _atom_site_type_symbol
 _atom_site_label
 _atom_site_symmetry_multiplicity
 _atom_site_fract_x
 _atom_site_fract_y
 _atom_site_fract_z
 _atom_site_occupancy
  Tb  Tb0  1  0.250000  0.462704  0.175915  1
  Tb  Tb1  1  0.750000  0.038102  0.676458  1
  Tb  Tb2  1  0.750000  0.538109  0.824338  1
  Dy  Dy3  1  0.250000  0.961238  0.323788  1
  Mg  Mg4  1  0.250000  0.864219  0.939140  1
  Mg  Mg5  1  0.250000  0.363958  0.561041  1
  Mg  Mg6  1  0.750000  0.136074  0.060999  1
  Mg  Mg7  1  0.750000  0.635433  0.438582  1
  Pt  Pt8  1  0.250000  0.251856  0.873537  1
  Pt  Pt9  1  0.250000  0.751839  0.624746  1
  Pt  Pt10  1  0.750000  0.749737  0.127023  1
  Pt  Pt11  1  0.750000  0.246730  0.374434  1
