# generated using pymatgen
data_Y16In3HgIr3Rh
_symmetry_space_group_name_H-M   'P 1'
_cell_length_a   9.69625033
_cell_length_b   9.69625017
_cell_length_c   9.67875825
_cell_angle_alpha   59.85424278
_cell_angle_beta   59.85424582
_cell_angle_gamma   59.92314177
_symmetry_Int_Tables_number   1
_chemical_formula_structural   Y16In3HgIr3Rh
_chemical_formula_sum   'Y16 In3 Hg1 Ir3 Rh1'
_cell_volume   641.65292807
_cell_formula_units_Z   1
loop_
 _symmetry_equiv_pos_site_id
 _symmetry_equiv_pos_as_xyz
  1  'x, y, z'
loop_
 _atom_site_type_symbol
 _atom_site_label
 _atom_site_symmetry_multiplicity
 _atom_site_fract_x
 _atom_site_fract_y
 _atom_site_fract_z
 _atom_site_occupancy
  Y  Y0  1  0.809135  0.187813  0.810104  1
  Y  Y1  1  0.936295  0.562991  0.560947  1
  Y  Y2  1  0.562991  0.936295  0.560947  1
  Y  Y3  1  0.807898  0.191558  0.190658  1
  Y  Y4  1  0.191558  0.807898  0.190658  1
  Y  Y5  1  0.351807  0.948564  0.351180  1
  Y  Y6  1  0.938879  0.938879  0.560220  1
  Y  Y7  1  0.560614  0.939768  0.939484  1
  Y  Y8  1  0.187813  0.809135  0.810104  1
  Y  Y9  1  0.351187  0.351187  0.949705  1
  Y  Y10  1  0.561188  0.561188  0.936909  1
  Y  Y11  1  0.348879  0.348879  0.347888  1
  Y  Y12  1  0.190933  0.190933  0.808495  1
  Y  Y13  1  0.809560  0.809560  0.187366  1
  Y  Y14  1  0.939768  0.560614  0.939484  1
  Y  Y15  1  0.948564  0.351807  0.351180  1
  In  In16  1  0.582405  0.252275  0.582497  1
  In  In17  1  0.582461  0.582461  0.252317  1
  In  In18  1  0.252275  0.582405  0.582497  1
  Hg  Hg19  1  0.586182  0.586182  0.585807  1
  Ir  Ir20  1  0.575208  0.141153  0.141729  1
  Ir  Ir21  1  0.141153  0.575208  0.141729  1
  Ir  Ir22  1  0.141973  0.141973  0.142643  1
  Rh  Rh23  1  0.141276  0.141276  0.575454  1
