# generated using pymatgen
data_Ti3Fe3SiP2
_symmetry_space_group_name_H-M   'P 1'
_cell_length_a   5.97710600
_cell_length_b   5.97710581
_cell_length_c   3.63682000
_cell_angle_alpha   90.00000000
_cell_angle_beta   90.00000000
_cell_angle_gamma   119.99998996
_symmetry_Int_Tables_number   1
_chemical_formula_structural   Ti3Fe3SiP2
_chemical_formula_sum   'Ti3 Fe3 Si1 P2'
_cell_volume   112.52120761
_cell_formula_units_Z   1
loop_
 _symmetry_equiv_pos_site_id
 _symmetry_equiv_pos_as_xyz
  1  'x, y, z'
loop_
 _atom_site_type_symbol
 _atom_site_label
 _atom_site_symmetry_multiplicity
 _atom_site_fract_x
 _atom_site_fract_y
 _atom_site_fract_z
 _atom_site_occupancy
  Ti  Ti0  1  0.433315  0.433315  0.500000  1
  Ti  Ti1  1  0.566685  0.000000  0.500000  1
  Ti  Ti2  1  0.000000  0.566685  0.500000  1
  Fe  Fe3  1  0.753244  0.753244  0.000000  1
  Fe  Fe4  1  0.246756  0.000000  0.000000  1
  Fe  Fe5  1  0.000000  0.246756  0.000000  1
  Si  Si6  1  0.000000  0.000000  0.500000  1
  P  P7  1  0.666667  0.333333  0.000000  1
  P  P8  1  0.333333  0.666667  0.000000  1
