# generated using pymatgen
data_Sc7Co16Si12Tc
_symmetry_space_group_name_H-M   'P 1'
_cell_length_a   12.29797400
_cell_length_b   12.29797361
_cell_length_c   3.71903500
_cell_angle_alpha   90.00000000
_cell_angle_beta   90.00000000
_cell_angle_gamma   119.91382329
_symmetry_Int_Tables_number   1
_chemical_formula_structural   Sc7Co16Si12Tc
_chemical_formula_sum   'Sc7 Co16 Si12 Tc1'
_cell_volume   487.53354148
_cell_formula_units_Z   1
loop_
 _symmetry_equiv_pos_site_id
 _symmetry_equiv_pos_as_xyz
  1  'x, y, z'
loop_
 _atom_site_type_symbol
 _atom_site_label
 _atom_site_symmetry_multiplicity
 _atom_site_fract_x
 _atom_site_fract_y
 _atom_site_fract_z
 _atom_site_occupancy
  Sc  Sc0  1  0.813820  0.813820  0.500000  1
  Sc  Sc1  1  0.006224  0.182401  0.500000  1
  Sc  Sc2  1  0.560998  0.000789  0.000000  1
  Sc  Sc3  1  0.334388  0.659421  0.000000  1
  Sc  Sc4  1  0.659421  0.334388  0.000000  1
  Sc  Sc5  1  0.000789  0.560998  0.000000  1
  Sc  Sc6  1  0.182401  0.006224  0.500000  1
  Co  Co7  1  0.623037  0.816885  0.000000  1
  Co  Co8  1  0.372290  0.198026  0.000000  1
  Co  Co9  1  0.999875  0.719138  0.500000  1
  Co  Co10  1  0.278220  0.278220  0.500000  1
  Co  Co11  1  0.885581  0.360966  0.500000  1
  Co  Co12  1  0.719138  0.999875  0.500000  1
  Co  Co13  1  0.816885  0.623037  0.000000  1
  Co  Co14  1  0.179367  0.806314  0.000000  1
  Co  Co15  1  0.360966  0.885581  0.500000  1
  Co  Co16  1  0.130055  0.482293  0.500000  1
  Co  Co17  1  0.641551  0.521514  0.500000  1
  Co  Co18  1  0.993974  0.993974  0.000000  1
  Co  Co19  1  0.521514  0.641551  0.500000  1
  Co  Co20  1  0.482293  0.130055  0.500000  1
  Co  Co21  1  0.198026  0.372290  0.000000  1
  Co  Co22  1  0.806314  0.179367  0.000000  1
  Si  Si23  1  0.004653  0.352695  0.000000  1
  Si  Si24  1  0.821846  0.516390  0.500000  1
  Si  Si25  1  0.697283  0.182131  0.500000  1
  Si  Si26  1  0.177481  0.177481  0.000000  1
  Si  Si27  1  0.633020  0.633020  0.000000  1
  Si  Si28  1  0.815912  0.998142  0.000000  1
  Si  Si29  1  0.516390  0.821846  0.500000  1
  Si  Si30  1  0.182131  0.697283  0.500000  1
  Si  Si31  1  0.352695  0.004653  0.000000  1
  Si  Si32  1  0.479036  0.316657  0.500000  1
  Si  Si33  1  0.998142  0.815912  0.000000  1
  Si  Si34  1  0.316657  0.479036  0.500000  1
  Tc  Tc35  1  0.437627  0.437627  0.000000  1
