# generated using pymatgen
data_YLu9(In2Pd)4
_symmetry_space_group_name_H-M   'P 1'
_cell_length_a   3.57878700
_cell_length_b   8.03191102
_cell_length_c   18.03625104
_cell_angle_alpha   90.00811695
_cell_angle_beta   90.00000000
_cell_angle_gamma   90.00000000
_symmetry_Int_Tables_number   1
_chemical_formula_structural   YLu9(In2Pd)4
_chemical_formula_sum   'Y1 Lu9 In8 Pd4'
_cell_volume   518.44299032
_cell_formula_units_Z   1
loop_
 _symmetry_equiv_pos_site_id
 _symmetry_equiv_pos_as_xyz
  1  'x, y, z'
loop_
 _atom_site_type_symbol
 _atom_site_label
 _atom_site_symmetry_multiplicity
 _atom_site_fract_x
 _atom_site_fract_y
 _atom_site_fract_z
 _atom_site_occupancy
  Y  Y0  1  0.000000  0.500000  0.500000  1
  Lu  Lu1  1  0.000000  0.000000  0.000000  1
  Lu  Lu2  1  0.000000  0.741216  0.279256  1
  Lu  Lu3  1  0.000000  0.258784  0.720744  1
  Lu  Lu4  1  0.000000  0.758498  0.780040  1
  Lu  Lu5  1  0.000000  0.241502  0.219960  1
  Lu  Lu6  1  0.000000  0.617317  0.083936  1
  Lu  Lu7  1  0.000000  0.382683  0.916064  1
  Lu  Lu8  1  0.000000  0.881977  0.584781  1
  Lu  Lu9  1  0.000000  0.118023  0.415219  1
  In  In10  1  0.500000  0.709130  0.932883  1
  In  In11  1  0.500000  0.290870  0.067117  1
  In  In12  1  0.500000  0.794568  0.432265  1
  In  In13  1  0.500000  0.205432  0.567735  1
  In  In14  1  0.500000  0.579697  0.650598  1
  In  In15  1  0.500000  0.420303  0.349402  1
  In  In16  1  0.500000  0.920814  0.148810  1
  In  In17  1  0.500000  0.079186  0.851190  1
  Pd  Pd18  1  0.500000  0.524468  0.194965  1
  Pd  Pd19  1  0.500000  0.475532  0.805035  1
  Pd  Pd20  1  0.500000  0.975808  0.695857  1
  Pd  Pd21  1  0.500000  0.024192  0.304143  1
