# generated using pymatgen
data_CeZr3(Co7B3)2
_symmetry_space_group_name_H-M   'P 1'
_cell_length_a   4.88169700
_cell_length_b   4.88169708
_cell_length_c   12.96411100
_cell_angle_alpha   90.00000000
_cell_angle_beta   90.00000000
_cell_angle_gamma   119.99999266
_symmetry_Int_Tables_number   1
_chemical_formula_structural   CeZr3(Co7B3)2
_chemical_formula_sum   'Ce1 Zr3 Co14 B6'
_cell_volume   267.55622007
_cell_formula_units_Z   1
loop_
 _symmetry_equiv_pos_site_id
 _symmetry_equiv_pos_as_xyz
  1  'x, y, z'
loop_
 _atom_site_type_symbol
 _atom_site_label
 _atom_site_symmetry_multiplicity
 _atom_site_fract_x
 _atom_site_fract_y
 _atom_site_fract_z
 _atom_site_occupancy
  Ce  Ce0  1  0.000000  0.000000  0.000000  1
  Zr  Zr1  1  0.000000  0.000000  0.500000  1
  Zr  Zr2  1  0.000000  0.000000  0.260573  1
  Zr  Zr3  1  0.000000  0.000000  0.739427  1
  Co  Co4  1  0.333333  0.666667  0.000000  1
  Co  Co5  1  0.666667  0.333333  0.000000  1
  Co  Co6  1  0.500000  0.000000  0.156197  1
  Co  Co7  1  0.500000  0.500000  0.156197  1
  Co  Co8  1  0.000000  0.500000  0.156197  1
  Co  Co9  1  0.500000  0.000000  0.843803  1
  Co  Co10  1  0.500000  0.500000  0.843803  1
  Co  Co11  1  0.000000  0.500000  0.843803  1
  Co  Co12  1  0.500000  0.000000  0.384048  1
  Co  Co13  1  0.500000  0.500000  0.384048  1
  Co  Co14  1  0.000000  0.500000  0.384048  1
  Co  Co15  1  0.500000  0.000000  0.615952  1
  Co  Co16  1  0.500000  0.500000  0.615952  1
  Co  Co17  1  0.000000  0.500000  0.615952  1
  B  B18  1  0.333333  0.666667  0.500000  1
  B  B19  1  0.666667  0.333333  0.500000  1
  B  B20  1  0.333333  0.666667  0.268899  1
  B  B21  1  0.666667  0.333333  0.268899  1
  B  B22  1  0.666667  0.333333  0.731101  1
  B  B23  1  0.333333  0.666667  0.731101  1
