# generated using pymatgen
data_LiDy16In3Ni4
_symmetry_space_group_name_H-M   'P 1'
_cell_length_a   9.62248251
_cell_length_b   9.53517712
_cell_length_c   9.53517700
_cell_angle_alpha   60.00000390
_cell_angle_beta   60.29968723
_cell_angle_gamma   60.29968794
_symmetry_Int_Tables_number   1
_chemical_formula_structural   LiDy16In3Ni4
_chemical_formula_sum   'Li1 Dy16 In3 Ni4'
_cell_volume   621.41559154
_cell_formula_units_Z   1
loop_
 _symmetry_equiv_pos_site_id
 _symmetry_equiv_pos_as_xyz
  1  'x, y, z'
loop_
 _atom_site_type_symbol
 _atom_site_label
 _atom_site_symmetry_multiplicity
 _atom_site_fract_x
 _atom_site_fract_y
 _atom_site_fract_z
 _atom_site_occupancy
  Li  Li0  1  0.283656  0.572115  0.572115  1
  Dy  Dy1  1  0.348825  0.346227  0.346227  1
  Dy  Dy2  1  0.348825  0.346227  0.958720  1
  Dy  Dy3  1  0.348825  0.958720  0.346227  1
  Dy  Dy4  1  0.954540  0.348486  0.348486  1
  Dy  Dy5  1  0.808435  0.190054  0.190054  1
  Dy  Dy6  1  0.185276  0.813827  0.813827  1
  Dy  Dy7  1  0.185276  0.813827  0.187069  1
  Dy  Dy8  1  0.808435  0.190054  0.811457  1
  Dy  Dy9  1  0.185276  0.187069  0.813827  1
  Dy  Dy10  1  0.808435  0.811457  0.190054  1
  Dy  Dy11  1  0.936205  0.563784  0.563784  1
  Dy  Dy12  1  0.564536  0.936021  0.936021  1
  Dy  Dy13  1  0.564536  0.936021  0.563420  1
  Dy  Dy14  1  0.936205  0.563784  0.936227  1
  Dy  Dy15  1  0.564536  0.563420  0.936021  1
  Dy  Dy16  1  0.936205  0.936227  0.563784  1
  In  In17  1  0.579138  0.582476  0.582476  1
  In  In18  1  0.579138  0.582476  0.255912  1
  In  In19  1  0.579138  0.255912  0.582476  1
  Ni  Ni20  1  0.140243  0.142629  0.142629  1
  Ni  Ni21  1  0.140243  0.142629  0.574498  1
  Ni  Ni22  1  0.140243  0.574498  0.142629  1
  Ni  Ni23  1  0.573826  0.142058  0.142058  1
