# generated using pymatgen
data_TlSbS6(O3F)6
_symmetry_space_group_name_H-M   'P 1'
_cell_length_a   8.14146094
_cell_length_b   8.14146070
_cell_length_c   8.14146106
_cell_angle_alpha   97.12120872
_cell_angle_beta   97.12120887
_cell_angle_gamma   97.12121232
_symmetry_Int_Tables_number   1
_chemical_formula_structural   TlSbS6(O3F)6
_chemical_formula_sum   'Tl1 Sb1 S6 O18 F6'
_cell_volume   526.00299333
_cell_formula_units_Z   1
loop_
 _symmetry_equiv_pos_site_id
 _symmetry_equiv_pos_as_xyz
  1  'x, y, z'
loop_
 _atom_site_type_symbol
 _atom_site_label
 _atom_site_symmetry_multiplicity
 _atom_site_fract_x
 _atom_site_fract_y
 _atom_site_fract_z
 _atom_site_occupancy
  Tl  Tl0  1  0.000000  0.000000  0.000000  1
  Sb  Sb1  1  0.500000  0.500000  0.500000  1
  S  S2  1  0.439814  0.738471  0.840681  1
  S  S3  1  0.261529  0.159319  0.560186  1
  S  S4  1  0.738471  0.840681  0.439814  1
  S  S5  1  0.159319  0.560186  0.261529  1
  S  S6  1  0.560186  0.261529  0.159319  1
  S  S7  1  0.840681  0.439814  0.738471  1
  O  O8  1  0.689473  0.647271  0.429125  1
  O  O9  1  0.352729  0.570875  0.310527  1
  O  O10  1  0.851112  0.866297  0.321823  1
  O  O11  1  0.607990  0.771451  0.922529  1
  O  O12  1  0.771451  0.922529  0.607990  1
  O  O13  1  0.647271  0.429125  0.689473  1
  O  O14  1  0.392010  0.228549  0.077471  1
  O  O15  1  0.148888  0.133703  0.678177  1
  O  O16  1  0.310527  0.352729  0.570875  1
  O  O17  1  0.321823  0.851112  0.866297  1
  O  O18  1  0.866297  0.321823  0.851112  1
  O  O19  1  0.429125  0.689473  0.647271  1
  O  O20  1  0.922529  0.607990  0.771451  1
  O  O21  1  0.077471  0.392010  0.228549  1
  O  O22  1  0.133703  0.678177  0.148888  1
  O  O23  1  0.228549  0.077471  0.392010  1
  O  O24  1  0.678177  0.148888  0.133703  1
  O  O25  1  0.570875  0.310527  0.352729  1
  F  F26  1  0.637164  0.435327  0.110356  1
  F  F27  1  0.889644  0.362836  0.564673  1
  F  F28  1  0.564673  0.889644  0.362836  1
  F  F29  1  0.110356  0.637164  0.435327  1
  F  F30  1  0.362836  0.564673  0.889644  1
  F  F31  1  0.435327  0.110356  0.637164  1
