# generated using pymatgen
data_YbEr3(Ga8Pt3)3
_symmetry_space_group_name_H-M   'P 1'
_cell_length_a   7.50611845
_cell_length_b   7.57924257
_cell_length_c   13.36666556
_cell_angle_alpha   84.70646674
_cell_angle_beta   79.48092121
_cell_angle_gamma   60.29066878
_symmetry_Int_Tables_number   1
_chemical_formula_structural   YbEr3(Ga8Pt3)3
_chemical_formula_sum   'Yb1 Er3 Ga24 Pt9'
_cell_volume   649.37846788
_cell_formula_units_Z   1
loop_
 _symmetry_equiv_pos_site_id
 _symmetry_equiv_pos_as_xyz
  1  'x, y, z'
loop_
 _atom_site_type_symbol
 _atom_site_label
 _atom_site_symmetry_multiplicity
 _atom_site_fract_x
 _atom_site_fract_y
 _atom_site_fract_z
 _atom_site_occupancy
  Yb  Yb0  1  0.396040  0.168349  0.809169  1
  Er  Er1  1  0.603752  0.832710  0.189840  1
  Er  Er2  1  0.732286  0.498307  0.811204  1
  Er  Er3  1  0.267176  0.501323  0.188968  1
  Ga  Ga4  1  0.684913  0.834986  0.938332  1
  Ga  Ga5  1  0.313915  0.166236  0.061888  1
  Ga  Ga6  1  0.145367  0.832633  0.559572  1
  Ga  Ga7  1  0.854867  0.167559  0.439834  1
  Ga  Ga8  1  0.478735  0.166522  0.556420  1
  Ga  Ga9  1  0.521934  0.833149  0.443067  1
  Ga  Ga10  1  0.223303  0.164951  0.321135  1
  Ga  Ga11  1  0.777407  0.835599  0.677256  1
  Ga  Ga12  1  0.437747  0.502720  0.675016  1
  Ga  Ga13  1  0.563024  0.496688  0.323127  1
  Ga  Ga14  1  0.107314  0.163411  0.674675  1
  Ga  Ga15  1  0.893883  0.836313  0.323492  1
  Ga  Ga16  1  0.358819  0.496520  0.939212  1
  Ga  Ga17  1  0.639463  0.503476  0.062273  1
  Ga  Ga18  1  0.020758  0.169576  0.944664  1
  Ga  Ga19  1  0.978452  0.829426  0.057728  1
  Ga  Ga20  1  0.187502  0.498940  0.442239  1
  Ga  Ga21  1  0.812857  0.501256  0.557332  1
  Ga  Ga22  1  0.734311  0.164376  0.181956  1
  Ga  Ga23  1  0.267737  0.832498  0.818665  1
  Ga  Ga24  1  0.059785  0.630917  0.817542  1
  Ga  Ga25  1  0.937352  0.370324  0.183213  1
  Ga  Ga26  1  0.858228  0.042054  0.817011  1
  Ga  Ga27  1  0.143093  0.959009  0.183658  1
  Pt  Pt28  1  0.116523  0.495490  0.639334  1
  Pt  Pt29  1  0.884332  0.504618  0.360069  1
  Pt  Pt30  1  0.660605  0.169140  0.999986  1
  Pt  Pt31  1  0.338291  0.831067  0.002188  1
  Pt  Pt32  1  0.541968  0.166817  0.359699  1
  Pt  Pt33  1  0.457636  0.833735  0.639908  1
  Pt  Pt34  1  0.779433  0.172265  0.637053  1
  Pt  Pt35  1  0.222149  0.827093  0.362063  1
  Pt  Pt36  1  0.999046  0.499945  0.001211  1
