# generated using pymatgen
data_Tb4LuGa2Bi
_symmetry_space_group_name_H-M   'P 1'
_cell_length_a   8.80840541
_cell_length_b   8.80840563
_cell_length_c   8.80840542
_cell_angle_alpha   125.97613222
_cell_angle_beta   125.97613095
_cell_angle_gamma   79.92737080
_symmetry_Int_Tables_number   1
_chemical_formula_structural   Tb4LuGa2Bi
_chemical_formula_sum   'Tb8 Lu2 Ga4 Bi2'
_cell_volume   432.20042383
_cell_formula_units_Z   2
loop_
 _symmetry_equiv_pos_site_id
 _symmetry_equiv_pos_as_xyz
  1  'x, y, z'
loop_
 _atom_site_type_symbol
 _atom_site_label
 _atom_site_symmetry_multiplicity
 _atom_site_fract_x
 _atom_site_fract_y
 _atom_site_fract_z
 _atom_site_occupancy
  Tb  Tb0  1  0.514337  0.014337  0.811383  1
  Tb  Tb1  1  0.202953  0.702953  0.188617  1
  Tb  Tb2  1  0.014337  0.202953  0.500000  1
  Tb  Tb3  1  0.702953  0.514337  0.500000  1
  Tb  Tb4  1  0.485663  0.985663  0.188617  1
  Tb  Tb5  1  0.797047  0.297047  0.811383  1
  Tb  Tb6  1  0.985663  0.797047  0.500000  1
  Tb  Tb7  1  0.297047  0.485663  0.500000  1
  Lu  Lu8  1  0.500000  0.500000  0.000000  1
  Lu  Lu9  1  0.000000  0.000000  0.000000  1
  Ga  Ga10  1  0.144104  0.644104  0.788206  1
  Ga  Ga11  1  0.855896  0.355896  0.211794  1
  Ga  Ga12  1  0.644104  0.855896  0.500000  1
  Ga  Ga13  1  0.355896  0.144104  0.500000  1
  Bi  Bi14  1  0.250000  0.250000  0.000000  1
  Bi  Bi15  1  0.750000  0.750000  0.000000  1
