# generated using pymatgen
data_Ca3Zn(NO3)8
_symmetry_space_group_name_H-M   'P 1'
_cell_length_a   7.94337610
_cell_length_b   7.94337610
_cell_length_c   7.94337610
_cell_angle_alpha   88.85577298
_cell_angle_beta   91.14422702
_cell_angle_gamma   88.85577298
_symmetry_Int_Tables_number   1
_chemical_formula_structural   Ca3Zn(NO3)8
_chemical_formula_sum   'Ca3 Zn1 N8 O24'
_cell_volume   500.90109981
_cell_formula_units_Z   1
loop_
 _symmetry_equiv_pos_site_id
 _symmetry_equiv_pos_as_xyz
  1  'x, y, z'
loop_
 _atom_site_type_symbol
 _atom_site_label
 _atom_site_symmetry_multiplicity
 _atom_site_fract_x
 _atom_site_fract_y
 _atom_site_fract_z
 _atom_site_occupancy
  Ca  Ca0  1  0.500000  0.500000  0.000000  1
  Ca  Ca1  1  0.500000  0.000000  0.500000  1
  Ca  Ca2  1  0.000000  0.000000  0.000000  1
  Zn  Zn3  1  0.000000  0.500000  0.500000  1
  N  N4  1  0.316903  0.350717  0.333615  1
  N  N5  1  0.333646  0.166354  0.833646  1
  N  N6  1  0.166385  0.816903  0.350717  1
  N  N7  1  0.850717  0.333615  0.183097  1
  N  N8  1  0.683097  0.649283  0.666385  1
  N  N9  1  0.149283  0.666385  0.816903  1
  N  N10  1  0.833615  0.183097  0.649283  1
  N  N11  1  0.666354  0.833646  0.166354  1
  O  O12  1  0.739562  0.317930  0.067975  1
  O  O13  1  0.182070  0.932025  0.239562  1
  O  O14  1  0.271153  0.803874  0.471404  1
  O  O15  1  0.235781  0.189703  0.955241  1
  O  O16  1  0.216401  0.338180  0.455345  1
  O  O17  1  0.432025  0.239562  0.317930  1
  O  O18  1  0.303874  0.471404  0.228847  1
  O  O19  1  0.161820  0.544655  0.716401  1
  O  O20  1  0.955345  0.283599  0.661820  1
  O  O21  1  0.689703  0.955241  0.264219  1
  O  O22  1  0.028596  0.771153  0.803874  1
  O  O23  1  0.544759  0.735781  0.189703  1
  O  O24  1  0.817930  0.067975  0.760438  1
  O  O25  1  0.728847  0.196126  0.528596  1
  O  O26  1  0.764219  0.810297  0.044759  1
  O  O27  1  0.260438  0.682070  0.932025  1
  O  O28  1  0.783599  0.661820  0.544655  1
  O  O29  1  0.567975  0.760438  0.682070  1
  O  O30  1  0.696126  0.528596  0.771153  1
  O  O31  1  0.838180  0.455345  0.283599  1
  O  O32  1  0.044655  0.716401  0.338180  1
  O  O33  1  0.310297  0.044759  0.735781  1
  O  O34  1  0.971404  0.228847  0.196126  1
  O  O35  1  0.455241  0.264219  0.810297  1
