# generated using pymatgen
data_Th4Ga3As3Ru7
_symmetry_space_group_name_H-M   'P 1'
_cell_length_a   7.41132620
_cell_length_b   7.41131750
_cell_length_c   7.41132626
_cell_angle_alpha   109.15429086
_cell_angle_beta   109.51835901
_cell_angle_gamma   109.74159483
_symmetry_Int_Tables_number   1
_chemical_formula_structural   Th4Ga3As3Ru7
_chemical_formula_sum   'Th4 Ga3 As3 Ru7'
_cell_volume   313.36720937
_cell_formula_units_Z   1
loop_
 _symmetry_equiv_pos_site_id
 _symmetry_equiv_pos_as_xyz
  1  'x, y, z'
loop_
 _atom_site_type_symbol
 _atom_site_label
 _atom_site_symmetry_multiplicity
 _atom_site_fract_x
 _atom_site_fract_y
 _atom_site_fract_z
 _atom_site_occupancy
  Th  Th0  1  0.002409  0.999898  0.505513  1
  Th  Th1  1  0.505615  0.000102  0.002511  1
  Th  Th2  1  0.002410  0.496896  0.002511  1
  Th  Th3  1  0.505615  0.503104  0.505514  1
  Ga  Ga4  1  0.308454  0.000000  0.308454  1
  Ga  Ga5  1  0.003349  0.325386  0.328735  1
  Ga  Ga6  1  0.003349  0.674614  0.677963  1
  As  As7  1  0.317530  0.313889  0.003641  1
  As  As8  1  0.689751  0.686111  0.003641  1
  As  As9  1  0.672650  0.000000  0.672650  1
  Ru  Ru10  1  0.748674  0.500000  0.248674  1
  Ru  Ru11  1  0.498594  0.750695  0.249287  1
  Ru  Ru12  1  0.498593  0.249305  0.747898  1
  Ru  Ru13  1  0.745762  0.247118  0.498643  1
  Ru  Ru14  1  0.251525  0.752882  0.498645  1
  Ru  Ru15  1  0.255458  0.500000  0.755458  1
  Ru  Ru16  1  0.990263  0.000000  0.990263  1
