# generated using pymatgen
data_Nd(SmSi2)5
_symmetry_space_group_name_H-M   'P 1'
_cell_length_a   6.80552067
_cell_length_b   6.80551978
_cell_length_c   8.50338431
_cell_angle_alpha   89.98554153
_cell_angle_beta   90.01446374
_cell_angle_gamma   119.80083591
_symmetry_Int_Tables_number   1
_chemical_formula_structural   Nd(SmSi2)5
_chemical_formula_sum   'Nd1 Sm5 Si10'
_cell_volume   341.75366027
_cell_formula_units_Z   1
loop_
 _symmetry_equiv_pos_site_id
 _symmetry_equiv_pos_as_xyz
  1  'x, y, z'
loop_
 _atom_site_type_symbol
 _atom_site_label
 _atom_site_symmetry_multiplicity
 _atom_site_fract_x
 _atom_site_fract_y
 _atom_site_fract_z
 _atom_site_occupancy
  Nd  Nd0  1  0.668085  0.668085  0.500000  1
  Sm  Sm1  1  0.331609  0.000057  0.000060  1
  Sm  Sm2  1  0.331554  0.000126  0.499940  1
  Sm  Sm3  1  0.000126  0.331554  0.500060  1
  Sm  Sm4  1  0.000057  0.331609  0.999940  1
  Sm  Sm5  1  0.668705  0.668705  0.000000  1
  Si  Si6  1  0.367603  0.329603  0.249021  1
  Si  Si7  1  0.669656  0.038126  0.249334  1
  Si  Si8  1  0.962579  0.631416  0.248780  1
  Si  Si9  1  0.631416  0.962579  0.751220  1
  Si  Si10  1  0.000955  0.000496  0.249221  1
  Si  Si11  1  0.666663  0.332767  0.750745  1
  Si  Si12  1  0.038126  0.669656  0.750666  1
  Si  Si13  1  0.329603  0.367603  0.750979  1
  Si  Si14  1  0.332767  0.666663  0.249255  1
  Si  Si15  1  0.000496  0.000955  0.750779  1
