# generated using pymatgen
data_SmGa5Cu6
_symmetry_space_group_name_H-M   'P 1'
_cell_length_a   10.36571528
_cell_length_b   8.19587503
_cell_length_c   7.89002447
_cell_angle_alpha   80.21646101
_cell_angle_beta   51.18487020
_cell_angle_gamma   48.59865679
_symmetry_Int_Tables_number   1
_chemical_formula_structural   SmGa5Cu6
_chemical_formula_sum   'Sm2 Ga10 Cu12'
_cell_volume   355.80325719
_cell_formula_units_Z   2
loop_
 _symmetry_equiv_pos_site_id
 _symmetry_equiv_pos_as_xyz
  1  'x, y, z'
loop_
 _atom_site_type_symbol
 _atom_site_label
 _atom_site_symmetry_multiplicity
 _atom_site_fract_x
 _atom_site_fract_y
 _atom_site_fract_z
 _atom_site_occupancy
  Sm  Sm0  1  0.000000  0.000000  0.000000  1
  Sm  Sm1  1  0.250000  0.250000  0.250000  1
  Ga  Ga2  1  0.500000  0.500000  0.500000  1
  Ga  Ga3  1  0.750000  0.750000  0.750000  1
  Ga  Ga4  1  0.754393  0.072209  0.836100  1
  Ga  Ga5  1  0.836100  0.337301  0.754393  1
  Ga  Ga6  1  0.072209  0.754393  0.337301  1
  Ga  Ga7  1  0.337301  0.836100  0.072209  1
  Ga  Ga8  1  0.495607  0.177791  0.413900  1
  Ga  Ga9  1  0.413900  0.912699  0.495607  1
  Ga  Ga10  1  0.177791  0.495607  0.912699  1
  Ga  Ga11  1  0.912699  0.413900  0.177791  1
  Cu  Cu12  1  0.625000  0.125000  0.625000  1
  Cu  Cu13  1  0.625000  0.625000  0.625000  1
  Cu  Cu14  1  0.125000  0.625000  0.625000  1
  Cu  Cu15  1  0.625000  0.625000  0.125000  1
  Cu  Cu16  1  0.488786  0.435478  0.185596  1
  Cu  Cu17  1  0.185596  0.890138  0.488786  1
  Cu  Cu18  1  0.435478  0.488786  0.890138  1
  Cu  Cu19  1  0.890138  0.185596  0.435478  1
  Cu  Cu20  1  0.761214  0.814522  0.064404  1
  Cu  Cu21  1  0.064404  0.359862  0.761214  1
  Cu  Cu22  1  0.814522  0.761214  0.359862  1
  Cu  Cu23  1  0.359862  0.064404  0.814522  1
