# generated using pymatgen
data_Ho18Er2FeCo3Bi8
_symmetry_space_group_name_H-M   'P 1'
_cell_length_a   7.96580739
_cell_length_b   8.88069712
_cell_length_c   12.36988928
_cell_angle_alpha   89.98459478
_cell_angle_beta   89.99243323
_cell_angle_gamma   89.98848788
_symmetry_Int_Tables_number   1
_chemical_formula_structural   Ho18Er2FeCo3Bi8
_chemical_formula_sum   'Ho18 Er2 Fe1 Co3 Bi8'
_cell_volume   875.06969498
_cell_formula_units_Z   1
loop_
 _symmetry_equiv_pos_site_id
 _symmetry_equiv_pos_as_xyz
  1  'x, y, z'
loop_
 _atom_site_type_symbol
 _atom_site_label
 _atom_site_symmetry_multiplicity
 _atom_site_fract_x
 _atom_site_fract_y
 _atom_site_fract_z
 _atom_site_occupancy
  Ho  Ho0  1  0.346436  0.749920  0.700449  1
  Ho  Ho1  1  0.652738  0.250091  0.300632  1
  Ho  Ho2  1  0.846979  0.250039  0.799984  1
  Ho  Ho3  1  0.152161  0.749958  0.199308  1
  Ho  Ho4  1  0.886651  0.749999  0.811423  1
  Ho  Ho5  1  0.114496  0.249994  0.189132  1
  Ho  Ho6  1  0.385688  0.250191  0.688417  1
  Ho  Ho7  1  0.613847  0.749838  0.312181  1
  Ho  Ho8  1  0.174382  0.464056  0.937513  1
  Ho  Ho9  1  0.324591  0.038460  0.436840  1
  Ho  Ho10  1  0.824416  0.538607  0.062848  1
  Ho  Ho11  1  0.675526  0.962769  0.563275  1
  Ho  Ho12  1  0.824423  0.961437  0.062813  1
  Ho  Ho13  1  0.174345  0.035905  0.937538  1
  Ho  Ho14  1  0.052849  0.749876  0.497097  1
  Ho  Ho15  1  0.947393  0.250123  0.502551  1
  Ho  Ho16  1  0.554010  0.249990  0.002676  1
  Ho  Ho17  1  0.445536  0.750007  0.996781  1
  Er  Er18  1  0.674738  0.537271  0.563265  1
  Er  Er19  1  0.325362  0.461492  0.436892  1
  Fe  Fe20  1  0.069434  0.750003  0.990792  1
  Co  Co21  1  0.932525  0.249994  0.008507  1
  Co  Co22  1  0.566005  0.250350  0.508322  1
  Co  Co23  1  0.434155  0.749642  0.492289  1
  Bi  Bi24  1  0.572273  0.509399  0.826375  1
  Bi  Bi25  1  0.428571  0.490719  0.173227  1
  Bi  Bi26  1  0.071724  0.490790  0.673027  1
  Bi  Bi27  1  0.428583  0.009256  0.173142  1
  Bi  Bi28  1  0.928088  0.509408  0.326604  1
  Bi  Bi29  1  0.572257  0.990628  0.826459  1
  Bi  Bi30  1  0.927891  0.990574  0.326554  1
  Bi  Bi31  1  0.071927  0.009214  0.673085  1
