# generated using pymatgen
data_TbDy4(NiTe)2
_symmetry_space_group_name_H-M   'P 1'
_cell_length_a   7.75268988
_cell_length_b   7.75268932
_cell_length_c   14.86812297
_cell_angle_alpha   90.04525667
_cell_angle_beta   89.95474371
_cell_angle_gamma   150.02657653
_symmetry_Int_Tables_number   1
_chemical_formula_structural   TbDy4(NiTe)2
_chemical_formula_sum   'Tb2 Dy8 Ni4 Te4'
_cell_volume   446.45911389
_cell_formula_units_Z   2
loop_
 _symmetry_equiv_pos_site_id
 _symmetry_equiv_pos_as_xyz
  1  'x, y, z'
loop_
 _atom_site_type_symbol
 _atom_site_label
 _atom_site_symmetry_multiplicity
 _atom_site_fract_x
 _atom_site_fract_y
 _atom_site_fract_z
 _atom_site_occupancy
  Tb  Tb0  1  0.959542  0.040458  0.125195  1
  Tb  Tb1  1  0.040458  0.959542  0.874805  1
  Dy  Dy2  1  0.040297  0.959703  0.624736  1
  Dy  Dy3  1  0.959703  0.040297  0.375264  1
  Dy  Dy4  1  0.740924  0.259076  0.627781  1
  Dy  Dy5  1  0.259076  0.740924  0.372219  1
  Dy  Dy6  1  0.258663  0.741337  0.127876  1
  Dy  Dy7  1  0.741337  0.258663  0.872124  1
  Dy  Dy8  1  0.605889  0.394111  0.250119  1
  Dy  Dy9  1  0.394111  0.605889  0.749881  1
  Ni  Ni10  1  0.411493  0.588507  0.250812  1
  Ni  Ni11  1  0.588507  0.411493  0.749188  1
  Ni  Ni12  1  0.813129  0.186871  0.250257  1
  Ni  Ni13  1  0.186871  0.813129  0.749743  1
  Te  Te14  1  0.615161  0.384839  0.040258  1
  Te  Te15  1  0.384839  0.615161  0.959742  1
  Te  Te16  1  0.385155  0.614845  0.540176  1
  Te  Te17  1  0.614845  0.385155  0.459824  1
