# generated using pymatgen
data_Hf18Mn2Re5Mo3
_symmetry_space_group_name_H-M   'P 1'
_cell_length_a   8.59225142
_cell_length_b   8.59226118
_cell_length_c   8.50134800
_cell_angle_alpha   90.00000000
_cell_angle_beta   90.00000000
_cell_angle_gamma   120.04164921
_symmetry_Int_Tables_number   1
_chemical_formula_structural   Hf18Mn2Re5Mo3
_chemical_formula_sum   'Hf18 Mn2 Re5 Mo3'
_cell_volume   543.31344518
_cell_formula_units_Z   1
loop_
 _symmetry_equiv_pos_site_id
 _symmetry_equiv_pos_as_xyz
  1  'x, y, z'
loop_
 _atom_site_type_symbol
 _atom_site_label
 _atom_site_symmetry_multiplicity
 _atom_site_fract_x
 _atom_site_fract_y
 _atom_site_fract_z
 _atom_site_occupancy
  Hf  Hf0  1  0.200866  0.799132  0.441526  1
  Hf  Hf1  1  0.201843  0.402733  0.443306  1
  Hf  Hf2  1  0.597267  0.798159  0.443308  1
  Hf  Hf3  1  0.798914  0.201085  0.559782  1
  Hf  Hf4  1  0.799301  0.598552  0.558397  1
  Hf  Hf5  1  0.401447  0.200698  0.558396  1
  Hf  Hf6  1  0.798914  0.201085  0.940218  1
  Hf  Hf7  1  0.799301  0.598552  0.941603  1
  Hf  Hf8  1  0.401447  0.200698  0.941604  1
  Hf  Hf9  1  0.200866  0.799132  0.058474  1
  Hf  Hf10  1  0.201843  0.402733  0.056694  1
  Hf  Hf11  1  0.597267  0.798159  0.056692  1
  Hf  Hf12  1  0.540003  0.459996  0.250000  1
  Hf  Hf13  1  0.538643  0.080642  0.250000  1
  Hf  Hf14  1  0.919358  0.461355  0.250000  1
  Hf  Hf15  1  0.459729  0.540270  0.750000  1
  Hf  Hf16  1  0.459004  0.918866  0.750000  1
  Hf  Hf17  1  0.081135  0.540995  0.750000  1
  Mn  Mn18  1  0.333708  0.666290  0.250000  1
  Mn  Mn19  1  0.666186  0.333818  0.750000  1
  Re  Re20  1  0.888127  0.774167  0.250000  1
  Re  Re21  1  0.225833  0.111874  0.250000  1
  Re  Re22  1  0.111773  0.888232  0.750000  1
  Re  Re23  1  0.112687  0.224659  0.750000  1
  Re  Re24  1  0.775346  0.887315  0.750000  1
  Mo  Mo25  1  0.888605  0.111392  0.250000  1
  Mo  Mo26  1  0.000293  0.999705  0.499675  1
  Mo  Mo27  1  0.000293  0.999705  0.000325  1
