# generated using pymatgen
data_YErHf3Ge4
_symmetry_space_group_name_H-M   'P 1'
_cell_length_a   7.37820944
_cell_length_b   7.37917932
_cell_length_c   13.51890500
_cell_angle_alpha   90.02939647
_cell_angle_beta   90.04659324
_cell_angle_gamma   90.01769472
_symmetry_Int_Tables_number   1
_chemical_formula_structural   YErHf3Ge4
_chemical_formula_sum   'Y4 Er4 Hf12 Ge16'
_cell_volume   736.03817211
_cell_formula_units_Z   4
loop_
 _symmetry_equiv_pos_site_id
 _symmetry_equiv_pos_as_xyz
  1  'x, y, z'
loop_
 _atom_site_type_symbol
 _atom_site_label
 _atom_site_symmetry_multiplicity
 _atom_site_fract_x
 _atom_site_fract_y
 _atom_site_fract_z
 _atom_site_occupancy
  Y  Y0  1  0.998234  0.339817  0.218553  1
  Y  Y1  1  0.001762  0.660256  0.718633  1
  Y  Y2  1  0.160175  0.498220  0.468586  1
  Y  Y3  1  0.501940  0.839937  0.031416  1
  Er  Er4  1  0.840467  0.500916  0.968574  1
  Er  Er5  1  0.498913  0.159481  0.531398  1
  Er  Er6  1  0.340403  0.999086  0.781379  1
  Er  Er7  1  0.659541  0.000916  0.281525  1
  Hf  Hf8  1  0.170956  0.171204  0.999890  1
  Hf  Hf9  1  0.828493  0.829298  0.499983  1
  Hf  Hf10  1  0.329299  0.671256  0.250071  1
  Hf  Hf11  1  0.670637  0.328784  0.750023  1
  Hf  Hf12  1  0.157896  0.996834  0.375902  1
  Hf  Hf13  1  0.842120  0.003511  0.875452  1
  Hf  Hf14  1  0.503349  0.657879  0.625780  1
  Hf  Hf15  1  0.342276  0.496282  0.874263  1
  Hf  Hf16  1  0.496654  0.342022  0.125450  1
  Hf  Hf17  1  0.657743  0.503796  0.374632  1
  Hf  Hf18  1  0.996245  0.157777  0.624692  1
  Hf  Hf19  1  0.003424  0.842120  0.124262  1
  Ge  Ge20  1  0.368288  0.299903  0.323303  1
  Ge  Ge21  1  0.633032  0.698859  0.823657  1
  Ge  Ge22  1  0.200063  0.868490  0.573380  1
  Ge  Ge23  1  0.133039  0.801133  0.926350  1
  Ge  Ge24  1  0.800706  0.132891  0.072963  1
  Ge  Ge25  1  0.865745  0.198266  0.426734  1
  Ge  Ge26  1  0.301691  0.365738  0.676569  1
  Ge  Ge27  1  0.699493  0.632910  0.176976  1
  Ge  Ge28  1  0.297862  0.035462  0.181769  1
  Ge  Ge29  1  0.701257  0.965207  0.681257  1
  Ge  Ge30  1  0.465096  0.798674  0.431375  1
  Ge  Ge31  1  0.202336  0.535693  0.068241  1
  Ge  Ge32  1  0.535126  0.202483  0.931090  1
  Ge  Ge33  1  0.796533  0.464028  0.568447  1
  Ge  Ge34  1  0.035144  0.297426  0.818950  1
  Ge  Ge35  1  0.964063  0.703444  0.318475  1
