# generated using pymatgen
data_Pr5V3(P3Ir4)4
_symmetry_space_group_name_H-M   'P 1'
_cell_length_a   12.81204700
_cell_length_b   12.81204710
_cell_length_c   4.01028300
_cell_angle_alpha   90.00000000
_cell_angle_beta   90.00000000
_cell_angle_gamma   120.00000233
_symmetry_Int_Tables_number   1
_chemical_formula_structural   Pr5V3(P3Ir4)4
_chemical_formula_sum   'Pr5 V3 P12 Ir16'
_cell_volume   570.08904083
_cell_formula_units_Z   1
loop_
 _symmetry_equiv_pos_site_id
 _symmetry_equiv_pos_as_xyz
  1  'x, y, z'
loop_
 _atom_site_type_symbol
 _atom_site_label
 _atom_site_symmetry_multiplicity
 _atom_site_fract_x
 _atom_site_fract_y
 _atom_site_fract_z
 _atom_site_occupancy
  Pr  Pr0  1  0.333333  0.666667  0.500000  1
  Pr  Pr1  1  0.666667  0.333333  0.500000  1
  Pr  Pr2  1  0.000000  0.810144  0.000000  1
  Pr  Pr3  1  0.189856  0.189856  0.000000  1
  Pr  Pr4  1  0.810144  0.000000  0.000000  1
  V  V5  1  0.000000  0.449571  0.500000  1
  V  V6  1  0.550429  0.550429  0.500000  1
  V  V7  1  0.449571  0.000000  0.500000  1
  P  P8  1  0.000000  0.631469  0.500000  1
  P  P9  1  0.368531  0.368531  0.500000  1
  P  P10  1  0.631469  0.000000  0.500000  1
  P  P11  1  0.518204  0.684005  0.000000  1
  P  P12  1  0.315995  0.834198  0.000000  1
  P  P13  1  0.165802  0.481796  0.000000  1
  P  P14  1  0.481796  0.165802  0.000000  1
  P  P15  1  0.684005  0.518204  0.000000  1
  P  P16  1  0.834198  0.315995  0.000000  1
  P  P17  1  0.000000  0.179213  0.500000  1
  P  P18  1  0.820787  0.820787  0.500000  1
  P  P19  1  0.179213  0.000000  0.500000  1
  Ir  Ir20  1  0.510810  0.869958  0.000000  1
  Ir  Ir21  1  0.130042  0.640854  0.000000  1
  Ir  Ir22  1  0.359146  0.489190  0.000000  1
  Ir  Ir23  1  0.489190  0.359146  0.000000  1
  Ir  Ir24  1  0.869958  0.510810  0.000000  1
  Ir  Ir25  1  0.640854  0.130042  0.000000  1
  Ir  Ir26  1  0.000000  0.286707  0.000000  1
  Ir  Ir27  1  0.713293  0.713293  0.000000  1
  Ir  Ir28  1  0.286707  0.000000  0.000000  1
  Ir  Ir29  1  0.622193  0.799950  0.500000  1
  Ir  Ir30  1  0.200050  0.822243  0.500000  1
  Ir  Ir31  1  0.177757  0.377807  0.500000  1
  Ir  Ir32  1  0.377807  0.177757  0.500000  1
  Ir  Ir33  1  0.799950  0.622193  0.500000  1
  Ir  Ir34  1  0.822243  0.200050  0.500000  1
  Ir  Ir35  1  0.000000  0.000000  0.500000  1
