# generated using pymatgen
data_Tb4ReTc5Os2
_symmetry_space_group_name_H-M   'P 1'
_cell_length_a   5.27932676
_cell_length_b   5.27932745
_cell_length_c   9.13835200
_cell_angle_alpha   90.00000000
_cell_angle_beta   90.00000000
_cell_angle_gamma   118.94636816
_symmetry_Int_Tables_number   1
_chemical_formula_structural   Tb4ReTc5Os2
_chemical_formula_sum   'Tb4 Re1 Tc5 Os2'
_cell_volume   222.87911508
_cell_formula_units_Z   1
loop_
 _symmetry_equiv_pos_site_id
 _symmetry_equiv_pos_as_xyz
  1  'x, y, z'
loop_
 _atom_site_type_symbol
 _atom_site_label
 _atom_site_symmetry_multiplicity
 _atom_site_fract_x
 _atom_site_fract_y
 _atom_site_fract_z
 _atom_site_occupancy
  Tb  Tb0  1  0.331220  0.668780  0.437425  1
  Tb  Tb1  1  0.666576  0.333424  0.563263  1
  Tb  Tb2  1  0.666576  0.333424  0.936737  1
  Tb  Tb3  1  0.331220  0.668780  0.062575  1
  Re  Re4  1  0.835232  0.164768  0.250000  1
  Tc  Tc5  1  0.828052  0.653408  0.250000  1
  Tc  Tc6  1  0.346592  0.171948  0.250000  1
  Tc  Tc7  1  0.172971  0.827029  0.750000  1
  Tc  Tc8  1  0.168405  0.338247  0.750000  1
  Tc  Tc9  1  0.661753  0.831595  0.750000  1
  Os  Os10  1  0.995704  0.004296  0.499900  1
  Os  Os11  1  0.995704  0.004296  0.000100  1
