# generated using pymatgen
data_ErScFe4Co8P7
_symmetry_space_group_name_H-M   'P 1'
_cell_length_a   8.94271743
_cell_length_b   8.94948141
_cell_length_c   3.59144100
_cell_angle_alpha   90.00000000
_cell_angle_beta   90.00000000
_cell_angle_gamma   119.94782290
_symmetry_Int_Tables_number   1
_chemical_formula_structural   ErScFe4Co8P7
_chemical_formula_sum   'Er1 Sc1 Fe4 Co8 P7'
_cell_volume   249.05475960
_cell_formula_units_Z   1
loop_
 _symmetry_equiv_pos_site_id
 _symmetry_equiv_pos_as_xyz
  1  'x, y, z'
loop_
 _atom_site_type_symbol
 _atom_site_label
 _atom_site_symmetry_multiplicity
 _atom_site_fract_x
 _atom_site_fract_y
 _atom_site_fract_z
 _atom_site_occupancy
  Er  Er0  1  0.001161  0.000404  0.000000  1
  Sc  Sc1  1  0.333047  0.666125  0.500000  1
  Fe  Fe2  1  0.391375  0.175111  0.000000  1
  Fe  Fe3  1  0.884983  0.457408  0.500000  1
  Fe  Fe4  1  0.541609  0.429816  0.500000  1
  Fe  Fe5  1  0.569773  0.110615  0.500000  1
  Co  Co6  1  0.100379  0.703396  0.000000  1
  Co  Co7  1  0.297174  0.397133  0.000000  1
  Co  Co8  1  0.603077  0.899329  0.000000  1
  Co  Co9  1  0.824914  0.216780  0.000000  1
  Co  Co10  1  0.783621  0.609862  0.000000  1
  Co  Co11  1  0.054172  0.285348  0.500000  1
  Co  Co12  1  0.715016  0.769146  0.500000  1
  Co  Co13  1  0.231768  0.945994  0.500000  1
  P  P14  1  0.080692  0.450432  0.000000  1
  P  P15  1  0.549773  0.630159  0.000000  1
  P  P16  1  0.369416  0.919348  0.000000  1
  P  P17  1  0.780624  0.045125  0.500000  1
  P  P18  1  0.955943  0.735464  0.500000  1
  P  P19  1  0.265766  0.219321  0.500000  1
  P  P20  1  0.665721  0.333680  0.000000  1
