# generated using pymatgen
data_NpO2F3
_symmetry_space_group_name_H-M   'P 1'
_cell_length_a   5.30148708
_cell_length_b   5.30148822
_cell_length_c   5.39474400
_cell_angle_alpha   102.83554928
_cell_angle_beta   97.92587643
_cell_angle_gamma   129.31780916
_symmetry_Int_Tables_number   1
_chemical_formula_structural   NpO2F3
_chemical_formula_sum   'Np1 O2 F3'
_cell_volume   106.28121454
_cell_formula_units_Z   1
loop_
 _symmetry_equiv_pos_site_id
 _symmetry_equiv_pos_as_xyz
  1  'x, y, z'
loop_
 _atom_site_type_symbol
 _atom_site_label
 _atom_site_symmetry_multiplicity
 _atom_site_fract_x
 _atom_site_fract_y
 _atom_site_fract_z
 _atom_site_occupancy
  Np  Np0  1  0.000000  0.000000  0.000000  1
  O  O1  1  0.913425  0.251544  0.164970  1
  O  O2  1  0.086575  0.748456  0.835030  1
  F  F3  1  0.273989  0.097103  0.371093  1
  F  F4  1  0.726011  0.902897  0.628907  1
  F  F5  1  0.500000  0.500000  0.000000  1
