# generated using pymatgen
data_La9Pr6Th(CdIr)4
_symmetry_space_group_name_H-M   'P 1'
_cell_length_a   10.09691073
_cell_length_b   10.09690985
_cell_length_c   10.09690961
_cell_angle_alpha   60.18298225
_cell_angle_beta   60.18298418
_cell_angle_gamma   60.18298512
_symmetry_Int_Tables_number   1
_chemical_formula_structural   La9Pr6Th(CdIr)4
_chemical_formula_sum   'La9 Pr6 Th1 Cd4 Ir4'
_cell_volume   730.88056783
_cell_formula_units_Z   1
loop_
 _symmetry_equiv_pos_site_id
 _symmetry_equiv_pos_as_xyz
  1  'x, y, z'
loop_
 _atom_site_type_symbol
 _atom_site_label
 _atom_site_symmetry_multiplicity
 _atom_site_fract_x
 _atom_site_fract_y
 _atom_site_fract_z
 _atom_site_occupancy
  La  La0  1  0.347692  0.347692  0.957084  1
  La  La1  1  0.347692  0.957084  0.347692  1
  La  La2  1  0.957084  0.347692  0.347692  1
  La  La3  1  0.809798  0.190371  0.190371  1
  La  La4  1  0.190747  0.808414  0.808414  1
  La  La5  1  0.190371  0.809798  0.190371  1
  La  La6  1  0.808414  0.190747  0.808414  1
  La  La7  1  0.190371  0.190371  0.809798  1
  La  La8  1  0.808414  0.808414  0.190747  1
  Pr  Pr9  1  0.940409  0.562659  0.562659  1
  Pr  Pr10  1  0.561184  0.937736  0.937736  1
  Pr  Pr11  1  0.562659  0.940409  0.562659  1
  Pr  Pr12  1  0.937736  0.561184  0.937736  1
  Pr  Pr13  1  0.562659  0.562659  0.940409  1
  Pr  Pr14  1  0.937736  0.937736  0.561184  1
  Th  Th15  1  0.344282  0.344282  0.344282  1
  Cd  Cd16  1  0.579613  0.579613  0.579613  1
  Cd  Cd17  1  0.578892  0.578892  0.259340  1
  Cd  Cd18  1  0.578892  0.259340  0.578892  1
  Cd  Cd19  1  0.259340  0.578892  0.578892  1
  Ir  Ir20  1  0.141378  0.141378  0.141378  1
  Ir  Ir21  1  0.146223  0.146223  0.572186  1
  Ir  Ir22  1  0.146223  0.572186  0.146223  1
  Ir  Ir23  1  0.572186  0.146223  0.146223  1
