# generated using pymatgen
data_Y4TaOs7
_symmetry_space_group_name_H-M   'P 1'
_cell_length_a   5.30073726
_cell_length_b   5.30073728
_cell_length_c   8.96637600
_cell_angle_alpha   90.00000000
_cell_angle_beta   90.00000000
_cell_angle_gamma   117.40294823
_symmetry_Int_Tables_number   1
_chemical_formula_structural   Y4TaOs7
_chemical_formula_sum   'Y4 Ta1 Os7'
_cell_volume   223.66631760
_cell_formula_units_Z   1
loop_
 _symmetry_equiv_pos_site_id
 _symmetry_equiv_pos_as_xyz
  1  'x, y, z'
loop_
 _atom_site_type_symbol
 _atom_site_label
 _atom_site_symmetry_multiplicity
 _atom_site_fract_x
 _atom_site_fract_y
 _atom_site_fract_z
 _atom_site_occupancy
  Y  Y0  1  0.329891  0.670109  0.440106  1
  Y  Y1  1  0.667271  0.332729  0.568903  1
  Y  Y2  1  0.667271  0.332729  0.931097  1
  Y  Y3  1  0.329891  0.670109  0.059894  1
  Ta  Ta4  1  0.837534  0.162466  0.250000  1
  Os  Os5  1  0.998189  0.001811  0.505686  1
  Os  Os6  1  0.998189  0.001811  0.994314  1
  Os  Os7  1  0.823017  0.652877  0.250000  1
  Os  Os8  1  0.347123  0.176983  0.250000  1
  Os  Os9  1  0.172379  0.827621  0.750000  1
  Os  Os10  1  0.173771  0.344526  0.750000  1
  Os  Os11  1  0.655474  0.826229  0.750000  1
