# generated using pymatgen
data_Cs2Yb(ThSe3)2
_symmetry_space_group_name_H-M   'P 1'
_cell_length_a   7.51165600
_cell_length_b   7.51165657
_cell_length_c   8.80410100
_cell_angle_alpha   90.00000000
_cell_angle_beta   90.00000000
_cell_angle_gamma   120.00000630
_symmetry_Int_Tables_number   1
_chemical_formula_structural   Cs2Yb(ThSe3)2
_chemical_formula_sum   'Cs2 Yb1 Th2 Se6'
_cell_volume   430.21647256
_cell_formula_units_Z   1
loop_
 _symmetry_equiv_pos_site_id
 _symmetry_equiv_pos_as_xyz
  1  'x, y, z'
loop_
 _atom_site_type_symbol
 _atom_site_label
 _atom_site_symmetry_multiplicity
 _atom_site_fract_x
 _atom_site_fract_y
 _atom_site_fract_z
 _atom_site_occupancy
  Cs  Cs0  1  0.333333  0.666666  0.500888  1
  Cs  Cs1  1  0.666667  0.333334  0.499112  1
  Yb  Yb2  1  0.000000  0.000000  0.000000  1
  Th  Th3  1  0.666667  0.333334  0.999686  1
  Th  Th4  1  0.333333  0.666666  0.000314  1
  Se  Se5  1  0.656475  0.000202  0.180529  1
  Se  Se6  1  0.343728  0.343526  0.180529  1
  Se  Se7  1  0.999798  0.656271  0.180529  1
  Se  Se8  1  0.000202  0.343729  0.819470  1
  Se  Se9  1  0.656272  0.656474  0.819470  1
  Se  Se10  1  0.343525  0.999798  0.819470  1
