# generated using pymatgen
data_Cs2Mn2ZnTe4
_symmetry_space_group_name_H-M   'P 1'
_cell_length_a   10.66952164
_cell_length_b   10.66952163
_cell_length_c   10.66952143
_cell_angle_alpha   144.24975174
_cell_angle_beta   104.78709297
_cell_angle_gamma   86.16982561
_symmetry_Int_Tables_number   1
_chemical_formula_structural   Cs2Mn2ZnTe4
_chemical_formula_sum   'Cs4 Mn4 Zn2 Te8'
_cell_volume   664.62434806
_cell_formula_units_Z   2
loop_
 _symmetry_equiv_pos_site_id
 _symmetry_equiv_pos_as_xyz
  1  'x, y, z'
loop_
 _atom_site_type_symbol
 _atom_site_label
 _atom_site_symmetry_multiplicity
 _atom_site_fract_x
 _atom_site_fract_y
 _atom_site_fract_z
 _atom_site_occupancy
  Cs  Cs0  1  0.123170  0.234901  0.358503  1
  Cs  Cs1  1  0.376830  0.735333  0.111731  1
  Cs  Cs2  1  0.623602  0.265099  0.888269  1
  Cs  Cs3  1  0.876398  0.764667  0.641497  1
  Mn  Mn4  1  0.488010  0.250000  0.238010  1
  Mn  Mn5  1  0.750000  0.250000  0.500000  1
  Mn  Mn6  1  0.250000  0.750000  0.500000  1
  Mn  Mn7  1  0.011990  0.250000  0.761990  1
  Zn  Zn8  1  0.512487  0.750000  0.762487  1
  Zn  Zn9  1  0.987513  0.750000  0.237513  1
  Te  Te10  1  0.217693  0.076084  0.593076  1
  Te  Te11  1  0.282307  0.875383  0.858390  1
  Te  Te12  1  0.016992  0.423916  0.141610  1
  Te  Te13  1  0.483008  0.624617  0.406924  1
  Te  Te14  1  0.781017  0.915323  0.394540  1
  Te  Te15  1  0.718984  0.113523  0.134307  1
  Te  Te16  1  0.979217  0.584677  0.865693  1
  Te  Te17  1  0.520783  0.386477  0.605460  1
