# generated using pymatgen
data_NpTl3F8
_symmetry_space_group_name_H-M   'P 1'
_cell_length_a   8.61979500
_cell_length_b   8.61979523
_cell_length_c   6.52004100
_cell_angle_alpha   90.00000000
_cell_angle_beta   90.00000000
_cell_angle_gamma   119.99999528
_symmetry_Int_Tables_number   1
_chemical_formula_structural   NpTl3F8
_chemical_formula_sum   'Np2 Tl6 F16'
_cell_volume   419.54144084
_cell_formula_units_Z   2
loop_
 _symmetry_equiv_pos_site_id
 _symmetry_equiv_pos_as_xyz
  1  'x, y, z'
loop_
 _atom_site_type_symbol
 _atom_site_label
 _atom_site_symmetry_multiplicity
 _atom_site_fract_x
 _atom_site_fract_y
 _atom_site_fract_z
 _atom_site_occupancy
  Np  Np0  1  0.333333  0.666667  0.729779  1
  Np  Np1  1  0.666667  0.333333  0.229779  1
  Tl  Tl2  1  0.152708  0.305416  0.237899  1
  Tl  Tl3  1  0.847292  0.694584  0.737900  1
  Tl  Tl4  1  0.694584  0.847292  0.237899  1
  Tl  Tl5  1  0.152708  0.847292  0.237899  1
  Tl  Tl6  1  0.847292  0.152708  0.737900  1
  Tl  Tl7  1  0.305416  0.152708  0.737900  1
  F  F8  1  0.000000  0.000000  0.009206  1
  F  F9  1  0.000000  0.000000  0.509206  1
  F  F10  1  0.445287  0.554713  0.531234  1
  F  F11  1  0.554713  0.445287  0.031234  1
  F  F12  1  0.445287  0.890574  0.531234  1
  F  F13  1  0.109426  0.554713  0.531234  1
  F  F14  1  0.890574  0.445287  0.031234  1
  F  F15  1  0.554713  0.109426  0.031234  1
  F  F16  1  0.333333  0.666667  0.067138  1
  F  F17  1  0.666667  0.333333  0.567138  1
  F  F18  1  0.194683  0.805317  0.823878  1
  F  F19  1  0.805317  0.194683  0.323878  1
  F  F20  1  0.194683  0.389364  0.823878  1
  F  F21  1  0.610636  0.805317  0.823878  1
  F  F22  1  0.389364  0.194683  0.323878  1
  F  F23  1  0.805317  0.610636  0.323878  1
