# generated using pymatgen
data_Gd4AlCo2Au
_symmetry_space_group_name_H-M   'P 1'
_cell_length_a   8.66870937
_cell_length_b   8.66871054
_cell_length_c   8.66871000
_cell_angle_alpha   132.18557154
_cell_angle_beta   132.18556072
_cell_angle_gamma   69.93609825
_symmetry_Int_Tables_number   1
_chemical_formula_structural   Gd4AlCo2Au
_chemical_formula_sum   'Gd8 Al2 Co4 Au2'
_cell_volume   350.68557803
_cell_formula_units_Z   2
loop_
 _symmetry_equiv_pos_site_id
 _symmetry_equiv_pos_as_xyz
  1  'x, y, z'
loop_
 _atom_site_type_symbol
 _atom_site_label
 _atom_site_symmetry_multiplicity
 _atom_site_fract_x
 _atom_site_fract_y
 _atom_site_fract_z
 _atom_site_occupancy
  Gd  Gd0  1  0.808293  0.308293  0.860591  1
  Gd  Gd1  1  0.191707  0.691707  0.139410  1
  Gd  Gd2  1  0.447703  0.947703  0.139410  1
  Gd  Gd3  1  0.308293  0.447703  0.500000  1
  Gd  Gd4  1  0.052297  0.191707  0.500000  1
  Gd  Gd5  1  0.552297  0.052297  0.860590  1
  Gd  Gd6  1  0.691707  0.552297  0.500000  1
  Gd  Gd7  1  0.947703  0.808293  0.500000  1
  Al  Al8  1  0.000000  0.000000  0.000000  1
  Al  Al9  1  0.500000  0.500000  0.000000  1
  Co  Co10  1  0.121957  0.621957  0.743915  1
  Co  Co11  1  0.878043  0.378043  0.256085  1
  Co  Co12  1  0.621957  0.878043  0.500000  1
  Co  Co13  1  0.378043  0.121957  0.500000  1
  Au  Au14  1  0.250000  0.250000  0.000000  1
  Au  Au15  1  0.750000  0.750000  0.000000  1
