# generated using pymatgen
data_Ba8Y5Er3(FeO4)8
_symmetry_space_group_name_H-M   'P 1'
_cell_length_a   5.74926400
_cell_length_b   10.37029622
_cell_length_c   13.31924328
_cell_angle_alpha   89.97659429
_cell_angle_beta   90.00000000
_cell_angle_gamma   90.00000000
_symmetry_Int_Tables_number   1
_chemical_formula_structural   Ba8Y5Er3(FeO4)8
_chemical_formula_sum   'Ba8 Y5 Er3 Fe8 O32'
_cell_volume   794.11413858
_cell_formula_units_Z   1
loop_
 _symmetry_equiv_pos_site_id
 _symmetry_equiv_pos_as_xyz
  1  'x, y, z'
loop_
 _atom_site_type_symbol
 _atom_site_label
 _atom_site_symmetry_multiplicity
 _atom_site_fract_x
 _atom_site_fract_y
 _atom_site_fract_z
 _atom_site_occupancy
  Ba  Ba0  1  0.250000  0.826516  0.712475  1
  Ba  Ba1  1  0.250000  0.673064  0.212005  1
  Ba  Ba2  1  0.750000  0.173248  0.287874  1
  Ba  Ba3  1  0.750000  0.326841  0.788020  1
  Ba  Ba4  1  0.250000  0.103035  0.915317  1
  Ba  Ba5  1  0.250000  0.396743  0.415439  1
  Ba  Ba6  1  0.750000  0.897088  0.084551  1
  Ba  Ba7  1  0.750000  0.602622  0.584571  1
  Y  Y8  1  0.750000  0.985496  0.584010  1
  Y  Y9  1  0.250000  0.190258  0.642700  1
  Y  Y10  1  0.250000  0.310235  0.142542  1
  Y  Y11  1  0.750000  0.809876  0.356991  1
  Y  Y12  1  0.750000  0.689580  0.857559  1
  Er  Er13  1  0.250000  0.485850  0.915838  1
  Er  Er14  1  0.250000  0.014215  0.415313  1
  Er  Er15  1  0.750000  0.514097  0.084175  1
  Fe  Fe16  1  0.250000  0.781915  0.969414  1
  Fe  Fe17  1  0.250000  0.717377  0.469040  1
  Fe  Fe18  1  0.750000  0.218089  0.030740  1
  Fe  Fe19  1  0.750000  0.282469  0.530494  1
  Fe  Fe20  1  0.250000  0.476569  0.693258  1
  Fe  Fe21  1  0.250000  0.023625  0.193032  1
  Fe  Fe22  1  0.750000  0.523512  0.306809  1
  Fe  Fe23  1  0.750000  0.976497  0.807575  1
  O  O24  1  0.250000  0.881059  0.088921  1
  O  O25  1  0.250000  0.618851  0.588993  1
  O  O26  1  0.750000  0.119001  0.911319  1
  O  O27  1  0.750000  0.381251  0.410977  1
  O  O28  1  0.250000  0.319521  0.791839  1
  O  O29  1  0.250000  0.180697  0.291629  1
  O  O30  1  0.750000  0.680779  0.208099  1
  O  O31  1  0.750000  0.818228  0.709160  1
  O  O32  1  0.507957  0.138837  0.506024  1
  O  O33  1  0.990308  0.362622  0.006777  1
  O  O34  1  0.011184  0.861715  0.492241  1
  O  O35  1  0.490259  0.637378  0.993259  1
  O  O36  1  0.488816  0.861715  0.492241  1
  O  O37  1  0.009741  0.637378  0.993259  1
  O  O38  1  0.992043  0.138837  0.506024  1
  O  O39  1  0.509692  0.362622  0.006777  1
  O  O40  1  0.509571  0.057522  0.717193  1
  O  O41  1  0.989032  0.442989  0.215732  1
  O  O42  1  0.010809  0.943086  0.284114  1
  O  O43  1  0.489006  0.556998  0.784261  1
  O  O44  1  0.489191  0.943086  0.284114  1
  O  O45  1  0.010994  0.556998  0.784261  1
  O  O46  1  0.990429  0.057522  0.717193  1
  O  O47  1  0.510968  0.442989  0.215732  1
  O  O48  1  0.998959  0.367505  0.611191  1
  O  O49  1  0.500896  0.132659  0.111115  1
  O  O50  1  0.499403  0.632264  0.388716  1
  O  O51  1  0.000917  0.867322  0.889038  1
  O  O52  1  0.000597  0.632264  0.388716  1
  O  O53  1  0.499083  0.867322  0.889038  1
  O  O54  1  0.501041  0.367505  0.611191  1
  O  O55  1  0.999104  0.132659  0.111115  1
