# generated using pymatgen
data_Dy13Lu7(Bi2Os)4
_symmetry_space_group_name_H-M   'P 1'
_cell_length_a   7.90265338
_cell_length_b   9.00482163
_cell_length_c   12.48364182
_cell_angle_alpha   89.95503558
_cell_angle_beta   90.04286276
_cell_angle_gamma   90.05213755
_symmetry_Int_Tables_number   1
_chemical_formula_structural   Dy13Lu7(Bi2Os)4
_chemical_formula_sum   'Dy13 Lu7 Bi8 Os4'
_cell_volume   888.35983046
_cell_formula_units_Z   1
loop_
 _symmetry_equiv_pos_site_id
 _symmetry_equiv_pos_as_xyz
  1  'x, y, z'
loop_
 _atom_site_type_symbol
 _atom_site_label
 _atom_site_symmetry_multiplicity
 _atom_site_fract_x
 _atom_site_fract_y
 _atom_site_fract_z
 _atom_site_occupancy
  Dy  Dy0  1  0.841456  0.750527  0.791640  1
  Dy  Dy1  1  0.157967  0.249906  0.208368  1
  Dy  Dy2  1  0.342369  0.249709  0.707569  1
  Dy  Dy3  1  0.657909  0.750120  0.292077  1
  Dy  Dy4  1  0.376114  0.750207  0.690746  1
  Dy  Dy5  1  0.623815  0.249844  0.309143  1
  Dy  Dy6  1  0.875172  0.249470  0.808534  1
  Dy  Dy7  1  0.123572  0.750807  0.191588  1
  Dy  Dy8  1  0.942382  0.750099  0.504759  1
  Dy  Dy9  1  0.057422  0.249997  0.495072  1
  Dy  Dy10  1  0.443392  0.249052  0.995419  1
  Dy  Dy11  1  0.558122  0.750636  0.004836  1
  Dy  Dy12  1  0.174415  0.542089  0.935956  1
  Lu  Lu13  1  0.670819  0.042421  0.563671  1
  Lu  Lu14  1  0.329242  0.957460  0.436279  1
  Lu  Lu15  1  0.170751  0.957557  0.936325  1
  Lu  Lu16  1  0.329186  0.542725  0.436350  1
  Lu  Lu17  1  0.829202  0.042728  0.063783  1
  Lu  Lu18  1  0.670893  0.457580  0.563602  1
  Lu  Lu19  1  0.828185  0.457200  0.064087  1
  Bi  Bi20  1  0.568085  0.493490  0.827348  1
  Bi  Bi21  1  0.432947  0.506201  0.172190  1
  Bi  Bi22  1  0.066461  0.506145  0.672023  1
  Bi  Bi23  1  0.433226  0.993866  0.172356  1
  Bi  Bi24  1  0.933238  0.493785  0.327706  1
  Bi  Bi25  1  0.566635  0.006242  0.827642  1
  Bi  Bi26  1  0.933164  0.006303  0.327813  1
  Bi  Bi27  1  0.066775  0.993847  0.672298  1
  Os  Os28  1  0.572938  0.749970  0.509206  1
  Os  Os29  1  0.427343  0.250030  0.490816  1
  Os  Os30  1  0.071904  0.248845  0.991040  1
  Os  Os31  1  0.924900  0.751140  0.009759  1
