# generated using pymatgen
data_TbSm(Sb5O13)2
_symmetry_space_group_name_H-M   'P 1'
_cell_length_a   7.44299728
_cell_length_b   7.37631031
_cell_length_c   10.31512446
_cell_angle_alpha   88.88584258
_cell_angle_beta   90.10645500
_cell_angle_gamma   90.08730118
_symmetry_Int_Tables_number   1
_chemical_formula_structural   TbSm(Sb5O13)2
_chemical_formula_sum   'Tb1 Sm1 Sb10 O26'
_cell_volume   566.21082077
_cell_formula_units_Z   1
loop_
 _symmetry_equiv_pos_site_id
 _symmetry_equiv_pos_as_xyz
  1  'x, y, z'
loop_
 _atom_site_type_symbol
 _atom_site_label
 _atom_site_symmetry_multiplicity
 _atom_site_fract_x
 _atom_site_fract_y
 _atom_site_fract_z
 _atom_site_occupancy
  Tb  Tb0  1  0.000000  0.500000  0.000000  1
  Sm  Sm1  1  0.500000  0.500000  0.000000  1
  Sb  Sb2  1  0.247015  0.730621  0.728240  1
  Sb  Sb3  1  0.752985  0.269379  0.271760  1
  Sb  Sb4  1  0.500000  0.000000  0.000000  1
  Sb  Sb5  1  0.749984  0.758230  0.748374  1
  Sb  Sb6  1  0.249248  0.748913  0.252766  1
  Sb  Sb7  1  0.500000  0.500000  0.500000  1
  Sb  Sb8  1  0.000000  0.500000  0.500000  1
  Sb  Sb9  1  0.750752  0.251087  0.747234  1
  Sb  Sb10  1  0.250016  0.241770  0.251626  1
  Sb  Sb11  1  0.000000  0.000000  0.000000  1
  O  O12  1  0.447813  0.689897  0.372051  1
  O  O13  1  0.754694  0.454177  0.131555  1
  O  O14  1  0.247720  0.493654  0.162437  1
  O  O15  1  0.453587  0.309125  0.366522  1
  O  O16  1  0.558360  0.213017  0.883771  1
  O  O17  1  0.942362  0.215125  0.884966  1
  O  O18  1  0.447928  0.205632  0.121574  1
  O  O19  1  0.750156  0.999503  0.072670  1
  O  O20  1  0.249844  0.000497  0.927330  1
  O  O21  1  0.751106  0.003892  0.683075  1
  O  O22  1  0.552072  0.794368  0.878426  1
  O  O23  1  0.947688  0.793549  0.879074  1
  O  O24  1  0.441640  0.786983  0.116229  1
  O  O25  1  0.051605  0.690226  0.372468  1
  O  O26  1  0.546413  0.690875  0.633478  1
  O  O27  1  0.954999  0.691366  0.633868  1
  O  O28  1  0.249990  0.519092  0.580360  1
  O  O29  1  0.752280  0.506346  0.837563  1
  O  O30  1  0.750010  0.480908  0.419640  1
  O  O31  1  0.045001  0.308634  0.366132  1
  O  O32  1  0.552187  0.310103  0.627949  1
  O  O33  1  0.948395  0.309774  0.627532  1
  O  O34  1  0.052312  0.206451  0.120926  1
  O  O35  1  0.248894  0.996108  0.316925  1
  O  O36  1  0.057638  0.784875  0.115034  1
  O  O37  1  0.245306  0.545823  0.868445  1
