# generated using pymatgen
data_Tb2Y2Al18Co5Ni
_symmetry_space_group_name_H-M   'P 1'
_cell_length_a   7.40171591
_cell_length_b   7.40200675
_cell_length_c   9.32214300
_cell_angle_alpha   89.97482942
_cell_angle_beta   89.97149400
_cell_angle_gamma   119.26488341
_symmetry_Int_Tables_number   1
_chemical_formula_structural   Tb2Y2Al18Co5Ni
_chemical_formula_sum   'Tb2 Y2 Al18 Co5 Ni1'
_cell_volume   445.55129771
_cell_formula_units_Z   1
loop_
 _symmetry_equiv_pos_site_id
 _symmetry_equiv_pos_as_xyz
  1  'x, y, z'
loop_
 _atom_site_type_symbol
 _atom_site_label
 _atom_site_symmetry_multiplicity
 _atom_site_fract_x
 _atom_site_fract_y
 _atom_site_fract_z
 _atom_site_occupancy
  Tb  Tb0  1  0.993374  0.672023  0.250472  1
  Tb  Tb1  1  0.006740  0.327851  0.749653  1
  Y  Y2  1  0.672141  0.993257  0.250349  1
  Y  Y3  1  0.327997  0.006642  0.749528  1
  Al  Al4  1  0.125268  0.124809  0.250218  1
  Al  Al5  1  0.875203  0.874719  0.749781  1
  Al  Al6  1  0.332190  0.332065  0.541720  1
  Al  Al7  1  0.667541  0.670117  0.043180  1
  Al  Al8  1  0.329903  0.332437  0.956823  1
  Al  Al9  1  0.667914  0.667827  0.458281  1
  Al  Al10  1  0.339738  0.554129  0.250076  1
  Al  Al11  1  0.660330  0.447568  0.747409  1
  Al  Al12  1  0.552394  0.339625  0.252592  1
  Al  Al13  1  0.445905  0.660306  0.749923  1
  Al  Al14  1  0.000678  0.335500  0.072006  1
  Al  Al15  1  0.002321  0.664674  0.570782  1
  Al  Al16  1  0.335380  0.997698  0.429237  1
  Al  Al17  1  0.664448  0.999302  0.928014  1
  Al  Al18  1  0.004469  0.667521  0.928227  1
  Al  Al19  1  0.997897  0.334837  0.428819  1
  Al  Al20  1  0.665108  0.002083  0.571162  1
  Al  Al21  1  0.332529  0.995549  0.071750  1
  Co  Co22  1  0.999902  0.000098  0.999999  1
  Co  Co23  1  0.000254  0.999741  0.499999  1
  Co  Co24  1  0.329155  0.670847  0.499998  1
  Co  Co25  1  0.329082  0.670919  0.000001  1
  Co  Co26  1  0.671088  0.328904  0.500002  1
  Ni  Ni27  1  0.671051  0.328951  0.999999  1
