# generated using pymatgen
data_TbEr14Lu(In3Co)2
_symmetry_space_group_name_H-M   'P 1'
_cell_length_a   10.27296200
_cell_length_b   10.28327392
_cell_length_c   6.95549603
_cell_angle_alpha   89.98818264
_cell_angle_beta   90.00353487
_cell_angle_gamma   120.00484735
_symmetry_Int_Tables_number   1
_chemical_formula_structural   TbEr14Lu(In3Co)2
_chemical_formula_sum   'Tb1 Er14 Lu1 In6 Co2'
_cell_volume   636.30392182
_cell_formula_units_Z   1
loop_
 _symmetry_equiv_pos_site_id
 _symmetry_equiv_pos_as_xyz
  1  'x, y, z'
loop_
 _atom_site_type_symbol
 _atom_site_label
 _atom_site_symmetry_multiplicity
 _atom_site_fract_x
 _atom_site_fract_y
 _atom_site_fract_z
 _atom_site_occupancy
  Tb  Tb0  1  0.930387  0.465295  0.791202  1
  Er  Er1  1  0.534624  0.464859  0.791564  1
  Er  Er2  1  0.465302  0.930309  0.292082  1
  Er  Er3  1  0.071290  0.535468  0.291747  1
  Er  Er4  1  0.464976  0.535646  0.292302  1
  Er  Er5  1  0.821415  0.643730  0.497862  1
  Er  Er6  1  0.357335  0.178129  0.498929  1
  Er  Er7  1  0.821274  0.178398  0.498591  1
  Er  Er8  1  0.178540  0.355999  0.999792  1
  Er  Er9  1  0.642071  0.821625  0.998573  1
  Er  Er10  1  0.179119  0.822298  0.998905  1
  Er  Er11  1  0.665946  0.332670  0.182119  1
  Er  Er12  1  0.334028  0.667281  0.682628  1
  Er  Er13  1  0.000141  0.999757  0.779490  1
  Er  Er14  1  0.999929  0.999884  0.279242  1
  Lu  Lu15  1  0.535444  0.070883  0.791775  1
  In  In16  1  0.835794  0.674553  0.039182  1
  In  In17  1  0.327034  0.162564  0.036875  1
  In  In18  1  0.835378  0.161168  0.038719  1
  In  In19  1  0.163544  0.325115  0.540214  1
  In  In20  1  0.674706  0.838476  0.540294  1
  In  In21  1  0.163753  0.837556  0.538272  1
  Co  Co22  1  0.664955  0.331896  0.567528  1
  Co  Co23  1  0.333018  0.666438  0.068019  1
