# generated using pymatgen
data_Zr12As3Se
_symmetry_space_group_name_H-M   'P 1'
_cell_length_a   11.04667526
_cell_length_b   11.05925226
_cell_length_c   5.48580300
_cell_angle_alpha   90.00000000
_cell_angle_beta   90.00000000
_cell_angle_gamma   90.02481979
_symmetry_Int_Tables_number   1
_chemical_formula_structural   Zr12As3Se
_chemical_formula_sum   'Zr24 As6 Se2'
_cell_volume   670.18934422
_cell_formula_units_Z   2
loop_
 _symmetry_equiv_pos_site_id
 _symmetry_equiv_pos_as_xyz
  1  'x, y, z'
loop_
 _atom_site_type_symbol
 _atom_site_label
 _atom_site_symmetry_multiplicity
 _atom_site_fract_x
 _atom_site_fract_y
 _atom_site_fract_z
 _atom_site_occupancy
  Zr  Zr0  1  0.895325  0.583700  0.037084  1
  Zr  Zr1  1  0.104675  0.416300  0.037084  1
  Zr  Zr2  1  0.915986  0.395371  0.538481  1
  Zr  Zr3  1  0.084014  0.604629  0.538481  1
  Zr  Zr4  1  0.603264  0.915719  0.464143  1
  Zr  Zr5  1  0.396736  0.084281  0.464143  1
  Zr  Zr6  1  0.583173  0.104726  0.960357  1
  Zr  Zr7  1  0.416827  0.895274  0.960357  1
  Zr  Zr8  1  0.861301  0.026465  0.716549  1
  Zr  Zr9  1  0.138699  0.973535  0.716549  1
  Zr  Zr10  1  0.472822  0.360246  0.217456  1
  Zr  Zr11  1  0.527178  0.639754  0.217456  1
  Zr  Zr12  1  0.639750  0.473300  0.782554  1
  Zr  Zr13  1  0.360250  0.526700  0.782554  1
  Zr  Zr14  1  0.026578  0.139703  0.284305  1
  Zr  Zr15  1  0.973422  0.860297  0.284305  1
  Zr  Zr16  1  0.285264  0.180669  0.987865  1
  Zr  Zr17  1  0.714736  0.819331  0.987865  1
  Zr  Zr18  1  0.318985  0.784878  0.488899  1
  Zr  Zr19  1  0.681015  0.215122  0.488899  1
  Zr  Zr20  1  0.215081  0.318666  0.511693  1
  Zr  Zr21  1  0.784919  0.681334  0.511693  1
  Zr  Zr22  1  0.180808  0.714220  0.010476  1
  Zr  Zr23  1  0.819192  0.285780  0.010476  1
  As  As24  1  0.460099  0.294054  0.711854  1
  As  As25  1  0.539901  0.705946  0.711854  1
  As  As26  1  0.705811  0.459911  0.288078  1
  As  As27  1  0.294189  0.540089  0.288078  1
  As  As28  1  0.039751  0.206187  0.788334  1
  As  As29  1  0.960249  0.793813  0.788334  1
  Se  Se30  1  0.792376  0.039718  0.211871  1
  Se  Se31  1  0.207624  0.960282  0.211871  1
