# generated using pymatgen
data_Nd2Ga9Ru2Pt
_symmetry_space_group_name_H-M   'P 1'
_cell_length_a   7.63670808
_cell_length_b   7.63670839
_cell_length_c   9.74633800
_cell_angle_alpha   90.00000000
_cell_angle_beta   90.00000000
_cell_angle_gamma   119.53913224
_symmetry_Int_Tables_number   1
_chemical_formula_structural   Nd2Ga9Ru2Pt
_chemical_formula_sum   'Nd4 Ga18 Ru4 Pt2'
_cell_volume   494.51866620
_cell_formula_units_Z   2
loop_
 _symmetry_equiv_pos_site_id
 _symmetry_equiv_pos_as_xyz
  1  'x, y, z'
loop_
 _atom_site_type_symbol
 _atom_site_label
 _atom_site_symmetry_multiplicity
 _atom_site_fract_x
 _atom_site_fract_y
 _atom_site_fract_z
 _atom_site_occupancy
  Nd  Nd0  1  0.997106  0.671368  0.250000  1
  Nd  Nd1  1  0.002894  0.328632  0.750000  1
  Nd  Nd2  1  0.671368  0.997106  0.250000  1
  Nd  Nd3  1  0.328632  0.002894  0.750000  1
  Ga  Ga4  1  0.137678  0.137678  0.250000  1
  Ga  Ga5  1  0.862322  0.862322  0.750000  1
  Ga  Ga6  1  0.003458  0.340783  0.074736  1
  Ga  Ga7  1  0.996542  0.659217  0.925264  1
  Ga  Ga8  1  0.996542  0.659217  0.574736  1
  Ga  Ga9  1  0.340783  0.003458  0.425264  1
  Ga  Ga10  1  0.003458  0.340783  0.425264  1
  Ga  Ga11  1  0.659217  0.996542  0.574736  1
  Ga  Ga12  1  0.659217  0.996542  0.925264  1
  Ga  Ga13  1  0.340783  0.003458  0.074736  1
  Ga  Ga14  1  0.341582  0.341582  0.559255  1
  Ga  Ga15  1  0.658418  0.658418  0.440745  1
  Ga  Ga16  1  0.658418  0.658418  0.059255  1
  Ga  Ga17  1  0.341582  0.341582  0.940745  1
  Ga  Ga18  1  0.334020  0.547229  0.250000  1
  Ga  Ga19  1  0.665980  0.452771  0.750000  1
  Ga  Ga20  1  0.547229  0.334020  0.250000  1
  Ga  Ga21  1  0.452771  0.665980  0.750000  1
  Ru  Ru22  1  0.671752  0.328248  0.000000  1
  Ru  Ru23  1  0.328248  0.671752  0.000000  1
  Ru  Ru24  1  0.328248  0.671752  0.500000  1
  Ru  Ru25  1  0.671752  0.328248  0.500000  1
  Pt  Pt26  1  0.000000  0.000000  0.000000  1
  Pt  Pt27  1  0.000000  0.000000  0.500000  1
