# generated using pymatgen
data_Pr2Th(Co3P2)3
_symmetry_space_group_name_H-M   'P 1'
_cell_length_a   3.78116300
_cell_length_b   10.63527000
_cell_length_c   12.36099900
_cell_angle_alpha   90.00000000
_cell_angle_beta   90.00000000
_cell_angle_gamma   90.00000000
_symmetry_Int_Tables_number   1
_chemical_formula_structural   Pr2Th(Co3P2)3
_chemical_formula_sum   'Pr4 Th2 Co18 P12'
_cell_volume   497.08137469
_cell_formula_units_Z   2
loop_
 _symmetry_equiv_pos_site_id
 _symmetry_equiv_pos_as_xyz
  1  'x, y, z'
loop_
 _atom_site_type_symbol
 _atom_site_label
 _atom_site_symmetry_multiplicity
 _atom_site_fract_x
 _atom_site_fract_y
 _atom_site_fract_z
 _atom_site_occupancy
  Pr  Pr0  1  0.500000  0.815744  0.205493  1
  Pr  Pr1  1  0.500000  0.184256  0.205493  1
  Pr  Pr2  1  0.000000  0.684256  0.794507  1
  Pr  Pr3  1  0.000000  0.315744  0.794507  1
  Th  Th4  1  0.000000  0.500000  0.523721  1
  Th  Th5  1  0.500000  0.000000  0.476279  1
  Co  Co6  1  0.500000  0.500000  0.156567  1
  Co  Co7  1  0.000000  0.000000  0.843433  1
  Co  Co8  1  0.500000  0.500000  0.699791  1
  Co  Co9  1  0.000000  0.000000  0.300209  1
  Co  Co10  1  0.000000  0.500000  0.986384  1
  Co  Co11  1  0.500000  0.000000  0.013616  1
  Co  Co12  1  0.500000  0.333914  0.996116  1
  Co  Co13  1  0.500000  0.666086  0.996116  1
  Co  Co14  1  0.000000  0.166086  0.003884  1
  Co  Co15  1  0.000000  0.833914  0.003884  1
  Co  Co16  1  0.500000  0.299750  0.430393  1
  Co  Co17  1  0.500000  0.700250  0.430393  1
  Co  Co18  1  0.000000  0.200250  0.569607  1
  Co  Co19  1  0.000000  0.799750  0.569607  1
  Co  Co20  1  0.500000  0.882478  0.711103  1
  Co  Co21  1  0.500000  0.117522  0.711103  1
  Co  Co22  1  0.000000  0.617522  0.288897  1
  Co  Co23  1  0.000000  0.382478  0.288897  1
  P  P24  1  0.500000  0.500000  0.885316  1
  P  P25  1  0.000000  0.000000  0.114684  1
  P  P26  1  0.500000  0.500000  0.338392  1
  P  P27  1  0.000000  0.000000  0.661608  1
  P  P28  1  0.500000  0.304306  0.614019  1
  P  P29  1  0.500000  0.695694  0.614019  1
  P  P30  1  0.000000  0.195694  0.385981  1
  P  P31  1  0.000000  0.804306  0.385981  1
  P  P32  1  0.500000  0.848933  0.896603  1
  P  P33  1  0.500000  0.151067  0.896603  1
  P  P34  1  0.000000  0.651067  0.103397  1
  P  P35  1  0.000000  0.348933  0.103397  1
