# generated using pymatgen
data_Li4DyNi6As7Rh3
_symmetry_space_group_name_H-M   'P 1'
_cell_length_a   9.54484500
_cell_length_b   9.54484517
_cell_length_c   3.91823000
_cell_angle_alpha   90.00000000
_cell_angle_beta   90.00000000
_cell_angle_gamma   120.00001073
_symmetry_Int_Tables_number   1
_chemical_formula_structural   Li4DyNi6As7Rh3
_chemical_formula_sum   'Li4 Dy1 Ni6 As7 Rh3'
_cell_volume   309.14218948
_cell_formula_units_Z   1
loop_
 _symmetry_equiv_pos_site_id
 _symmetry_equiv_pos_as_xyz
  1  'x, y, z'
loop_
 _atom_site_type_symbol
 _atom_site_label
 _atom_site_symmetry_multiplicity
 _atom_site_fract_x
 _atom_site_fract_y
 _atom_site_fract_z
 _atom_site_occupancy
  Li  Li0  1  0.774402  0.539215  0.500000  1
  Li  Li1  1  0.460785  0.235188  0.500000  1
  Li  Li2  1  0.764812  0.225598  0.500000  1
  Li  Li3  1  0.000000  0.000000  0.500000  1
  Dy  Dy4  1  0.333333  0.666667  0.000000  1
  Ni  Ni5  1  0.499415  0.450293  0.000000  1
  Ni  Ni6  1  0.549707  0.049122  0.000000  1
  Ni  Ni7  1  0.950878  0.500585  0.000000  1
  Ni  Ni8  1  0.716506  0.760662  0.000000  1
  Ni  Ni9  1  0.239338  0.955844  0.000000  1
  Ni  Ni10  1  0.044156  0.283494  0.000000  1
  As  As11  1  0.962050  0.757101  0.000000  1
  As  As12  1  0.242899  0.204948  0.000000  1
  As  As13  1  0.795052  0.037950  0.000000  1
  As  As14  1  0.666667  0.333333  0.000000  1
  As  As15  1  0.554413  0.615528  0.500000  1
  As  As16  1  0.384472  0.938885  0.500000  1
  As  As17  1  0.061115  0.445587  0.500000  1
  Rh  Rh18  1  0.275244  0.377277  0.500000  1
  Rh  Rh19  1  0.622723  0.897967  0.500000  1
  Rh  Rh20  1  0.102033  0.724756  0.500000  1
