# generated using pymatgen
data_Zr4Cd2Cu3Ir
_symmetry_space_group_name_H-M   'P 1'
_cell_length_a   7.37927249
_cell_length_b   7.37927234
_cell_length_c   3.38357800
_cell_angle_alpha   90.00000000
_cell_angle_beta   90.00000000
_cell_angle_gamma   89.70829814
_symmetry_Int_Tables_number   1
_chemical_formula_structural   Zr4Cd2Cu3Ir
_chemical_formula_sum   'Zr4 Cd2 Cu3 Ir1'
_cell_volume   184.24582266
_cell_formula_units_Z   1
loop_
 _symmetry_equiv_pos_site_id
 _symmetry_equiv_pos_as_xyz
  1  'x, y, z'
loop_
 _atom_site_type_symbol
 _atom_site_label
 _atom_site_symmetry_multiplicity
 _atom_site_fract_x
 _atom_site_fract_y
 _atom_site_fract_z
 _atom_site_occupancy
  Zr  Zr0  1  0.666036  0.166036  0.500000  1
  Zr  Zr1  1  0.325509  0.825509  0.500000  1
  Zr  Zr2  1  0.175716  0.336681  0.500000  1
  Zr  Zr3  1  0.836681  0.675716  0.500000  1
  Cd  Cd4  1  0.998153  0.009331  0.000000  1
  Cd  Cd5  1  0.509331  0.498153  0.000000  1
  Cu  Cu6  1  0.869105  0.369105  0.000000  1
  Cu  Cu7  1  0.621178  0.876438  0.000000  1
  Cu  Cu8  1  0.376438  0.121178  0.000000  1
  Ir  Ir9  1  0.121851  0.621851  0.000000  1
