# generated using pymatgen
data_CeTm6Pa(ReB6)4
_symmetry_space_group_name_H-M   'P 1'
_cell_length_a   3.67812500
_cell_length_b   9.12705661
_cell_length_c   11.49704376
_cell_angle_alpha   90.18751702
_cell_angle_beta   90.00000000
_cell_angle_gamma   90.00000000
_symmetry_Int_Tables_number   1
_chemical_formula_structural   CeTm6Pa(ReB6)4
_chemical_formula_sum   'Ce1 Tm6 Pa1 Re4 B24'
_cell_volume   385.95892419
_cell_formula_units_Z   1
loop_
 _symmetry_equiv_pos_site_id
 _symmetry_equiv_pos_as_xyz
  1  'x, y, z'
loop_
 _atom_site_type_symbol
 _atom_site_label
 _atom_site_symmetry_multiplicity
 _atom_site_fract_x
 _atom_site_fract_y
 _atom_site_fract_z
 _atom_site_occupancy
  Ce  Ce0  1  0.000000  0.679973  0.586564  1
  Tm  Tm1  1  0.000000  0.823584  0.085103  1
  Tm  Tm2  1  0.000000  0.176030  0.914261  1
  Tm  Tm3  1  0.000000  0.943479  0.372072  1
  Tm  Tm4  1  0.000000  0.055184  0.628511  1
  Tm  Tm5  1  0.000000  0.443377  0.126479  1
  Tm  Tm6  1  0.000000  0.556940  0.872157  1
  Pa  Pa7  1  0.000000  0.321390  0.413982  1
  Re  Re8  1  0.000000  0.635830  0.321595  1
  Re  Re9  1  0.000000  0.362116  0.676967  1
  Re  Re10  1  0.000000  0.140638  0.181286  1
  Re  Re11  1  0.000000  0.861497  0.821106  1
  B  B12  1  0.500000  0.553112  0.431411  1
  B  B13  1  0.500000  0.445031  0.567463  1
  B  B14  1  0.500000  0.053571  0.066874  1
  B  B15  1  0.500000  0.947107  0.934143  1
  B  B16  1  0.500000  0.750045  0.417638  1
  B  B17  1  0.500000  0.249503  0.581300  1
  B  B18  1  0.500000  0.248989  0.079979  1
  B  B19  1  0.500000  0.751044  0.920119  1
  B  B20  1  0.500000  0.792390  0.264542  1
  B  B21  1  0.500000  0.207264  0.735432  1
  B  B22  1  0.500000  0.292058  0.233834  1
  B  B23  1  0.500000  0.708632  0.766928  1
  B  B24  1  0.500000  0.631142  0.183914  1
  B  B25  1  0.500000  0.368832  0.815296  1
  B  B26  1  0.500000  0.131150  0.314561  1
  B  B27  1  0.500000  0.869905  0.686618  1
  B  B28  1  0.500000  0.981767  0.211907  1
  B  B29  1  0.500000  0.018655  0.788697  1
  B  B30  1  0.500000  0.482194  0.286405  1
  B  B31  1  0.500000  0.516915  0.713626  1
  B  B32  1  0.500000  0.602146  0.028267  1
  B  B33  1  0.500000  0.397702  0.971001  1
  B  B34  1  0.500000  0.105819  0.470911  1
  B  B35  1  0.500000  0.894990  0.529048  1
