# generated using pymatgen
data_Gd6RhCl10
_symmetry_space_group_name_H-M   'P 1'
_cell_length_a   7.23795378
_cell_length_b   9.06847463
_cell_length_c   9.10599100
_cell_angle_alpha   109.36891683
_cell_angle_beta   96.61136541
_cell_angle_gamma   107.07854391
_symmetry_Int_Tables_number   1
_chemical_formula_structural   Gd6RhCl10
_chemical_formula_sum   'Gd6 Rh1 Cl10'
_cell_volume   523.81652813
_cell_formula_units_Z   1
loop_
 _symmetry_equiv_pos_site_id
 _symmetry_equiv_pos_as_xyz
  1  'x, y, z'
loop_
 _atom_site_type_symbol
 _atom_site_label
 _atom_site_symmetry_multiplicity
 _atom_site_fract_x
 _atom_site_fract_y
 _atom_site_fract_z
 _atom_site_occupancy
  Gd  Gd0  1  0.140424  0.055460  0.750817  1
  Gd  Gd1  1  0.623452  0.848530  0.803944  1
  Gd  Gd2  1  0.859576  0.944540  0.249183  1
  Gd  Gd3  1  0.024412  0.687911  0.896885  1
  Gd  Gd4  1  0.376548  0.151470  0.196056  1
  Gd  Gd5  1  0.975588  0.312089  0.103115  1
  Rh  Rh6  1  0.000000  0.000000  0.000000  1
  Cl  Cl7  1  0.203759  0.745306  0.652778  1
  Cl  Cl8  1  0.640715  0.538577  0.725652  1
  Cl  Cl9  1  0.241877  0.078724  0.451305  1
  Cl  Cl10  1  0.796241  0.254694  0.347222  1
  Cl  Cl11  1  0.551556  0.169031  0.924806  1
  Cl  Cl12  1  0.758123  0.921276  0.548695  1
  Cl  Cl13  1  0.911020  0.630118  0.162140  1
  Cl  Cl14  1  0.359285  0.461423  0.274348  1
  Cl  Cl15  1  0.088980  0.369882  0.837860  1
  Cl  Cl16  1  0.448444  0.830969  0.075194  1
