# generated using pymatgen
data_BaNpAgTe3
_symmetry_space_group_name_H-M   'P 1'
_cell_length_a   7.94075440
_cell_length_b   7.94075480
_cell_length_c   11.65758900
_cell_angle_alpha   90.00000000
_cell_angle_beta   90.00000000
_cell_angle_gamma   146.18057486
_symmetry_Int_Tables_number   1
_chemical_formula_structural   BaNpAgTe3
_chemical_formula_sum   'Ba2 Np2 Ag2 Te6'
_cell_volume   409.12666936
_cell_formula_units_Z   2
loop_
 _symmetry_equiv_pos_site_id
 _symmetry_equiv_pos_as_xyz
  1  'x, y, z'
loop_
 _atom_site_type_symbol
 _atom_site_label
 _atom_site_symmetry_multiplicity
 _atom_site_fract_x
 _atom_site_fract_y
 _atom_site_fract_z
 _atom_site_occupancy
  Ba  Ba0  1  0.754421  0.245579  0.250000  1
  Ba  Ba1  1  0.245579  0.754421  0.750000  1
  Np  Np2  1  0.000000  0.000000  0.000000  1
  Np  Np3  1  0.000000  0.000000  0.500000  1
  Ag  Ag4  1  0.471098  0.528902  0.250000  1
  Ag  Ag5  1  0.528902  0.471098  0.750000  1
  Te  Te6  1  0.638405  0.361595  0.945211  1
  Te  Te7  1  0.081498  0.918502  0.250000  1
  Te  Te8  1  0.361595  0.638405  0.445211  1
  Te  Te9  1  0.361595  0.638405  0.054789  1
  Te  Te10  1  0.638405  0.361595  0.554789  1
  Te  Te11  1  0.918502  0.081498  0.750000  1
