# generated using pymatgen
data_Nd4Dy3Er(ReB6)4
_symmetry_space_group_name_H-M   'P 1'
_cell_length_a   3.73103200
_cell_length_b   9.25134702
_cell_length_c   11.71034802
_cell_angle_alpha   90.00667990
_cell_angle_beta   90.00000000
_cell_angle_gamma   90.00000000
_symmetry_Int_Tables_number   1
_chemical_formula_structural   Nd4Dy3Er(ReB6)4
_chemical_formula_sum   'Nd4 Dy3 Er1 Re4 B24'
_cell_volume   404.20692018
_cell_formula_units_Z   1
loop_
 _symmetry_equiv_pos_site_id
 _symmetry_equiv_pos_as_xyz
  1  'x, y, z'
loop_
 _atom_site_type_symbol
 _atom_site_label
 _atom_site_symmetry_multiplicity
 _atom_site_fract_x
 _atom_site_fract_y
 _atom_site_fract_z
 _atom_site_occupancy
  Nd  Nd0  1  0.000000  0.322884  0.414343  1
  Nd  Nd1  1  0.000000  0.677105  0.585843  1
  Nd  Nd2  1  0.000000  0.822666  0.085610  1
  Nd  Nd3  1  0.000000  0.177263  0.914281  1
  Dy  Dy4  1  0.000000  0.942896  0.369321  1
  Dy  Dy5  1  0.000000  0.057109  0.630797  1
  Dy  Dy6  1  0.000000  0.443030  0.130291  1
  Er  Er7  1  0.000000  0.557186  0.869108  1
  Re  Re8  1  0.000000  0.639294  0.319281  1
  Re  Re9  1  0.000000  0.361060  0.681062  1
  Re  Re10  1  0.000000  0.139453  0.180538  1
  Re  Re11  1  0.000000  0.860000  0.819437  1
  B  B12  1  0.500000  0.555065  0.430530  1
  B  B13  1  0.500000  0.444990  0.569673  1
  B  B14  1  0.500000  0.055004  0.069443  1
  B  B15  1  0.500000  0.944706  0.930469  1
  B  B16  1  0.500000  0.749555  0.415802  1
  B  B17  1  0.500000  0.250559  0.584304  1
  B  B18  1  0.500000  0.249558  0.084166  1
  B  B19  1  0.500000  0.749658  0.915857  1
  B  B20  1  0.500000  0.791241  0.265987  1
  B  B21  1  0.500000  0.209006  0.734074  1
  B  B22  1  0.500000  0.291326  0.233977  1
  B  B23  1  0.500000  0.708119  0.766143  1
  B  B24  1  0.500000  0.629835  0.186482  1
  B  B25  1  0.500000  0.370700  0.813868  1
  B  B26  1  0.500000  0.129862  0.313471  1
  B  B27  1  0.500000  0.869978  0.686665  1
  B  B28  1  0.500000  0.984201  0.212932  1
  B  B29  1  0.500000  0.015656  0.787128  1
  B  B30  1  0.500000  0.484155  0.287015  1
  B  B31  1  0.500000  0.516222  0.713362  1
  B  B32  1  0.500000  0.596405  0.025923  1
  B  B33  1  0.500000  0.404236  0.972769  1
  B  B34  1  0.500000  0.096502  0.473372  1
  B  B35  1  0.500000  0.903516  0.526676  1
