# generated using pymatgen
data_TmLu11Co5Sb
_symmetry_space_group_name_H-M   'P 1'
_cell_length_a   8.11057782
_cell_length_b   8.10852394
_cell_length_c   8.11057711
_cell_angle_alpha   111.01254423
_cell_angle_beta   111.05621009
_cell_angle_gamma   106.39790348
_symmetry_Int_Tables_number   1
_chemical_formula_structural   TmLu11Co5Sb
_chemical_formula_sum   'Tm1 Lu11 Co5 Sb1'
_cell_volume   409.67233353
_cell_formula_units_Z   1
loop_
 _symmetry_equiv_pos_site_id
 _symmetry_equiv_pos_as_xyz
  1  'x, y, z'
loop_
 _atom_site_type_symbol
 _atom_site_label
 _atom_site_symmetry_multiplicity
 _atom_site_fract_x
 _atom_site_fract_y
 _atom_site_fract_z
 _atom_site_occupancy
  Tm  Tm0  1  0.787279  0.982590  0.195311  1
  Lu  Lu1  1  0.285898  0.184122  0.469527  1
  Lu  Lu2  1  0.714860  0.816239  0.531445  1
  Lu  Lu3  1  0.284796  0.816239  0.101379  1
  Lu  Lu4  1  0.714595  0.184122  0.898224  1
  Lu  Lu5  1  0.619341  0.312358  0.307691  1
  Lu  Lu6  1  0.380100  0.687698  0.691986  1
  Lu  Lu7  1  0.004667  0.312358  0.693017  1
  Lu  Lu8  1  0.995712  0.687698  0.307599  1
  Lu  Lu9  1  0.212400  0.407751  0.195351  1
  Lu  Lu10  1  0.787764  0.591940  0.804175  1
  Lu  Lu11  1  0.212212  0.016762  0.804550  1
  Co  Co12  1  0.000327  0.374583  0.374256  1
  Co  Co13  1  0.999853  0.625959  0.626106  1
  Co  Co14  1  0.387115  0.887064  0.499947  1
  Co  Co15  1  0.612749  0.113018  0.500270  1
  Co  Co16  1  0.000528  0.999945  0.999417  1
  Sb  Sb17  1  0.499805  0.499553  0.999748  1
