# generated using pymatgen
data_Y13Tm3CdIn3Rh4
_symmetry_space_group_name_H-M   'P 1'
_cell_length_a   9.65263119
_cell_length_b   9.66268455
_cell_length_c   9.68792472
_cell_angle_alpha   59.86211034
_cell_angle_beta   60.04554106
_cell_angle_gamma   59.90624244
_symmetry_Int_Tables_number   1
_chemical_formula_structural   Y13Tm3CdIn3Rh4
_chemical_formula_sum   'Y13 Tm3 Cd1 In3 Rh4'
_cell_volume   638.03622702
_cell_formula_units_Z   1
loop_
 _symmetry_equiv_pos_site_id
 _symmetry_equiv_pos_as_xyz
  1  'x, y, z'
loop_
 _atom_site_type_symbol
 _atom_site_label
 _atom_site_symmetry_multiplicity
 _atom_site_fract_x
 _atom_site_fract_y
 _atom_site_fract_z
 _atom_site_occupancy
  Y  Y0  1  0.061575  0.060668  0.439433  1
  Y  Y1  1  0.436938  0.062408  0.438150  1
  Y  Y2  1  0.060585  0.440216  0.060373  1
  Y  Y3  1  0.052804  0.648355  0.648091  1
  Y  Y4  1  0.437734  0.438808  0.061722  1
  Y  Y5  1  0.648339  0.051070  0.648981  1
  Y  Y6  1  0.189949  0.810889  0.189077  1
  Y  Y7  1  0.189124  0.189094  0.811228  1
  Y  Y8  1  0.808280  0.807848  0.192225  1
  Y  Y9  1  0.438914  0.060649  0.061290  1
  Y  Y10  1  0.810325  0.190802  0.189890  1
  Y  Y11  1  0.062865  0.437438  0.437513  1
  Y  Y12  1  0.809313  0.192061  0.808523  1
  Tm  Tm13  1  0.192022  0.808965  0.808623  1
  Tm  Tm14  1  0.649233  0.650174  0.047585  1
  Tm  Tm15  1  0.651222  0.652055  0.652418  1
  Cd  Cd16  1  0.418332  0.418510  0.416933  1
  In  In17  1  0.747651  0.418668  0.416981  1
  In  In18  1  0.418904  0.747056  0.417402  1
  In  In19  1  0.418158  0.417986  0.748067  1
  Rh  Rh20  1  0.856503  0.856744  0.428267  1
  Rh  Rh21  1  0.859558  0.854569  0.859752  1
  Rh  Rh22  1  0.427871  0.853487  0.858414  1
  Rh  Rh23  1  0.853803  0.431482  0.859065  1
