# generated using pymatgen
data_Tb8MgSc10Si16Hg
_symmetry_space_group_name_H-M   'P 1'
_cell_length_a   7.04055605
_cell_length_b   7.42740030
_cell_length_c   14.04075300
_cell_angle_alpha   90.00000000
_cell_angle_beta   90.00000000
_cell_angle_gamma   89.82524492
_symmetry_Int_Tables_number   1
_chemical_formula_structural   Tb8MgSc10Si16Hg
_chemical_formula_sum   'Tb8 Mg1 Sc10 Si16 Hg1'
_cell_volume   734.23007581
_cell_formula_units_Z   1
loop_
 _symmetry_equiv_pos_site_id
 _symmetry_equiv_pos_as_xyz
  1  'x, y, z'
loop_
 _atom_site_type_symbol
 _atom_site_label
 _atom_site_symmetry_multiplicity
 _atom_site_fract_x
 _atom_site_fract_y
 _atom_site_fract_z
 _atom_site_occupancy
  Tb  Tb0  1  0.009389  0.177018  0.097340  1
  Tb  Tb1  1  0.990897  0.818482  0.902300  1
  Tb  Tb2  1  0.485130  0.672667  0.902299  1
  Tb  Tb3  1  0.990897  0.818482  0.597700  1
  Tb  Tb4  1  0.513123  0.325847  0.096729  1
  Tb  Tb5  1  0.009389  0.177018  0.402660  1
  Tb  Tb6  1  0.513123  0.325847  0.403271  1
  Tb  Tb7  1  0.485130  0.672667  0.597701  1
  Mg  Mg8  1  0.840453  0.494527  0.250000  1
  Sc  Sc9  1  0.341095  0.002542  0.250000  1
  Sc  Sc10  1  0.657904  0.998356  0.750000  1
  Sc  Sc11  1  0.324795  0.183457  0.625306  1
  Sc  Sc12  1  0.672782  0.819897  0.375697  1
  Sc  Sc13  1  0.165669  0.680187  0.373789  1
  Sc  Sc14  1  0.672782  0.819897  0.124303  1
  Sc  Sc15  1  0.838748  0.322447  0.625867  1
  Sc  Sc16  1  0.324795  0.183457  0.874694  1
  Sc  Sc17  1  0.838748  0.322447  0.874133  1
  Sc  Sc18  1  0.165669  0.680187  0.126211  1
  Si  Si19  1  0.027982  0.095005  0.750000  1
  Si  Si20  1  0.968315  0.897241  0.250000  1
  Si  Si21  1  0.460618  0.619824  0.250000  1
  Si  Si22  1  0.545718  0.378065  0.750000  1
  Si  Si23  1  0.292148  0.889741  0.750000  1
  Si  Si24  1  0.710108  0.116983  0.250000  1
  Si  Si25  1  0.221969  0.374342  0.250000  1
  Si  Si26  1  0.771144  0.629161  0.750000  1
  Si  Si27  1  0.161935  0.459025  0.528124  1
  Si  Si28  1  0.840584  0.538146  0.466298  1
  Si  Si29  1  0.343426  0.967202  0.461380  1
  Si  Si30  1  0.840584  0.538146  0.033702  1
  Si  Si31  1  0.656871  0.032526  0.539959  1
  Si  Si32  1  0.161935  0.459025  0.971876  1
  Si  Si33  1  0.656871  0.032526  0.960041  1
  Si  Si34  1  0.343426  0.967202  0.038620  1
  Hg  Hg35  1  0.155849  0.510411  0.750000  1
