# generated using pymatgen
data_Pr3Nd3Al24(Ir3Os)2
_symmetry_space_group_name_H-M   'P 1'
_cell_length_a   8.93174912
_cell_length_b   8.92898639
_cell_length_c   9.63617500
_cell_angle_alpha   90.00000000
_cell_angle_beta   90.00000000
_cell_angle_gamma   120.02904086
_symmetry_Int_Tables_number   1
_chemical_formula_structural   Pr3Nd3Al24(Ir3Os)2
_chemical_formula_sum   'Pr3 Nd3 Al24 Ir6 Os2'
_cell_volume   665.34488601
_cell_formula_units_Z   1
loop_
 _symmetry_equiv_pos_site_id
 _symmetry_equiv_pos_as_xyz
  1  'x, y, z'
loop_
 _atom_site_type_symbol
 _atom_site_label
 _atom_site_symmetry_multiplicity
 _atom_site_fract_x
 _atom_site_fract_y
 _atom_site_fract_z
 _atom_site_occupancy
  Pr  Pr0  1  0.190641  0.381379  0.250000  1
  Pr  Pr1  1  0.809197  0.618416  0.750000  1
  Pr  Pr2  1  0.618643  0.809352  0.250000  1
  Nd  Nd3  1  0.381519  0.190730  0.750000  1
  Nd  Nd4  1  0.190636  0.809330  0.250000  1
  Nd  Nd5  1  0.809204  0.190713  0.750000  1
  Al  Al6  1  0.333217  0.666758  0.013369  1
  Al  Al7  1  0.666557  0.333129  0.986406  1
  Al  Al8  1  0.666557  0.333129  0.513594  1
  Al  Al9  1  0.333217  0.666758  0.486631  1
  Al  Al10  1  0.163194  0.326382  0.575234  1
  Al  Al11  1  0.836941  0.673549  0.424828  1
  Al  Al12  1  0.673573  0.836950  0.575162  1
  Al  Al13  1  0.836941  0.673549  0.075172  1
  Al  Al14  1  0.326459  0.163064  0.425023  1
  Al  Al15  1  0.163194  0.326382  0.924766  1
  Al  Al16  1  0.163390  0.836945  0.574979  1
  Al  Al17  1  0.326459  0.163064  0.074977  1
  Al  Al18  1  0.836744  0.163256  0.425087  1
  Al  Al19  1  0.673573  0.836950  0.924838  1
  Al  Al20  1  0.836744  0.163256  0.074913  1
  Al  Al21  1  0.163390  0.836945  0.925021  1
  Al  Al22  1  0.562897  0.126170  0.250000  1
  Al  Al23  1  0.437048  0.874112  0.750000  1
  Al  Al24  1  0.873843  0.437107  0.250000  1
  Al  Al25  1  0.126175  0.562904  0.750000  1
  Al  Al26  1  0.563225  0.436773  0.250000  1
  Al  Al27  1  0.436726  0.562894  0.750000  1
  Al  Al28  1  0.000167  0.999836  0.250000  1
  Al  Al29  1  0.000171  0.000330  0.750000  1
  Ir  Ir30  1  0.499922  0.000096  0.999866  1
  Ir  Ir31  1  0.999961  0.499980  0.999977  1
  Ir  Ir32  1  0.499922  0.000096  0.500134  1
  Ir  Ir33  1  0.499919  0.499826  0.999865  1
  Ir  Ir34  1  0.999961  0.499980  0.500023  1
  Ir  Ir35  1  0.499919  0.499826  0.500135  1
  Os  Os36  1  0.000075  0.000042  0.999900  1
  Os  Os37  1  0.000075  0.000042  0.500100  1
