# generated using pymatgen
data_Cs11KLi8(TiBi3)4
_symmetry_space_group_name_H-M   'P 1'
_cell_length_a   14.41130005
_cell_length_b   14.40200035
_cell_length_c   14.41129871
_cell_angle_alpha   151.25544149
_cell_angle_beta   103.61051479
_cell_angle_gamma   83.59249118
_symmetry_Int_Tables_number   1
_chemical_formula_structural   Cs11KLi8(TiBi3)4
_chemical_formula_sum   'Cs11 K1 Li8 Ti4 Bi12'
_cell_volume   1369.02574977
_cell_formula_units_Z   1
loop_
 _symmetry_equiv_pos_site_id
 _symmetry_equiv_pos_as_xyz
  1  'x, y, z'
loop_
 _atom_site_type_symbol
 _atom_site_label
 _atom_site_symmetry_multiplicity
 _atom_site_fract_x
 _atom_site_fract_y
 _atom_site_fract_z
 _atom_site_occupancy
  Cs  Cs0  1  0.589875  0.948607  0.199158  1
  Cs  Cs1  1  0.070518  0.750000  0.820518  1
  Cs  Cs2  1  0.910153  0.107773  0.358815  1
  Cs  Cs3  1  0.409163  0.051053  0.799621  1
  Cs  Cs4  1  0.749208  0.608974  0.698103  1
  Cs  Cs5  1  0.251043  0.392227  0.302380  1
  Cs  Cs6  1  0.089129  0.891026  0.640234  1
  Cs  Cs7  1  0.431345  0.250000  0.681345  1
  Cs  Cs8  1  0.748568  0.448947  0.858110  1
  Cs  Cs9  1  0.250550  0.551393  0.141268  1
  Cs  Cs10  1  0.929174  0.250000  0.179174  1
  K  K11  1  0.588484  0.750000  0.338484  1
  Li  Li12  1  0.996482  0.246437  0.747322  1
  Li  Li13  1  0.666033  0.917403  0.749701  1
  Li  Li14  1  0.000277  0.748273  0.247226  1
  Li  Li15  1  0.500885  0.253563  0.250045  1
  Li  Li16  1  0.498953  0.751727  0.752003  1
  Li  Li17  1  0.167437  0.417457  0.751221  1
  Li  Li18  1  0.333764  0.082543  0.249981  1
  Li  Li19  1  0.832297  0.582597  0.248630  1
  Ti  Ti20  1  0.667188  0.418071  0.247486  1
  Ti  Ti21  1  0.168872  0.917841  0.250183  1
  Ti  Ti22  1  0.829415  0.081929  0.749118  1
  Ti  Ti23  1  0.332341  0.582159  0.751031  1
  Bi  Bi24  1  0.333445  0.750000  0.083445  1
  Bi  Bi25  1  0.504491  0.565522  0.384292  1
  Bi  Bi26  1  0.005754  0.616839  0.941348  1
  Bi  Bi27  1  0.494232  0.436895  0.610608  1
  Bi  Bi28  1  0.324509  0.883161  0.888915  1
  Bi  Bi29  1  0.674379  0.118524  0.111332  1
  Bi  Bi30  1  0.992808  0.381476  0.055854  1
  Bi  Bi31  1  0.666843  0.250000  0.916843  1
  Bi  Bi32  1  0.818770  0.934478  0.438969  1
  Bi  Bi33  1  0.169772  0.250000  0.419772  1
  Bi  Bi34  1  0.173714  0.063105  0.557338  1
  Bi  Bi35  1  0.830127  0.750000  0.580127  1
