# generated using pymatgen
data_Y3Si6Pd19Pt
_symmetry_space_group_name_H-M   'P 1'
_cell_length_a   8.73060779
_cell_length_b   8.73060780
_cell_length_c   8.73060758
_cell_angle_alpha   59.87545237
_cell_angle_beta   59.87545145
_cell_angle_gamma   59.87545865
_symmetry_Int_Tables_number   1
_chemical_formula_structural   Y3Si6Pd19Pt
_chemical_formula_sum   'Y3 Si6 Pd19 Pt1'
_cell_volume   469.23390804
_cell_formula_units_Z   1
loop_
 _symmetry_equiv_pos_site_id
 _symmetry_equiv_pos_as_xyz
  1  'x, y, z'
loop_
 _atom_site_type_symbol
 _atom_site_label
 _atom_site_symmetry_multiplicity
 _atom_site_fract_x
 _atom_site_fract_y
 _atom_site_fract_z
 _atom_site_occupancy
  Y  Y0  1  0.250464  0.250464  0.250464  1
  Y  Y1  1  0.749618  0.749618  0.749618  1
  Y  Y2  1  0.999934  0.999934  0.999934  1
  Si  Si3  1  0.731218  0.268014  0.268014  1
  Si  Si4  1  0.267661  0.732988  0.732988  1
  Si  Si5  1  0.268014  0.731218  0.268014  1
  Si  Si6  1  0.732988  0.267661  0.732988  1
  Si  Si7  1  0.268014  0.268014  0.731218  1
  Si  Si8  1  0.732988  0.732988  0.267661  1
  Pd  Pd9  1  0.616033  0.616033  0.616033  1
  Pd  Pd10  1  0.383600  0.383600  0.848745  1
  Pd  Pd11  1  0.383600  0.848745  0.383600  1
  Pd  Pd12  1  0.617668  0.617668  0.150265  1
  Pd  Pd13  1  0.617668  0.150265  0.617668  1
  Pd  Pd14  1  0.848745  0.383600  0.383600  1
  Pd  Pd15  1  0.150265  0.617668  0.617668  1
  Pd  Pd16  1  0.345242  0.999707  0.999707  1
  Pd  Pd17  1  0.654452  0.999539  0.999539  1
  Pd  Pd18  1  0.999854  0.345138  0.654344  1
  Pd  Pd19  1  0.999854  0.654344  0.345138  1
  Pd  Pd20  1  0.999707  0.345242  0.999707  1
  Pd  Pd21  1  0.654344  0.999854  0.345138  1
  Pd  Pd22  1  0.999539  0.654452  0.999539  1
  Pd  Pd23  1  0.345138  0.999854  0.654344  1
  Pd  Pd24  1  0.999707  0.999707  0.345242  1
  Pd  Pd25  1  0.999539  0.999539  0.654452  1
  Pd  Pd26  1  0.654344  0.345138  0.999854  1
  Pd  Pd27  1  0.345138  0.654344  0.999854  1
  Pt  Pt28  1  0.384663  0.384663  0.384663  1
