# generated using pymatgen
data_Hf3ScTc8
_symmetry_space_group_name_H-M   'P 1'
_cell_length_a   5.23512500
_cell_length_b   5.23512627
_cell_length_c   8.62302700
_cell_angle_alpha   90.00000000
_cell_angle_beta   90.00000000
_cell_angle_gamma   119.99998564
_symmetry_Int_Tables_number   1
_chemical_formula_structural   Hf3ScTc8
_chemical_formula_sum   'Hf3 Sc1 Tc8'
_cell_volume   204.66550800
_cell_formula_units_Z   1
loop_
 _symmetry_equiv_pos_site_id
 _symmetry_equiv_pos_as_xyz
  1  'x, y, z'
loop_
 _atom_site_type_symbol
 _atom_site_label
 _atom_site_symmetry_multiplicity
 _atom_site_fract_x
 _atom_site_fract_y
 _atom_site_fract_z
 _atom_site_occupancy
  Hf  Hf0  1  0.666667  0.333333  0.563528  1
  Hf  Hf1  1  0.666667  0.333333  0.935828  1
  Hf  Hf2  1  0.333333  0.666667  0.065880  1
  Sc  Sc3  1  0.333333  0.666667  0.435601  1
  Tc  Tc4  1  0.000000  0.000000  0.499616  1
  Tc  Tc5  1  0.000000  0.000000  0.999551  1
  Tc  Tc6  1  0.828037  0.171963  0.249640  1
  Tc  Tc7  1  0.828037  0.656074  0.249640  1
  Tc  Tc8  1  0.343926  0.171963  0.249640  1
  Tc  Tc9  1  0.172346  0.827654  0.750359  1
  Tc  Tc10  1  0.172346  0.344692  0.750359  1
  Tc  Tc11  1  0.655308  0.827654  0.750359  1
