# generated using pymatgen
data_Zr4Zn5Re3
_symmetry_space_group_name_H-M   'P 1'
_cell_length_a   5.25168000
_cell_length_b   5.25168025
_cell_length_c   8.64448300
_cell_angle_alpha   90.00000000
_cell_angle_beta   90.00000000
_cell_angle_gamma   120.00001104
_symmetry_Int_Tables_number   1
_chemical_formula_structural   Zr4Zn5Re3
_chemical_formula_sum   'Zr4 Zn5 Re3'
_cell_volume   206.47436500
_cell_formula_units_Z   1
loop_
 _symmetry_equiv_pos_site_id
 _symmetry_equiv_pos_as_xyz
  1  'x, y, z'
loop_
 _atom_site_type_symbol
 _atom_site_label
 _atom_site_symmetry_multiplicity
 _atom_site_fract_x
 _atom_site_fract_y
 _atom_site_fract_z
 _atom_site_occupancy
  Zr  Zr0  1  0.666667  0.333332  0.070065  1
  Zr  Zr1  1  0.666667  0.333332  0.429935  1
  Zr  Zr2  1  0.333333  0.666667  0.557425  1
  Zr  Zr3  1  0.333333  0.666667  0.942576  1
  Zn  Zn4  1  0.000000  0.000000  0.990768  1
  Zn  Zn5  1  0.000000  0.000000  0.509232  1
  Zn  Zn6  1  0.344798  0.172398  0.750000  1
  Zn  Zn7  1  0.827601  0.172398  0.750000  1
  Zn  Zn8  1  0.827602  0.655202  0.750000  1
  Re  Re9  1  0.169310  0.338621  0.250000  1
  Re  Re10  1  0.169310  0.830690  0.250000  1
  Re  Re11  1  0.661379  0.830690  0.250000  1
