# generated using pymatgen
data_Cs2PrPa(CuTe3)2
_symmetry_space_group_name_H-M   'P 1'
_cell_length_a   8.89248892
_cell_length_b   8.89248931
_cell_length_c   11.55207893
_cell_angle_alpha   91.60101236
_cell_angle_beta   88.39898697
_cell_angle_gamma   150.86214149
_symmetry_Int_Tables_number   1
_chemical_formula_structural   Cs2PrPa(CuTe3)2
_chemical_formula_sum   'Cs2 Pr1 Pa1 Cu2 Te6'
_cell_volume   444.60755159
_cell_formula_units_Z   1
loop_
 _symmetry_equiv_pos_site_id
 _symmetry_equiv_pos_as_xyz
  1  'x, y, z'
loop_
 _atom_site_type_symbol
 _atom_site_label
 _atom_site_symmetry_multiplicity
 _atom_site_fract_x
 _atom_site_fract_y
 _atom_site_fract_z
 _atom_site_occupancy
  Cs  Cs0  1  0.744596  0.255406  0.267023  1
  Cs  Cs1  1  0.255406  0.744596  0.732977  1
  Pr  Pr2  1  0.000000  0.000000  0.500000  1
  Pa  Pa3  1  0.000000  0.000000  0.000000  1
  Cu  Cu4  1  0.468793  0.531208  0.243203  1
  Cu  Cu5  1  0.531208  0.468793  0.756797  1
  Te  Te6  1  0.384205  0.615796  0.057682  1
  Te  Te7  1  0.059952  0.940049  0.236277  1
  Te  Te8  1  0.379139  0.620862  0.430928  1
  Te  Te9  1  0.620862  0.379139  0.569072  1
  Te  Te10  1  0.940049  0.059952  0.763723  1
  Te  Te11  1  0.615796  0.384205  0.942317  1
