# generated using pymatgen
data_Nd6Ga8Si3Ge
_symmetry_space_group_name_H-M   'P 1'
_cell_length_a   4.22606286
_cell_length_b   4.29126629
_cell_length_c   21.95288396
_cell_angle_alpha   84.39105567
_cell_angle_beta   84.47655241
_cell_angle_gamma   89.99998863
_symmetry_Int_Tables_number   1
_chemical_formula_structural   Nd6Ga8Si3Ge
_chemical_formula_sum   'Nd6 Ga8 Si3 Ge1'
_cell_volume   394.35551018
_cell_formula_units_Z   1
loop_
 _symmetry_equiv_pos_site_id
 _symmetry_equiv_pos_as_xyz
  1  'x, y, z'
loop_
 _atom_site_type_symbol
 _atom_site_label
 _atom_site_symmetry_multiplicity
 _atom_site_fract_x
 _atom_site_fract_y
 _atom_site_fract_z
 _atom_site_occupancy
  Nd  Nd0  1  0.958649  0.708649  0.082701  1
  Nd  Nd1  1  0.290480  0.040480  0.419042  1
  Nd  Nd2  1  0.623722  0.373722  0.752555  1
  Nd  Nd3  1  0.376258  0.626258  0.247485  1
  Nd  Nd4  1  0.709242  0.959242  0.581515  1
  Nd  Nd5  1  0.041304  0.291304  0.917392  1
  Ga  Ga6  1  0.819827  0.569827  0.360347  1
  Ga  Ga7  1  0.152917  0.902917  0.694167  1
  Ga  Ga8  1  0.432145  0.182145  0.135710  1
  Ga  Ga9  1  0.764075  0.514075  0.471849  1
  Ga  Ga10  1  0.096990  0.846990  0.806020  1
  Ga  Ga11  1  0.846598  0.096598  0.306805  1
  Ga  Ga12  1  0.180551  0.430551  0.638898  1
  Ga  Ga13  1  0.513540  0.763540  0.972919  1
  Si  Si14  1  0.235563  0.485563  0.528873  1
  Si  Si15  1  0.568748  0.818748  0.862502  1
  Si  Si16  1  0.486939  0.236939  0.026121  1
  Ge  Ge17  1  0.902452  0.152452  0.195097  1
