# generated using pymatgen
data_Tm5SiHg2Os
_symmetry_space_group_name_H-M   'P 1'
_cell_length_a   8.67004880
_cell_length_b   8.67004800
_cell_length_c   7.60371500
_cell_angle_alpha   90.00000000
_cell_angle_beta   90.00000000
_cell_angle_gamma   129.94033472
_symmetry_Int_Tables_number   1
_chemical_formula_structural   Tm5SiHg2Os
_chemical_formula_sum   'Tm10 Si2 Hg4 Os2'
_cell_volume   438.22982007
_cell_formula_units_Z   2
loop_
 _symmetry_equiv_pos_site_id
 _symmetry_equiv_pos_as_xyz
  1  'x, y, z'
loop_
 _atom_site_type_symbol
 _atom_site_label
 _atom_site_symmetry_multiplicity
 _atom_site_fract_x
 _atom_site_fract_y
 _atom_site_fract_z
 _atom_site_occupancy
  Tm  Tm0  1  0.549853  0.796750  0.163330  1
  Tm  Tm1  1  0.296750  0.049853  0.336670  1
  Tm  Tm2  1  0.202721  0.449332  0.823517  1
  Tm  Tm3  1  0.949332  0.702721  0.676483  1
  Tm  Tm4  1  0.702721  0.949332  0.676483  1
  Tm  Tm5  1  0.449332  0.202721  0.823517  1
  Tm  Tm6  1  0.796750  0.549853  0.163330  1
  Tm  Tm7  1  0.049853  0.296750  0.336670  1
  Tm  Tm8  1  0.497030  0.497030  0.507755  1
  Tm  Tm9  1  0.997030  0.997030  0.992245  1
  Si  Si10  1  0.881978  0.881978  0.369688  1
  Si  Si11  1  0.381978  0.381978  0.130312  1
  Hg  Hg12  1  0.287138  0.717697  0.493643  1
  Hg  Hg13  1  0.217697  0.787138  0.006357  1
  Hg  Hg14  1  0.717697  0.287138  0.493643  1
  Hg  Hg15  1  0.787138  0.217697  0.006357  1
  Os  Os16  1  0.617500  0.617500  0.879418  1
  Os  Os17  1  0.117500  0.117500  0.620582  1
