# generated using pymatgen
data_Pr2Y6Sc12Ga5Si11
_symmetry_space_group_name_H-M   'P 1'
_cell_length_a   7.20380455
_cell_length_b   7.45330817
_cell_length_c   14.27036373
_cell_angle_alpha   90.00259665
_cell_angle_beta   90.18839587
_cell_angle_gamma   90.08194213
_symmetry_Int_Tables_number   1
_chemical_formula_structural   Pr2Y6Sc12Ga5Si11
_chemical_formula_sum   'Pr2 Y6 Sc12 Ga5 Si11'
_cell_volume   766.20194402
_cell_formula_units_Z   1
loop_
 _symmetry_equiv_pos_site_id
 _symmetry_equiv_pos_as_xyz
  1  'x, y, z'
loop_
 _atom_site_type_symbol
 _atom_site_label
 _atom_site_symmetry_multiplicity
 _atom_site_fract_x
 _atom_site_fract_y
 _atom_site_fract_z
 _atom_site_occupancy
  Pr  Pr0  1  0.512041  0.327421  0.098373  1
  Pr  Pr1  1  0.010239  0.171957  0.098496  1
  Y  Y2  1  0.012444  0.174387  0.401233  1
  Y  Y3  1  0.512328  0.325535  0.401451  1
  Y  Y4  1  0.490905  0.675661  0.896806  1
  Y  Y5  1  0.488066  0.677363  0.598862  1
  Y  Y6  1  0.988245  0.823219  0.598630  1
  Y  Y7  1  0.988809  0.828146  0.897539  1
  Sc  Sc8  1  0.329160  0.172625  0.625985  1
  Sc  Sc9  1  0.670521  0.823367  0.376266  1
  Sc  Sc10  1  0.663708  0.999224  0.750661  1
  Sc  Sc11  1  0.170271  0.676554  0.376098  1
  Sc  Sc12  1  0.826885  0.324977  0.872195  1
  Sc  Sc13  1  0.829301  0.326920  0.625944  1
  Sc  Sc14  1  0.836791  0.501442  0.253690  1
  Sc  Sc15  1  0.337214  0.998125  0.254241  1
  Sc  Sc16  1  0.332148  0.174129  0.870956  1
  Sc  Sc17  1  0.169068  0.672757  0.128758  1
  Sc  Sc18  1  0.668664  0.826803  0.127895  1
  Sc  Sc19  1  0.162324  0.499668  0.749999  1
  Ga  Ga20  1  0.158637  0.460735  0.539006  1
  Ga  Ga21  1  0.843402  0.547508  0.035947  1
  Ga  Ga22  1  0.343236  0.952814  0.035445  1
  Ga  Ga23  1  0.159646  0.464195  0.957585  1
  Ga  Ga24  1  0.658866  0.039341  0.539117  1
  Si  Si25  1  0.285619  0.873980  0.748636  1
  Si  Si26  1  0.466287  0.620833  0.253401  1
  Si  Si27  1  0.032216  0.117300  0.748630  1
  Si  Si28  1  0.532457  0.384574  0.748196  1
  Si  Si29  1  0.966256  0.879746  0.252941  1
  Si  Si30  1  0.711949  0.122790  0.254429  1
  Si  Si31  1  0.343701  0.964126  0.460975  1
  Si  Si32  1  0.843928  0.535628  0.460911  1
  Si  Si33  1  0.786809  0.626429  0.748401  1
  Si  Si34  1  0.212422  0.376711  0.254247  1
  Si  Si35  1  0.655433  0.033013  0.958060  1
