# generated using pymatgen
data_YTm3Ir4F28
_symmetry_space_group_name_H-M   'P 1'
_cell_length_a   5.51337253
_cell_length_b   8.83702770
_cell_length_c   11.88799010
_cell_angle_alpha   62.63413909
_cell_angle_beta   90.04716559
_cell_angle_gamma   90.00967440
_symmetry_Int_Tables_number   1
_chemical_formula_structural   YTm3Ir4F28
_chemical_formula_sum   'Y1 Tm3 Ir4 F28'
_cell_volume   514.38528050
_cell_formula_units_Z   1
loop_
 _symmetry_equiv_pos_site_id
 _symmetry_equiv_pos_as_xyz
  1  'x, y, z'
loop_
 _atom_site_type_symbol
 _atom_site_label
 _atom_site_symmetry_multiplicity
 _atom_site_fract_x
 _atom_site_fract_y
 _atom_site_fract_z
 _atom_site_occupancy
  Y  Y0  1  0.239959  0.815426  0.765167  1
  Tm  Tm1  1  0.259795  0.815348  0.265189  1
  Tm  Tm2  1  0.739215  0.187688  0.734467  1
  Tm  Tm3  1  0.759955  0.184918  0.234884  1
  Ir  Ir4  1  0.758021  0.726269  0.045692  1
  Ir  Ir5  1  0.241661  0.271518  0.957146  1
  Ir  Ir6  1  0.258783  0.274692  0.455183  1
  Ir  Ir7  1  0.742659  0.726268  0.541968  1
  F  F8  1  0.941561  0.705153  0.413157  1
  F  F9  1  0.056908  0.295100  0.584071  1
  F  F10  1  0.443435  0.293625  0.085202  1
  F  F11  1  0.560445  0.704524  0.916308  1
  F  F12  1  0.465560  0.729391  0.139725  1
  F  F13  1  0.533949  0.270883  0.861462  1
  F  F14  1  0.967728  0.271340  0.359760  1
  F  F15  1  0.036489  0.727038  0.635876  1
  F  F16  1  0.954089  0.746582  0.176748  1
  F  F17  1  0.043768  0.251957  0.826034  1
  F  F18  1  0.457003  0.254346  0.324509  1
  F  F19  1  0.550605  0.744941  0.674288  1
  F  F20  1  0.769592  0.479071  0.142375  1
  F  F21  1  0.227895  0.518328  0.859531  1
  F  F22  1  0.271168  0.522135  0.358236  1
  F  F23  1  0.729659  0.479059  0.640023  1
  F  F24  1  0.941475  0.277310  0.047061  1
  F  F25  1  0.058217  0.719975  0.957611  1
  F  F26  1  0.440052  0.721987  0.453299  1
  F  F27  1  0.558447  0.279277  0.545661  1
  F  F28  1  0.743695  0.973597  0.447885  1
  F  F29  1  0.257972  0.027458  0.549208  1
  F  F30  1  0.242811  0.024247  0.052050  1
  F  F31  1  0.758089  0.973005  0.950069  1
  F  F32  1  0.579603  0.972476  0.232303  1
  F  F33  1  0.418197  0.033593  0.768575  1
  F  F34  1  0.079846  0.027633  0.267924  1
  F  F35  1  0.911691  0.973842  0.731353  1
