# generated using pymatgen
data_YbGa4O7
_symmetry_space_group_name_H-M   'P 1'
_cell_length_a   8.04424645
_cell_length_b   8.04424675
_cell_length_c   5.65928758
_cell_angle_alpha   77.99165493
_cell_angle_beta   77.99165520
_cell_angle_gamma   69.34938345
_symmetry_Int_Tables_number   1
_chemical_formula_structural   YbGa4O7
_chemical_formula_sum   'Yb2 Ga8 O14'
_cell_volume   331.53479575
_cell_formula_units_Z   2
loop_
 _symmetry_equiv_pos_site_id
 _symmetry_equiv_pos_as_xyz
  1  'x, y, z'
loop_
 _atom_site_type_symbol
 _atom_site_label
 _atom_site_symmetry_multiplicity
 _atom_site_fract_x
 _atom_site_fract_y
 _atom_site_fract_z
 _atom_site_occupancy
  Yb  Yb0  1  0.707117  0.292883  0.250000  1
  Yb  Yb1  1  0.292883  0.707117  0.750000  1
  Ga  Ga2  1  0.256582  0.425765  0.314644  1
  Ga  Ga3  1  0.574235  0.743418  0.185356  1
  Ga  Ga4  1  0.943660  0.815238  0.243883  1
  Ga  Ga5  1  0.184762  0.056340  0.256117  1
  Ga  Ga6  1  0.056340  0.184762  0.756117  1
  Ga  Ga7  1  0.815238  0.943660  0.743883  1
  Ga  Ga8  1  0.425765  0.256582  0.814644  1
  Ga  Ga9  1  0.743418  0.574235  0.685356  1
  O  O10  1  0.038555  0.961445  0.750000  1
  O  O11  1  0.961445  0.038555  0.250000  1
  O  O12  1  0.139347  0.636871  0.131117  1
  O  O13  1  0.363129  0.860653  0.368883  1
  O  O14  1  0.860653  0.363129  0.868883  1
  O  O15  1  0.636871  0.139347  0.631117  1
  O  O16  1  0.681340  0.543845  0.403324  1
  O  O17  1  0.456155  0.318660  0.096676  1
  O  O18  1  0.318660  0.456155  0.596676  1
  O  O19  1  0.543845  0.681340  0.903324  1
  O  O20  1  0.744198  0.869588  0.080056  1
  O  O21  1  0.130412  0.255802  0.419944  1
  O  O22  1  0.255802  0.130412  0.919944  1
  O  O23  1  0.869588  0.744198  0.580056  1
