# generated using pymatgen
data_Tm8InPb3Au8
_symmetry_space_group_name_H-M   'P 1'
_cell_length_a   8.05252200
_cell_length_b   8.05252200
_cell_length_c   7.26074700
_cell_angle_alpha   90.00000000
_cell_angle_beta   90.00000000
_cell_angle_gamma   90.00000000
_symmetry_Int_Tables_number   1
_chemical_formula_structural   Tm8InPb3Au8
_chemical_formula_sum   'Tm8 In1 Pb3 Au8'
_cell_volume   470.80942047
_cell_formula_units_Z   1
loop_
 _symmetry_equiv_pos_site_id
 _symmetry_equiv_pos_as_xyz
  1  'x, y, z'
loop_
 _atom_site_type_symbol
 _atom_site_label
 _atom_site_symmetry_multiplicity
 _atom_site_fract_x
 _atom_site_fract_y
 _atom_site_fract_z
 _atom_site_occupancy
  Tm  Tm0  1  0.847628  0.157164  0.497615  1
  Tm  Tm1  1  0.152372  0.842836  0.497615  1
  Tm  Tm2  1  0.342836  0.347628  0.002385  1
  Tm  Tm3  1  0.657164  0.652372  0.002385  1
  Tm  Tm4  1  0.681515  0.678497  0.498620  1
  Tm  Tm5  1  0.318485  0.321503  0.498620  1
  Tm  Tm6  1  0.178498  0.818485  0.001380  1
  Tm  Tm7  1  0.821503  0.181516  0.001380  1
  In  In8  1  0.000000  0.500000  0.250000  1
  Pb  Pb9  1  0.500000  0.000000  0.250000  1
  Pb  Pb10  1  0.000000  0.500000  0.750000  1
  Pb  Pb11  1  0.500000  0.000000  0.750000  1
  Au  Au12  1  0.631614  0.375838  0.277006  1
  Au  Au13  1  0.368386  0.624162  0.277006  1
  Au  Au14  1  0.127835  0.125542  0.777969  1
  Au  Au15  1  0.872165  0.874458  0.777969  1
  Au  Au16  1  0.374458  0.627835  0.722031  1
  Au  Au17  1  0.625542  0.372165  0.722031  1
  Au  Au18  1  0.875838  0.868386  0.222994  1
  Au  Au19  1  0.124162  0.131614  0.222994  1
