# generated using pymatgen
data_Y2Al9IrPd2
_symmetry_space_group_name_H-M   'P 1'
_cell_length_a   7.61115452
_cell_length_b   7.61115557
_cell_length_c   9.46374822
_cell_angle_alpha   89.98741084
_cell_angle_beta   89.98740706
_cell_angle_gamma   119.67965776
_symmetry_Int_Tables_number   1
_chemical_formula_structural   Y2Al9IrPd2
_chemical_formula_sum   'Y4 Al18 Ir2 Pd4'
_cell_volume   476.30788220
_cell_formula_units_Z   2
loop_
 _symmetry_equiv_pos_site_id
 _symmetry_equiv_pos_as_xyz
  1  'x, y, z'
loop_
 _atom_site_type_symbol
 _atom_site_label
 _atom_site_symmetry_multiplicity
 _atom_site_fract_x
 _atom_site_fract_y
 _atom_site_fract_z
 _atom_site_occupancy
  Y  Y0  1  0.994632  0.669516  0.251016  1
  Y  Y1  1  0.006596  0.330716  0.748859  1
  Y  Y2  1  0.669284  0.993404  0.251141  1
  Y  Y3  1  0.330484  0.005368  0.748984  1
  Al  Al4  1  0.128992  0.130049  0.252767  1
  Al  Al5  1  0.869951  0.871008  0.747233  1
  Al  Al6  1  0.000642  0.334626  0.077702  1
  Al  Al7  1  0.999185  0.665103  0.921927  1
  Al  Al8  1  0.997202  0.665421  0.573107  1
  Al  Al9  1  0.334579  0.002798  0.426893  1
  Al  Al10  1  0.995437  0.330178  0.426418  1
  Al  Al11  1  0.669822  0.004563  0.573582  1
  Al  Al12  1  0.665374  0.999358  0.922298  1
  Al  Al13  1  0.334897  0.000815  0.078073  1
  Al  Al14  1  0.332696  0.329458  0.552729  1
  Al  Al15  1  0.670542  0.667304  0.447271  1
  Al  Al16  1  0.666066  0.665957  0.058107  1
  Al  Al17  1  0.334043  0.333934  0.941893  1
  Al  Al18  1  0.339336  0.547104  0.251215  1
  Al  Al19  1  0.659811  0.452281  0.746936  1
  Al  Al20  1  0.547719  0.340189  0.253064  1
  Al  Al21  1  0.452896  0.660664  0.748785  1
  Ir  Ir22  1  0.671589  0.328411  0.500000  1
  Ir  Ir23  1  0.000421  0.999579  0.500000  1
  Pd  Pd24  1  0.672110  0.327890  0.000000  1
  Pd  Pd25  1  0.327678  0.672322  0.000000  1
  Pd  Pd26  1  0.327914  0.672086  0.500000  1
  Pd  Pd27  1  0.000103  0.999897  0.000000  1
