# generated using pymatgen
data_Na3Yb2AuO6
_symmetry_space_group_name_H-M   'P 1'
_cell_length_a   10.89641923
_cell_length_b   10.35084087
_cell_length_c   5.77682400
_cell_angle_alpha   79.50677197
_cell_angle_beta   69.07428542
_cell_angle_gamma   31.41894862
_symmetry_Int_Tables_number   1
_chemical_formula_structural   Na3Yb2AuO6
_chemical_formula_sum   'Na6 Yb4 Au2 O12'
_cell_volume   307.01332638
_cell_formula_units_Z   2
loop_
 _symmetry_equiv_pos_site_id
 _symmetry_equiv_pos_as_xyz
  1  'x, y, z'
loop_
 _atom_site_type_symbol
 _atom_site_label
 _atom_site_symmetry_multiplicity
 _atom_site_fract_x
 _atom_site_fract_y
 _atom_site_fract_z
 _atom_site_occupancy
  Na  Na0  1  0.000000  0.000000  0.000000  1
  Na  Na1  1  0.086010  0.086010  0.413990  1
  Na  Na2  1  0.836010  0.836010  0.163990  1
  Na  Na3  1  0.163990  0.163990  0.836010  1
  Na  Na4  1  0.250000  0.250000  0.250000  1
  Na  Na5  1  0.413990  0.413990  0.086010  1
  Yb  Yb6  1  0.580274  0.580274  0.919726  1
  Yb  Yb7  1  0.919726  0.919726  0.580274  1
  Yb  Yb8  1  0.669726  0.669726  0.330274  1
  Yb  Yb9  1  0.330274  0.330274  0.669726  1
  Au  Au10  1  0.750000  0.750000  0.750000  1
  Au  Au11  1  0.500000  0.500000  0.500000  1
  O  O12  1  0.280659  0.719341  0.280659  1
  O  O13  1  0.719341  0.280659  0.719341  1
  O  O14  1  0.969341  0.530659  0.969341  1
  O  O15  1  0.530659  0.969341  0.530659  1
  O  O16  1  0.199043  0.648832  0.794486  1
  O  O17  1  0.357639  0.794486  0.648832  1
  O  O18  1  0.794486  0.357639  0.199043  1
  O  O19  1  0.648832  0.199043  0.357639  1
  O  O20  1  0.601168  0.050957  0.892361  1
  O  O21  1  0.892361  0.455514  0.601168  1
  O  O22  1  0.455514  0.892361  0.050957  1
  O  O23  1  0.050957  0.601168  0.455514  1
