# generated using pymatgen
data_Eu12Tm8Si15Hg
_symmetry_space_group_name_H-M   'P 1'
_cell_length_a   7.57929391
_cell_length_b   7.96912283
_cell_length_c   15.46561100
_cell_angle_alpha   89.22936077
_cell_angle_beta   90.82511169
_cell_angle_gamma   90.26780215
_symmetry_Int_Tables_number   1
_chemical_formula_structural   Eu12Tm8Si15Hg
_chemical_formula_sum   'Eu12 Tm8 Si15 Hg1'
_cell_volume   933.93719371
_cell_formula_units_Z   1
loop_
 _symmetry_equiv_pos_site_id
 _symmetry_equiv_pos_as_xyz
  1  'x, y, z'
loop_
 _atom_site_type_symbol
 _atom_site_label
 _atom_site_symmetry_multiplicity
 _atom_site_fract_x
 _atom_site_fract_y
 _atom_site_fract_z
 _atom_site_occupancy
  Eu  Eu0  1  0.985733  0.823996  0.401917  1
  Eu  Eu1  1  0.475007  0.679147  0.094872  1
  Eu  Eu2  1  0.506087  0.318690  0.595205  1
  Eu  Eu3  1  0.024173  0.181743  0.906046  1
  Eu  Eu4  1  0.021115  0.171071  0.593685  1
  Eu  Eu5  1  0.524736  0.322439  0.905889  1
  Eu  Eu6  1  0.477826  0.676217  0.402876  1
  Eu  Eu7  1  0.975792  0.819525  0.094928  1
  Eu  Eu8  1  0.344653  0.027086  0.753227  1
  Eu  Eu9  1  0.843820  0.480706  0.751705  1
  Eu  Eu10  1  0.155375  0.521591  0.250538  1
  Eu  Eu11  1  0.654498  0.972787  0.249441  1
  Tm  Tm12  1  0.319525  0.177402  0.120456  1
  Tm  Tm13  1  0.824210  0.314473  0.373052  1
  Tm  Tm14  1  0.181594  0.681015  0.880393  1
  Tm  Tm15  1  0.672071  0.832007  0.627920  1
  Tm  Tm16  1  0.324125  0.176972  0.375838  1
  Tm  Tm17  1  0.818427  0.320525  0.120683  1
  Tm  Tm18  1  0.186030  0.680864  0.622367  1
  Tm  Tm19  1  0.683081  0.823727  0.880282  1
  Si  Si20  1  0.358792  0.968347  0.962668  1
  Si  Si21  1  0.646834  0.030486  0.463619  1
  Si  Si22  1  0.141040  0.466693  0.038824  1
  Si  Si23  1  0.156219  0.457431  0.460426  1
  Si  Si24  1  0.642525  0.033463  0.038073  1
  Si  Si25  1  0.358623  0.963377  0.535186  1
  Si  Si26  1  0.859005  0.533130  0.962350  1
  Si  Si27  1  0.971037  0.876681  0.752737  1
  Si  Si28  1  0.467850  0.629936  0.754603  1
  Si  Si29  1  0.531275  0.370722  0.245998  1
  Si  Si30  1  0.030809  0.122110  0.248311  1
  Si  Si31  1  0.243525  0.407702  0.752861  1
  Si  Si32  1  0.746412  0.099424  0.751870  1
  Si  Si33  1  0.256197  0.902830  0.248470  1
  Si  Si34  1  0.754808  0.592798  0.248021  1
  Hg  Hg35  1  0.837169  0.542885  0.534658  1
