# generated using pymatgen
data_TbYbTm5Co6Sn23
_symmetry_space_group_name_H-M   'P 1'
_cell_length_a   9.68274812
_cell_length_b   9.68531986
_cell_length_c   9.92997601
_cell_angle_alpha   89.99999861
_cell_angle_beta   89.99610919
_cell_angle_gamma   120.00878766
_symmetry_Int_Tables_number   1
_chemical_formula_structural   TbYbTm5Co6Sn23
_chemical_formula_sum   'Tb1 Yb1 Tm5 Co6 Sn23'
_cell_volume   806.40454759
_cell_formula_units_Z   1
loop_
 _symmetry_equiv_pos_site_id
 _symmetry_equiv_pos_as_xyz
  1  'x, y, z'
loop_
 _atom_site_type_symbol
 _atom_site_label
 _atom_site_symmetry_multiplicity
 _atom_site_fract_x
 _atom_site_fract_y
 _atom_site_fract_z
 _atom_site_occupancy
  Tb  Tb0  1  0.958052  0.479025  0.693755  1
  Yb  Yb1  1  0.000193  0.000096  0.000196  1
  Tm  Tm2  1  0.480007  0.520162  0.305608  1
  Tm  Tm3  1  0.520182  0.479936  0.694248  1
  Tm  Tm4  1  0.480007  0.959847  0.305608  1
  Tm  Tm5  1  0.520182  0.040245  0.694248  1
  Tm  Tm6  1  0.040072  0.520036  0.305594  1
  Co  Co7  1  0.831161  0.168779  0.198864  1
  Co  Co8  1  0.169495  0.832222  0.801336  1
  Co  Co9  1  0.831161  0.662381  0.198864  1
  Co  Co10  1  0.169495  0.337274  0.801336  1
  Co  Co11  1  0.337816  0.168907  0.199125  1
  Co  Co12  1  0.661798  0.830900  0.801226  1
  Sn  Sn13  1  0.346208  0.000281  0.000137  1
  Sn  Sn14  1  0.653919  0.999886  0.000114  1
  Sn  Sn15  1  0.000080  0.346029  0.000214  1
  Sn  Sn16  1  0.000080  0.654050  0.000214  1
  Sn  Sn17  1  0.653919  0.654033  0.000114  1
  Sn  Sn18  1  0.346208  0.345927  0.000137  1
  Sn  Sn19  1  0.333644  0.666822  0.816079  1
  Sn  Sn20  1  0.666684  0.333341  0.184068  1
  Sn  Sn21  1  0.000393  0.000197  0.499885  1
  Sn  Sn22  1  0.780414  0.218521  0.452193  1
  Sn  Sn23  1  0.220190  0.781997  0.546576  1
  Sn  Sn24  1  0.780414  0.561893  0.452193  1
  Sn  Sn25  1  0.220190  0.438193  0.546576  1
  Sn  Sn26  1  0.438161  0.219080  0.452786  1
  Sn  Sn27  1  0.562008  0.781004  0.547118  1
  Sn  Sn28  1  0.333373  0.666687  0.121004  1
  Sn  Sn29  1  0.664423  0.332211  0.880277  1
  Sn  Sn30  1  0.117794  0.882364  0.273861  1
  Sn  Sn31  1  0.882187  0.116632  0.726262  1
  Sn  Sn32  1  0.117794  0.235432  0.273861  1
  Sn  Sn33  1  0.882187  0.765552  0.726262  1
  Sn  Sn34  1  0.764138  0.882070  0.274046  1
  Sn  Sn35  1  0.235973  0.117985  0.726018  1
