# generated using pymatgen
data_TbDy4ScCoTe2
_symmetry_space_group_name_H-M   'P 1'
_cell_length_a   8.21103307
_cell_length_b   8.33086766
_cell_length_c   3.94891700
_cell_angle_alpha   90.00000000
_cell_angle_beta   90.00000000
_cell_angle_gamma   120.48397016
_symmetry_Int_Tables_number   1
_chemical_formula_structural   TbDy4ScCoTe2
_chemical_formula_sum   'Tb1 Dy4 Sc1 Co1 Te2'
_cell_volume   232.78660121
_cell_formula_units_Z   1
loop_
 _symmetry_equiv_pos_site_id
 _symmetry_equiv_pos_as_xyz
  1  'x, y, z'
loop_
 _atom_site_type_symbol
 _atom_site_label
 _atom_site_symmetry_multiplicity
 _atom_site_fract_x
 _atom_site_fract_y
 _atom_site_fract_z
 _atom_site_occupancy
  Tb  Tb0  1  0.000000  0.412374  0.500000  1
  Dy  Dy1  1  0.614043  0.611527  0.500000  1
  Dy  Dy2  1  0.385957  0.997484  0.500000  1
  Dy  Dy3  1  0.229786  0.234773  0.000000  1
  Dy  Dy4  1  0.770214  0.004987  0.000000  1
  Sc  Sc5  1  0.000000  0.767305  0.000000  1
  Co  Co6  1  0.000000  0.962283  0.500000  1
  Te  Te7  1  0.331902  0.670584  0.000000  1
  Te  Te8  1  0.668098  0.338681  0.000000  1
