# generated using pymatgen
data_Sc4Be4Ga2(IrRh)5
_symmetry_space_group_name_H-M   'P 1'
_cell_length_a   9.49181188
_cell_length_b   9.50512687
_cell_length_c   3.10780900
_cell_angle_alpha   90.00000000
_cell_angle_beta   90.00000000
_cell_angle_gamma   89.92800073
_symmetry_Int_Tables_number   1
_chemical_formula_structural   Sc4Be4Ga2(IrRh)5
_chemical_formula_sum   'Sc4 Be4 Ga2 Ir5 Rh5'
_cell_volume   280.38902948
_cell_formula_units_Z   1
loop_
 _symmetry_equiv_pos_site_id
 _symmetry_equiv_pos_as_xyz
  1  'x, y, z'
loop_
 _atom_site_type_symbol
 _atom_site_label
 _atom_site_symmetry_multiplicity
 _atom_site_fract_x
 _atom_site_fract_y
 _atom_site_fract_z
 _atom_site_occupancy
  Sc  Sc0  1  0.673489  0.175185  0.000000  1
  Sc  Sc1  1  0.326500  0.823529  0.000000  1
  Sc  Sc2  1  0.176562  0.326685  0.000000  1
  Sc  Sc3  1  0.824391  0.674695  0.000000  1
  Be  Be4  1  0.123553  0.624406  0.000000  1
  Be  Be5  1  0.876324  0.375687  0.000000  1
  Be  Be6  1  0.624514  0.876245  0.000000  1
  Be  Be7  1  0.375532  0.123778  0.000000  1
  Ga  Ga8  1  0.999895  0.999974  0.000000  1
  Ga  Ga9  1  0.500676  0.499685  0.000000  1
  Ir  Ir10  1  0.290036  0.568016  0.500000  1
  Ir  Ir11  1  0.567843  0.709746  0.500000  1
  Ir  Ir12  1  0.432139  0.290344  0.500000  1
  Ir  Ir13  1  0.500284  0.000323  0.500000  1
  Ir  Ir14  1  0.999436  0.499843  0.500000  1
  Rh  Rh15  1  0.208740  0.067776  0.500000  1
  Rh  Rh16  1  0.791236  0.931990  0.500000  1
  Rh  Rh17  1  0.068092  0.791095  0.500000  1
  Rh  Rh18  1  0.709333  0.431946  0.500000  1
  Rh  Rh19  1  0.931424  0.209053  0.500000  1
