# generated using pymatgen
data_Pr19NdSi15Au
_symmetry_space_group_name_H-M   'P 1'
_cell_length_a   7.95560282
_cell_length_b   7.95541869
_cell_length_c   15.33241280
_cell_angle_alpha   89.96631642
_cell_angle_beta   89.60786010
_cell_angle_gamma   90.12101055
_symmetry_Int_Tables_number   1
_chemical_formula_structural   Pr19NdSi15Au
_chemical_formula_sum   'Pr19 Nd1 Si15 Au1'
_cell_volume   970.36565887
_cell_formula_units_Z   1
loop_
 _symmetry_equiv_pos_site_id
 _symmetry_equiv_pos_as_xyz
  1  'x, y, z'
loop_
 _atom_site_type_symbol
 _atom_site_label
 _atom_site_symmetry_multiplicity
 _atom_site_fract_x
 _atom_site_fract_y
 _atom_site_fract_z
 _atom_site_occupancy
  Pr  Pr0  1  0.191903  0.808970  0.249855  1
  Pr  Pr1  1  0.806196  0.186284  0.751217  1
  Pr  Pr2  1  0.692729  0.688666  0.498729  1
  Pr  Pr3  1  0.375055  0.011120  0.447681  1
  Pr  Pr4  1  0.491774  0.870971  0.699256  1
  Pr  Pr5  1  0.510318  0.123490  0.197703  1
  Pr  Pr6  1  0.877433  0.489142  0.300876  1
  Pr  Pr7  1  0.120934  0.516763  0.802396  1
  Pr  Pr8  1  0.625923  0.988246  0.949836  1
  Pr  Pr9  1  0.002860  0.379901  0.549106  1
  Pr  Pr10  1  0.989337  0.625444  0.052186  1
  Pr  Pr11  1  0.131931  0.984091  0.877920  1
  Pr  Pr12  1  0.517669  0.629771  0.126327  1
  Pr  Pr13  1  0.481748  0.371393  0.626743  1
  Pr  Pr14  1  0.628195  0.518716  0.875120  1
  Pr  Pr15  1  0.372663  0.483048  0.372883  1
  Pr  Pr16  1  0.872219  0.019667  0.375700  1
  Pr  Pr17  1  0.982559  0.127099  0.124362  1
  Pr  Pr18  1  0.015196  0.867763  0.622081  1
  Nd  Nd19  1  0.307454  0.307582  0.999567  1
  Si  Si20  1  0.332575  0.694774  0.951883  1
  Si  Si21  1  0.663477  0.302979  0.451185  1
  Si  Si22  1  0.697124  0.334424  0.049265  1
  Si  Si23  1  0.305422  0.669267  0.547253  1
  Si  Si24  1  0.805189  0.832195  0.202402  1
  Si  Si25  1  0.168075  0.196834  0.298566  1
  Si  Si26  1  0.834806  0.803652  0.798612  1
  Si  Si27  1  0.287923  0.922560  0.059812  1
  Si  Si28  1  0.579438  0.787462  0.309703  1
  Si  Si29  1  0.431872  0.209235  0.814865  1
  Si  Si30  1  0.786367  0.578613  0.690828  1
  Si  Si31  1  0.212705  0.421672  0.189823  1
  Si  Si32  1  0.707595  0.077195  0.558516  1
  Si  Si33  1  0.922823  0.289173  0.941419  1
  Si  Si34  1  0.079479  0.713229  0.439987  1
  Au  Au35  1  0.191036  0.168609  0.696335  1
