# generated using pymatgen
data_Tb3Pr2(Sn5Rh2)2
_symmetry_space_group_name_H-M   'P 1'
_cell_length_a   14.17163900
_cell_length_b   14.17163900
_cell_length_c   4.57334000
_cell_angle_alpha   90.00000000
_cell_angle_beta   90.00000000
_cell_angle_gamma   90.00000000
_symmetry_Int_Tables_number   1
_chemical_formula_structural   Tb3Pr2(Sn5Rh2)2
_chemical_formula_sum   'Tb6 Pr4 Sn20 Rh8'
_cell_volume   918.48834847
_cell_formula_units_Z   2
loop_
 _symmetry_equiv_pos_site_id
 _symmetry_equiv_pos_as_xyz
  1  'x, y, z'
loop_
 _atom_site_type_symbol
 _atom_site_label
 _atom_site_symmetry_multiplicity
 _atom_site_fract_x
 _atom_site_fract_y
 _atom_site_fract_z
 _atom_site_occupancy
  Tb  Tb0  1  0.500000  0.500000  0.000000  1
  Tb  Tb1  1  0.000000  0.000000  0.000000  1
  Tb  Tb2  1  0.677387  0.177387  0.500000  1
  Tb  Tb3  1  0.322613  0.822613  0.500000  1
  Tb  Tb4  1  0.177387  0.322613  0.500000  1
  Tb  Tb5  1  0.822613  0.677387  0.500000  1
  Pr  Pr6  1  0.888054  0.388054  0.500000  1
  Pr  Pr7  1  0.111946  0.611946  0.500000  1
  Pr  Pr8  1  0.388054  0.111946  0.500000  1
  Pr  Pr9  1  0.611946  0.888054  0.500000  1
  Sn  Sn10  1  0.570301  0.070301  0.000000  1
  Sn  Sn11  1  0.429699  0.929699  0.000000  1
  Sn  Sn12  1  0.070301  0.429699  0.000000  1
  Sn  Sn13  1  0.929699  0.570301  0.000000  1
  Sn  Sn14  1  0.654228  0.698065  0.000000  1
  Sn  Sn15  1  0.345772  0.301935  0.000000  1
  Sn  Sn16  1  0.154228  0.801935  0.000000  1
  Sn  Sn17  1  0.845772  0.198065  0.000000  1
  Sn  Sn18  1  0.301935  0.654228  0.000000  1
  Sn  Sn19  1  0.698065  0.345772  0.000000  1
  Sn  Sn20  1  0.198065  0.154228  0.000000  1
  Sn  Sn21  1  0.801935  0.845772  0.000000  1
  Sn  Sn22  1  0.661496  0.505587  0.500000  1
  Sn  Sn23  1  0.338504  0.494413  0.500000  1
  Sn  Sn24  1  0.161496  0.994413  0.500000  1
  Sn  Sn25  1  0.838504  0.005587  0.500000  1
  Sn  Sn26  1  0.494413  0.661496  0.500000  1
  Sn  Sn27  1  0.505587  0.338504  0.500000  1
  Sn  Sn28  1  0.005587  0.161496  0.500000  1
  Sn  Sn29  1  0.994413  0.838504  0.500000  1
  Rh  Rh30  1  0.746092  0.529264  0.000000  1
  Rh  Rh31  1  0.253908  0.470736  0.000000  1
  Rh  Rh32  1  0.246092  0.970736  0.000000  1
  Rh  Rh33  1  0.753908  0.029264  0.000000  1
  Rh  Rh34  1  0.470736  0.746092  0.000000  1
  Rh  Rh35  1  0.529264  0.253908  0.000000  1
  Rh  Rh36  1  0.029264  0.246092  0.000000  1
  Rh  Rh37  1  0.970736  0.753908  0.000000  1
