# generated using pymatgen
data_Ba6LuTc3O14
_symmetry_space_group_name_H-M   'P 1'
_cell_length_a   11.28361283
_cell_length_b   11.28361381
_cell_length_c   5.83264000
_cell_angle_alpha   90.00000000
_cell_angle_beta   90.00000000
_cell_angle_gamma   149.95037885
_symmetry_Int_Tables_number   1
_chemical_formula_structural   Ba6LuTc3O14
_chemical_formula_sum   'Ba6 Lu1 Tc3 O14'
_cell_volume   371.86249353
_cell_formula_units_Z   1
loop_
 _symmetry_equiv_pos_site_id
 _symmetry_equiv_pos_as_xyz
  1  'x, y, z'
loop_
 _atom_site_type_symbol
 _atom_site_label
 _atom_site_symmetry_multiplicity
 _atom_site_fract_x
 _atom_site_fract_y
 _atom_site_fract_z
 _atom_site_occupancy
  Ba  Ba0  1  0.501101  0.498899  0.000000  1
  Ba  Ba1  1  0.001354  0.998646  0.500000  1
  Ba  Ba2  1  0.683708  0.316292  0.000000  1
  Ba  Ba3  1  0.183383  0.816617  0.500000  1
  Ba  Ba4  1  0.814833  0.185167  0.500000  1
  Ba  Ba5  1  0.314338  0.685662  0.000000  1
  Lu  Lu6  1  0.403203  0.596797  0.500000  1
  Tc  Tc7  1  0.905573  0.094427  0.000000  1
  Tc  Tc8  1  0.095115  0.904885  0.000000  1
  Tc  Tc9  1  0.596310  0.403690  0.500000  1
  O  O10  1  0.665942  0.855675  0.761803  1
  O  O11  1  0.144325  0.334058  0.238197  1
  O  O12  1  0.144325  0.334058  0.761803  1
  O  O13  1  0.665942  0.855675  0.238197  1
  O  O14  1  0.844428  0.653112  0.750791  1
  O  O15  1  0.346888  0.155572  0.249209  1
  O  O16  1  0.346888  0.155572  0.750791  1
  O  O17  1  0.844428  0.653112  0.249209  1
  O  O18  1  0.812214  0.187786  0.000000  1
  O  O19  1  0.302985  0.697015  0.500000  1
  O  O20  1  0.690099  0.309901  0.500000  1
  O  O21  1  0.188057  0.811943  0.000000  1
  O  O22  1  0.504680  0.495320  0.500000  1
  O  O23  1  0.999880  0.000120  0.000000  1
