# generated using pymatgen
data_Tb10In2SnBi3
_symmetry_space_group_name_H-M   'P 1'
_cell_length_a   9.10337648
_cell_length_b   9.08901889
_cell_length_c   6.60518900
_cell_angle_alpha   90.00000000
_cell_angle_beta   90.00000000
_cell_angle_gamma   119.81474136
_symmetry_Int_Tables_number   1
_chemical_formula_structural   Tb10In2SnBi3
_chemical_formula_sum   'Tb10 In2 Sn1 Bi3'
_cell_volume   474.17985951
_cell_formula_units_Z   1
loop_
 _symmetry_equiv_pos_site_id
 _symmetry_equiv_pos_as_xyz
  1  'x, y, z'
loop_
 _atom_site_type_symbol
 _atom_site_label
 _atom_site_symmetry_multiplicity
 _atom_site_fract_x
 _atom_site_fract_y
 _atom_site_fract_z
 _atom_site_occupancy
  Tb  Tb0  1  0.660412  0.331262  0.998569  1
  Tb  Tb1  1  0.342564  0.667960  0.998451  1
  Tb  Tb2  1  0.342564  0.667960  0.501549  1
  Tb  Tb3  1  0.660412  0.331262  0.501431  1
  Tb  Tb4  1  0.755943  0.764549  0.750000  1
  Tb  Tb5  1  0.241533  0.008153  0.750000  1
  Tb  Tb6  1  0.000668  0.235475  0.750000  1
  Tb  Tb7  1  0.242116  0.241049  0.250000  1
  Tb  Tb8  1  0.760946  0.992615  0.250000  1
  Tb  Tb9  1  0.993822  0.760430  0.250000  1
  In  In10  1  0.394616  0.395526  0.750000  1
  In  In11  1  0.605657  0.002735  0.750000  1
  Sn  Sn12  1  0.606216  0.602830  0.250000  1
  Bi  Bi13  1  0.001669  0.609875  0.750000  1
  Bi  Bi14  1  0.391748  0.996080  0.250000  1
  Bi  Bi15  1  0.999113  0.392237  0.250000  1
