# generated using pymatgen
data_PrTm2(ZnPt)4
_symmetry_space_group_name_H-M   'P 1'
_cell_length_a   8.24084117
_cell_length_b   8.24084107
_cell_length_c   8.24084107
_cell_angle_alpha   151.94330422
_cell_angle_beta   124.92342987
_cell_angle_gamma   62.93739694
_symmetry_Int_Tables_number   1
_chemical_formula_structural   PrTm2(ZnPt)4
_chemical_formula_sum   'Pr1 Tm2 Zn4 Pt4'
_cell_volume   213.98552181
_cell_formula_units_Z   1
loop_
 _symmetry_equiv_pos_site_id
 _symmetry_equiv_pos_as_xyz
  1  'x, y, z'
loop_
 _atom_site_type_symbol
 _atom_site_label
 _atom_site_symmetry_multiplicity
 _atom_site_fract_x
 _atom_site_fract_y
 _atom_site_fract_z
 _atom_site_occupancy
  Pr  Pr0  1  0.500000  0.000000  0.500000  1
  Tm  Tm1  1  0.876856  0.876856  0.000000  1
  Tm  Tm2  1  0.123144  0.123144  0.000000  1
  Zn  Zn3  1  0.476488  0.674293  0.802196  1
  Zn  Zn4  1  0.872098  0.674293  0.197804  1
  Zn  Zn5  1  0.127902  0.325707  0.802196  1
  Zn  Zn6  1  0.523512  0.325707  0.197804  1
  Pt  Pt7  1  0.273549  0.773549  0.500000  1
  Pt  Pt8  1  0.726451  0.226451  0.500000  1
  Pt  Pt9  1  0.813178  0.500000  0.313178  1
  Pt  Pt10  1  0.186822  0.500000  0.686822  1
