# generated using pymatgen
data_Er2MgZnPt2
_symmetry_space_group_name_H-M   'P 1'
_cell_length_a   4.17944400
_cell_length_b   6.93050400
_cell_length_c   8.34572100
_cell_angle_alpha   90.00000000
_cell_angle_beta   90.00000000
_cell_angle_gamma   90.00000000
_symmetry_Int_Tables_number   1
_chemical_formula_structural   Er2MgZnPt2
_chemical_formula_sum   'Er4 Mg2 Zn2 Pt4'
_cell_volume   241.73926152
_cell_formula_units_Z   2
loop_
 _symmetry_equiv_pos_site_id
 _symmetry_equiv_pos_as_xyz
  1  'x, y, z'
loop_
 _atom_site_type_symbol
 _atom_site_label
 _atom_site_symmetry_multiplicity
 _atom_site_fract_x
 _atom_site_fract_y
 _atom_site_fract_z
 _atom_site_occupancy
  Er  Er0  1  0.250000  0.044706  0.320394  1
  Er  Er1  1  0.250000  0.544706  0.179606  1
  Er  Er2  1  0.750000  0.960417  0.679437  1
  Er  Er3  1  0.750000  0.460417  0.820563  1
  Mg  Mg4  1  0.250000  0.632776  0.559594  1
  Mg  Mg5  1  0.250000  0.132776  0.940406  1
  Zn  Zn6  1  0.750000  0.362497  0.437126  1
  Zn  Zn7  1  0.750000  0.862497  0.062874  1
  Pt  Pt8  1  0.250000  0.247979  0.623134  1
  Pt  Pt9  1  0.250000  0.747979  0.876866  1
  Pt  Pt10  1  0.750000  0.751626  0.375763  1
  Pt  Pt11  1  0.750000  0.251626  0.124237  1
