# generated using pymatgen
data_La2Pr2HgRu
_symmetry_space_group_name_H-M   'P 1'
_cell_length_a   10.00914852
_cell_length_b   10.00914808
_cell_length_c   10.05604700
_cell_angle_alpha   59.84488329
_cell_angle_beta   59.84488477
_cell_angle_gamma   60.31024352
_symmetry_Int_Tables_number   1
_chemical_formula_structural   La2Pr2HgRu
_chemical_formula_sum   'La8 Pr8 Hg4 Ru4'
_cell_volume   712.34014845
_cell_formula_units_Z   4
loop_
 _symmetry_equiv_pos_site_id
 _symmetry_equiv_pos_as_xyz
  1  'x, y, z'
loop_
 _atom_site_type_symbol
 _atom_site_label
 _atom_site_symmetry_multiplicity
 _atom_site_fract_x
 _atom_site_fract_y
 _atom_site_fract_z
 _atom_site_occupancy
  La  La0  1  0.346481  0.346481  0.347275  1
  La  La1  1  0.346481  0.346481  0.959762  1
  La  La2  1  0.347275  0.959762  0.346481  1
  La  La3  1  0.959762  0.347275  0.346481  1
  La  La4  1  0.811076  0.188924  0.188924  1
  La  La5  1  0.188924  0.811076  0.811076  1
  La  La6  1  0.188924  0.811076  0.188924  1
  La  La7  1  0.811076  0.188924  0.811076  1
  Pr  Pr8  1  0.192258  0.192258  0.807742  1
  Pr  Pr9  1  0.807742  0.807742  0.192258  1
  Pr  Pr10  1  0.937337  0.562663  0.562663  1
  Pr  Pr11  1  0.562663  0.937337  0.937337  1
  Pr  Pr12  1  0.562663  0.937337  0.562663  1
  Pr  Pr13  1  0.937337  0.562663  0.937337  1
  Pr  Pr14  1  0.561137  0.561137  0.938863  1
  Pr  Pr15  1  0.938863  0.938863  0.561137  1
  Hg  Hg16  1  0.583224  0.583224  0.581618  1
  Hg  Hg17  1  0.583224  0.583224  0.251932  1
  Hg  Hg18  1  0.581618  0.251932  0.583224  1
  Hg  Hg19  1  0.251932  0.581618  0.583224  1
  Ru  Ru20  1  0.133689  0.133689  0.144723  1
  Ru  Ru21  1  0.133689  0.133689  0.587900  1
  Ru  Ru22  1  0.144723  0.587900  0.133689  1
  Ru  Ru23  1  0.587900  0.144723  0.133689  1
