# generated using pymatgen
data_LiPr4Ag3As8
_symmetry_space_group_name_H-M   'P 1'
_cell_length_a   4.04633700
_cell_length_b   4.09548600
_cell_length_c   21.48909001
_cell_angle_alpha   90.00354456
_cell_angle_beta   90.00000000
_cell_angle_gamma   90.00000000
_symmetry_Int_Tables_number   1
_chemical_formula_structural   LiPr4Ag3As8
_chemical_formula_sum   'Li1 Pr4 Ag3 As8'
_cell_volume   356.11110773
_cell_formula_units_Z   1
loop_
 _symmetry_equiv_pos_site_id
 _symmetry_equiv_pos_as_xyz
  1  'x, y, z'
loop_
 _atom_site_type_symbol
 _atom_site_label
 _atom_site_symmetry_multiplicity
 _atom_site_fract_x
 _atom_site_fract_y
 _atom_site_fract_z
 _atom_site_occupancy
  Li  Li0  1  0.250000  0.224195  0.249986  1
  Pr  Pr1  1  0.250000  0.773952  0.615547  1
  Pr  Pr2  1  0.750000  0.227283  0.384169  1
  Pr  Pr3  1  0.750000  0.274289  0.884326  1
  Pr  Pr4  1  0.250000  0.726463  0.116127  1
  Ag  Ag5  1  0.750000  0.723786  0.249728  1
  Ag  Ag6  1  0.750000  0.776055  0.749739  1
  Ag  Ag7  1  0.250000  0.276101  0.750256  1
  As  As8  1  0.250000  0.776308  0.838456  1
  As  As9  1  0.750000  0.222986  0.166796  1
  As  As10  1  0.750000  0.276094  0.661560  1
  As  As11  1  0.250000  0.723607  0.333331  1
  As  As12  1  0.250000  0.294323  0.501491  1
  As  As13  1  0.250000  0.203000  0.001682  1
  As  As14  1  0.750000  0.796326  0.998380  1
  As  As15  1  0.750000  0.705234  0.498427  1
