# generated using pymatgen
data_Ca16Yb4(ZnAg3)3
_symmetry_space_group_name_H-M   'P 1'
_cell_length_a   8.09278400
_cell_length_b   8.09278400
_cell_length_c   14.80853900
_cell_angle_alpha   90.00000000
_cell_angle_beta   90.00000000
_cell_angle_gamma   90.00000000
_symmetry_Int_Tables_number   1
_chemical_formula_structural   Ca16Yb4(ZnAg3)3
_chemical_formula_sum   'Ca16 Yb4 Zn3 Ag9'
_cell_volume   969.85790852
_cell_formula_units_Z   1
loop_
 _symmetry_equiv_pos_site_id
 _symmetry_equiv_pos_as_xyz
  1  'x, y, z'
loop_
 _atom_site_type_symbol
 _atom_site_label
 _atom_site_symmetry_multiplicity
 _atom_site_fract_x
 _atom_site_fract_y
 _atom_site_fract_z
 _atom_site_occupancy
  Ca  Ca0  1  0.669915  0.164465  0.104965  1
  Ca  Ca1  1  0.168634  0.667228  0.607113  1
  Ca  Ca2  1  0.330085  0.835535  0.104965  1
  Ca  Ca3  1  0.831366  0.332772  0.607113  1
  Ca  Ca4  1  0.835535  0.669915  0.104965  1
  Ca  Ca5  1  0.332772  0.168634  0.607113  1
  Ca  Ca6  1  0.164465  0.330085  0.104965  1
  Ca  Ca7  1  0.667228  0.831366  0.607113  1
  Ca  Ca8  1  0.835535  0.330085  0.895035  1
  Ca  Ca9  1  0.332772  0.831366  0.392887  1
  Ca  Ca10  1  0.164465  0.669915  0.895035  1
  Ca  Ca11  1  0.667228  0.168634  0.392887  1
  Ca  Ca12  1  0.669915  0.835535  0.895035  1
  Ca  Ca13  1  0.168634  0.332772  0.392887  1
  Ca  Ca14  1  0.330085  0.164465  0.895035  1
  Ca  Ca15  1  0.831366  0.667228  0.392887  1
  Yb  Yb16  1  0.500000  0.500000  0.754512  1
  Yb  Yb17  1  0.000000  0.000000  0.251040  1
  Yb  Yb18  1  0.000000  0.000000  0.748960  1
  Yb  Yb19  1  0.500000  0.500000  0.245488  1
  Zn  Zn20  1  0.500000  0.500000  0.500000  1
  Zn  Zn21  1  0.500000  0.500000  0.000000  1
  Zn  Zn22  1  0.000000  0.000000  0.500000  1
  Ag  Ag23  1  0.627134  0.127884  0.751298  1
  Ag  Ag24  1  0.127884  0.627134  0.248702  1
  Ag  Ag25  1  0.872116  0.372866  0.248702  1
  Ag  Ag26  1  0.372866  0.872116  0.751298  1
  Ag  Ag27  1  0.872116  0.627134  0.751298  1
  Ag  Ag28  1  0.372866  0.127884  0.248702  1
  Ag  Ag29  1  0.127884  0.372866  0.751298  1
  Ag  Ag30  1  0.627134  0.872116  0.248702  1
  Ag  Ag31  1  0.000000  0.000000  0.000000  1
