# generated using pymatgen
data_LaGd2WO7
_symmetry_space_group_name_H-M   'P 1'
_cell_length_a   6.59859016
_cell_length_b   6.59859066
_cell_length_c   7.70002400
_cell_angle_alpha   90.00000000
_cell_angle_beta   90.00000000
_cell_angle_gamma   109.17820218
_symmetry_Int_Tables_number   1
_chemical_formula_structural   LaGd2WO7
_chemical_formula_sum   'La2 Gd4 W2 O14'
_cell_volume   316.66279102
_cell_formula_units_Z   2
loop_
 _symmetry_equiv_pos_site_id
 _symmetry_equiv_pos_as_xyz
  1  'x, y, z'
loop_
 _atom_site_type_symbol
 _atom_site_label
 _atom_site_symmetry_multiplicity
 _atom_site_fract_x
 _atom_site_fract_y
 _atom_site_fract_z
 _atom_site_occupancy
  La  La0  1  0.500000  0.500000  0.500000  1
  La  La1  1  0.500000  0.500000  0.000000  1
  Gd  Gd2  1  0.000907  0.531939  0.250000  1
  Gd  Gd3  1  0.999093  0.468061  0.750000  1
  Gd  Gd4  1  0.531939  0.000907  0.750000  1
  Gd  Gd5  1  0.468061  0.999093  0.250000  1
  W  W6  1  0.000000  0.000000  0.500000  1
  W  W7  1  0.000000  0.000000  0.000000  1
  O  O8  1  0.932365  0.067635  0.750000  1
  O  O9  1  0.067635  0.932365  0.250000  1
  O  O10  1  0.359249  0.640751  0.250000  1
  O  O11  1  0.640751  0.359249  0.750000  1
  O  O12  1  0.364083  0.635917  0.750000  1
  O  O13  1  0.635917  0.364083  0.250000  1
  O  O14  1  0.317660  0.070104  0.972020  1
  O  O15  1  0.682340  0.929896  0.472020  1
  O  O16  1  0.317660  0.070104  0.527980  1
  O  O17  1  0.682340  0.929896  0.027980  1
  O  O18  1  0.070104  0.317660  0.472020  1
  O  O19  1  0.929896  0.682340  0.972020  1
  O  O20  1  0.929896  0.682340  0.527980  1
  O  O21  1  0.070104  0.317660  0.027980  1
