# generated using pymatgen
data_Li2Tm3In4
_symmetry_space_group_name_H-M   'P 1'
_cell_length_a   7.22010920
_cell_length_b   7.35307239
_cell_length_c   4.68818500
_cell_angle_alpha   90.00000000
_cell_angle_beta   90.00000000
_cell_angle_gamma   120.61107179
_symmetry_Int_Tables_number   1
_chemical_formula_structural   Li2Tm3In4
_chemical_formula_sum   'Li2 Tm3 In4'
_cell_volume   214.21048000
_cell_formula_units_Z   1
loop_
 _symmetry_equiv_pos_site_id
 _symmetry_equiv_pos_as_xyz
  1  'x, y, z'
loop_
 _atom_site_type_symbol
 _atom_site_label
 _atom_site_symmetry_multiplicity
 _atom_site_fract_x
 _atom_site_fract_y
 _atom_site_fract_z
 _atom_site_occupancy
  Li  Li0  1  0.770925  0.767621  0.500000  1
  Li  Li1  1  0.229075  0.996695  0.500000  1
  Tm  Tm2  1  0.000000  0.552227  0.000000  1
  Tm  Tm3  1  0.439838  0.446580  0.000000  1
  Tm  Tm4  1  0.560162  0.006742  0.000000  1
  In  In5  1  0.000000  0.231260  0.500000  1
  In  In6  1  0.653248  0.338426  0.500000  1
  In  In7  1  0.000000  0.975271  0.000000  1
  In  In8  1  0.346752  0.685178  0.500000  1
