# generated using pymatgen
data_Pr2BeB3Ir5
_symmetry_space_group_name_H-M   'P 1'
_cell_length_a   7.61542387
_cell_length_b   6.45616329
_cell_length_c   5.72397804
_cell_angle_alpha   78.28984995
_cell_angle_beta   55.74154723
_cell_angle_gamma   47.11942029
_symmetry_Int_Tables_number   1
_chemical_formula_structural   Pr2BeB3Ir5
_chemical_formula_sum   'Pr2 Be1 B3 Ir5'
_cell_volume   162.73427000
_cell_formula_units_Z   1
loop_
 _symmetry_equiv_pos_site_id
 _symmetry_equiv_pos_as_xyz
  1  'x, y, z'
loop_
 _atom_site_type_symbol
 _atom_site_label
 _atom_site_symmetry_multiplicity
 _atom_site_fract_x
 _atom_site_fract_y
 _atom_site_fract_z
 _atom_site_occupancy
  Pr  Pr0  1  0.861223  0.863942  0.136057  1
  Pr  Pr1  1  0.141313  0.142572  0.857428  1
  Be  Be2  1  0.483067  0.783922  0.216078  1
  B  B3  1  0.207533  0.536428  0.463572  1
  B  B4  1  0.789108  0.468911  0.531089  1
  B  B5  1  0.532384  0.204854  0.795146  1
  Ir  Ir6  1  0.499703  0.498646  0.998046  1
  Ir  Ir7  1  0.243691  0.260161  0.248619  1
  Ir  Ir8  1  0.996393  0.001954  0.501354  1
  Ir  Ir9  1  0.493116  0.487231  0.512769  1
  Ir  Ir10  1  0.752470  0.751381  0.739839  1
