# generated using pymatgen
data_Th3AlGa2Pd3
_symmetry_space_group_name_H-M   'P 1'
_cell_length_a   7.35315319
_cell_length_b   7.28623782
_cell_length_c   4.16656700
_cell_angle_alpha   90.00000000
_cell_angle_beta   90.00000000
_cell_angle_gamma   119.69941519
_symmetry_Int_Tables_number   1
_chemical_formula_structural   Th3AlGa2Pd3
_chemical_formula_sum   'Th3 Al1 Ga2 Pd3'
_cell_volume   193.90697719
_cell_formula_units_Z   1
loop_
 _symmetry_equiv_pos_site_id
 _symmetry_equiv_pos_as_xyz
  1  'x, y, z'
loop_
 _atom_site_type_symbol
 _atom_site_label
 _atom_site_symmetry_multiplicity
 _atom_site_fract_x
 _atom_site_fract_y
 _atom_site_fract_z
 _atom_site_occupancy
  Th  Th0  1  0.420631  0.420063  0.500000  1
  Th  Th1  1  0.579369  0.999431  0.500000  1
  Th  Th2  1  0.000000  0.584162  0.500000  1
  Al  Al3  1  0.000000  0.233034  0.000000  1
  Ga  Ga4  1  0.757793  0.760370  0.000000  1
  Ga  Ga5  1  0.242207  0.002578  0.000000  1
  Pd  Pd6  1  0.672062  0.332435  0.000000  1
  Pd  Pd7  1  0.327938  0.660373  0.000000  1
  Pd  Pd8  1  0.000000  0.007553  0.500000  1
