# generated using pymatgen
data_DyHo4(In2Cu)2
_symmetry_space_group_name_H-M   'P 1'
_cell_length_a   3.65561500
_cell_length_b   8.02558000
_cell_length_c   17.95336500
_cell_angle_alpha   90.00000000
_cell_angle_beta   90.00000000
_cell_angle_gamma   90.00000000
_symmetry_Int_Tables_number   1
_chemical_formula_structural   DyHo4(In2Cu)2
_chemical_formula_sum   'Dy2 Ho8 In8 Cu4'
_cell_volume   526.72355366
_cell_formula_units_Z   2
loop_
 _symmetry_equiv_pos_site_id
 _symmetry_equiv_pos_as_xyz
  1  'x, y, z'
loop_
 _atom_site_type_symbol
 _atom_site_label
 _atom_site_symmetry_multiplicity
 _atom_site_fract_x
 _atom_site_fract_y
 _atom_site_fract_z
 _atom_site_occupancy
  Dy  Dy0  1  0.500000  0.500000  0.000000  1
  Dy  Dy1  1  0.500000  0.000000  0.500000  1
  Ho  Ho2  1  0.500000  0.381552  0.583369  1
  Ho  Ho3  1  0.500000  0.881552  0.916631  1
  Ho  Ho4  1  0.500000  0.118448  0.083369  1
  Ho  Ho5  1  0.500000  0.760945  0.719508  1
  Ho  Ho6  1  0.500000  0.260945  0.780492  1
  Ho  Ho7  1  0.500000  0.739055  0.219508  1
  Ho  Ho8  1  0.500000  0.239055  0.280492  1
  Ho  Ho9  1  0.500000  0.618448  0.416631  1
  In  In10  1  0.000000  0.793202  0.069137  1
  In  In11  1  0.000000  0.921382  0.349235  1
  In  In12  1  0.000000  0.078618  0.650765  1
  In  In13  1  0.000000  0.578618  0.849235  1
  In  In14  1  0.000000  0.706798  0.569137  1
  In  In15  1  0.000000  0.206798  0.930863  1
  In  In16  1  0.000000  0.293202  0.430863  1
  In  In17  1  0.000000  0.421382  0.150765  1
  Cu  Cu18  1  0.000000  0.974626  0.802622  1
  Cu  Cu19  1  0.000000  0.525374  0.302622  1
  Cu  Cu20  1  0.000000  0.474626  0.697378  1
  Cu  Cu21  1  0.000000  0.025374  0.197378  1
