# generated using pymatgen
data_Lu10Ga5Te
_symmetry_space_group_name_H-M   'P 1'
_cell_length_a   8.44254605
_cell_length_b   8.44254565
_cell_length_c   6.38385700
_cell_angle_alpha   90.00000000
_cell_angle_beta   90.00000000
_cell_angle_gamma   119.98750550
_symmetry_Int_Tables_number   1
_chemical_formula_structural   Lu10Ga5Te
_chemical_formula_sum   'Lu10 Ga5 Te1'
_cell_volume   394.10804750
_cell_formula_units_Z   1
loop_
 _symmetry_equiv_pos_site_id
 _symmetry_equiv_pos_as_xyz
  1  'x, y, z'
loop_
 _atom_site_type_symbol
 _atom_site_label
 _atom_site_symmetry_multiplicity
 _atom_site_fract_x
 _atom_site_fract_y
 _atom_site_fract_z
 _atom_site_occupancy
  Lu  Lu0  1  0.679847  0.333010  0.006863  1
  Lu  Lu1  1  0.333010  0.679847  0.006863  1
  Lu  Lu2  1  0.333010  0.679847  0.493137  1
  Lu  Lu3  1  0.679847  0.333010  0.493137  1
  Lu  Lu4  1  0.769260  0.769260  0.750000  1
  Lu  Lu5  1  0.234582  0.983126  0.750000  1
  Lu  Lu6  1  0.983126  0.234582  0.750000  1
  Lu  Lu7  1  0.237520  0.237520  0.250000  1
  Lu  Lu8  1  0.758512  0.998494  0.250000  1
  Lu  Lu9  1  0.998494  0.758512  0.250000  1
  Ga  Ga10  1  0.596230  0.997545  0.750000  1
  Ga  Ga11  1  0.997545  0.596230  0.750000  1
  Ga  Ga12  1  0.599766  0.599766  0.250000  1
  Ga  Ga13  1  0.400635  0.005707  0.250000  1
  Ga  Ga14  1  0.005707  0.400635  0.250000  1
  Te  Te15  1  0.392908  0.392908  0.750000  1
