# generated using pymatgen
data_Zr10Ga2Sn4BiPb
_symmetry_space_group_name_H-M   'P 1'
_cell_length_a   8.76580900
_cell_length_b   8.76227623
_cell_length_c   5.94023700
_cell_angle_alpha   90.00000000
_cell_angle_beta   90.00000000
_cell_angle_gamma   120.01333420
_symmetry_Int_Tables_number   1
_chemical_formula_structural   Zr10Ga2Sn4BiPb
_chemical_formula_sum   'Zr10 Ga2 Sn4 Bi1 Pb1'
_cell_volume   395.07993940
_cell_formula_units_Z   1
loop_
 _symmetry_equiv_pos_site_id
 _symmetry_equiv_pos_as_xyz
  1  'x, y, z'
loop_
 _atom_site_type_symbol
 _atom_site_label
 _atom_site_symmetry_multiplicity
 _atom_site_fract_x
 _atom_site_fract_y
 _atom_site_fract_z
 _atom_site_occupancy
  Zr  Zr0  1  0.006267  0.269553  0.250000  1
  Zr  Zr1  1  0.736270  0.000000  0.750000  1
  Zr  Zr2  1  0.736716  0.730447  0.250000  1
  Zr  Zr3  1  0.669595  0.339548  0.500758  1
  Zr  Zr4  1  0.995089  0.730166  0.750000  1
  Zr  Zr5  1  0.264924  0.269834  0.750000  1
  Zr  Zr6  1  0.330046  0.660452  0.999242  1
  Zr  Zr7  1  0.669595  0.339548  0.999242  1
  Zr  Zr8  1  0.330046  0.660452  0.500758  1
  Zr  Zr9  1  0.261948  0.000000  0.250000  1
  Ga  Ga10  1  0.000470  0.000000  0.998386  1
  Ga  Ga11  1  0.000470  0.000000  0.501614  1
  Sn  Sn12  1  0.390260  0.388105  0.250000  1
  Sn  Sn13  1  0.002154  0.611895  0.250000  1
  Sn  Sn14  1  0.998191  0.387773  0.750000  1
  Sn  Sn15  1  0.610418  0.612227  0.750000  1
  Bi  Bi16  1  0.611371  0.000000  0.250000  1
  Pb  Pb17  1  0.386166  0.000000  0.750000  1
