# generated using pymatgen
data_HoLu2Th(Al3Ir)6
_symmetry_space_group_name_H-M   'P 1'
_cell_length_a   7.56231975
_cell_length_b   7.57282609
_cell_length_c   9.44088100
_cell_angle_alpha   90.00000000
_cell_angle_beta   90.00000000
_cell_angle_gamma   119.44312258
_symmetry_Int_Tables_number   1
_chemical_formula_structural   HoLu2Th(Al3Ir)6
_chemical_formula_sum   'Ho1 Lu2 Th1 Al18 Ir6'
_cell_volume   470.83198089
_cell_formula_units_Z   1
loop_
 _symmetry_equiv_pos_site_id
 _symmetry_equiv_pos_as_xyz
  1  'x, y, z'
loop_
 _atom_site_type_symbol
 _atom_site_label
 _atom_site_symmetry_multiplicity
 _atom_site_fract_x
 _atom_site_fract_y
 _atom_site_fract_z
 _atom_site_occupancy
  Ho  Ho0  1  0.673274  0.995435  0.250000  1
  Lu  Lu1  1  0.003073  0.327395  0.750000  1
  Lu  Lu2  1  0.326777  0.003915  0.750000  1
  Th  Th3  1  0.995086  0.671103  0.250000  1
  Al  Al4  1  0.131306  0.133149  0.250000  1
  Al  Al5  1  0.872677  0.875089  0.750000  1
  Al  Al6  1  0.001565  0.331196  0.071983  1
  Al  Al7  1  0.999856  0.664096  0.916429  1
  Al  Al8  1  0.999856  0.664096  0.583571  1
  Al  Al9  1  0.340305  0.005430  0.428040  1
  Al  Al10  1  0.001565  0.331196  0.428017  1
  Al  Al11  1  0.664442  0.000913  0.578060  1
  Al  Al12  1  0.664442  0.000913  0.921940  1
  Al  Al13  1  0.340305  0.005430  0.071960  1
  Al  Al14  1  0.331718  0.331818  0.556576  1
  Al  Al15  1  0.662878  0.666561  0.454232  1
  Al  Al16  1  0.662878  0.666561  0.045768  1
  Al  Al17  1  0.331718  0.331818  0.943424  1
  Al  Al18  1  0.344237  0.548361  0.250000  1
  Al  Al19  1  0.658474  0.448136  0.750000  1
  Al  Al20  1  0.544090  0.336749  0.250000  1
  Al  Al21  1  0.448693  0.660850  0.750000  1
  Ir  Ir22  1  0.673141  0.329342  0.999826  1
  Ir  Ir23  1  0.326405  0.671563  0.999961  1
  Ir  Ir24  1  0.326405  0.671563  0.500039  1
  Ir  Ir25  1  0.673141  0.329342  0.500174  1
  Ir  Ir26  1  0.000845  0.998990  0.999861  1
  Ir  Ir27  1  0.000845  0.998990  0.500139  1
