# generated using pymatgen
data_TbDy5(Y2Pb3)2
_symmetry_space_group_name_H-M   'P 1'
_cell_length_a   9.07976400
_cell_length_b   9.08201118
_cell_length_c   6.66526600
_cell_angle_alpha   90.00000000
_cell_angle_beta   90.00000000
_cell_angle_gamma   119.99181535
_symmetry_Int_Tables_number   1
_chemical_formula_structural   TbDy5(Y2Pb3)2
_chemical_formula_sum   'Tb1 Dy5 Y4 Pb6'
_cell_volume   476.03679517
_cell_formula_units_Z   1
loop_
 _symmetry_equiv_pos_site_id
 _symmetry_equiv_pos_as_xyz
  1  'x, y, z'
loop_
 _atom_site_type_symbol
 _atom_site_label
 _atom_site_symmetry_multiplicity
 _atom_site_fract_x
 _atom_site_fract_y
 _atom_site_fract_z
 _atom_site_occupancy
  Tb  Tb0  1  0.238300  0.000000  0.250000  1
  Dy  Dy1  1  0.333378  0.666700  0.999974  1
  Dy  Dy2  1  0.666678  0.333300  0.999974  1
  Dy  Dy3  1  0.761818  0.000000  0.750000  1
  Dy  Dy4  1  0.333378  0.666700  0.500026  1
  Dy  Dy5  1  0.666678  0.333300  0.500026  1
  Y  Y6  1  0.238128  0.238167  0.750000  1
  Y  Y7  1  0.999962  0.761833  0.750000  1
  Y  Y8  1  0.761695  0.761834  0.250000  1
  Y  Y9  1  0.999861  0.238166  0.250000  1
  Pb  Pb10  1  0.999866  0.394540  0.750000  1
  Pb  Pb11  1  0.394756  0.394784  0.250000  1
  Pb  Pb12  1  0.605441  0.000000  0.250000  1
  Pb  Pb13  1  0.605326  0.605460  0.750000  1
  Pb  Pb14  1  0.394766  0.000000  0.750000  1
  Pb  Pb15  1  0.999972  0.605216  0.250000  1
