# generated using pymatgen
data_Nd12SiGe11Pt12
_symmetry_space_group_name_H-M   'P 1'
_cell_length_a   4.49016500
_cell_length_b   7.63712901
_cell_length_c   22.12143901
_cell_angle_alpha   89.99535164
_cell_angle_beta   90.00000000
_cell_angle_gamma   90.00000000
_symmetry_Int_Tables_number   1
_chemical_formula_structural   Nd12SiGe11Pt12
_chemical_formula_sum   'Nd12 Si1 Ge11 Pt12'
_cell_volume   758.58770674
_cell_formula_units_Z   1
loop_
 _symmetry_equiv_pos_site_id
 _symmetry_equiv_pos_as_xyz
  1  'x, y, z'
loop_
 _atom_site_type_symbol
 _atom_site_label
 _atom_site_symmetry_multiplicity
 _atom_site_fract_x
 _atom_site_fract_y
 _atom_site_fract_z
 _atom_site_occupancy
  Nd  Nd0  1  0.250000  0.707724  0.333378  1
  Nd  Nd1  1  0.750000  0.292330  0.667072  1
  Nd  Nd2  1  0.750000  0.207143  0.166581  1
  Nd  Nd3  1  0.250000  0.791648  0.833701  1
  Nd  Nd4  1  0.250000  0.791238  0.166434  1
  Nd  Nd5  1  0.750000  0.208927  0.833726  1
  Nd  Nd6  1  0.750000  0.290795  0.333439  1
  Nd  Nd7  1  0.250000  0.708546  0.666956  1
  Nd  Nd8  1  0.250000  0.709392  0.001550  1
  Nd  Nd9  1  0.750000  0.289241  0.997833  1
  Nd  Nd10  1  0.750000  0.210132  0.498168  1
  Nd  Nd11  1  0.250000  0.789741  0.502169  1
  Si  Si12  1  0.250000  0.414350  0.896620  1
  Ge  Ge13  1  0.250000  0.088472  0.068439  1
  Ge  Ge14  1  0.750000  0.910163  0.932701  1
  Ge  Ge15  1  0.750000  0.588351  0.432461  1
  Ge  Ge16  1  0.250000  0.411437  0.567574  1
  Ge  Ge17  1  0.250000  0.086941  0.268701  1
  Ge  Ge18  1  0.750000  0.913609  0.731069  1
  Ge  Ge19  1  0.750000  0.586794  0.230974  1
  Ge  Ge20  1  0.250000  0.413619  0.770993  1
  Ge  Ge21  1  0.250000  0.086647  0.396725  1
  Ge  Ge22  1  0.750000  0.913419  0.603541  1
  Ge  Ge23  1  0.750000  0.587222  0.103043  1
  Pt  Pt24  1  0.250000  0.420409  0.237228  1
  Pt  Pt25  1  0.750000  0.580564  0.762775  1
  Pt  Pt26  1  0.750000  0.919952  0.262674  1
  Pt  Pt27  1  0.250000  0.079941  0.737479  1
  Pt  Pt28  1  0.250000  0.417003  0.434053  1
  Pt  Pt29  1  0.750000  0.582734  0.566578  1
  Pt  Pt30  1  0.750000  0.917114  0.064401  1
  Pt  Pt31  1  0.250000  0.094088  0.931311  1
  Pt  Pt32  1  0.250000  0.419645  0.094337  1
  Pt  Pt33  1  0.750000  0.570814  0.904891  1
  Pt  Pt34  1  0.750000  0.919032  0.405691  1
  Pt  Pt35  1  0.250000  0.080825  0.594733  1
