# generated using pymatgen
data_HoTmFe2(CoO5)2
_symmetry_space_group_name_H-M   'P 1'
_cell_length_a   5.75924200
_cell_length_b   7.22742462
_cell_length_c   8.47536307
_cell_angle_alpha   89.90247576
_cell_angle_beta   90.00000000
_cell_angle_gamma   90.00000000
_symmetry_Int_Tables_number   1
_chemical_formula_structural   HoTmFe2(CoO5)2
_chemical_formula_sum   'Ho2 Tm2 Fe4 Co4 O20'
_cell_volume   352.78213232
_cell_formula_units_Z   2
loop_
 _symmetry_equiv_pos_site_id
 _symmetry_equiv_pos_as_xyz
  1  'x, y, z'
loop_
 _atom_site_type_symbol
 _atom_site_label
 _atom_site_symmetry_multiplicity
 _atom_site_fract_x
 _atom_site_fract_y
 _atom_site_fract_z
 _atom_site_occupancy
  Ho  Ho0  1  0.500000  0.134066  0.830323  1
  Ho  Ho1  1  0.500000  0.865934  0.169677  1
  Tm  Tm2  1  0.500000  0.365851  0.330990  1
  Tm  Tm3  1  0.500000  0.634149  0.669010  1
  Fe  Fe4  1  0.000000  0.109008  0.147872  1
  Fe  Fe5  1  0.000000  0.890992  0.852128  1
  Fe  Fe6  1  0.000000  0.391740  0.647381  1
  Fe  Fe7  1  0.000000  0.608260  0.352619  1
  Co  Co8  1  0.251101  0.000000  0.500000  1
  Co  Co9  1  0.748899  0.000000  0.500000  1
  Co  Co10  1  0.748817  0.500000  0.000000  1
  Co  Co11  1  0.251183  0.500000  0.000000  1
  O  O12  1  0.235079  0.000000  0.000000  1
  O  O13  1  0.764921  0.000000  0.000000  1
  O  O14  1  0.762213  0.500000  0.500000  1
  O  O15  1  0.237787  0.500000  0.500000  1
  O  O16  1  0.000000  0.353436  0.068925  1
  O  O17  1  0.000000  0.646564  0.931075  1
  O  O18  1  0.000000  0.146475  0.569648  1
  O  O19  1  0.000000  0.853525  0.430352  1
  O  O20  1  0.261415  0.108483  0.297984  1
  O  O21  1  0.738585  0.891517  0.702016  1
  O  O22  1  0.261415  0.891517  0.702016  1
  O  O23  1  0.738681  0.394798  0.797131  1
  O  O24  1  0.738585  0.108483  0.297984  1
  O  O25  1  0.261319  0.605202  0.202869  1
  O  O26  1  0.738681  0.605202  0.202869  1
  O  O27  1  0.261319  0.394798  0.797131  1
  O  O28  1  0.500000  0.340688  0.058436  1
  O  O29  1  0.500000  0.659312  0.941564  1
  O  O30  1  0.500000  0.159954  0.556216  1
  O  O31  1  0.500000  0.840046  0.443784  1
