# generated using pymatgen
data_Er20Ir7Rh5
_symmetry_space_group_name_H-M   'P 1'
_cell_length_a   10.77874908
_cell_length_b   10.77874824
_cell_length_c   6.33279202
_cell_angle_alpha   89.99175476
_cell_angle_beta   89.99174969
_cell_angle_gamma   89.92051501
_symmetry_Int_Tables_number   1
_chemical_formula_structural   Er20Ir7Rh5
_chemical_formula_sum   'Er20 Ir7 Rh5'
_cell_volume   735.75206295
_cell_formula_units_Z   1
loop_
 _symmetry_equiv_pos_site_id
 _symmetry_equiv_pos_as_xyz
  1  'x, y, z'
loop_
 _atom_site_type_symbol
 _atom_site_label
 _atom_site_symmetry_multiplicity
 _atom_site_fract_x
 _atom_site_fract_y
 _atom_site_fract_z
 _atom_site_occupancy
  Er  Er0  1  0.290191  0.088297  0.378644  1
  Er  Er1  1  0.290481  0.911556  0.877981  1
  Er  Er2  1  0.708952  0.088051  0.877539  1
  Er  Er3  1  0.708998  0.909906  0.378802  1
  Er  Er4  1  0.588359  0.790263  0.878488  1
  Er  Er5  1  0.587013  0.209773  0.378203  1
  Er  Er6  1  0.411309  0.790387  0.378310  1
  Er  Er7  1  0.411444  0.209531  0.878152  1
  Er  Er8  1  0.209737  0.411641  0.621512  1
  Er  Er9  1  0.209613  0.588691  0.121690  1
  Er  Er10  1  0.790227  0.412987  0.121797  1
  Er  Er11  1  0.790469  0.588556  0.621848  1
  Er  Er12  1  0.911703  0.709809  0.121356  1
  Er  Er13  1  0.911949  0.291048  0.622461  1
  Er  Er14  1  0.088444  0.709519  0.622019  1
  Er  Er15  1  0.090094  0.291002  0.121198  1
  Er  Er16  1  0.000027  0.999807  0.499948  1
  Er  Er17  1  0.000193  0.999973  0.000052  1
  Er  Er18  1  0.499925  0.499757  0.999872  1
  Er  Er19  1  0.500243  0.500075  0.500128  1
  Ir  Ir20  1  0.845893  0.846712  0.750058  1
  Ir  Ir21  1  0.153288  0.154107  0.749942  1
  Ir  Ir22  1  0.154042  0.845958  0.250000  1
  Ir  Ir23  1  0.654746  0.345254  0.750000  1
  Ir  Ir24  1  0.654181  0.653799  0.249793  1
  Ir  Ir25  1  0.346201  0.345819  0.250207  1
  Ir  Ir26  1  0.345947  0.654053  0.750000  1
  Rh  Rh27  1  0.845835  0.154165  0.250000  1
  Rh  Rh28  1  0.500518  0.000220  0.123804  1
  Rh  Rh29  1  0.500430  0.000233  0.623208  1
  Rh  Rh30  1  0.999767  0.499570  0.876792  1
  Rh  Rh31  1  0.999780  0.499482  0.376196  1
