# generated using pymatgen
data_Yb8P5Br
_symmetry_space_group_name_H-M   'P 1'
_cell_length_a   7.54337564
_cell_length_b   7.54337623
_cell_length_c   7.54337496
_cell_angle_alpha   109.37977957
_cell_angle_beta   109.37978775
_cell_angle_gamma   109.65425636
_symmetry_Int_Tables_number   1
_chemical_formula_structural   Yb8P5Br
_chemical_formula_sum   'Yb8 P5 Br1'
_cell_volume   330.42427738
_cell_formula_units_Z   1
loop_
 _symmetry_equiv_pos_site_id
 _symmetry_equiv_pos_as_xyz
  1  'x, y, z'
loop_
 _atom_site_type_symbol
 _atom_site_label
 _atom_site_symmetry_multiplicity
 _atom_site_fract_x
 _atom_site_fract_y
 _atom_site_fract_z
 _atom_site_occupancy
  Yb  Yb0  1  0.740963  0.360847  0.240393  1
  Yb  Yb1  1  0.973071  0.730844  0.090091  1
  Yb  Yb2  1  0.640753  0.882980  0.909909  1
  Yb  Yb3  1  0.120454  0.500570  0.759607  1
  Yb  Yb4  1  0.639153  0.879546  0.380117  1
  Yb  Yb5  1  0.499430  0.259037  0.619883  1
  Yb  Yb6  1  0.269156  0.359247  0.242227  1
  Yb  Yb7  1  0.117020  0.026929  0.757773  1
  P  P8  1  0.746240  0.632016  0.619780  1
  P  P9  1  0.367984  0.987765  0.114225  1
  P  P10  1  0.012235  0.126460  0.380220  1
  P  P11  1  0.500000  0.500000  0.000000  1
  P  P12  1  0.873540  0.253760  0.885775  1
  Br  Br13  1  0.250000  0.750000  0.500000  1
