# generated using pymatgen
data_La7Er2TmSi8O3
_symmetry_space_group_name_H-M   'P 1'
_cell_length_a   10.76877160
_cell_length_b   10.75646819
_cell_length_c   4.52469500
_cell_angle_alpha   90.00000000
_cell_angle_beta   90.00000000
_cell_angle_gamma   119.96221245
_symmetry_Int_Tables_number   1
_chemical_formula_structural   La7Er2TmSi8O3
_chemical_formula_sum   'La7 Er2 Tm1 Si8 O3'
_cell_volume   454.06815608
_cell_formula_units_Z   1
loop_
 _symmetry_equiv_pos_site_id
 _symmetry_equiv_pos_as_xyz
  1  'x, y, z'
loop_
 _atom_site_type_symbol
 _atom_site_label
 _atom_site_symmetry_multiplicity
 _atom_site_fract_x
 _atom_site_fract_y
 _atom_site_fract_z
 _atom_site_occupancy
  La  La0  1  0.211598  0.787751  0.000000  1
  La  La1  1  0.576085  0.788042  0.000000  1
  La  La2  1  0.788402  0.576154  0.000000  1
  La  La3  1  0.000000  0.000000  0.000000  1
  La  La4  1  0.211598  0.423846  0.000000  1
  La  La5  1  0.423915  0.211958  0.000000  1
  La  La6  1  0.788402  0.212249  0.000000  1
  Er  Er7  1  0.500000  0.500000  0.500000  1
  Er  Er8  1  0.500000  0.000000  0.500000  1
  Tm  Tm9  1  0.000000  0.500000  0.500000  1
  Si  Si10  1  0.000000  0.775585  0.500000  1
  Si  Si11  1  0.000000  0.224415  0.500000  1
  Si  Si12  1  0.223847  0.224037  0.500000  1
  Si  Si13  1  0.776153  0.000191  0.500000  1
  Si  Si14  1  0.331749  0.665875  0.500000  1
  Si  Si15  1  0.223847  0.999809  0.500000  1
  Si  Si16  1  0.668251  0.334125  0.500000  1
  Si  Si17  1  0.776153  0.775963  0.500000  1
  O  O18  1  0.000000  0.500000  0.000000  1
  O  O19  1  0.500000  0.500000  0.000000  1
  O  O20  1  0.500000  0.000000  0.000000  1
