# generated using pymatgen
data_Ho4Co3TcOs4
_symmetry_space_group_name_H-M   'P 1'
_cell_length_a   5.21038418
_cell_length_b   5.21038346
_cell_length_c   8.72760700
_cell_angle_alpha   90.00000000
_cell_angle_beta   90.00000000
_cell_angle_gamma   120.42700719
_symmetry_Int_Tables_number   1
_chemical_formula_structural   Ho4Co3TcOs4
_chemical_formula_sum   'Ho4 Co3 Tc1 Os4'
_cell_volume   204.30567629
_cell_formula_units_Z   1
loop_
 _symmetry_equiv_pos_site_id
 _symmetry_equiv_pos_as_xyz
  1  'x, y, z'
loop_
 _atom_site_type_symbol
 _atom_site_label
 _atom_site_symmetry_multiplicity
 _atom_site_fract_x
 _atom_site_fract_y
 _atom_site_fract_z
 _atom_site_occupancy
  Ho  Ho0  1  0.333621  0.666379  0.430862  1
  Ho  Ho1  1  0.667536  0.332464  0.562492  1
  Ho  Ho2  1  0.667536  0.332464  0.937508  1
  Ho  Ho3  1  0.333621  0.666379  0.069138  1
  Co  Co4  1  0.004037  0.995963  0.497330  1
  Co  Co5  1  0.004037  0.995963  0.002670  1
  Co  Co6  1  0.830862  0.169138  0.250000  1
  Tc  Tc7  1  0.166097  0.833903  0.750000  1
  Os  Os8  1  0.827827  0.665575  0.250000  1
  Os  Os9  1  0.334425  0.172173  0.250000  1
  Os  Os10  1  0.168792  0.338391  0.750000  1
  Os  Os11  1  0.661609  0.831208  0.750000  1
