# generated using pymatgen
data_NdThCoSi4Pd
_symmetry_space_group_name_H-M   'P 1'
_cell_length_a   8.61429706
_cell_length_b   8.61429574
_cell_length_c   4.15463000
_cell_angle_alpha   90.00000000
_cell_angle_beta   90.00000000
_cell_angle_gamma   151.87374351
_symmetry_Int_Tables_number   1
_chemical_formula_structural   NdThCoSi4Pd
_chemical_formula_sum   'Nd1 Th1 Co1 Si4 Pd1'
_cell_volume   145.33705783
_cell_formula_units_Z   1
loop_
 _symmetry_equiv_pos_site_id
 _symmetry_equiv_pos_as_xyz
  1  'x, y, z'
loop_
 _atom_site_type_symbol
 _atom_site_label
 _atom_site_symmetry_multiplicity
 _atom_site_fract_x
 _atom_site_fract_y
 _atom_site_fract_z
 _atom_site_occupancy
  Nd  Nd0  1  0.396577  0.603423  0.250000  1
  Th  Th1  1  0.605167  0.394833  0.750000  1
  Co  Co2  1  0.179866  0.820134  0.250000  1
  Si  Si3  1  0.966535  0.033465  0.750000  1
  Si  Si4  1  0.043255  0.956745  0.250000  1
  Si  Si5  1  0.244590  0.755410  0.750000  1
  Si  Si6  1  0.743105  0.256895  0.250000  1
  Pd  Pd7  1  0.820905  0.179095  0.750000  1
