# generated using pymatgen
data_Sc16Al3Si9Tc4
_symmetry_space_group_name_H-M   'P 1'
_cell_length_a   5.53200192
_cell_length_b   7.80456303
_cell_length_c   13.52352636
_cell_angle_alpha   90.01870683
_cell_angle_beta   90.11133309
_cell_angle_gamma   89.69009043
_symmetry_Int_Tables_number   1
_chemical_formula_structural   Sc16Al3Si9Tc4
_chemical_formula_sum   'Sc16 Al3 Si9 Tc4'
_cell_volume   583.86665271
_cell_formula_units_Z   1
loop_
 _symmetry_equiv_pos_site_id
 _symmetry_equiv_pos_as_xyz
  1  'x, y, z'
loop_
 _atom_site_type_symbol
 _atom_site_label
 _atom_site_symmetry_multiplicity
 _atom_site_fract_x
 _atom_site_fract_y
 _atom_site_fract_z
 _atom_site_occupancy
  Sc  Sc0  1  0.248295  0.494092  0.830824  1
  Sc  Sc1  1  0.248964  0.001040  0.329453  1
  Sc  Sc2  1  0.249095  0.005336  0.667988  1
  Sc  Sc3  1  0.248328  0.500257  0.170557  1
  Sc  Sc4  1  0.507034  0.268878  0.499361  1
  Sc  Sc5  1  0.502968  0.770833  0.003077  1
  Sc  Sc6  1  0.504354  0.612620  0.616218  1
  Sc  Sc7  1  0.501930  0.116859  0.121489  1
  Sc  Sc8  1  0.500032  0.120756  0.880302  1
  Sc  Sc9  1  0.501382  0.616724  0.378631  1
  Sc  Sc10  1  0.999597  0.734615  0.500516  1
  Sc  Sc11  1  0.998606  0.233622  0.000425  1
  Sc  Sc12  1  0.999862  0.879086  0.882274  1
  Sc  Sc13  1  0.996549  0.379502  0.380630  1
  Sc  Sc14  1  0.996490  0.379035  0.620182  1
  Sc  Sc15  1  0.995345  0.878629  0.120297  1
  Al  Al16  1  0.541096  0.411414  0.001065  1
  Al  Al17  1  0.541168  0.910270  0.499060  1
  Al  Al18  1  0.543681  0.794288  0.794567  1
  Si  Si19  1  0.548037  0.298170  0.297642  1
  Si  Si20  1  0.549452  0.297228  0.702039  1
  Si  Si21  1  0.547467  0.797951  0.203462  1
  Si  Si22  1  0.953293  0.591188  0.000509  1
  Si  Si23  1  0.956382  0.091841  0.498418  1
  Si  Si24  1  0.953384  0.704155  0.703021  1
  Si  Si25  1  0.952491  0.203401  0.201357  1
  Si  Si26  1  0.950875  0.199991  0.798502  1
  Si  Si27  1  0.952885  0.703288  0.299293  1
  Tc  Tc28  1  0.754355  0.004914  0.666343  1
  Tc  Tc29  1  0.751014  0.501861  0.170405  1
  Tc  Tc30  1  0.753487  0.495931  0.832049  1
  Tc  Tc31  1  0.752105  0.002212  0.330043  1
