# generated using pymatgen
data_Y4Hf2ZrAlPt4
_symmetry_space_group_name_H-M   'P 1'
_cell_length_a   4.58407000
_cell_length_b   7.10540955
_cell_length_c   8.16993823
_cell_angle_alpha   87.40980987
_cell_angle_beta   90.00000000
_cell_angle_gamma   90.00000000
_symmetry_Int_Tables_number   1
_chemical_formula_structural   Y4Hf2ZrAlPt4
_chemical_formula_sum   'Y4 Hf2 Zr1 Al1 Pt4'
_cell_volume   265.83685695
_cell_formula_units_Z   1
loop_
 _symmetry_equiv_pos_site_id
 _symmetry_equiv_pos_as_xyz
  1  'x, y, z'
loop_
 _atom_site_type_symbol
 _atom_site_label
 _atom_site_symmetry_multiplicity
 _atom_site_fract_x
 _atom_site_fract_y
 _atom_site_fract_z
 _atom_site_occupancy
  Y  Y0  1  0.250000  0.036370  0.672632  1
  Y  Y1  1  0.250000  0.517072  0.814302  1
  Y  Y2  1  0.750000  0.989173  0.336372  1
  Y  Y3  1  0.750000  0.474311  0.187138  1
  Hf  Hf4  1  0.250000  0.139981  0.070635  1
  Hf  Hf5  1  0.750000  0.857096  0.923265  1
  Zr  Zr6  1  0.250000  0.639743  0.434871  1
  Al  Al7  1  0.750000  0.356738  0.572710  1
  Pt  Pt8  1  0.250000  0.265639  0.382495  1
  Pt  Pt9  1  0.250000  0.769776  0.098012  1
  Pt  Pt10  1  0.750000  0.724919  0.612594  1
  Pt  Pt11  1  0.750000  0.229181  0.894977  1
