# generated using pymatgen
data_Tm3Al12Ir2RuRh
_symmetry_space_group_name_H-M   'P 1'
_cell_length_a   8.79720297
_cell_length_b   8.78715039
_cell_length_c   9.49344949
_cell_angle_alpha   89.99999902
_cell_angle_beta   89.94412367
_cell_angle_gamma   119.96221392
_symmetry_Int_Tables_number   1
_chemical_formula_structural   Tm3Al12Ir2RuRh
_chemical_formula_sum   'Tm6 Al24 Ir4 Ru2 Rh2'
_cell_volume   635.78797121
_cell_formula_units_Z   2
loop_
 _symmetry_equiv_pos_site_id
 _symmetry_equiv_pos_as_xyz
  1  'x, y, z'
loop_
 _atom_site_type_symbol
 _atom_site_label
 _atom_site_symmetry_multiplicity
 _atom_site_fract_x
 _atom_site_fract_y
 _atom_site_fract_z
 _atom_site_occupancy
  Tm  Tm0  1  0.807219  0.193955  0.750936  1
  Tm  Tm1  1  0.192781  0.806045  0.249064  1
  Tm  Tm2  1  0.386469  0.193235  0.751348  1
  Tm  Tm3  1  0.613531  0.806765  0.248652  1
  Tm  Tm4  1  0.807219  0.613264  0.750936  1
  Tm  Tm5  1  0.192781  0.386736  0.249064  1
  Al  Al6  1  0.666531  0.333265  0.970373  1
  Al  Al7  1  0.333469  0.666735  0.029627  1
  Al  Al8  1  0.333471  0.666736  0.469594  1
  Al  Al9  1  0.666529  0.333264  0.530406  1
  Al  Al10  1  0.836852  0.163427  0.422364  1
  Al  Al11  1  0.163148  0.836573  0.577636  1
  Al  Al12  1  0.325647  0.162824  0.421198  1
  Al  Al13  1  0.163318  0.836636  0.922566  1
  Al  Al14  1  0.674353  0.837176  0.578802  1
  Al  Al15  1  0.836682  0.163364  0.077434  1
  Al  Al16  1  0.836852  0.673424  0.422364  1
  Al  Al17  1  0.673637  0.836818  0.922133  1
  Al  Al18  1  0.163148  0.326576  0.577636  1
  Al  Al19  1  0.326363  0.163182  0.077867  1
  Al  Al20  1  0.163318  0.326681  0.922566  1
  Al  Al21  1  0.836682  0.673319  0.077434  1
  Al  Al22  1  0.438017  0.562051  0.749545  1
  Al  Al23  1  0.561983  0.437949  0.250455  1
  Al  Al24  1  0.125373  0.562687  0.750085  1
  Al  Al25  1  0.874627  0.437313  0.249915  1
  Al  Al26  1  0.438017  0.875967  0.749545  1
  Al  Al27  1  0.561983  0.124033  0.250455  1
  Al  Al28  1  0.999407  0.999704  0.750183  1
  Al  Al29  1  0.000593  0.000296  0.249817  1
  Ir  Ir30  1  0.500000  0.500000  0.000000  1
  Ir  Ir31  1  0.000000  0.500000  0.000000  1
  Ir  Ir32  1  0.500000  0.000000  0.000000  1
  Ir  Ir33  1  0.000000  0.500000  0.500000  1
  Ru  Ru34  1  0.000000  0.000000  0.000000  1
  Ru  Ru35  1  0.000000  0.000000  0.500000  1
  Rh  Rh36  1  0.500000  0.500000  0.500000  1
  Rh  Rh37  1  0.500000  0.000000  0.500000  1
