# generated using pymatgen
data_Dy8Er4ZnInCo4
_symmetry_space_group_name_H-M   'P 1'
_cell_length_a   8.31744885
_cell_length_b   8.31747379
_cell_length_c   8.31745119
_cell_angle_alpha   111.51639410
_cell_angle_beta   110.16659074
_cell_angle_gamma   106.76695526
_symmetry_Int_Tables_number   1
_chemical_formula_structural   Dy8Er4ZnInCo4
_chemical_formula_sum   'Dy8 Er4 Zn1 In1 Co4'
_cell_volume   442.14563910
_cell_formula_units_Z   1
loop_
 _symmetry_equiv_pos_site_id
 _symmetry_equiv_pos_as_xyz
  1  'x, y, z'
loop_
 _atom_site_type_symbol
 _atom_site_label
 _atom_site_symmetry_multiplicity
 _atom_site_fract_x
 _atom_site_fract_y
 _atom_site_fract_z
 _atom_site_occupancy
  Dy  Dy0  1  0.185064  0.286445  0.471501  1
  Dy  Dy1  1  0.814936  0.713555  0.528499  1
  Dy  Dy2  1  0.185057  0.713555  0.898619  1
  Dy  Dy3  1  0.814943  0.286445  0.101381  1
  Dy  Dy4  1  0.429016  0.225068  0.203956  1
  Dy  Dy5  1  0.570984  0.774932  0.796044  1
  Dy  Dy6  1  0.021113  0.225068  0.796051  1
  Dy  Dy7  1  0.978887  0.774932  0.203949  1
  Er  Er8  1  0.315582  0.620235  0.304653  1
  Er  Er9  1  0.684418  0.379765  0.695347  1
  Er  Er10  1  0.315598  0.010934  0.695337  1
  Er  Er11  1  0.684402  0.989066  0.304663  1
  Zn  Zn12  1  0.000000  0.000000  0.000000  1
  In  In13  1  0.500000  0.500000  0.000000  1
  Co  Co14  1  0.112809  0.612811  0.500002  1
  Co  Co15  1  0.887191  0.387189  0.499998  1
  Co  Co16  1  0.376174  0.000000  0.376174  1
  Co  Co17  1  0.623826  0.000000  0.623826  1
