# generated using pymatgen
data_Y4Er4Lu4Co5Sn
_symmetry_space_group_name_H-M   'P 1'
_cell_length_a   8.24782076
_cell_length_b   8.24775176
_cell_length_c   8.24781958
_cell_angle_alpha   107.00903016
_cell_angle_beta   110.77816401
_cell_angle_gamma   110.65452548
_symmetry_Int_Tables_number   1
_chemical_formula_structural   Y4Er4Lu4Co5Sn
_chemical_formula_sum   'Y4 Er4 Lu4 Co5 Sn1'
_cell_volume   431.31150261
_cell_formula_units_Z   1
loop_
 _symmetry_equiv_pos_site_id
 _symmetry_equiv_pos_as_xyz
  1  'x, y, z'
loop_
 _atom_site_type_symbol
 _atom_site_label
 _atom_site_symmetry_multiplicity
 _atom_site_fract_x
 _atom_site_fract_y
 _atom_site_fract_z
 _atom_site_occupancy
  Y  Y0  1  0.477112  0.289700  0.187416  1
  Y  Y1  1  0.102285  0.289700  0.812588  1
  Y  Y2  1  0.897715  0.710300  0.187412  1
  Y  Y3  1  0.522888  0.710300  0.812584  1
  Er  Er4  1  0.192818  0.210883  0.403703  1
  Er  Er5  1  0.807182  0.789117  0.596297  1
  Er  Er6  1  0.192820  0.789117  0.981935  1
  Er  Er7  1  0.807180  0.210883  0.018065  1
  Lu  Lu8  1  0.309304  0.623704  0.314401  1
  Lu  Lu9  1  0.309307  0.994918  0.685608  1
  Lu  Lu10  1  0.690696  0.376296  0.685599  1
  Lu  Lu11  1  0.690693  0.005082  0.314392  1
  Co  Co12  1  0.499994  0.613014  0.113020  1
  Co  Co13  1  0.500006  0.386986  0.886980  1
  Co  Co14  1  0.377210  0.000000  0.377210  1
  Co  Co15  1  0.622790  0.000000  0.622790  1
  Co  Co16  1  0.000000  0.000000  0.000000  1
  Sn  Sn17  1  0.000000  0.500000  0.500000  1
