# generated using pymatgen
data_Tb2Er4TiAl23Ru8
_symmetry_space_group_name_H-M   'P 1'
_cell_length_a   8.82428100
_cell_length_b   8.80940635
_cell_length_c   9.56898298
_cell_angle_alpha   89.95503008
_cell_angle_beta   90.00000000
_cell_angle_gamma   120.05585946
_symmetry_Int_Tables_number   1
_chemical_formula_structural   Tb2Er4TiAl23Ru8
_chemical_formula_sum   'Tb2 Er4 Ti1 Al23 Ru8'
_cell_volume   643.83929361
_cell_formula_units_Z   1
loop_
 _symmetry_equiv_pos_site_id
 _symmetry_equiv_pos_as_xyz
  1  'x, y, z'
loop_
 _atom_site_type_symbol
 _atom_site_label
 _atom_site_symmetry_multiplicity
 _atom_site_fract_x
 _atom_site_fract_y
 _atom_site_fract_z
 _atom_site_occupancy
  Tb  Tb0  1  0.192380  0.384760  0.250059  1
  Tb  Tb1  1  0.807737  0.615475  0.748951  1
  Er  Er2  1  0.613125  0.806882  0.250525  1
  Er  Er3  1  0.387333  0.193860  0.748977  1
  Er  Er4  1  0.193758  0.806882  0.250525  1
  Er  Er5  1  0.806526  0.193860  0.748977  1
  Ti  Ti6  1  0.333264  0.666530  0.996206  1
  Al  Al7  1  0.666514  0.333027  0.982859  1
  Al  Al8  1  0.666746  0.333491  0.518620  1
  Al  Al9  1  0.333361  0.666723  0.480495  1
  Al  Al10  1  0.162159  0.324317  0.576774  1
  Al  Al11  1  0.837049  0.674098  0.422821  1
  Al  Al12  1  0.674779  0.837790  0.575872  1
  Al  Al13  1  0.837352  0.674706  0.079454  1
  Al  Al14  1  0.325446  0.162404  0.423791  1
  Al  Al15  1  0.159172  0.318345  0.922446  1
  Al  Al16  1  0.163012  0.837790  0.575872  1
  Al  Al17  1  0.325286  0.162494  0.078645  1
  Al  Al18  1  0.836957  0.162404  0.423791  1
  Al  Al19  1  0.681783  0.841196  0.923645  1
  Al  Al20  1  0.837207  0.162494  0.078645  1
  Al  Al21  1  0.159413  0.841196  0.923645  1
  Al  Al22  1  0.561342  0.122686  0.252178  1
  Al  Al23  1  0.440243  0.880485  0.749941  1
  Al  Al24  1  0.877208  0.438998  0.251923  1
  Al  Al25  1  0.120038  0.559822  0.749968  1
  Al  Al26  1  0.561788  0.438998  0.251923  1
  Al  Al27  1  0.439784  0.559822  0.749968  1
  Al  Al28  1  0.999439  0.998878  0.249856  1
  Al  Al29  1  0.001237  0.002473  0.749680  1
  Ru  Ru30  1  0.497354  0.994706  0.002965  1
  Ru  Ru31  1  0.003875  0.501879  0.001744  1
  Ru  Ru32  1  0.499619  0.999238  0.501975  1
  Ru  Ru33  1  0.498005  0.501879  0.001744  1
  Ru  Ru34  1  0.001093  0.500002  0.502479  1
  Ru  Ru35  1  0.498909  0.500002  0.502479  1
  Ru  Ru36  1  0.000053  0.000106  0.001230  1
  Ru  Ru37  1  0.999652  0.999303  0.498356  1
