# generated using pymatgen
data_Dy6YFeBr12
_symmetry_space_group_name_H-M   'P 1'
_cell_length_a   9.23579740
_cell_length_b   9.12456544
_cell_length_c   9.22682600
_cell_angle_alpha   106.68483790
_cell_angle_beta   106.95178854
_cell_angle_gamma   106.74268862
_symmetry_Int_Tables_number   1
_chemical_formula_structural   Dy6YFeBr12
_chemical_formula_sum   'Dy6 Y1 Fe1 Br12'
_cell_volume   651.18405013
_cell_formula_units_Z   1
loop_
 _symmetry_equiv_pos_site_id
 _symmetry_equiv_pos_as_xyz
  1  'x, y, z'
loop_
 _atom_site_type_symbol
 _atom_site_label
 _atom_site_symmetry_multiplicity
 _atom_site_fract_x
 _atom_site_fract_y
 _atom_site_fract_z
 _atom_site_occupancy
  Dy  Dy0  1  0.804242  0.519509  0.598251  1
  Dy  Dy1  1  0.405771  0.205200  0.479057  1
  Dy  Dy2  1  0.479644  0.402641  0.196474  1
  Dy  Dy3  1  0.594687  0.794386  0.520812  1
  Dy  Dy4  1  0.999381  0.000553  0.999952  1
  Dy  Dy5  1  0.521336  0.596936  0.803755  1
  Y  Y6  1  0.195603  0.480090  0.401676  1
  Fe  Fe7  1  0.500972  0.499789  0.500142  1
  Br  Br8  1  0.666351  0.961545  0.883527  1
  Br  Br9  1  0.719596  0.176613  0.568869  1
  Br  Br10  1  0.885042  0.665683  0.962775  1
  Br  Br11  1  0.279948  0.822695  0.430852  1
  Br  Br12  1  0.178857  0.571452  0.721886  1
  Br  Br13  1  0.040607  0.115970  0.333595  1
  Br  Br14  1  0.572122  0.723588  0.180758  1
  Br  Br15  1  0.115425  0.335794  0.037925  1
  Br  Br16  1  0.822660  0.429269  0.278487  1
  Br  Br17  1  0.426832  0.275769  0.818734  1
  Br  Br18  1  0.958962  0.884428  0.666825  1
  Br  Br19  1  0.331964  0.038092  0.115652  1
