# generated using pymatgen
data_Cs11Rb(SbTe3)4
_symmetry_space_group_name_H-M   'P 1'
_cell_length_a   11.45840622
_cell_length_b   11.45840622
_cell_length_c   11.45840622
_cell_angle_alpha   89.88652649
_cell_angle_beta   89.88652649
_cell_angle_gamma   89.88652649
_symmetry_Int_Tables_number   1
_chemical_formula_structural   Cs11Rb(SbTe3)4
_chemical_formula_sum   'Cs11 Rb1 Sb4 Te12'
_cell_volume   1504.42344455
_cell_formula_units_Z   1
loop_
 _symmetry_equiv_pos_site_id
 _symmetry_equiv_pos_as_xyz
  1  'x, y, z'
loop_
 _atom_site_type_symbol
 _atom_site_label
 _atom_site_symmetry_multiplicity
 _atom_site_fract_x
 _atom_site_fract_y
 _atom_site_fract_z
 _atom_site_occupancy
  Cs  Cs0  1  0.819230  0.180770  0.680456  1
  Cs  Cs1  1  0.186455  0.313765  0.686472  1
  Cs  Cs2  1  0.313765  0.686472  0.186455  1
  Cs  Cs3  1  0.686472  0.186455  0.313765  1
  Cs  Cs4  1  0.813744  0.813744  0.813744  1
  Cs  Cs5  1  0.422348  0.077770  0.922738  1
  Cs  Cs6  1  0.077770  0.922738  0.422348  1
  Cs  Cs7  1  0.922738  0.422348  0.077770  1
  Cs  Cs8  1  0.577363  0.577363  0.577363  1
  Cs  Cs9  1  0.680456  0.819230  0.180770  1
  Cs  Cs10  1  0.180770  0.680456  0.819230  1
  Rb  Rb11  1  0.318398  0.318398  0.318398  1
  Sb  Sb12  1  0.022317  0.022317  0.022317  1
  Sb  Sb13  1  0.477153  0.978417  0.521796  1
  Sb  Sb14  1  0.521796  0.477153  0.978417  1
  Sb  Sb15  1  0.978417  0.521796  0.477153  1
  Te  Te16  1  0.211914  0.597267  0.495280  1
  Te  Te17  1  0.788778  0.099857  0.003306  1
  Te  Te18  1  0.001301  0.289481  0.399153  1
  Te  Te19  1  0.711056  0.900118  0.503296  1
  Te  Te20  1  0.099857  0.003306  0.788778  1
  Te  Te21  1  0.503296  0.711056  0.900118  1
  Te  Te22  1  0.003306  0.788778  0.099857  1
  Te  Te23  1  0.399153  0.001301  0.289481  1
  Te  Te24  1  0.495280  0.211914  0.597267  1
  Te  Te25  1  0.900118  0.503296  0.711056  1
  Te  Te26  1  0.597267  0.495280  0.211914  1
  Te  Te27  1  0.289481  0.399153  0.001301  1
