# generated using pymatgen
data_Lu8Al3Si13Tc12
_symmetry_space_group_name_H-M   'P 1'
_cell_length_a   6.79422603
_cell_length_b   6.79684605
_cell_length_c   12.58006900
_cell_angle_alpha   90.00000000
_cell_angle_beta   90.00000000
_cell_angle_gamma   90.06334493
_symmetry_Int_Tables_number   1
_chemical_formula_structural   Lu8Al3Si13Tc12
_chemical_formula_sum   'Lu8 Al3 Si13 Tc12'
_cell_volume   580.93853014
_cell_formula_units_Z   1
loop_
 _symmetry_equiv_pos_site_id
 _symmetry_equiv_pos_as_xyz
  1  'x, y, z'
loop_
 _atom_site_type_symbol
 _atom_site_label
 _atom_site_symmetry_multiplicity
 _atom_site_fract_x
 _atom_site_fract_y
 _atom_site_fract_z
 _atom_site_occupancy
  Lu  Lu0  1  0.486316  0.331907  0.090681  1
  Lu  Lu1  1  0.996148  0.166369  0.406843  1
  Lu  Lu2  1  0.504891  0.669099  0.592921  1
  Lu  Lu3  1  0.012639  0.828644  0.908671  1
  Lu  Lu4  1  0.504891  0.669099  0.907079  1
  Lu  Lu5  1  0.012639  0.828644  0.591329  1
  Lu  Lu6  1  0.486316  0.331907  0.409319  1
  Lu  Lu7  1  0.996148  0.166369  0.093157  1
  Al  Al8  1  0.511858  0.351107  0.750000  1
  Al  Al9  1  0.030899  0.153152  0.750000  1
  Al  Al10  1  0.470369  0.651947  0.250000  1
  Si  Si11  1  0.667871  0.047597  0.549783  1
  Si  Si12  1  0.153465  0.441073  0.945174  1
  Si  Si13  1  0.351558  0.939007  0.055885  1
  Si  Si14  1  0.834225  0.546697  0.450455  1
  Si  Si15  1  0.351558  0.939007  0.444115  1
  Si  Si16  1  0.834225  0.546697  0.049545  1
  Si  Si17  1  0.667871  0.047597  0.950217  1
  Si  Si18  1  0.153465  0.441073  0.554826  1
  Si  Si19  1  0.982356  0.858402  0.250000  1
  Si  Si20  1  0.804325  0.639642  0.750000  1
  Si  Si21  1  0.306536  0.875984  0.750000  1
  Si  Si22  1  0.196022  0.372065  0.250000  1
  Si  Si23  1  0.691525  0.145607  0.250000  1
  Tc  Tc24  1  0.808576  0.357408  0.620238  1
  Tc  Tc25  1  0.338624  0.139656  0.891260  1
  Tc  Tc26  1  0.156150  0.648121  0.121542  1
  Tc  Tc27  1  0.698838  0.857286  0.375161  1
  Tc  Tc28  1  0.156150  0.648121  0.378458  1
  Tc  Tc29  1  0.698838  0.857286  0.124839  1
  Tc  Tc30  1  0.808576  0.357408  0.879762  1
  Tc  Tc31  1  0.338624  0.139656  0.608740  1
  Tc  Tc32  1  0.670491  0.983724  0.750000  1
  Tc  Tc33  1  0.159142  0.520538  0.750000  1
  Tc  Tc34  1  0.329560  0.014472  0.250000  1
  Tc  Tc35  1  0.828318  0.487631  0.250000  1
