# generated using pymatgen
data_DyHo9Ru3Rh
_symmetry_space_group_name_H-M   'P 1'
_cell_length_a   6.31846021
_cell_length_b   7.27307977
_cell_length_c   8.44951214
_cell_angle_alpha   96.73390514
_cell_angle_beta   111.99412171
_cell_angle_gamma   90.07269613
_symmetry_Int_Tables_number   1
_chemical_formula_structural   DyHo9Ru3Rh
_chemical_formula_sum   'Dy1 Ho9 Ru3 Rh1'
_cell_volume   357.12088742
_cell_formula_units_Z   1
loop_
 _symmetry_equiv_pos_site_id
 _symmetry_equiv_pos_as_xyz
  1  'x, y, z'
loop_
 _atom_site_type_symbol
 _atom_site_label
 _atom_site_symmetry_multiplicity
 _atom_site_fract_x
 _atom_site_fract_y
 _atom_site_fract_z
 _atom_site_occupancy
  Dy  Dy0  1  0.978862  0.917732  0.185643  1
  Ho  Ho1  1  0.791631  0.584877  0.811129  1
  Ho  Ho2  1  0.021490  0.084881  0.813588  1
  Ho  Ho3  1  0.209213  0.413965  0.185467  1
  Ho  Ho4  1  0.640483  0.816452  0.436323  1
  Ho  Ho5  1  0.209576  0.685579  0.567621  1
  Ho  Ho6  1  0.357722  0.185389  0.565391  1
  Ho  Ho7  1  0.793304  0.313042  0.436068  1
  Ho  Ho8  1  0.419043  0.750692  0.999506  1
  Ho  Ho9  1  0.578366  0.247975  0.998305  1
  Ru  Ru10  1  0.604122  0.922987  0.779691  1
  Ru  Ru11  1  0.175439  0.425036  0.778897  1
  Ru  Ru12  1  0.397998  0.076075  0.220719  1
  Rh  Rh13  1  0.822749  0.575316  0.221654  1
