# generated using pymatgen
data_Zr2InCo8NiB6
_symmetry_space_group_name_H-M   'P 1'
_cell_length_a   5.71159325
_cell_length_b   5.71988273
_cell_length_c   5.71159307
_cell_angle_alpha   95.41993485
_cell_angle_beta   95.16650116
_cell_angle_gamma   95.41994684
_symmetry_Int_Tables_number   1
_chemical_formula_structural   Zr2InCo8NiB6
_chemical_formula_sum   'Zr2 In1 Co8 Ni1 B6'
_cell_volume   184.00652487
_cell_formula_units_Z   1
loop_
 _symmetry_equiv_pos_site_id
 _symmetry_equiv_pos_as_xyz
  1  'x, y, z'
loop_
 _atom_site_type_symbol
 _atom_site_label
 _atom_site_symmetry_multiplicity
 _atom_site_fract_x
 _atom_site_fract_y
 _atom_site_fract_z
 _atom_site_occupancy
  Zr  Zr0  1  0.670800  0.675030  0.670800  1
  Zr  Zr1  1  0.329200  0.324970  0.329200  1
  In  In2  1  0.000000  0.000000  0.000000  1
  Co  Co3  1  0.000000  0.000000  0.500000  1
  Co  Co4  1  0.500000  0.000000  0.000000  1
  Co  Co5  1  0.699467  0.203947  0.699467  1
  Co  Co6  1  0.701163  0.699896  0.201711  1
  Co  Co7  1  0.201711  0.699896  0.701163  1
  Co  Co8  1  0.300533  0.796053  0.300533  1
  Co  Co9  1  0.298837  0.300104  0.798289  1
  Co  Co10  1  0.798289  0.300104  0.298837  1
  Ni  Ni11  1  0.000000  0.500000  0.000000  1
  B  B12  1  0.611423  0.384037  0.000565  1
  B  B13  1  0.999435  0.615963  0.388577  1
  B  B14  1  0.383215  0.000000  0.616785  1
  B  B15  1  0.000565  0.384037  0.611423  1
  B  B16  1  0.616785  0.000000  0.383215  1
  B  B17  1  0.388577  0.615963  0.999435  1
