# generated using pymatgen
data_TaNi2(AgO2)3
_symmetry_space_group_name_H-M   'P 1'
_cell_length_a   5.35119700
_cell_length_b   5.35119578
_cell_length_c   19.03272900
_cell_angle_alpha   90.00000000
_cell_angle_beta   90.00000000
_cell_angle_gamma   119.99998900
_symmetry_Int_Tables_number   1
_chemical_formula_structural   TaNi2(AgO2)3
_chemical_formula_sum   'Ta3 Ni6 Ag9 O18'
_cell_volume   471.99078933
_cell_formula_units_Z   3
loop_
 _symmetry_equiv_pos_site_id
 _symmetry_equiv_pos_as_xyz
  1  'x, y, z'
loop_
 _atom_site_type_symbol
 _atom_site_label
 _atom_site_symmetry_multiplicity
 _atom_site_fract_x
 _atom_site_fract_y
 _atom_site_fract_z
 _atom_site_occupancy
  Ta  Ta0  1  0.440325  0.559675  0.333333  1
  Ta  Ta1  1  0.440325  0.880649  0.666667  1
  Ta  Ta2  1  0.119351  0.559675  0.000000  1
  Ni  Ni3  1  0.107003  0.892997  0.333333  1
  Ni  Ni4  1  0.107003  0.214005  0.666667  1
  Ni  Ni5  1  0.785995  0.892997  0.000000  1
  Ni  Ni6  1  0.773646  0.226354  0.333333  1
  Ni  Ni7  1  0.773646  0.547290  0.666667  1
  Ni  Ni8  1  0.452710  0.226354  0.000000  1
  Ag  Ag9  1  0.441420  0.220709  0.500000  1
  Ag  Ag10  1  0.779291  0.220709  0.833333  1
  Ag  Ag11  1  0.779291  0.558580  0.166667  1
  Ag  Ag12  1  0.106317  0.553158  0.500000  1
  Ag  Ag13  1  0.446842  0.553158  0.833333  1
  Ag  Ag14  1  0.446842  0.893683  0.166667  1
  Ag  Ag15  1  0.775323  0.887661  0.500000  1
  Ag  Ag16  1  0.112339  0.887661  0.833333  1
  Ag  Ag17  1  0.112339  0.224677  0.166667  1
  O  O18  1  0.759978  0.559493  0.277493  1
  O  O19  1  0.440507  0.200485  0.610826  1
  O  O20  1  0.799515  0.240022  0.944160  1
  O  O21  1  0.759978  0.200485  0.722507  1
  O  O22  1  0.440507  0.240022  0.389174  1
  O  O23  1  0.799515  0.559493  0.055840  1
  O  O24  1  0.440817  0.880324  0.277737  1
  O  O25  1  0.119676  0.560493  0.611070  1
  O  O26  1  0.439507  0.559183  0.944404  1
  O  O27  1  0.440817  0.560493  0.722263  1
  O  O28  1  0.119676  0.559183  0.388930  1
  O  O29  1  0.439507  0.880324  0.055596  1
  O  O30  1  0.120357  0.238999  0.277642  1
  O  O31  1  0.761001  0.881358  0.610975  1
  O  O32  1  0.118642  0.879643  0.944308  1
  O  O33  1  0.120357  0.881358  0.722358  1
  O  O34  1  0.761001  0.879643  0.389025  1
  O  O35  1  0.118642  0.238999  0.055692  1
