# generated using pymatgen
data_Tb4Ge3Sb3RuRh6
_symmetry_space_group_name_H-M   'P 1'
_cell_length_a   7.47742086
_cell_length_b   7.43082119
_cell_length_c   7.43082204
_cell_angle_alpha   109.34383634
_cell_angle_beta   109.59830609
_cell_angle_gamma   109.59830949
_symmetry_Int_Tables_number   1
_chemical_formula_structural   Tb4Ge3Sb3RuRh6
_chemical_formula_sum   'Tb4 Ge3 Sb3 Ru1 Rh6'
_cell_volume   317.33650506
_cell_formula_units_Z   1
loop_
 _symmetry_equiv_pos_site_id
 _symmetry_equiv_pos_as_xyz
  1  'x, y, z'
loop_
 _atom_site_type_symbol
 _atom_site_label
 _atom_site_symmetry_multiplicity
 _atom_site_fract_x
 _atom_site_fract_y
 _atom_site_fract_z
 _atom_site_occupancy
  Tb  Tb0  1  0.544346  0.000000  0.000000  1
  Tb  Tb1  1  0.987845  0.479963  0.000000  1
  Tb  Tb2  1  0.987845  0.000000  0.479963  1
  Tb  Tb3  1  0.507882  0.520037  0.520037  1
  Ge  Ge4  1  0.005862  0.330823  0.330823  1
  Ge  Ge5  1  0.675039  0.000000  0.669177  1
  Ge  Ge6  1  0.675039  0.669177  0.000000  1
  Sb  Sb7  1  0.007816  0.695220  0.695220  1
  Sb  Sb8  1  0.312596  0.000000  0.304780  1
  Sb  Sb9  1  0.312596  0.304780  0.000000  1
  Ru  Ru10  1  0.967758  0.000000  0.000000  1
  Rh  Rh11  1  0.502086  0.749280  0.249290  1
  Rh  Rh12  1  0.752806  0.500010  0.250720  1
  Rh  Rh13  1  0.252796  0.750710  0.499990  1
  Rh  Rh14  1  0.252796  0.499990  0.750710  1
  Rh  Rh15  1  0.502086  0.249290  0.749280  1
  Rh  Rh16  1  0.752806  0.250720  0.500010  1
