# generated using pymatgen
data_Tb2DyPa(Ga3Ir)6
_symmetry_space_group_name_H-M   'P 1'
_cell_length_a   7.62408409
_cell_length_b   7.61526192
_cell_length_c   9.45192000
_cell_angle_alpha   90.00000000
_cell_angle_beta   90.00000000
_cell_angle_gamma   119.85093357
_symmetry_Int_Tables_number   1
_chemical_formula_structural   Tb2DyPa(Ga3Ir)6
_chemical_formula_sum   'Tb2 Dy1 Pa1 Ga18 Ir6'
_cell_volume   475.96342824
_cell_formula_units_Z   1
loop_
 _symmetry_equiv_pos_site_id
 _symmetry_equiv_pos_as_xyz
  1  'x, y, z'
loop_
 _atom_site_type_symbol
 _atom_site_label
 _atom_site_symmetry_multiplicity
 _atom_site_fract_x
 _atom_site_fract_y
 _atom_site_fract_z
 _atom_site_occupancy
  Tb  Tb0  1  0.004063  0.331297  0.750000  1
  Tb  Tb1  1  0.331030  0.002992  0.750000  1
  Dy  Dy2  1  0.669594  0.996301  0.250000  1
  Pa  Pa3  1  0.997548  0.669180  0.250000  1
  Ga  Ga4  1  0.130340  0.130074  0.250000  1
  Ga  Ga5  1  0.872731  0.873623  0.750000  1
  Ga  Ga6  1  0.998732  0.330902  0.080170  1
  Ga  Ga7  1  0.000806  0.665406  0.917155  1
  Ga  Ga8  1  0.000806  0.665406  0.582845  1
  Ga  Ga9  1  0.338359  0.002615  0.419623  1
  Ga  Ga10  1  0.998732  0.330902  0.419830  1
  Ga  Ga11  1  0.665620  0.001476  0.580714  1
  Ga  Ga12  1  0.665620  0.001476  0.919286  1
  Ga  Ga13  1  0.338359  0.002615  0.080377  1
  Ga  Ga14  1  0.331607  0.331572  0.567169  1
  Ga  Ga15  1  0.664186  0.667693  0.434343  1
  Ga  Ga16  1  0.664186  0.667693  0.065657  1
  Ga  Ga17  1  0.331607  0.331572  0.932831  1
  Ga  Ga18  1  0.339205  0.544756  0.250000  1
  Ga  Ga19  1  0.660477  0.452815  0.750000  1
  Ga  Ga20  1  0.544424  0.339967  0.250000  1
  Ga  Ga21  1  0.452956  0.661307  0.750000  1
  Ir  Ir22  1  0.673903  0.331636  0.002177  1
  Ir  Ir23  1  0.326210  0.671205  0.002195  1
  Ir  Ir24  1  0.326210  0.671205  0.497805  1
  Ir  Ir25  1  0.673903  0.331636  0.497823  1
  Ir  Ir26  1  0.999393  0.996341  0.002658  1
  Ir  Ir27  1  0.999393  0.996341  0.497342  1
