# generated using pymatgen
data_TbDyTm(Al3Ru)4
_symmetry_space_group_name_H-M   'P 1'
_cell_length_a   8.77842118
_cell_length_b   8.77474637
_cell_length_c   9.60457900
_cell_angle_alpha   90.00000000
_cell_angle_beta   90.00000000
_cell_angle_gamma   119.96488197
_symmetry_Int_Tables_number   1
_chemical_formula_structural   TbDyTm(Al3Ru)4
_chemical_formula_sum   'Tb2 Dy2 Tm2 Al24 Ru8'
_cell_volume   640.93431987
_cell_formula_units_Z   2
loop_
 _symmetry_equiv_pos_site_id
 _symmetry_equiv_pos_as_xyz
  1  'x, y, z'
loop_
 _atom_site_type_symbol
 _atom_site_label
 _atom_site_symmetry_multiplicity
 _atom_site_fract_x
 _atom_site_fract_y
 _atom_site_fract_z
 _atom_site_occupancy
  Tb  Tb0  1  0.387787  0.193828  0.750000  1
  Tb  Tb1  1  0.612213  0.806172  0.250000  1
  Dy  Dy2  1  0.807016  0.193243  0.750000  1
  Dy  Dy3  1  0.192984  0.806757  0.250000  1
  Tm  Tm4  1  0.805654  0.610938  0.750000  1
  Tm  Tm5  1  0.194346  0.389062  0.250000  1
  Al  Al6  1  0.667133  0.333698  0.981541  1
  Al  Al7  1  0.332867  0.666302  0.018459  1
  Al  Al8  1  0.332867  0.666302  0.481541  1
  Al  Al9  1  0.667133  0.333698  0.518459  1
  Al  Al10  1  0.837527  0.162841  0.422398  1
  Al  Al11  1  0.162473  0.837159  0.577602  1
  Al  Al12  1  0.325345  0.163018  0.422660  1
  Al  Al13  1  0.162473  0.837159  0.922398  1
  Al  Al14  1  0.674655  0.836982  0.577340  1
  Al  Al15  1  0.837527  0.162841  0.077602  1
  Al  Al16  1  0.837022  0.674371  0.423128  1
  Al  Al17  1  0.674655  0.836982  0.922660  1
  Al  Al18  1  0.162978  0.325629  0.576872  1
  Al  Al19  1  0.325345  0.163018  0.077340  1
  Al  Al20  1  0.162978  0.325629  0.923128  1
  Al  Al21  1  0.837022  0.674371  0.076872  1
  Al  Al22  1  0.438910  0.561893  0.750000  1
  Al  Al23  1  0.561090  0.438107  0.250000  1
  Al  Al24  1  0.123213  0.561955  0.750000  1
  Al  Al25  1  0.876787  0.438045  0.250000  1
  Al  Al26  1  0.438106  0.876097  0.750000  1
  Al  Al27  1  0.561894  0.123903  0.250000  1
  Al  Al28  1  0.000457  0.998384  0.750000  1
  Al  Al29  1  0.999543  0.001616  0.250000  1
  Ru  Ru30  1  0.500000  0.500000  0.000000  1
  Ru  Ru31  1  0.000000  0.500000  0.000000  1
  Ru  Ru32  1  0.500000  0.500000  0.500000  1
  Ru  Ru33  1  0.500000  0.000000  0.000000  1
  Ru  Ru34  1  0.000000  0.500000  0.500000  1
  Ru  Ru35  1  0.500000  0.000000  0.500000  1
  Ru  Ru36  1  0.000000  0.000000  0.000000  1
  Ru  Ru37  1  0.000000  0.000000  0.500000  1
