# generated using pymatgen
data_DyY5Ho5Tm5(CdIr)4
_symmetry_space_group_name_H-M   'P 1'
_cell_length_a   9.58963067
_cell_length_b   9.57931117
_cell_length_c   9.57931016
_cell_angle_alpha   59.98164422
_cell_angle_beta   59.96435650
_cell_angle_gamma   59.96435017
_symmetry_Int_Tables_number   1
_chemical_formula_structural   DyY5Ho5Tm5(CdIr)4
_chemical_formula_sum   'Dy1 Y5 Ho5 Tm5 Cd4 Ir4'
_cell_volume   621.81468408
_cell_formula_units_Z   1
loop_
 _symmetry_equiv_pos_site_id
 _symmetry_equiv_pos_as_xyz
  1  'x, y, z'
loop_
 _atom_site_type_symbol
 _atom_site_label
 _atom_site_symmetry_multiplicity
 _atom_site_fract_x
 _atom_site_fract_y
 _atom_site_fract_z
 _atom_site_occupancy
  Dy  Dy0  1  0.938924  0.561076  0.561076  1
  Y  Y1  1  0.561004  0.938996  0.938996  1
  Y  Y2  1  0.560951  0.939052  0.561281  1
  Y  Y3  1  0.938716  0.561281  0.939052  1
  Y  Y4  1  0.560951  0.561281  0.939052  1
  Y  Y5  1  0.938716  0.939052  0.561281  1
  Ho  Ho6  1  0.348024  0.349190  0.349190  1
  Ho  Ho7  1  0.348951  0.349494  0.952604  1
  Ho  Ho8  1  0.348951  0.952604  0.349494  1
  Ho  Ho9  1  0.953596  0.349190  0.349190  1
  Ho  Ho10  1  0.811628  0.188372  0.188372  1
  Tm  Tm11  1  0.188203  0.811797  0.811797  1
  Tm  Tm12  1  0.189028  0.811026  0.187860  1
  Tm  Tm13  1  0.812087  0.187860  0.811026  1
  Tm  Tm14  1  0.189028  0.187860  0.811026  1
  Tm  Tm15  1  0.812087  0.811026  0.187860  1
  Cd  Cd16  1  0.580608  0.580330  0.580330  1
  Cd  Cd17  1  0.580627  0.580578  0.258170  1
  Cd  Cd18  1  0.580627  0.258170  0.580578  1
  Cd  Cd19  1  0.258733  0.580330  0.580330  1
  Ir  Ir20  1  0.141481  0.141458  0.141458  1
  Ir  Ir21  1  0.140739  0.142023  0.576499  1
  Ir  Ir22  1  0.140739  0.576499  0.142023  1
  Ir  Ir23  1  0.575605  0.141458  0.141458  1
