# generated using pymatgen
data_Li2ZrNi11As3P4
_symmetry_space_group_name_H-M   'P 1'
_cell_length_a   3.63002900
_cell_length_b   9.16525360
_cell_length_c   9.22824421
_cell_angle_alpha   120.17295954
_cell_angle_beta   90.00000000
_cell_angle_gamma   90.00000000
_symmetry_Int_Tables_number   1
_chemical_formula_structural   Li2ZrNi11As3P4
_chemical_formula_sum   'Li2 Zr1 Ni11 As3 P4'
_cell_volume   265.42677943
_cell_formula_units_Z   1
loop_
 _symmetry_equiv_pos_site_id
 _symmetry_equiv_pos_as_xyz
  1  'x, y, z'
loop_
 _atom_site_type_symbol
 _atom_site_label
 _atom_site_symmetry_multiplicity
 _atom_site_fract_x
 _atom_site_fract_y
 _atom_site_fract_z
 _atom_site_occupancy
  Li  Li0  1  0.500000  0.329642  0.664679  1
  Li  Li1  1  0.500000  0.116977  0.904264  1
  Zr  Zr2  1  0.000000  0.669582  0.336809  1
  Ni  Ni3  1  0.000000  0.879672  0.727071  1
  Ni  Ni4  1  0.000000  0.275790  0.154296  1
  Ni  Ni5  1  0.000000  0.842134  0.123276  1
  Ni  Ni6  1  0.500000  0.939781  0.559788  1
  Ni  Ni7  1  0.500000  0.441582  0.380667  1
  Ni  Ni8  1  0.500000  0.621087  0.060131  1
  Ni  Ni9  1  0.000000  0.385438  0.959494  1
  Ni  Ni10  1  0.000000  0.043685  0.425850  1
  Ni  Ni11  1  0.000000  0.571470  0.615518  1
  Ni  Ni12  1  0.500000  0.082069  0.201600  1
  Ni  Ni13  1  0.500000  0.796951  0.880679  1
  As  As14  1  0.000000  0.126908  0.706358  1
  As  As15  1  0.000000  0.287806  0.413891  1
  As  As16  1  0.000000  0.583139  0.870987  1
  P  P17  1  0.500000  0.711510  0.592590  1
  P  P18  1  0.500000  0.419249  0.126802  1
  P  P19  1  0.500000  0.880349  0.292004  1
  P  P20  1  0.000000  0.995182  0.003247  1
