# generated using pymatgen
data_CsYPaS4
_symmetry_space_group_name_H-M   'P 1'
_cell_length_a   4.09548700
_cell_length_b   6.85082249
_cell_length_c   8.62418500
_cell_angle_alpha   74.60241005
_cell_angle_beta   90.00000000
_cell_angle_gamma   90.00000000
_symmetry_Int_Tables_number   1
_chemical_formula_structural   CsYPaS4
_chemical_formula_sum   'Cs1 Y1 Pa1 S4'
_cell_volume   233.28744938
_cell_formula_units_Z   1
loop_
 _symmetry_equiv_pos_site_id
 _symmetry_equiv_pos_as_xyz
  1  'x, y, z'
loop_
 _atom_site_type_symbol
 _atom_site_label
 _atom_site_symmetry_multiplicity
 _atom_site_fract_x
 _atom_site_fract_y
 _atom_site_fract_z
 _atom_site_occupancy
  Cs  Cs0  1  0.000000  0.500000  0.500000  1
  Y  Y1  1  0.500000  0.500000  0.000000  1
  Pa  Pa2  1  0.000000  0.000000  0.000000  1
  S  S3  1  0.500000  0.780068  0.176868  1
  S  S4  1  0.000000  0.272156  0.173990  1
  S  S5  1  0.500000  0.219932  0.823132  1
  S  S6  1  0.000000  0.727844  0.826010  1
