# generated using pymatgen
data_Pr3Th5(Si3Rh)4
_symmetry_space_group_name_H-M   'P 1'
_cell_length_a   8.25917500
_cell_length_b   8.25917580
_cell_length_c   8.49108700
_cell_angle_alpha   90.00000000
_cell_angle_beta   90.00000000
_cell_angle_gamma   120.00000080
_symmetry_Int_Tables_number   1
_chemical_formula_structural   Pr3Th5(Si3Rh)4
_chemical_formula_sum   'Pr3 Th5 Si12 Rh4'
_cell_volume   501.61128395
_cell_formula_units_Z   1
loop_
 _symmetry_equiv_pos_site_id
 _symmetry_equiv_pos_as_xyz
  1  'x, y, z'
loop_
 _atom_site_type_symbol
 _atom_site_label
 _atom_site_symmetry_multiplicity
 _atom_site_fract_x
 _atom_site_fract_y
 _atom_site_fract_z
 _atom_site_occupancy
  Pr  Pr0  1  0.500213  0.499787  0.250000  1
  Pr  Pr1  1  0.999576  0.499787  0.250000  1
  Pr  Pr2  1  0.500213  0.000424  0.250000  1
  Th  Th3  1  0.000000  0.000000  0.750000  1
  Th  Th4  1  0.000000  0.000000  0.250000  1
  Th  Th5  1  0.499874  0.500126  0.750000  1
  Th  Th6  1  0.499874  0.999748  0.750000  1
  Th  Th7  1  0.000252  0.500126  0.750000  1
  Si  Si8  1  0.833866  0.166134  0.999795  1
  Si  Si9  1  0.833866  0.667732  0.999795  1
  Si  Si10  1  0.332268  0.166134  0.999795  1
  Si  Si11  1  0.833866  0.166134  0.500205  1
  Si  Si12  1  0.833866  0.667732  0.500205  1
  Si  Si13  1  0.332268  0.166134  0.500205  1
  Si  Si14  1  0.166122  0.833878  0.500373  1
  Si  Si15  1  0.667756  0.833878  0.500373  1
  Si  Si16  1  0.166122  0.332244  0.500373  1
  Si  Si17  1  0.166122  0.833878  0.999627  1
  Si  Si18  1  0.667756  0.833878  0.999627  1
  Si  Si19  1  0.166122  0.332244  0.999627  1
  Rh  Rh20  1  0.666667  0.333333  0.982001  1
  Rh  Rh21  1  0.666667  0.333333  0.517999  1
  Rh  Rh22  1  0.333333  0.666667  0.517418  1
  Rh  Rh23  1  0.333333  0.666667  0.982582  1
