# generated using pymatgen
data_ErTm5(LuIn2)4
_symmetry_space_group_name_H-M   'P 1'
_cell_length_a   9.14066200
_cell_length_b   9.14259547
_cell_length_c   6.59973300
_cell_angle_alpha   90.00000000
_cell_angle_beta   90.00000000
_cell_angle_gamma   119.99300457
_symmetry_Int_Tables_number   1
_chemical_formula_structural   ErTm5(LuIn2)4
_chemical_formula_sum   'Er1 Tm5 Lu4 In8'
_cell_volume   477.67747361
_cell_formula_units_Z   1
loop_
 _symmetry_equiv_pos_site_id
 _symmetry_equiv_pos_as_xyz
  1  'x, y, z'
loop_
 _atom_site_type_symbol
 _atom_site_label
 _atom_site_symmetry_multiplicity
 _atom_site_fract_x
 _atom_site_fract_y
 _atom_site_fract_z
 _atom_site_occupancy
  Er  Er0  1  0.289609  0.000000  0.750000  1
  Tm  Tm1  1  0.710266  0.000000  0.250000  1
  Tm  Tm2  1  0.000067  0.289737  0.750000  1
  Tm  Tm3  1  0.000009  0.710317  0.250000  1
  Tm  Tm4  1  0.710330  0.710263  0.750000  1
  Tm  Tm5  1  0.289692  0.289683  0.250000  1
  Lu  Lu6  1  0.333345  0.666597  0.499967  1
  Lu  Lu7  1  0.666749  0.333403  0.499967  1
  Lu  Lu8  1  0.666749  0.333403  0.000033  1
  Lu  Lu9  1  0.333345  0.666597  0.000033  1
  In  In10  1  0.999912  0.000000  0.499893  1
  In  In11  1  0.999912  0.000000  0.000107  1
  In  In12  1  0.628027  0.000000  0.750000  1
  In  In13  1  0.372123  0.000000  0.250000  1
  In  In14  1  0.999864  0.627692  0.750000  1
  In  In15  1  0.999982  0.372134  0.250000  1
  In  In16  1  0.372172  0.372308  0.750000  1
  In  In17  1  0.627848  0.627866  0.250000  1
