# generated using pymatgen
data_Tb6Pd4RuAu3
_symmetry_space_group_name_H-M   'P 1'
_cell_length_a   8.05728607
_cell_length_b   8.02937326
_cell_length_c   8.01559500
_cell_angle_alpha   114.30033363
_cell_angle_beta   114.44326975
_cell_angle_gamma   114.52449274
_symmetry_Int_Tables_number   1
_chemical_formula_structural   Tb6Pd4RuAu3
_chemical_formula_sum   'Tb6 Pd4 Ru1 Au3'
_cell_volume   304.93027824
_cell_formula_units_Z   1
loop_
 _symmetry_equiv_pos_site_id
 _symmetry_equiv_pos_as_xyz
  1  'x, y, z'
loop_
 _atom_site_type_symbol
 _atom_site_label
 _atom_site_symmetry_multiplicity
 _atom_site_fract_x
 _atom_site_fract_y
 _atom_site_fract_z
 _atom_site_occupancy
  Tb  Tb0  1  0.034661  0.396298  0.277777  1
  Tb  Tb1  1  0.394346  0.278666  0.023788  1
  Tb  Tb2  1  0.718857  0.965734  0.606556  1
  Tb  Tb3  1  0.265169  0.017572  0.386248  1
  Tb  Tb4  1  0.615455  0.733886  0.970183  1
  Tb  Tb5  1  0.977216  0.613518  0.728072  1
  Pd  Pd6  1  0.502828  0.497458  0.496868  1
  Pd  Pd7  1  0.441695  0.936210  0.773232  1
  Pd  Pd8  1  0.935966  0.777130  0.450871  1
  Pd  Pd9  1  0.220608  0.550449  0.063866  1
  Ru  Ru10  1  0.006393  0.004900  0.000726  1
  Au  Au11  1  0.770852  0.441090  0.937159  1
  Au  Au12  1  0.065202  0.228078  0.562389  1
  Au  Au13  1  0.550752  0.059011  0.222264  1
