# generated using pymatgen
data_Y7HoTi11Si16Au
_symmetry_space_group_name_H-M   'P 1'
_cell_length_a   7.07789193
_cell_length_b   7.07763119
_cell_length_c   12.90676801
_cell_angle_alpha   90.13585447
_cell_angle_beta   89.86703402
_cell_angle_gamma   89.60115852
_symmetry_Int_Tables_number   1
_chemical_formula_structural   Y7HoTi11Si16Au
_chemical_formula_sum   'Y7 Ho1 Ti11 Si16 Au1'
_cell_volume   646.54153494
_cell_formula_units_Z   1
loop_
 _symmetry_equiv_pos_site_id
 _symmetry_equiv_pos_as_xyz
  1  'x, y, z'
loop_
 _atom_site_type_symbol
 _atom_site_label
 _atom_site_symmetry_multiplicity
 _atom_site_fract_x
 _atom_site_fract_y
 _atom_site_fract_z
 _atom_site_occupancy
  Y  Y0  1  0.340894  0.002261  0.466665  1
  Y  Y1  1  0.497225  0.841116  0.716858  1
  Y  Y2  1  0.501452  0.157299  0.214309  1
  Y  Y3  1  0.841183  0.497274  0.283096  1
  Y  Y4  1  0.157246  0.501496  0.785747  1
  Y  Y5  1  0.656490  0.000830  0.968715  1
  Y  Y6  1  0.002283  0.340921  0.533316  1
  Ho  Ho7  1  0.001137  0.656256  0.031439  1
  Ti  Ti8  1  0.174956  0.825857  0.249425  1
  Ti  Ti9  1  0.825970  0.175015  0.750489  1
  Ti  Ti10  1  0.672737  0.672741  0.499993  1
  Ti  Ti11  1  0.147627  0.007648  0.877207  1
  Ti  Ti12  1  0.494818  0.650921  0.123048  1
  Ti  Ti13  1  0.507486  0.350738  0.625603  1
  Ti  Ti14  1  0.651040  0.494885  0.877021  1
  Ti  Ti15  1  0.350714  0.507524  0.374380  1
  Ti  Ti16  1  0.850055  0.991494  0.374408  1
  Ti  Ti17  1  0.007775  0.147642  0.122856  1
  Ti  Ti18  1  0.991525  0.849996  0.625582  1
  Si  Si19  1  0.201542  0.132373  0.684858  1
  Si  Si20  1  0.373781  0.719702  0.929134  1
  Si  Si21  1  0.631001  0.294014  0.432761  1
  Si  Si22  1  0.720153  0.374455  0.070878  1
  Si  Si23  1  0.293970  0.631041  0.567200  1
  Si  Si24  1  0.798333  0.866900  0.182749  1
  Si  Si25  1  0.132396  0.201548  0.315146  1
  Si  Si26  1  0.867311  0.797916  0.817167  1
  Si  Si27  1  0.285543  0.937266  0.065865  1
  Si  Si28  1  0.547164  0.790446  0.314388  1
  Si  Si29  1  0.454261  0.208583  0.809732  1
  Si  Si30  1  0.790481  0.547250  0.685636  1
  Si  Si31  1  0.208302  0.454558  0.190123  1
  Si  Si32  1  0.708979  0.048048  0.564455  1
  Si  Si33  1  0.937710  0.286255  0.934208  1
  Si  Si34  1  0.048100  0.708979  0.435520  1
  Au  Au35  1  0.328362  0.328749  0.000022  1
