# generated using pymatgen
data_CeTa5Ru4
_symmetry_space_group_name_H-M   'P 1'
_cell_length_a   3.17215600
_cell_length_b   3.17215600
_cell_length_c   17.38701600
_cell_angle_alpha   90.00000000
_cell_angle_beta   90.00000000
_cell_angle_gamma   90.00000000
_symmetry_Int_Tables_number   1
_chemical_formula_structural   CeTa5Ru4
_chemical_formula_sum   'Ce1 Ta5 Ru4'
_cell_volume   174.95812972
_cell_formula_units_Z   1
loop_
 _symmetry_equiv_pos_site_id
 _symmetry_equiv_pos_as_xyz
  1  'x, y, z'
loop_
 _atom_site_type_symbol
 _atom_site_label
 _atom_site_symmetry_multiplicity
 _atom_site_fract_x
 _atom_site_fract_y
 _atom_site_fract_z
 _atom_site_occupancy
  Ce  Ce0  1  0.000000  0.000000  0.500000  1
  Ta  Ta1  1  0.000000  0.000000  0.897979  1
  Ta  Ta2  1  0.000000  0.000000  0.102021  1
  Ta  Ta3  1  0.000000  0.000000  0.291176  1
  Ta  Ta4  1  0.000000  0.000000  0.708824  1
  Ta  Ta5  1  0.500000  0.500000  0.000000  1
  Ru  Ru6  1  0.500000  0.500000  0.192519  1
  Ru  Ru7  1  0.500000  0.500000  0.371425  1
  Ru  Ru8  1  0.500000  0.500000  0.628575  1
  Ru  Ru9  1  0.500000  0.500000  0.807481  1
