# generated using pymatgen
data_Tm4FeCu2Ru5
_symmetry_space_group_name_H-M   'P 1'
_cell_length_a   5.29688800
_cell_length_b   5.22587147
_cell_length_c   8.75987000
_cell_angle_alpha   90.00000000
_cell_angle_beta   90.00000000
_cell_angle_gamma   121.79452711
_symmetry_Int_Tables_number   1
_chemical_formula_structural   Tm4FeCu2Ru5
_chemical_formula_sum   'Tm4 Fe1 Cu2 Ru5'
_cell_volume   206.09477855
_cell_formula_units_Z   1
loop_
 _symmetry_equiv_pos_site_id
 _symmetry_equiv_pos_as_xyz
  1  'x, y, z'
loop_
 _atom_site_type_symbol
 _atom_site_label
 _atom_site_symmetry_multiplicity
 _atom_site_fract_x
 _atom_site_fract_y
 _atom_site_fract_z
 _atom_site_occupancy
  Tm  Tm0  1  0.329235  0.669230  0.437165  1
  Tm  Tm1  1  0.663381  0.341168  0.564774  1
  Tm  Tm2  1  0.663381  0.341168  0.935226  1
  Tm  Tm3  1  0.329235  0.669230  0.062835  1
  Fe  Fe4  1  0.161704  0.326874  0.750000  1
  Cu  Cu5  1  0.347338  0.159251  0.250000  1
  Cu  Cu6  1  0.842451  0.652052  0.250000  1
  Ru  Ru7  1  0.174878  0.829142  0.750000  1
  Ru  Ru8  1  0.657209  0.833636  0.750000  1
  Ru  Ru9  1  0.993733  0.012290  0.001478  1
  Ru  Ru10  1  0.843724  0.153669  0.250000  1
  Ru  Ru11  1  0.993733  0.012290  0.498522  1
