# generated using pymatgen
data_Yb5TmU2O12
_symmetry_space_group_name_H-M   'P 1'
_cell_length_a   6.71132111
_cell_length_b   6.68128392
_cell_length_c   6.68435171
_cell_angle_alpha   90.84774888
_cell_angle_beta   90.47822235
_cell_angle_gamma   90.87131113
_symmetry_Int_Tables_number   1
_chemical_formula_structural   Yb5TmU2O12
_chemical_formula_sum   'Yb5 Tm1 U2 O12'
_cell_volume   299.64947289
_cell_formula_units_Z   1
loop_
 _symmetry_equiv_pos_site_id
 _symmetry_equiv_pos_as_xyz
  1  'x, y, z'
loop_
 _atom_site_type_symbol
 _atom_site_label
 _atom_site_symmetry_multiplicity
 _atom_site_fract_x
 _atom_site_fract_y
 _atom_site_fract_z
 _atom_site_occupancy
  Yb  Yb0  1  0.751669  0.941177  0.443420  1
  Yb  Yb1  1  0.553082  0.247469  0.060534  1
  Yb  Yb2  1  0.248625  0.057172  0.554234  1
  Yb  Yb3  1  0.061522  0.557801  0.249670  1
  Yb  Yb4  1  0.444278  0.750779  0.941535  1
  Tm  Tm5  1  0.938353  0.442544  0.750839  1
  U  U6  1  0.998396  0.999076  0.998008  1
  U  U7  1  0.499408  0.499891  0.500579  1
  O  O8  1  0.293670  0.063424  0.919827  1
  O  O9  1  0.065721  0.918848  0.293618  1
  O  O10  1  0.920944  0.304432  0.059393  1
  O  O11  1  0.703615  0.934911  0.079525  1
  O  O12  1  0.931860  0.094514  0.699754  1
  O  O13  1  0.074984  0.692638  0.923135  1
  O  O14  1  0.193887  0.409356  0.548310  1
  O  O15  1  0.409067  0.538920  0.201381  1
  O  O16  1  0.462280  0.797952  0.590345  1
  O  O17  1  0.602142  0.459958  0.801865  1
  O  O18  1  0.809064  0.587781  0.472935  1
  O  O19  1  0.537432  0.201357  0.411091  1
