# generated using pymatgen
data_Ce2Si14Ir5Os
_symmetry_space_group_name_H-M   'P 1'
_cell_length_a   8.08419757
_cell_length_b   8.08419903
_cell_length_c   8.10442461
_cell_angle_alpha   56.62890133
_cell_angle_beta   56.62889633
_cell_angle_gamma   56.66850917
_symmetry_Int_Tables_number   1
_chemical_formula_structural   Ce2Si14Ir5Os
_chemical_formula_sum   'Ce2 Si14 Ir5 Os1'
_cell_volume   345.47676664
_cell_formula_units_Z   1
loop_
 _symmetry_equiv_pos_site_id
 _symmetry_equiv_pos_as_xyz
  1  'x, y, z'
loop_
 _atom_site_type_symbol
 _atom_site_label
 _atom_site_symmetry_multiplicity
 _atom_site_fract_x
 _atom_site_fract_y
 _atom_site_fract_z
 _atom_site_occupancy
  Ce  Ce0  1  0.000683  0.002816  0.997480  1
  Ce  Ce1  1  0.497184  0.499317  0.502520  1
  Si  Si2  1  0.752729  0.747271  0.750000  1
  Si  Si3  1  0.249422  0.250578  0.250000  1
  Si  Si4  1  0.850504  0.064119  0.672352  1
  Si  Si5  1  0.672161  0.851335  0.063929  1
  Si  Si6  1  0.065010  0.669717  0.850899  1
  Si  Si7  1  0.648665  0.827839  0.436071  1
  Si  Si8  1  0.435881  0.649496  0.827648  1
  Si  Si9  1  0.830283  0.434990  0.649101  1
  Si  Si10  1  0.170260  0.565130  0.353706  1
  Si  Si11  1  0.564351  0.351360  0.172034  1
  Si  Si12  1  0.349667  0.173614  0.563992  1
  Si  Si13  1  0.934870  0.329740  0.146294  1
  Si  Si14  1  0.326386  0.150333  0.936008  1
  Si  Si15  1  0.148640  0.935649  0.327966  1
  Ir  Ir16  1  0.250531  0.930678  0.568370  1
  Ir  Ir17  1  0.569322  0.249469  0.931630  1
  Ir  Ir18  1  0.930180  0.569820  0.250000  1
  Ir  Ir19  1  0.431271  0.750306  0.068706  1
  Ir  Ir20  1  0.749694  0.068729  0.431294  1
  Os  Os21  1  0.072307  0.427693  0.750000  1
