# generated using pymatgen
data_Tb3Y(Al3Ir)6
_symmetry_space_group_name_H-M   'P 1'
_cell_length_a   7.55911436
_cell_length_b   7.55849646
_cell_length_c   9.49467900
_cell_angle_alpha   90.00000000
_cell_angle_beta   90.00000000
_cell_angle_gamma   119.54379402
_symmetry_Int_Tables_number   1
_chemical_formula_structural   Tb3Y(Al3Ir)6
_chemical_formula_sum   'Tb3 Y1 Al18 Ir6'
_cell_volume   471.94937428
_cell_formula_units_Z   1
loop_
 _symmetry_equiv_pos_site_id
 _symmetry_equiv_pos_as_xyz
  1  'x, y, z'
loop_
 _atom_site_type_symbol
 _atom_site_label
 _atom_site_symmetry_multiplicity
 _atom_site_fract_x
 _atom_site_fract_y
 _atom_site_fract_z
 _atom_site_occupancy
  Tb  Tb0  1  0.005271  0.329356  0.750000  1
  Tb  Tb1  1  0.670681  0.994654  0.250000  1
  Tb  Tb2  1  0.329290  0.005215  0.750000  1
  Y  Y3  1  0.994646  0.670559  0.250000  1
  Al  Al4  1  0.128388  0.128396  0.250000  1
  Al  Al5  1  0.871425  0.871385  0.750000  1
  Al  Al6  1  0.001149  0.335056  0.073363  1
  Al  Al7  1  0.998904  0.665111  0.926740  1
  Al  Al8  1  0.998904  0.665111  0.573260  1
  Al  Al9  1  0.334744  0.001017  0.426649  1
  Al  Al10  1  0.001149  0.335056  0.426637  1
  Al  Al11  1  0.665101  0.998878  0.573371  1
  Al  Al12  1  0.665101  0.998878  0.926629  1
  Al  Al13  1  0.334744  0.001017  0.073351  1
  Al  Al14  1  0.333571  0.333567  0.551564  1
  Al  Al15  1  0.666561  0.666437  0.448401  1
  Al  Al16  1  0.666561  0.666437  0.051599  1
  Al  Al17  1  0.333571  0.333567  0.948436  1
  Al  Al18  1  0.339015  0.547538  0.250000  1
  Al  Al19  1  0.660991  0.452591  0.750000  1
  Al  Al20  1  0.547579  0.339070  0.250000  1
  Al  Al21  1  0.452534  0.660949  0.750000  1
  Ir  Ir22  1  0.672005  0.328124  0.000091  1
  Ir  Ir23  1  0.328100  0.672004  0.000044  1
  Ir  Ir24  1  0.328100  0.672004  0.499956  1
  Ir  Ir25  1  0.672005  0.328124  0.499909  1
  Ir  Ir26  1  0.999955  0.999949  0.000052  1
  Ir  Ir27  1  0.999955  0.999949  0.499948  1
