# generated using pymatgen
data_Zn7SiRh8
_symmetry_space_group_name_H-M   'P 1'
_cell_length_a   9.04681370
_cell_length_b   9.04681301
_cell_length_c   6.76213039
_cell_angle_alpha   63.50092423
_cell_angle_beta   63.50092572
_cell_angle_gamma   83.36116934
_symmetry_Int_Tables_number   1
_chemical_formula_structural   Zn7SiRh8
_chemical_formula_sum   'Zn14 Si2 Rh16'
_cell_volume   440.85198325
_cell_formula_units_Z   2
loop_
 _symmetry_equiv_pos_site_id
 _symmetry_equiv_pos_as_xyz
  1  'x, y, z'
loop_
 _atom_site_type_symbol
 _atom_site_label
 _atom_site_symmetry_multiplicity
 _atom_site_fract_x
 _atom_site_fract_y
 _atom_site_fract_z
 _atom_site_occupancy
  Zn  Zn0  1  0.002208  0.251961  0.259142  1
  Zn  Zn1  1  0.251961  0.002208  0.259142  1
  Zn  Zn2  1  0.753391  0.501356  0.251491  1
  Zn  Zn3  1  0.501356  0.753391  0.251491  1
  Zn  Zn4  1  0.619992  0.380008  0.000000  1
  Zn  Zn5  1  0.380008  0.619992  0.000000  1
  Zn  Zn6  1  0.129612  0.379279  0.491597  1
  Zn  Zn7  1  0.379279  0.129612  0.491597  1
  Zn  Zn8  1  0.870388  0.620721  0.508403  1
  Zn  Zn9  1  0.620721  0.870388  0.508403  1
  Zn  Zn10  1  0.748039  0.997792  0.740858  1
  Zn  Zn11  1  0.997792  0.748039  0.740858  1
  Zn  Zn12  1  0.498644  0.246609  0.748509  1
  Zn  Zn13  1  0.246609  0.498644  0.748509  1
  Si  Si14  1  0.870755  0.129245  0.000000  1
  Si  Si15  1  0.129245  0.870755  0.000000  1
  Rh  Rh16  1  0.311463  0.311463  0.121430  1
  Rh  Rh17  1  0.058185  0.058185  0.647507  1
  Rh  Rh18  1  0.825129  0.825129  0.114699  1
  Rh  Rh19  1  0.561419  0.561419  0.622934  1
  Rh  Rh20  1  0.438581  0.438581  0.377066  1
  Rh  Rh21  1  0.174871  0.174871  0.885301  1
  Rh  Rh22  1  0.941815  0.941815  0.352493  1
  Rh  Rh23  1  0.688537  0.688537  0.878570  1
  Rh  Rh24  1  0.064001  0.573938  0.118642  1
  Rh  Rh25  1  0.573938  0.064001  0.118642  1
  Rh  Rh26  1  0.813719  0.304768  0.638787  1
  Rh  Rh27  1  0.304768  0.813719  0.638787  1
  Rh  Rh28  1  0.186281  0.695232  0.361213  1
  Rh  Rh29  1  0.695232  0.186281  0.361213  1
  Rh  Rh30  1  0.935999  0.426062  0.881358  1
  Rh  Rh31  1  0.426062  0.935999  0.881358  1
