# generated using pymatgen
data_Hf12Tc6Ir5Os
_symmetry_space_group_name_H-M   'P 1'
_cell_length_a   4.60907500
_cell_length_b   6.50511200
_cell_length_c   13.86248800
_cell_angle_alpha   90.00000000
_cell_angle_beta   89.99992541
_cell_angle_gamma   90.00000000
_symmetry_Int_Tables_number   1
_chemical_formula_structural   Hf12Tc6Ir5Os
_chemical_formula_sum   'Hf12 Tc6 Ir5 Os1'
_cell_volume   415.63272699
_cell_formula_units_Z   1
loop_
 _symmetry_equiv_pos_site_id
 _symmetry_equiv_pos_as_xyz
  1  'x, y, z'
loop_
 _atom_site_type_symbol
 _atom_site_label
 _atom_site_symmetry_multiplicity
 _atom_site_fract_x
 _atom_site_fract_y
 _atom_site_fract_z
 _atom_site_occupancy
  Hf  Hf0  1  0.500001  0.249033  0.998392  1
  Hf  Hf1  1  0.500001  0.750967  0.998392  1
  Hf  Hf2  1  0.999986  0.249850  0.166337  1
  Hf  Hf3  1  0.999986  0.750150  0.166337  1
  Hf  Hf4  1  0.499991  0.250282  0.333340  1
  Hf  Hf5  1  0.499991  0.749718  0.333340  1
  Hf  Hf6  1  0.000001  0.249850  0.500336  1
  Hf  Hf7  1  0.000001  0.750151  0.500336  1
  Hf  Hf8  1  0.500010  0.249036  0.668268  1
  Hf  Hf9  1  0.500010  0.750964  0.668268  1
  Hf  Hf10  1  0.000014  0.247451  0.833328  1
  Hf  Hf11  1  0.000014  0.752549  0.833328  1
  Tc  Tc12  1  0.000004  0.000000  0.001004  1
  Tc  Tc13  1  0.499986  0.500001  0.167116  1
  Tc  Tc14  1  0.999990  0.000000  0.333343  1
  Tc  Tc15  1  0.500000  0.500001  0.499554  1
  Tc  Tc16  1  0.000012  0.000000  0.665650  1
  Tc  Tc17  1  0.500015  0.500001  0.833329  1
  Ir  Ir18  1  0.000000  0.500001  0.000321  1
  Ir  Ir19  1  0.499987  0.000000  0.167084  1
  Ir  Ir20  1  0.999991  0.500001  0.333339  1
  Ir  Ir21  1  0.500001  0.000000  0.499593  1
  Ir  Ir22  1  0.000010  0.500001  0.666341  1
  Os  Os23  1  0.500012  0.000000  0.833323  1
