# generated using pymatgen
data_Tb5Nd2Er(Si3Pd)4
_symmetry_space_group_name_H-M   'P 1'
_cell_length_a   8.19222800
_cell_length_b   8.19027211
_cell_length_c   8.23952000
_cell_angle_alpha   90.00000000
_cell_angle_beta   90.00000000
_cell_angle_gamma   120.00789998
_symmetry_Int_Tables_number   1
_chemical_formula_structural   Tb5Nd2Er(Si3Pd)4
_chemical_formula_sum   'Tb5 Nd2 Er1 Si12 Pd4'
_cell_volume   478.73847010
_cell_formula_units_Z   1
loop_
 _symmetry_equiv_pos_site_id
 _symmetry_equiv_pos_as_xyz
  1  'x, y, z'
loop_
 _atom_site_type_symbol
 _atom_site_label
 _atom_site_symmetry_multiplicity
 _atom_site_fract_x
 _atom_site_fract_y
 _atom_site_fract_z
 _atom_site_occupancy
  Tb  Tb0  1  0.499934  0.500129  0.750000  1
  Tb  Tb1  1  0.500107  0.499925  0.250000  1
  Tb  Tb2  1  0.000195  0.500129  0.750000  1
  Tb  Tb3  1  0.999818  0.499925  0.250000  1
  Tb  Tb4  1  0.499866  0.999732  0.750000  1
  Nd  Nd5  1  0.999977  0.999952  0.750000  1
  Nd  Nd6  1  0.000015  0.000029  0.250000  1
  Er  Er7  1  0.500132  0.000264  0.250000  1
  Si  Si8  1  0.833376  0.166357  0.999777  1
  Si  Si9  1  0.166633  0.833645  0.000493  1
  Si  Si10  1  0.332981  0.166357  0.999777  1
  Si  Si11  1  0.166633  0.833645  0.499507  1
  Si  Si12  1  0.667012  0.833645  0.000493  1
  Si  Si13  1  0.833376  0.166357  0.500223  1
  Si  Si14  1  0.833619  0.667237  0.000114  1
  Si  Si15  1  0.667012  0.833645  0.499507  1
  Si  Si16  1  0.166368  0.332736  0.000667  1
  Si  Si17  1  0.332981  0.166357  0.500223  1
  Si  Si18  1  0.166368  0.332736  0.499333  1
  Si  Si19  1  0.833619  0.667237  0.499886  1
  Pd  Pd20  1  0.666422  0.332844  0.999774  1
  Pd  Pd21  1  0.333567  0.667135  0.999791  1
  Pd  Pd22  1  0.333567  0.667135  0.500209  1
  Pd  Pd23  1  0.666422  0.332844  0.500226  1
