# generated using pymatgen
data_Na4PuUS6
_symmetry_space_group_name_H-M   'P 1'
_cell_length_a   6.99216274
_cell_length_b   6.99216260
_cell_length_c   7.00343807
_cell_angle_alpha   80.27533474
_cell_angle_beta   80.27533949
_cell_angle_gamma   120.10099813
_symmetry_Int_Tables_number   1
_chemical_formula_structural   Na4PuUS6
_chemical_formula_sum   'Na4 Pu1 U1 S6'
_cell_volume   278.75463118
_cell_formula_units_Z   1
loop_
 _symmetry_equiv_pos_site_id
 _symmetry_equiv_pos_as_xyz
  1  'x, y, z'
loop_
 _atom_site_type_symbol
 _atom_site_label
 _atom_site_symmetry_multiplicity
 _atom_site_fract_x
 _atom_site_fract_y
 _atom_site_fract_z
 _atom_site_occupancy
  Na  Na0  1  0.000134  0.999866  0.000000  1
  Na  Na1  1  0.500025  0.499975  0.500000  1
  Na  Na2  1  0.839697  0.160303  0.500000  1
  Na  Na3  1  0.159921  0.840079  0.500000  1
  Pu  Pu4  1  0.667892  0.332108  0.000000  1
  U  U5  1  0.332990  0.667010  0.000000  1
  S  S6  1  0.274292  0.285061  0.228530  1
  S  S7  1  0.427115  0.065762  0.772200  1
  S  S8  1  0.087117  0.438360  0.773827  1
  S  S9  1  0.714939  0.725708  0.771470  1
  S  S10  1  0.561640  0.912883  0.226173  1
  S  S11  1  0.934238  0.572885  0.227800  1
