# generated using pymatgen
data_Sr4DyTl(SbO6)2
_symmetry_space_group_name_H-M   'P 1'
_cell_length_a   5.86198176
_cell_length_b   5.94897710
_cell_length_c   8.31942742
_cell_angle_alpha   89.51966507
_cell_angle_beta   90.13818295
_cell_angle_gamma   90.03396097
_symmetry_Int_Tables_number   1
_chemical_formula_structural   Sr4DyTl(SbO6)2
_chemical_formula_sum   'Sr4 Dy1 Tl1 Sb2 O12'
_cell_volume   290.11060279
_cell_formula_units_Z   1
loop_
 _symmetry_equiv_pos_site_id
 _symmetry_equiv_pos_as_xyz
  1  'x, y, z'
loop_
 _atom_site_type_symbol
 _atom_site_label
 _atom_site_symmetry_multiplicity
 _atom_site_fract_x
 _atom_site_fract_y
 _atom_site_fract_z
 _atom_site_occupancy
  Sr  Sr0  1  0.011760  0.039195  0.248152  1
  Sr  Sr1  1  0.492821  0.540700  0.248570  1
  Sr  Sr2  1  0.507177  0.459298  0.751432  1
  Sr  Sr3  1  0.988239  0.960807  0.751847  1
  Dy  Dy4  1  0.999998  0.500000  0.500001  1
  Tl  Tl5  1  0.500002  0.000004  0.000000  1
  Sb  Sb6  1  0.000003  0.499996  0.999996  1
  Sb  Sb7  1  0.500005  0.999999  0.499998  1
  O  O8  1  0.278108  0.308539  0.045199  1
  O  O9  1  0.187498  0.777670  0.048152  1
  O  O10  1  0.919964  0.475525  0.235284  1
  O  O11  1  0.589436  0.970485  0.265920  1
  O  O12  1  0.302706  0.272967  0.454559  1
  O  O13  1  0.228150  0.799313  0.459416  1
  O  O14  1  0.771848  0.200686  0.540583  1
  O  O15  1  0.697292  0.727034  0.545441  1
  O  O16  1  0.410563  0.029515  0.734081  1
  O  O17  1  0.080035  0.524477  0.764717  1
  O  O18  1  0.812501  0.222331  0.951849  1
  O  O19  1  0.721894  0.691460  0.954802  1
