# generated using pymatgen
data_Y4SiBr6
_symmetry_space_group_name_H-M   'P 1'
_cell_length_a   4.06360500
_cell_length_b   13.23811500
_cell_length_c   14.02050000
_cell_angle_alpha   90.00000000
_cell_angle_beta   90.00000000
_cell_angle_gamma   90.00000000
_symmetry_Int_Tables_number   1
_chemical_formula_structural   Y4SiBr6
_chemical_formula_sum   'Y8 Si2 Br12'
_cell_volume   754.22537091
_cell_formula_units_Z   2
loop_
 _symmetry_equiv_pos_site_id
 _symmetry_equiv_pos_as_xyz
  1  'x, y, z'
loop_
 _atom_site_type_symbol
 _atom_site_label
 _atom_site_symmetry_multiplicity
 _atom_site_fract_x
 _atom_site_fract_y
 _atom_site_fract_z
 _atom_site_occupancy
  Y  Y0  1  0.500000  0.118422  0.340761  1
  Y  Y1  1  0.500000  0.881578  0.659239  1
  Y  Y2  1  0.500000  0.618422  0.159239  1
  Y  Y3  1  0.500000  0.381578  0.840761  1
  Y  Y4  1  0.000000  0.118256  0.578474  1
  Y  Y5  1  0.000000  0.881744  0.421526  1
  Y  Y6  1  0.000000  0.618256  0.921526  1
  Y  Y7  1  0.000000  0.381744  0.078474  1
  Si  Si8  1  0.500000  0.000000  0.500000  1
  Si  Si9  1  0.500000  0.500000  0.000000  1
  Br  Br10  1  0.500000  0.243529  0.162385  1
  Br  Br11  1  0.500000  0.756471  0.837615  1
  Br  Br12  1  0.500000  0.743529  0.337615  1
  Br  Br13  1  0.500000  0.256471  0.662385  1
  Br  Br14  1  0.000000  0.256233  0.411462  1
  Br  Br15  1  0.000000  0.743767  0.588538  1
  Br  Br16  1  0.000000  0.756233  0.088538  1
  Br  Br17  1  0.000000  0.243767  0.911462  1
  Br  Br18  1  0.000000  0.001230  0.242423  1
  Br  Br19  1  0.000000  0.998770  0.757577  1
  Br  Br20  1  0.000000  0.501230  0.257577  1
  Br  Br21  1  0.000000  0.498770  0.742423  1
