# generated using pymatgen
data_TaCo4B4Mo3
_symmetry_space_group_name_H-M   'P 1'
_cell_length_a   3.26744500
_cell_length_b   5.76923749
_cell_length_c   6.66641231
_cell_angle_alpha   89.76206383
_cell_angle_beta   90.00000000
_cell_angle_gamma   90.00000000
_symmetry_Int_Tables_number   1
_chemical_formula_structural   TaCo4B4Mo3
_chemical_formula_sum   'Ta1 Co4 B4 Mo3'
_cell_volume   125.66522954
_cell_formula_units_Z   1
loop_
 _symmetry_equiv_pos_site_id
 _symmetry_equiv_pos_as_xyz
  1  'x, y, z'
loop_
 _atom_site_type_symbol
 _atom_site_label
 _atom_site_symmetry_multiplicity
 _atom_site_fract_x
 _atom_site_fract_y
 _atom_site_fract_z
 _atom_site_occupancy
  Ta  Ta0  1  0.250000  0.527252  0.676611  1
  Co  Co1  1  0.750000  0.857018  0.556888  1
  Co  Co2  1  0.250000  0.142298  0.442472  1
  Co  Co3  1  0.750000  0.357249  0.941853  1
  Co  Co4  1  0.250000  0.645484  0.058482  1
  B  B5  1  0.250000  0.770604  0.372157  1
  B  B6  1  0.750000  0.223242  0.622436  1
  B  B7  1  0.250000  0.272274  0.125883  1
  B  B8  1  0.750000  0.732858  0.879658  1
  Mo  Mo9  1  0.750000  0.472296  0.321593  1
  Mo  Mo10  1  0.250000  0.026671  0.826636  1
  Mo  Mo11  1  0.750000  0.972754  0.175330  1
