# generated using pymatgen
data_YAl3CdNi
_symmetry_space_group_name_H-M   'P 1'
_cell_length_a   8.19486490
_cell_length_b   8.19486448
_cell_length_c   6.64035200
_cell_angle_alpha   90.00000000
_cell_angle_beta   90.00000000
_cell_angle_gamma   150.95074725
_symmetry_Int_Tables_number   1
_chemical_formula_structural   YAl3CdNi
_chemical_formula_sum   'Y2 Al6 Cd2 Ni2'
_cell_volume   216.53032465
_cell_formula_units_Z   2
loop_
 _symmetry_equiv_pos_site_id
 _symmetry_equiv_pos_as_xyz
  1  'x, y, z'
loop_
 _atom_site_type_symbol
 _atom_site_label
 _atom_site_symmetry_multiplicity
 _atom_site_fract_x
 _atom_site_fract_y
 _atom_site_fract_z
 _atom_site_occupancy
  Y  Y0  1  0.624420  0.375580  0.250000  1
  Y  Y1  1  0.375580  0.624420  0.750000  1
  Al  Al2  1  0.191031  0.808969  0.947098  1
  Al  Al3  1  0.808969  0.191031  0.052902  1
  Al  Al4  1  0.808969  0.191031  0.447098  1
  Al  Al5  1  0.191031  0.808969  0.552902  1
  Al  Al6  1  0.579334  0.420666  0.750000  1
  Al  Al7  1  0.420666  0.579334  0.250000  1
  Cd  Cd8  1  0.000000  0.000000  0.500000  1
  Cd  Cd9  1  0.000000  0.000000  0.000000  1
  Ni  Ni10  1  0.725509  0.274491  0.750000  1
  Ni  Ni11  1  0.274491  0.725509  0.250000  1
