# generated using pymatgen
data_La6MgCd22As
_symmetry_space_group_name_H-M   'P 1'
_cell_length_a   10.18645629
_cell_length_b   10.18645625
_cell_length_c   10.18645700
_cell_angle_alpha   60.00000081
_cell_angle_beta   60.00000093
_cell_angle_gamma   60.00000426
_symmetry_Int_Tables_number   1
_chemical_formula_structural   La6MgCd22As
_chemical_formula_sum   'La6 Mg1 Cd22 As1'
_cell_volume   747.40229689
_cell_formula_units_Z   1
loop_
 _symmetry_equiv_pos_site_id
 _symmetry_equiv_pos_as_xyz
  1  'x, y, z'
loop_
 _atom_site_type_symbol
 _atom_site_label
 _atom_site_symmetry_multiplicity
 _atom_site_fract_x
 _atom_site_fract_y
 _atom_site_fract_z
 _atom_site_occupancy
  La  La0  1  0.790789  0.790789  0.209211  1
  La  La1  1  0.209211  0.790789  0.209211  1
  La  La2  1  0.790789  0.209211  0.209211  1
  La  La3  1  0.209211  0.209211  0.790789  1
  La  La4  1  0.790789  0.209211  0.790789  1
  La  La5  1  0.209211  0.790789  0.790789  1
  Mg  Mg6  1  0.500000  0.500000  0.500000  1
  Cd  Cd7  1  0.830603  0.830603  0.508192  1
  Cd  Cd8  1  0.830603  0.508192  0.830603  1
  Cd  Cd9  1  0.508192  0.830603  0.830603  1
  Cd  Cd10  1  0.830603  0.830603  0.830603  1
  Cd  Cd11  1  0.169397  0.169397  0.491808  1
  Cd  Cd12  1  0.169397  0.491808  0.169397  1
  Cd  Cd13  1  0.491808  0.169397  0.169397  1
  Cd  Cd14  1  0.169397  0.169397  0.169397  1
  Cd  Cd15  1  0.620440  0.620440  0.138679  1
  Cd  Cd16  1  0.620440  0.138679  0.620440  1
  Cd  Cd17  1  0.138679  0.620440  0.620440  1
  Cd  Cd18  1  0.620440  0.620440  0.620440  1
  Cd  Cd19  1  0.379560  0.379560  0.861321  1
  Cd  Cd20  1  0.379560  0.861321  0.379560  1
  Cd  Cd21  1  0.861321  0.379560  0.379560  1
  Cd  Cd22  1  0.379560  0.379560  0.379560  1
  Cd  Cd23  1  0.000000  0.000000  0.500000  1
  Cd  Cd24  1  0.500000  0.000000  0.500000  1
  Cd  Cd25  1  0.000000  0.500000  0.500000  1
  Cd  Cd26  1  0.500000  0.500000  0.000000  1
  Cd  Cd27  1  0.000000  0.500000  0.000000  1
  Cd  Cd28  1  0.500000  0.000000  0.000000  1
  As  As29  1  0.000000  0.000000  0.000000  1
