# generated using pymatgen
data_PrDy9(Si2Hg)2
_symmetry_space_group_name_H-M   'P 1'
_cell_length_a   7.58372842
_cell_length_b   7.58372850
_cell_length_c   8.99083881
_cell_angle_alpha   114.97866744
_cell_angle_beta   114.97867114
_cell_angle_gamma   90.14417786
_symmetry_Int_Tables_number   1
_chemical_formula_structural   PrDy9(Si2Hg)2
_chemical_formula_sum   'Pr1 Dy9 Si4 Hg2'
_cell_volume   414.46397836
_cell_formula_units_Z   1
loop_
 _symmetry_equiv_pos_site_id
 _symmetry_equiv_pos_as_xyz
  1  'x, y, z'
loop_
 _atom_site_type_symbol
 _atom_site_label
 _atom_site_symmetry_multiplicity
 _atom_site_fract_x
 _atom_site_fract_y
 _atom_site_fract_z
 _atom_site_occupancy
  Pr  Pr0  1  0.529786  0.029786  0.712382  1
  Dy  Dy1  1  0.501198  0.499904  0.001679  1
  Dy  Dy2  1  0.999904  0.001198  0.001679  1
  Dy  Dy3  1  0.965981  0.813547  0.279530  1
  Dy  Dy4  1  0.313547  0.465981  0.279530  1
  Dy  Dy5  1  0.811718  0.311718  0.278615  1
  Dy  Dy6  1  0.466287  0.966287  0.277236  1
  Dy  Dy7  1  0.033154  0.189482  0.721928  1
  Dy  Dy8  1  0.689482  0.533154  0.721928  1
  Dy  Dy9  1  0.186260  0.686260  0.722601  1
  Si  Si10  1  0.624207  0.874866  0.003250  1
  Si  Si11  1  0.374866  0.124207  0.003250  1
  Si  Si12  1  0.880972  0.380972  0.003550  1
  Si  Si13  1  0.124332  0.624332  0.001705  1
  Hg  Hg14  1  0.754037  0.744269  0.495569  1
  Hg  Hg15  1  0.244269  0.254037  0.495569  1
