# generated using pymatgen
data_Ca7Ce(OsC2)4
_symmetry_space_group_name_H-M   'P 1'
_cell_length_a   5.18084800
_cell_length_b   6.52151105
_cell_length_c   10.45868562
_cell_angle_alpha   90.37736815
_cell_angle_beta   90.00000000
_cell_angle_gamma   90.00000000
_symmetry_Int_Tables_number   1
_chemical_formula_structural   Ca7Ce(OsC2)4
_chemical_formula_sum   'Ca7 Ce1 Os4 C8'
_cell_volume   353.35950190
_cell_formula_units_Z   1
loop_
 _symmetry_equiv_pos_site_id
 _symmetry_equiv_pos_as_xyz
  1  'x, y, z'
loop_
 _atom_site_type_symbol
 _atom_site_label
 _atom_site_symmetry_multiplicity
 _atom_site_fract_x
 _atom_site_fract_y
 _atom_site_fract_z
 _atom_site_occupancy
  Ca  Ca0  1  0.750000  0.302037  0.448904  1
  Ca  Ca1  1  0.750000  0.806618  0.050772  1
  Ca  Ca2  1  0.250000  0.190340  0.949171  1
  Ca  Ca3  1  0.250000  0.537672  0.213386  1
  Ca  Ca4  1  0.750000  0.461849  0.783862  1
  Ca  Ca5  1  0.750000  0.965838  0.728995  1
  Ca  Ca6  1  0.250000  0.037645  0.272897  1
  Ce  Ce7  1  0.250000  0.690193  0.549095  1
  Os  Os8  1  0.250000  0.729764  0.851604  1
  Os  Os9  1  0.750000  0.267194  0.149457  1
  Os  Os10  1  0.750000  0.768876  0.349141  1
  Os  Os11  1  0.250000  0.228641  0.651672  1
  C  C12  1  0.250000  0.470420  0.755948  1
  C  C13  1  0.750000  0.530538  0.240951  1
  C  C14  1  0.750000  0.028648  0.257928  1
  C  C15  1  0.250000  0.963509  0.738651  1
  C  C16  1  0.250000  0.792351  0.024236  1
  C  C17  1  0.750000  0.209276  0.975844  1
  C  C18  1  0.750000  0.711751  0.527062  1
  C  C19  1  0.250000  0.306840  0.480424  1
