# generated using pymatgen
data_Ho6Tm4Si5Bi
_symmetry_space_group_name_H-M   'P 1'
_cell_length_a   8.50623900
_cell_length_b   8.50623783
_cell_length_c   6.28765300
_cell_angle_alpha   90.00000000
_cell_angle_beta   90.00000000
_cell_angle_gamma   120.26268856
_symmetry_Int_Tables_number   1
_chemical_formula_structural   Ho6Tm4Si5Bi
_chemical_formula_sum   'Ho6 Tm4 Si5 Bi1'
_cell_volume   392.95119601
_cell_formula_units_Z   1
loop_
 _symmetry_equiv_pos_site_id
 _symmetry_equiv_pos_as_xyz
  1  'x, y, z'
loop_
 _atom_site_type_symbol
 _atom_site_label
 _atom_site_symmetry_multiplicity
 _atom_site_fract_x
 _atom_site_fract_y
 _atom_site_fract_z
 _atom_site_occupancy
  Ho  Ho0  1  0.767992  0.767992  0.250000  1
  Ho  Ho1  1  0.239752  0.984431  0.250000  1
  Ho  Ho2  1  0.984431  0.239752  0.250000  1
  Ho  Ho3  1  0.240003  0.240003  0.750000  1
  Ho  Ho4  1  0.754944  0.998483  0.750000  1
  Ho  Ho5  1  0.998483  0.754944  0.750000  1
  Tm  Tm6  1  0.677072  0.330671  0.504876  1
  Tm  Tm7  1  0.330671  0.677072  0.504876  1
  Tm  Tm8  1  0.330671  0.677072  0.995124  1
  Tm  Tm9  1  0.677072  0.330671  0.995124  1
  Si  Si10  1  0.603428  0.998519  0.250000  1
  Si  Si11  1  0.998519  0.603428  0.250000  1
  Si  Si12  1  0.606641  0.606641  0.750000  1
  Si  Si13  1  0.393781  0.002782  0.750000  1
  Si  Si14  1  0.002782  0.393781  0.750000  1
  Bi  Bi15  1  0.393759  0.393759  0.250000  1
