# generated using pymatgen
data_Nd2Er8In8Pd3Pt
_symmetry_space_group_name_H-M   'P 1'
_cell_length_a   3.60607800
_cell_length_b   8.18155384
_cell_length_c   18.35027979
_cell_angle_alpha   90.12445076
_cell_angle_beta   90.00000000
_cell_angle_gamma   90.00000000
_symmetry_Int_Tables_number   1
_chemical_formula_structural   Nd2Er8In8Pd3Pt
_chemical_formula_sum   'Nd2 Er8 In8 Pd3 Pt1'
_cell_volume   541.39292356
_cell_formula_units_Z   1
loop_
 _symmetry_equiv_pos_site_id
 _symmetry_equiv_pos_as_xyz
  1  'x, y, z'
loop_
 _atom_site_type_symbol
 _atom_site_label
 _atom_site_symmetry_multiplicity
 _atom_site_fract_x
 _atom_site_fract_y
 _atom_site_fract_z
 _atom_site_occupancy
  Nd  Nd0  1  0.000000  0.000086  0.000194  1
  Nd  Nd1  1  0.000000  0.500269  0.499960  1
  Er  Er2  1  0.000000  0.121475  0.414615  1
  Er  Er3  1  0.000000  0.878244  0.585103  1
  Er  Er4  1  0.000000  0.378756  0.914972  1
  Er  Er5  1  0.000000  0.620961  0.085925  1
  Er  Er6  1  0.000000  0.245450  0.218561  1
  Er  Er7  1  0.000000  0.757819  0.781476  1
  Er  Er8  1  0.000000  0.257986  0.718686  1
  Er  Er9  1  0.000000  0.738916  0.280422  1
  In  In10  1  0.500000  0.421077  0.348033  1
  In  In11  1  0.500000  0.578640  0.652396  1
  In  In12  1  0.500000  0.078649  0.847675  1
  In  In13  1  0.500000  0.922176  0.152350  1
  In  In14  1  0.500000  0.300816  0.067350  1
  In  In15  1  0.500000  0.698758  0.932323  1
  In  In16  1  0.500000  0.198726  0.567647  1
  In  In17  1  0.500000  0.801276  0.432323  1
  Pd  Pd18  1  0.500000  0.026006  0.303613  1
  Pd  Pd19  1  0.500000  0.973945  0.696385  1
  Pd  Pd20  1  0.500000  0.473933  0.803549  1
  Pt  Pt21  1  0.500000  0.526036  0.196441  1
