# generated using pymatgen
data_CrSb3F18
_symmetry_space_group_name_H-M   'P 1'
_cell_length_a   8.81770900
_cell_length_b   8.81770875
_cell_length_c   9.56125900
_cell_angle_alpha   90.00000000
_cell_angle_beta   90.00000000
_cell_angle_gamma   119.99999718
_symmetry_Int_Tables_number   1
_chemical_formula_structural   CrSb3F18
_chemical_formula_sum   'Cr2 Sb6 F36'
_cell_volume   643.80928988
_cell_formula_units_Z   2
loop_
 _symmetry_equiv_pos_site_id
 _symmetry_equiv_pos_as_xyz
  1  'x, y, z'
loop_
 _atom_site_type_symbol
 _atom_site_label
 _atom_site_symmetry_multiplicity
 _atom_site_fract_x
 _atom_site_fract_y
 _atom_site_fract_z
 _atom_site_occupancy
  Cr  Cr0  1  0.000000  0.000000  0.000000  1
  Cr  Cr1  1  0.000000  0.000000  0.500000  1
  Sb  Sb2  1  0.660249  0.000000  0.750000  1
  Sb  Sb3  1  0.339751  0.339751  0.750000  1
  Sb  Sb4  1  0.000000  0.660249  0.750000  1
  Sb  Sb5  1  0.660249  0.660249  0.250000  1
  Sb  Sb6  1  0.000000  0.339751  0.250000  1
  Sb  Sb7  1  0.339751  0.000000  0.250000  1
  F  F8  1  0.474109  0.899828  0.877880  1
  F  F9  1  0.425719  0.525891  0.877880  1
  F  F10  1  0.100172  0.574281  0.877880  1
  F  F11  1  0.474109  0.574281  0.377880  1
  F  F12  1  0.100172  0.525891  0.377880  1
  F  F13  1  0.425719  0.899828  0.377880  1
  F  F14  1  0.525891  0.100172  0.122120  1
  F  F15  1  0.574281  0.474109  0.122120  1
  F  F16  1  0.899828  0.425719  0.122120  1
  F  F17  1  0.525891  0.425719  0.622120  1
  F  F18  1  0.899828  0.474109  0.622120  1
  F  F19  1  0.574281  0.100172  0.622120  1
  F  F20  1  0.795188  0.917900  0.876854  1
  F  F21  1  0.122712  0.204812  0.876854  1
  F  F22  1  0.082100  0.877288  0.876854  1
  F  F23  1  0.795188  0.877288  0.376854  1
  F  F24  1  0.082100  0.204812  0.376854  1
  F  F25  1  0.122712  0.917900  0.376854  1
  F  F26  1  0.204812  0.082100  0.123146  1
  F  F27  1  0.877288  0.795188  0.123146  1
  F  F28  1  0.917900  0.122712  0.123146  1
  F  F29  1  0.204812  0.122712  0.623146  1
  F  F30  1  0.917900  0.795188  0.623146  1
  F  F31  1  0.877288  0.082100  0.623146  1
  F  F32  1  0.795006  0.211254  0.848023  1
  F  F33  1  0.416248  0.204994  0.848023  1
  F  F34  1  0.788746  0.583752  0.848023  1
  F  F35  1  0.795006  0.583752  0.348023  1
  F  F36  1  0.788746  0.204994  0.348023  1
  F  F37  1  0.416248  0.211254  0.348023  1
  F  F38  1  0.204994  0.788746  0.151977  1
  F  F39  1  0.583752  0.795006  0.151977  1
  F  F40  1  0.211254  0.416248  0.151977  1
  F  F41  1  0.204994  0.416248  0.651977  1
  F  F42  1  0.211254  0.795006  0.651977  1
  F  F43  1  0.583752  0.788746  0.651977  1
