# generated using pymatgen
data_Er2TmLu(B6Os)2
_symmetry_space_group_name_H-M   'P 1'
_cell_length_a   3.61649100
_cell_length_b   9.06967309
_cell_length_c   11.44841811
_cell_angle_alpha   89.98404378
_cell_angle_beta   90.00000000
_cell_angle_gamma   90.00000000
_symmetry_Int_Tables_number   1
_chemical_formula_structural   Er2TmLu(B6Os)2
_chemical_formula_sum   'Er4 Tm2 Lu2 B24 Os4'
_cell_volume   375.51257690
_cell_formula_units_Z   2
loop_
 _symmetry_equiv_pos_site_id
 _symmetry_equiv_pos_as_xyz
  1  'x, y, z'
loop_
 _atom_site_type_symbol
 _atom_site_label
 _atom_site_symmetry_multiplicity
 _atom_site_fract_x
 _atom_site_fract_y
 _atom_site_fract_z
 _atom_site_occupancy
  Er  Er0  1  0.000000  0.321063  0.414145  1
  Er  Er1  1  0.000000  0.678937  0.585855  1
  Er  Er2  1  0.000000  0.821440  0.086132  1
  Er  Er3  1  0.000000  0.178560  0.913868  1
  Tm  Tm4  1  0.000000  0.443868  0.127036  1
  Tm  Tm5  1  0.000000  0.556132  0.872963  1
  Lu  Lu6  1  0.000000  0.943896  0.373357  1
  Lu  Lu7  1  0.000000  0.056104  0.626644  1
  B  B8  1  0.500000  0.554018  0.433568  1
  B  B9  1  0.500000  0.445982  0.566432  1
  B  B10  1  0.500000  0.053612  0.066751  1
  B  B11  1  0.500000  0.946388  0.933249  1
  B  B12  1  0.500000  0.749629  0.420165  1
  B  B13  1  0.500000  0.250371  0.579835  1
  B  B14  1  0.500000  0.248578  0.080102  1
  B  B15  1  0.500000  0.751422  0.919898  1
  B  B16  1  0.500000  0.792039  0.266260  1
  B  B17  1  0.500000  0.207961  0.733740  1
  B  B18  1  0.500000  0.291240  0.234338  1
  B  B19  1  0.500000  0.708759  0.765662  1
  B  B20  1  0.500000  0.631384  0.184842  1
  B  B21  1  0.500000  0.368616  0.815158  1
  B  B22  1  0.500000  0.130452  0.315762  1
  B  B23  1  0.500000  0.869548  0.684238  1
  B  B24  1  0.500000  0.981808  0.213613  1
  B  B25  1  0.500000  0.018192  0.786387  1
  B  B26  1  0.500000  0.482334  0.287040  1
  B  B27  1  0.500000  0.517666  0.712960  1
  B  B28  1  0.500000  0.606285  0.029346  1
  B  B29  1  0.500000  0.393715  0.970654  1
  B  B30  1  0.500000  0.104382  0.471108  1
  B  B31  1  0.500000  0.895618  0.528892  1
  Os  Os32  1  0.000000  0.637997  0.321699  1
  Os  Os33  1  0.000000  0.362003  0.678301  1
  Os  Os34  1  0.000000  0.136816  0.179393  1
  Os  Os35  1  0.000000  0.863184  0.820607  1
