# generated using pymatgen
data_Ho20Bi8IrRh3
_symmetry_space_group_name_H-M   'P 1'
_cell_length_a   7.99336110
_cell_length_b   8.98125300
_cell_length_c   12.43792552
_cell_angle_alpha   90.00000000
_cell_angle_beta   90.06501937
_cell_angle_gamma   90.00000000
_symmetry_Int_Tables_number   1
_chemical_formula_structural   Ho20Bi8IrRh3
_chemical_formula_sum   'Ho20 Bi8 Ir1 Rh3'
_cell_volume   892.92305341
_cell_formula_units_Z   1
loop_
 _symmetry_equiv_pos_site_id
 _symmetry_equiv_pos_as_xyz
  1  'x, y, z'
loop_
 _atom_site_type_symbol
 _atom_site_label
 _atom_site_symmetry_multiplicity
 _atom_site_fract_x
 _atom_site_fract_y
 _atom_site_fract_z
 _atom_site_occupancy
  Ho  Ho0  1  0.342756  0.750000  0.705389  1
  Ho  Ho1  1  0.657802  0.250000  0.294225  1
  Ho  Ho2  1  0.842066  0.250000  0.794197  1
  Ho  Ho3  1  0.157754  0.750000  0.205654  1
  Ho  Ho4  1  0.879776  0.750000  0.806636  1
  Ho  Ho5  1  0.120687  0.250000  0.193115  1
  Ho  Ho6  1  0.379505  0.250000  0.693295  1
  Ho  Ho7  1  0.619770  0.750000  0.306706  1
  Ho  Ho8  1  0.678537  0.543311  0.565181  1
  Ho  Ho9  1  0.322430  0.459832  0.435099  1
  Ho  Ho10  1  0.177418  0.457192  0.934407  1
  Ho  Ho11  1  0.322430  0.040168  0.435099  1
  Ho  Ho12  1  0.822063  0.541833  0.065456  1
  Ho  Ho13  1  0.678537  0.956689  0.565181  1
  Ho  Ho14  1  0.822063  0.958167  0.065456  1
  Ho  Ho15  1  0.177418  0.042808  0.934407  1
  Ho  Ho16  1  0.051189  0.750000  0.499033  1
  Ho  Ho17  1  0.949775  0.250000  0.501244  1
  Ho  Ho18  1  0.547906  0.250000  0.000707  1
  Ho  Ho19  1  0.450601  0.750000  0.998568  1
  Bi  Bi20  1  0.570933  0.509598  0.826492  1
  Bi  Bi21  1  0.429218  0.490746  0.173283  1
  Bi  Bi22  1  0.071063  0.490255  0.672995  1
  Bi  Bi23  1  0.429218  0.009254  0.173283  1
  Bi  Bi24  1  0.928960  0.509756  0.327291  1
  Bi  Bi25  1  0.570933  0.990402  0.826492  1
  Bi  Bi26  1  0.928960  0.990244  0.327291  1
  Bi  Bi27  1  0.071063  0.009745  0.672995  1
  Ir  Ir28  1  0.430016  0.750000  0.491120  1
  Rh  Rh29  1  0.070540  0.750000  0.990471  1
  Rh  Rh30  1  0.928244  0.250000  0.009955  1
  Rh  Rh31  1  0.570370  0.250000  0.509276  1
