# generated using pymatgen
data_Er3Tm5(Si3Pt)4
_symmetry_space_group_name_H-M   'P 1'
_cell_length_a   8.14478600
_cell_length_b   8.14766483
_cell_length_c   7.80542000
_cell_angle_alpha   90.00000000
_cell_angle_beta   90.00000000
_cell_angle_gamma   119.98832068
_symmetry_Int_Tables_number   1
_chemical_formula_structural   Er3Tm5(Si3Pt)4
_chemical_formula_sum   'Er3 Tm5 Si12 Pt4'
_cell_volume   448.63261314
_cell_formula_units_Z   1
loop_
 _symmetry_equiv_pos_site_id
 _symmetry_equiv_pos_as_xyz
  1  'x, y, z'
loop_
 _atom_site_type_symbol
 _atom_site_label
 _atom_site_symmetry_multiplicity
 _atom_site_fract_x
 _atom_site_fract_y
 _atom_site_fract_z
 _atom_site_occupancy
  Er  Er0  1  0.510920  0.021842  0.250000  1
  Er  Er1  1  0.000019  0.000037  0.750000  1
  Er  Er2  1  0.999997  0.999995  0.250000  1
  Tm  Tm3  1  0.978905  0.489498  0.250000  1
  Tm  Tm4  1  0.510593  0.489498  0.250000  1
  Tm  Tm5  1  0.489365  0.978730  0.750000  1
  Tm  Tm6  1  0.021458  0.510627  0.750000  1
  Tm  Tm7  1  0.489170  0.510627  0.750000  1
  Si  Si8  1  0.165238  0.834677  0.499055  1
  Si  Si9  1  0.165051  0.330100  0.499008  1
  Si  Si10  1  0.669440  0.834677  0.499055  1
  Si  Si11  1  0.330573  0.165349  0.998682  1
  Si  Si12  1  0.834809  0.669620  0.500965  1
  Si  Si13  1  0.834776  0.165349  0.998682  1
  Si  Si14  1  0.834809  0.669620  0.999035  1
  Si  Si15  1  0.165051  0.330100  0.000992  1
  Si  Si16  1  0.669440  0.834677  0.000945  1
  Si  Si17  1  0.330573  0.165349  0.501318  1
  Si  Si18  1  0.834776  0.165349  0.501318  1
  Si  Si19  1  0.165238  0.834677  0.000945  1
  Pt  Pt20  1  0.333017  0.666034  0.036485  1
  Pt  Pt21  1  0.666883  0.333766  0.961814  1
  Pt  Pt22  1  0.666883  0.333766  0.538186  1
  Pt  Pt23  1  0.333017  0.666034  0.463515  1
