# generated using pymatgen
data_Pr3Ho5(CdIr)2
_symmetry_space_group_name_H-M   'P 1'
_cell_length_a   9.75974739
_cell_length_b   9.75974794
_cell_length_c   9.75974700
_cell_angle_alpha   59.99999980
_cell_angle_beta   59.99999794
_cell_angle_gamma   60.00000244
_symmetry_Int_Tables_number   1
_chemical_formula_structural   Pr3Ho5(CdIr)2
_chemical_formula_sum   'Pr6 Ho10 Cd4 Ir4'
_cell_volume   657.35616612
_cell_formula_units_Z   2
loop_
 _symmetry_equiv_pos_site_id
 _symmetry_equiv_pos_as_xyz
  1  'x, y, z'
loop_
 _atom_site_type_symbol
 _atom_site_label
 _atom_site_symmetry_multiplicity
 _atom_site_fract_x
 _atom_site_fract_y
 _atom_site_fract_z
 _atom_site_occupancy
  Pr  Pr0  1  0.941081  0.558919  0.558919  1
  Pr  Pr1  1  0.558919  0.941081  0.941081  1
  Pr  Pr2  1  0.558919  0.941081  0.558919  1
  Pr  Pr3  1  0.941081  0.558919  0.941081  1
  Pr  Pr4  1  0.558919  0.558919  0.941081  1
  Pr  Pr5  1  0.941081  0.941081  0.558919  1
  Ho  Ho6  1  0.347005  0.347005  0.347005  1
  Ho  Ho7  1  0.347005  0.347005  0.958984  1
  Ho  Ho8  1  0.347005  0.958984  0.347005  1
  Ho  Ho9  1  0.958984  0.347005  0.347005  1
  Ho  Ho10  1  0.812728  0.187272  0.187272  1
  Ho  Ho11  1  0.187272  0.812728  0.812728  1
  Ho  Ho12  1  0.187272  0.812728  0.187272  1
  Ho  Ho13  1  0.812728  0.187272  0.812728  1
  Ho  Ho14  1  0.187272  0.187272  0.812728  1
  Ho  Ho15  1  0.812728  0.812728  0.187272  1
  Cd  Cd16  1  0.579183  0.579183  0.579183  1
  Cd  Cd17  1  0.579183  0.579183  0.262449  1
  Cd  Cd18  1  0.579183  0.262449  0.579183  1
  Cd  Cd19  1  0.262449  0.579183  0.579183  1
  Ir  Ir20  1  0.141166  0.141166  0.141166  1
  Ir  Ir21  1  0.141166  0.141166  0.576503  1
  Ir  Ir22  1  0.141166  0.576503  0.141166  1
  Ir  Ir23  1  0.576503  0.141166  0.141166  1
