# generated using pymatgen
data_Lu3In3CuNiPt
_symmetry_space_group_name_H-M   'P 1'
_cell_length_a   7.55040700
_cell_length_b   7.55040738
_cell_length_c   3.70222300
_cell_angle_alpha   90.00000000
_cell_angle_beta   90.00000000
_cell_angle_gamma   119.99999395
_symmetry_Int_Tables_number   1
_chemical_formula_structural   Lu3In3CuNiPt
_chemical_formula_sum   'Lu3 In3 Cu1 Ni1 Pt1'
_cell_volume   182.78223352
_cell_formula_units_Z   1
loop_
 _symmetry_equiv_pos_site_id
 _symmetry_equiv_pos_as_xyz
  1  'x, y, z'
loop_
 _atom_site_type_symbol
 _atom_site_label
 _atom_site_symmetry_multiplicity
 _atom_site_fract_x
 _atom_site_fract_y
 _atom_site_fract_z
 _atom_site_occupancy
  Lu  Lu0  1  0.011242  0.600358  0.500000  1
  Lu  Lu1  1  0.589116  0.988758  0.500000  1
  Lu  Lu2  1  0.399642  0.410884  0.500000  1
  In  In3  1  0.989585  0.250139  0.000000  1
  In  In4  1  0.260553  0.010415  0.000000  1
  In  In5  1  0.749861  0.739447  0.000000  1
  Cu  Cu6  1  0.666667  0.333333  0.000000  1
  Ni  Ni7  1  0.000000  0.000000  0.500000  1
  Pt  Pt8  1  0.333333  0.666667  0.000000  1
