# generated using pymatgen
data_Sc2Al9PtRh2
_symmetry_space_group_name_H-M   'P 1'
_cell_length_a   7.48159017
_cell_length_b   7.48158130
_cell_length_c   9.32081712
_cell_angle_alpha   89.96160693
_cell_angle_beta   89.96170648
_cell_angle_gamma   119.77013438
_symmetry_Int_Tables_number   1
_chemical_formula_structural   Sc2Al9PtRh2
_chemical_formula_sum   'Sc4 Al18 Pt2 Rh4'
_cell_volume   452.86925844
_cell_formula_units_Z   2
loop_
 _symmetry_equiv_pos_site_id
 _symmetry_equiv_pos_as_xyz
  1  'x, y, z'
loop_
 _atom_site_type_symbol
 _atom_site_label
 _atom_site_symmetry_multiplicity
 _atom_site_fract_x
 _atom_site_fract_y
 _atom_site_fract_z
 _atom_site_occupancy
  Sc  Sc0  1  0.996489  0.668935  0.250774  1
  Sc  Sc1  1  0.003496  0.331059  0.749224  1
  Sc  Sc2  1  0.668942  0.996494  0.250775  1
  Sc  Sc3  1  0.331056  0.003494  0.749227  1
  Al  Al4  1  0.329658  0.329659  0.558850  1
  Al  Al5  1  0.670344  0.670345  0.441144  1
  Al  Al6  1  0.672604  0.672606  0.064785  1
  Al  Al7  1  0.327397  0.327398  0.935226  1
  Al  Al8  1  0.339361  0.549827  0.253612  1
  Al  Al9  1  0.660641  0.450173  0.746388  1
  Al  Al10  1  0.549825  0.339361  0.253613  1
  Al  Al11  1  0.450171  0.660640  0.746388  1
  Al  Al12  1  0.998112  0.330484  0.079758  1
  Al  Al13  1  0.001889  0.669516  0.920247  1
  Al  Al14  1  0.003119  0.665942  0.576723  1
  Al  Al15  1  0.334059  0.996883  0.423273  1
  Al  Al16  1  0.996884  0.334058  0.423274  1
  Al  Al17  1  0.665944  0.003119  0.576723  1
  Al  Al18  1  0.669517  0.001890  0.920247  1
  Al  Al19  1  0.330484  0.998111  0.079759  1
  Al  Al20  1  0.119693  0.119694  0.250873  1
  Al  Al21  1  0.880310  0.880311  0.749127  1
  Pt  Pt22  1  0.672250  0.327755  0.000000  1
  Pt  Pt23  1  0.327750  0.672247  0.999999  1
  Rh  Rh24  1  0.999998  0.999999  0.000002  1
  Rh  Rh25  1  0.999998  0.999994  0.499993  1
  Rh  Rh26  1  0.327971  0.672029  0.499998  1
  Rh  Rh27  1  0.672035  0.327980  0.499998  1
