# generated using pymatgen
data_TbHo4(In2Pd)2
_symmetry_space_group_name_H-M   'P 1'
_cell_length_a   3.61552700
_cell_length_b   8.14506800
_cell_length_c   18.29480400
_cell_angle_alpha   90.00000000
_cell_angle_beta   90.00000000
_cell_angle_gamma   90.00000000
_symmetry_Int_Tables_number   1
_chemical_formula_structural   TbHo4(In2Pd)2
_chemical_formula_sum   'Tb2 Ho8 In8 Pd4'
_cell_volume   538.75843734
_cell_formula_units_Z   2
loop_
 _symmetry_equiv_pos_site_id
 _symmetry_equiv_pos_as_xyz
  1  'x, y, z'
loop_
 _atom_site_type_symbol
 _atom_site_label
 _atom_site_symmetry_multiplicity
 _atom_site_fract_x
 _atom_site_fract_y
 _atom_site_fract_z
 _atom_site_occupancy
  Tb  Tb0  1  0.000000  0.500000  0.500000  1
  Tb  Tb1  1  0.000000  0.000000  0.000000  1
  Ho  Ho2  1  0.000000  0.740191  0.279934  1
  Ho  Ho3  1  0.000000  0.259809  0.720066  1
  Ho  Ho4  1  0.000000  0.759809  0.779934  1
  Ho  Ho5  1  0.000000  0.240191  0.220066  1
  Ho  Ho6  1  0.000000  0.615181  0.083035  1
  Ho  Ho7  1  0.000000  0.384819  0.916965  1
  Ho  Ho8  1  0.000000  0.884819  0.583035  1
  Ho  Ho9  1  0.000000  0.115181  0.416965  1
  In  In10  1  0.500000  0.710380  0.931268  1
  In  In11  1  0.500000  0.289620  0.068732  1
  In  In12  1  0.500000  0.789620  0.431268  1
  In  In13  1  0.500000  0.210380  0.568732  1
  In  In14  1  0.500000  0.581524  0.649775  1
  In  In15  1  0.500000  0.418476  0.350225  1
  In  In16  1  0.500000  0.918476  0.149775  1
  In  In17  1  0.500000  0.081524  0.850225  1
  Pd  Pd18  1  0.500000  0.524148  0.196031  1
  Pd  Pd19  1  0.500000  0.475852  0.803969  1
  Pd  Pd20  1  0.500000  0.975852  0.696031  1
  Pd  Pd21  1  0.500000  0.024148  0.303969  1
