# generated using pymatgen
data_Pr2TcRuF14
_symmetry_space_group_name_H-M   'P 1'
_cell_length_a   5.72049500
_cell_length_b   9.25716327
_cell_length_c   12.39802434
_cell_angle_alpha   62.26125021
_cell_angle_beta   90.00000000
_cell_angle_gamma   90.00000000
_symmetry_Int_Tables_number   1
_chemical_formula_structural   Pr2TcRuF14
_chemical_formula_sum   'Pr4 Tc2 Ru2 F28'
_cell_volume   581.09357987
_cell_formula_units_Z   2
loop_
 _symmetry_equiv_pos_site_id
 _symmetry_equiv_pos_as_xyz
  1  'x, y, z'
loop_
 _atom_site_type_symbol
 _atom_site_label
 _atom_site_symmetry_multiplicity
 _atom_site_fract_x
 _atom_site_fract_y
 _atom_site_fract_z
 _atom_site_occupancy
  Pr  Pr0  1  0.758707  0.810871  0.763583  1
  Pr  Pr1  1  0.258707  0.189129  0.736417  1
  Pr  Pr2  1  0.241389  0.192132  0.231399  1
  Pr  Pr3  1  0.741389  0.807868  0.268601  1
  Tc  Tc4  1  0.244585  0.726937  0.042371  1
  Tc  Tc5  1  0.744585  0.273063  0.457629  1
  Ru  Ru6  1  0.755109  0.273847  0.956609  1
  Ru  Ru7  1  0.255109  0.726153  0.543391  1
  F  F8  1  0.437753  0.708796  0.918606  1
  F  F9  1  0.937753  0.291204  0.581394  1
  F  F10  1  0.561485  0.290499  0.081743  1
  F  F11  1  0.061485  0.709501  0.418257  1
  F  F12  1  0.455999  0.282450  0.541753  1
  F  F13  1  0.955999  0.717550  0.958247  1
  F  F14  1  0.542952  0.717348  0.458008  1
  F  F15  1  0.042952  0.282652  0.041992  1
  F  F16  1  0.763319  0.507027  0.863910  1
  F  F17  1  0.263319  0.492973  0.636090  1
  F  F18  1  0.235116  0.488152  0.138665  1
  F  F19  1  0.735116  0.511848  0.361335  1
  F  F20  1  0.758660  0.041726  0.047580  1
  F  F21  1  0.258660  0.958274  0.452420  1
  F  F22  1  0.240965  0.965352  0.949009  1
  F  F23  1  0.740965  0.034648  0.550991  1
  F  F24  1  0.973103  0.729164  0.633653  1
  F  F25  1  0.473103  0.270836  0.866347  1
  F  F26  1  0.027067  0.266821  0.369183  1
  F  F27  1  0.527067  0.733179  0.130817  1
  F  F28  1  0.054721  0.745322  0.168140  1
  F  F29  1  0.554721  0.254678  0.331860  1
  F  F30  1  0.946027  0.257861  0.829668  1
  F  F31  1  0.446027  0.742139  0.670332  1
  F  F32  1  0.411210  0.968508  0.230537  1
  F  F33  1  0.911210  0.031492  0.269463  1
  F  F34  1  0.591834  0.032135  0.769087  1
  F  F35  1  0.091834  0.967865  0.730913  1
