# generated using pymatgen
data_La4Sn12Pd7Au
_symmetry_space_group_name_H-M   'P 1'
_cell_length_a   6.22853600
_cell_length_b   6.39121212
_cell_length_c   14.15538626
_cell_angle_alpha   89.97785014
_cell_angle_beta   90.00000000
_cell_angle_gamma   90.00000000
_symmetry_Int_Tables_number   1
_chemical_formula_structural   La4Sn12Pd7Au
_chemical_formula_sum   'La4 Sn12 Pd7 Au1'
_cell_volume   563.49608473
_cell_formula_units_Z   1
loop_
 _symmetry_equiv_pos_site_id
 _symmetry_equiv_pos_as_xyz
  1  'x, y, z'
loop_
 _atom_site_type_symbol
 _atom_site_label
 _atom_site_symmetry_multiplicity
 _atom_site_fract_x
 _atom_site_fract_y
 _atom_site_fract_z
 _atom_site_occupancy
  La  La0  1  0.250000  0.514931  0.798977  1
  La  La1  1  0.750000  0.486161  0.202863  1
  La  La2  1  0.750000  0.985363  0.798766  1
  La  La3  1  0.250000  0.013707  0.201084  1
  Sn  Sn4  1  0.250000  0.020786  0.686452  1
  Sn  Sn5  1  0.750000  0.982926  0.306144  1
  Sn  Sn6  1  0.750000  0.480716  0.694751  1
  Sn  Sn7  1  0.250000  0.517105  0.306533  1
  Sn  Sn8  1  0.250000  0.894411  0.438965  1
  Sn  Sn9  1  0.750000  0.104675  0.559722  1
  Sn  Sn10  1  0.750000  0.605351  0.439450  1
  Sn  Sn11  1  0.250000  0.399592  0.558509  1
  Sn  Sn12  1  0.502418  0.746343  0.998804  1
  Sn  Sn13  1  0.997423  0.252113  0.006757  1
  Sn  Sn14  1  0.502577  0.252113  0.006757  1
  Sn  Sn15  1  0.997582  0.746343  0.998804  1
  Pd  Pd16  1  0.750000  0.984854  0.117083  1
  Pd  Pd17  1  0.750000  0.485195  0.883931  1
  Pd  Pd18  1  0.250000  0.514255  0.117550  1
  Pd  Pd19  1  0.502232  0.748430  0.592690  1
  Pd  Pd20  1  0.999767  0.249892  0.407428  1
  Pd  Pd21  1  0.500233  0.249892  0.407428  1
  Pd  Pd22  1  0.997768  0.748430  0.592690  1
  Au  Au23  1  0.250000  0.016420  0.877864  1
