# generated using pymatgen
data_Fe2MoP3PbO12
_symmetry_space_group_name_H-M   'P 1'
_cell_length_a   9.38961975
_cell_length_b   9.38961930
_cell_length_c   9.38961992
_cell_angle_alpha   138.56227340
_cell_angle_beta   108.15506931
_cell_angle_gamma   86.48755315
_symmetry_Int_Tables_number   1
_chemical_formula_structural   Fe2MoP3PbO12
_chemical_formula_sum   'Fe4 Mo2 P6 Pb2 O24'
_cell_volume   500.66396510
_cell_formula_units_Z   2
loop_
 _symmetry_equiv_pos_site_id
 _symmetry_equiv_pos_as_xyz
  1  'x, y, z'
loop_
 _atom_site_type_symbol
 _atom_site_label
 _atom_site_symmetry_multiplicity
 _atom_site_fract_x
 _atom_site_fract_y
 _atom_site_fract_z
 _atom_site_occupancy
  Fe  Fe0  1  0.617002  0.617002  0.500000  1
  Fe  Fe1  1  0.382998  0.382998  0.500000  1
  Fe  Fe2  1  0.117002  0.617002  0.000000  1
  Fe  Fe3  1  0.882998  0.382998  0.000000  1
  Mo  Mo4  1  0.000000  0.000000  0.000000  1
  Mo  Mo5  1  0.500000  0.500000  0.000000  1
  P  P6  1  0.324640  0.824640  0.000000  1
  P  P7  1  0.750000  0.651581  0.901581  1
  P  P8  1  0.175360  0.175360  0.500000  1
  P  P9  1  0.675360  0.175360  0.000000  1
  P  P10  1  0.250000  0.348419  0.098419  1
  P  P11  1  0.824640  0.824640  0.500000  1
  Pb  Pb12  1  0.750000  0.146019  0.396019  1
  Pb  Pb13  1  0.250000  0.853981  0.603981  1
  O  O14  1  0.577886  0.928476  0.781345  1
  O  O15  1  0.077886  0.296541  0.649410  1
  O  O16  1  0.840647  0.882371  0.041725  1
  O  O17  1  0.352869  0.703459  0.781345  1
  O  O18  1  0.143561  0.210562  0.354193  1
  O  O19  1  0.340647  0.298922  0.958275  1
  O  O20  1  0.643632  0.710633  0.354193  1
  O  O21  1  0.856439  0.789438  0.645807  1
  O  O22  1  0.363525  0.489358  0.352883  1
  O  O23  1  0.147131  0.928476  0.350590  1
  O  O24  1  0.643561  0.289367  0.932999  1
  O  O25  1  0.636475  0.510642  0.647117  1
  O  O26  1  0.856368  0.210562  0.067001  1
  O  O27  1  0.852869  0.071524  0.649410  1
  O  O28  1  0.356439  0.710633  0.067001  1
  O  O29  1  0.356368  0.289367  0.645807  1
  O  O30  1  0.659353  0.701078  0.041725  1
  O  O31  1  0.922114  0.703459  0.350590  1
  O  O32  1  0.159353  0.117628  0.958275  1
  O  O33  1  0.863525  0.510642  0.874168  1
  O  O34  1  0.136475  0.489358  0.125832  1
  O  O35  1  0.143632  0.789438  0.932999  1
  O  O36  1  0.647131  0.296541  0.218655  1
  O  O37  1  0.422114  0.071524  0.218655  1
