# generated using pymatgen
data_Li5Al16InPt7
_symmetry_space_group_name_H-M   'P 1'
_cell_length_a   8.61921546
_cell_length_b   8.65667532
_cell_length_c   8.65667502
_cell_angle_alpha   59.71391096
_cell_angle_beta   60.14304228
_cell_angle_gamma   60.14304414
_symmetry_Int_Tables_number   1
_chemical_formula_structural   Li5Al16InPt7
_chemical_formula_sum   'Li5 Al16 In1 Pt7'
_cell_volume   456.70816780
_cell_formula_units_Z   1
loop_
 _symmetry_equiv_pos_site_id
 _symmetry_equiv_pos_as_xyz
  1  'x, y, z'
loop_
 _atom_site_type_symbol
 _atom_site_label
 _atom_site_symmetry_multiplicity
 _atom_site_fract_x
 _atom_site_fract_y
 _atom_site_fract_z
 _atom_site_occupancy
  Li  Li0  1  0.766675  0.233325  0.233325  1
  Li  Li1  1  0.764569  0.235431  0.747787  1
  Li  Li2  1  0.764569  0.747787  0.235431  1
  Li  Li3  1  0.252213  0.747787  0.235431  1
  Li  Li4  1  0.252213  0.235431  0.747787  1
  Al  Al5  1  0.877236  0.849256  0.849256  1
  Al  Al6  1  0.867338  0.845953  0.419369  1
  Al  Al7  1  0.424252  0.849256  0.849256  1
  Al  Al8  1  0.867338  0.419369  0.845953  1
  Al  Al9  1  0.154047  0.132662  0.132662  1
  Al  Al10  1  0.150744  0.122764  0.575748  1
  Al  Al11  1  0.150744  0.575748  0.122764  1
  Al  Al12  1  0.580631  0.132662  0.132662  1
  Al  Al13  1  0.620700  0.620898  0.620898  1
  Al  Al14  1  0.634353  0.618525  0.112771  1
  Al  Al15  1  0.137504  0.620898  0.620898  1
  Al  Al16  1  0.634353  0.112771  0.618525  1
  Al  Al17  1  0.381475  0.365647  0.365647  1
  Al  Al18  1  0.379102  0.379300  0.862496  1
  Al  Al19  1  0.379102  0.862496  0.379300  1
  Al  Al20  1  0.887229  0.365647  0.365647  1
  In  In21  1  0.007865  0.992135  0.992135  1
  Pt  Pt22  1  0.009484  0.490516  0.490516  1
  Pt  Pt23  1  0.509484  0.990516  0.990516  1
  Pt  Pt24  1  0.510757  0.992945  0.489243  1
  Pt  Pt25  1  0.510757  0.489243  0.992945  1
  Pt  Pt26  1  0.007055  0.489243  0.992945  1
  Pt  Pt27  1  0.007055  0.992945  0.489243  1
  Pt  Pt28  1  0.511159  0.488841  0.488841  1
