# generated using pymatgen
data_YTm5Fe16(CoP6)2
_symmetry_space_group_name_H-M   'P 1'
_cell_length_a   3.68957400
_cell_length_b   10.45014200
_cell_length_c   12.13278300
_cell_angle_alpha   90.00000000
_cell_angle_beta   90.00000000
_cell_angle_gamma   90.00000000
_symmetry_Int_Tables_number   1
_chemical_formula_structural   YTm5Fe16(CoP6)2
_chemical_formula_sum   'Y1 Tm5 Fe16 Co2 P12'
_cell_volume   467.79852396
_cell_formula_units_Z   1
loop_
 _symmetry_equiv_pos_site_id
 _symmetry_equiv_pos_as_xyz
  1  'x, y, z'
loop_
 _atom_site_type_symbol
 _atom_site_label
 _atom_site_symmetry_multiplicity
 _atom_site_fract_x
 _atom_site_fract_y
 _atom_site_fract_z
 _atom_site_occupancy
  Y  Y0  1  0.500000  0.000000  0.474337  1
  Tm  Tm1  1  0.000000  0.500000  0.525690  1
  Tm  Tm2  1  0.500000  0.819722  0.206945  1
  Tm  Tm3  1  0.500000  0.180278  0.206945  1
  Tm  Tm4  1  0.000000  0.680070  0.792905  1
  Tm  Tm5  1  0.000000  0.319930  0.792905  1
  Fe  Fe6  1  0.500000  0.500000  0.152555  1
  Fe  Fe7  1  0.000000  0.000000  0.847682  1
  Fe  Fe8  1  0.000000  0.500000  0.988226  1
  Fe  Fe9  1  0.500000  0.000000  0.011623  1
  Fe  Fe10  1  0.500000  0.327695  0.996263  1
  Fe  Fe11  1  0.500000  0.672305  0.996263  1
  Fe  Fe12  1  0.000000  0.172306  0.003688  1
  Fe  Fe13  1  0.000000  0.827694  0.003688  1
  Fe  Fe14  1  0.500000  0.299922  0.429883  1
  Fe  Fe15  1  0.500000  0.700078  0.429883  1
  Fe  Fe16  1  0.000000  0.201651  0.570396  1
  Fe  Fe17  1  0.000000  0.798349  0.570396  1
  Fe  Fe18  1  0.500000  0.881757  0.709356  1
  Fe  Fe19  1  0.500000  0.118243  0.709356  1
  Fe  Fe20  1  0.000000  0.617847  0.291011  1
  Fe  Fe21  1  0.000000  0.382153  0.291011  1
  Co  Co22  1  0.500000  0.500000  0.699770  1
  Co  Co23  1  0.000000  0.000000  0.298797  1
  P  P24  1  0.500000  0.500000  0.882994  1
  P  P25  1  0.000000  0.000000  0.116661  1
  P  P26  1  0.500000  0.500000  0.341352  1
  P  P27  1  0.000000  0.000000  0.659792  1
  P  P28  1  0.500000  0.307321  0.614809  1
  P  P29  1  0.500000  0.692679  0.614809  1
  P  P30  1  0.000000  0.193904  0.384847  1
  P  P31  1  0.000000  0.806096  0.384847  1
  P  P32  1  0.500000  0.850491  0.888320  1
  P  P33  1  0.500000  0.149509  0.888320  1
  P  P34  1  0.000000  0.649423  0.111838  1
  P  P35  1  0.000000  0.350577  0.111838  1
