# generated using pymatgen
data_Tb4Er3Au10
_symmetry_space_group_name_H-M   'P 1'
_cell_length_a   8.73223500
_cell_length_b   8.73223525
_cell_length_c   10.40852700
_cell_angle_alpha   90.00000000
_cell_angle_beta   90.00000000
_cell_angle_gamma   106.87054380
_symmetry_Int_Tables_number   1
_chemical_formula_structural   Tb4Er3Au10
_chemical_formula_sum   'Tb8 Er6 Au20'
_cell_volume   759.51301573
_cell_formula_units_Z   2
loop_
 _symmetry_equiv_pos_site_id
 _symmetry_equiv_pos_as_xyz
  1  'x, y, z'
loop_
 _atom_site_type_symbol
 _atom_site_label
 _atom_site_symmetry_multiplicity
 _atom_site_fract_x
 _atom_site_fract_y
 _atom_site_fract_z
 _atom_site_occupancy
  Tb  Tb0  1  0.697037  0.302963  0.000000  1
  Tb  Tb1  1  0.197037  0.802963  0.500000  1
  Tb  Tb2  1  0.810998  0.810998  0.307179  1
  Tb  Tb3  1  0.310998  0.310998  0.192821  1
  Tb  Tb4  1  0.802963  0.197037  0.500000  1
  Tb  Tb5  1  0.302963  0.697037  0.000000  1
  Tb  Tb6  1  0.689002  0.689002  0.807179  1
  Tb  Tb7  1  0.189002  0.189002  0.692821  1
  Er  Er8  1  0.504191  0.004191  0.250000  1
  Er  Er9  1  0.995809  0.495809  0.750000  1
  Er  Er10  1  0.000000  0.000000  0.000000  1
  Er  Er11  1  0.004191  0.504191  0.250000  1
  Er  Er12  1  0.495809  0.995809  0.750000  1
  Er  Er13  1  0.500000  0.500000  0.500000  1
  Au  Au14  1  0.144984  0.434359  0.496816  1
  Au  Au15  1  0.897152  0.897152  0.601646  1
  Au  Au16  1  0.565641  0.855016  0.503184  1
  Au  Au17  1  0.862705  0.151377  0.209321  1
  Au  Au18  1  0.362705  0.651377  0.290679  1
  Au  Au19  1  0.651377  0.362705  0.290679  1
  Au  Au20  1  0.397152  0.397152  0.898354  1
  Au  Au21  1  0.934359  0.644984  0.003184  1
  Au  Au22  1  0.348623  0.637295  0.709321  1
  Au  Au23  1  0.355016  0.065641  0.996816  1
  Au  Au24  1  0.602848  0.602848  0.101646  1
  Au  Au25  1  0.644984  0.934359  0.003184  1
  Au  Au26  1  0.102848  0.102848  0.398354  1
  Au  Au27  1  0.637295  0.348623  0.709321  1
  Au  Au28  1  0.137295  0.848623  0.790679  1
  Au  Au29  1  0.065641  0.355016  0.996816  1
  Au  Au30  1  0.855016  0.565641  0.503184  1
  Au  Au31  1  0.151377  0.862705  0.209321  1
  Au  Au32  1  0.434359  0.144984  0.496816  1
  Au  Au33  1  0.848623  0.137295  0.790679  1
