# generated using pymatgen
data_CaCe(NiB4)2
_symmetry_space_group_name_H-M   'P 1'
_cell_length_a   6.89362263
_cell_length_b   6.89362328
_cell_length_c   6.89362318
_cell_angle_alpha   112.72264423
_cell_angle_beta   112.72264254
_cell_angle_gamma   103.14750886
_symmetry_Int_Tables_number   1
_chemical_formula_structural   CaCe(NiB4)2
_chemical_formula_sum   'Ca2 Ce2 Ni4 B16'
_cell_volume   249.91673133
_cell_formula_units_Z   2
loop_
 _symmetry_equiv_pos_site_id
 _symmetry_equiv_pos_as_xyz
  1  'x, y, z'
loop_
 _atom_site_type_symbol
 _atom_site_label
 _atom_site_symmetry_multiplicity
 _atom_site_fract_x
 _atom_site_fract_y
 _atom_site_fract_z
 _atom_site_occupancy
  Ca  Ca0  1  0.796768  0.796768  0.000000  1
  Ca  Ca1  1  0.203232  0.203232  0.000000  1
  Ce  Ce2  1  0.750000  0.250000  0.500000  1
  Ce  Ce3  1  0.250000  0.750000  0.500000  1
  Ni  Ni4  1  0.272349  0.500000  0.772349  1
  Ni  Ni5  1  0.727651  0.500000  0.227651  1
  Ni  Ni6  1  0.500000  0.727651  0.227651  1
  Ni  Ni7  1  0.500000  0.272349  0.772349  1
  B  B8  1  0.278039  0.112543  0.390583  1
  B  B9  1  0.721961  0.887457  0.609417  1
  B  B10  1  0.278039  0.887457  0.165496  1
  B  B11  1  0.721961  0.112543  0.834504  1
  B  B12  1  0.112543  0.721961  0.834504  1
  B  B13  1  0.887457  0.278039  0.165496  1
  B  B14  1  0.112543  0.278039  0.390583  1
  B  B15  1  0.887457  0.721961  0.609417  1
  B  B16  1  0.111705  0.111705  0.527071  1
  B  B17  1  0.584633  0.584633  0.472929  1
  B  B18  1  0.111705  0.584633  0.000000  1
  B  B19  1  0.584633  0.111705  0.000000  1
  B  B20  1  0.888295  0.888295  0.472929  1
  B  B21  1  0.415367  0.415367  0.527071  1
  B  B22  1  0.888295  0.415367  0.000000  1
  B  B23  1  0.415367  0.888295  0.000000  1
