# generated using pymatgen
data_Tm6Al21Si3(Os3Ru)2
_symmetry_space_group_name_H-M   'P 1'
_cell_length_a   8.68623600
_cell_length_b   8.68623560
_cell_length_c   9.59985600
_cell_angle_alpha   90.00000000
_cell_angle_beta   90.00000000
_cell_angle_gamma   120.00000914
_symmetry_Int_Tables_number   1
_chemical_formula_structural   Tm6Al21Si3(Os3Ru)2
_chemical_formula_sum   'Tm6 Al21 Si3 Os6 Ru2'
_cell_volume   627.27580970
_cell_formula_units_Z   1
loop_
 _symmetry_equiv_pos_site_id
 _symmetry_equiv_pos_as_xyz
  1  'x, y, z'
loop_
 _atom_site_type_symbol
 _atom_site_label
 _atom_site_symmetry_multiplicity
 _atom_site_fract_x
 _atom_site_fract_y
 _atom_site_fract_z
 _atom_site_occupancy
  Tm  Tm0  1  0.803852  0.196148  0.752751  1
  Tm  Tm1  1  0.196848  0.803152  0.247299  1
  Tm  Tm2  1  0.392296  0.196148  0.752751  1
  Tm  Tm3  1  0.606304  0.803152  0.247299  1
  Tm  Tm4  1  0.803852  0.607704  0.752751  1
  Tm  Tm5  1  0.196848  0.393696  0.247299  1
  Al  Al6  1  0.666667  0.333333  0.523210  1
  Al  Al7  1  0.836613  0.163387  0.424595  1
  Al  Al8  1  0.163996  0.836004  0.578207  1
  Al  Al9  1  0.326774  0.163387  0.424595  1
  Al  Al10  1  0.164389  0.835611  0.921649  1
  Al  Al11  1  0.672008  0.836004  0.578207  1
  Al  Al12  1  0.835344  0.164656  0.078499  1
  Al  Al13  1  0.836613  0.673226  0.424595  1
  Al  Al14  1  0.671223  0.835611  0.921649  1
  Al  Al15  1  0.163996  0.327992  0.578207  1
  Al  Al16  1  0.329310  0.164656  0.078499  1
  Al  Al17  1  0.164389  0.328777  0.921649  1
  Al  Al18  1  0.835344  0.670690  0.078499  1
  Al  Al19  1  0.436773  0.563227  0.751090  1
  Al  Al20  1  0.562969  0.437031  0.251156  1
  Al  Al21  1  0.126452  0.563227  0.751090  1
  Al  Al22  1  0.874064  0.437031  0.251156  1
  Al  Al23  1  0.436773  0.873548  0.751090  1
  Al  Al24  1  0.562969  0.125936  0.251156  1
  Al  Al25  1  0.000000  0.000000  0.750715  1
  Al  Al26  1  0.000000  0.000000  0.249998  1
  Si  Si27  1  0.666667  0.333333  0.960414  1
  Si  Si28  1  0.333333  0.666667  0.038978  1
  Si  Si29  1  0.333333  0.666667  0.460158  1
  Os  Os30  1  0.499969  0.500031  0.001322  1
  Os  Os31  1  0.000061  0.500031  0.001322  1
  Os  Os32  1  0.495771  0.504229  0.498483  1
  Os  Os33  1  0.499969  0.999939  0.001322  1
  Os  Os34  1  0.008457  0.504229  0.498483  1
  Os  Os35  1  0.495771  0.991543  0.498483  1
  Ru  Ru36  1  0.000000  0.000000  0.000997  1
  Ru  Ru37  1  0.000000  0.000000  0.500375  1
