# generated using pymatgen
data_Nd8Tm12SiSn15
_symmetry_space_group_name_H-M   'P 1'
_cell_length_a   8.23592237
_cell_length_b   8.23562520
_cell_length_c   14.96710149
_cell_angle_alpha   89.74261609
_cell_angle_beta   90.05548313
_cell_angle_gamma   90.22921376
_symmetry_Int_Tables_number   1
_chemical_formula_structural   Nd8Tm12SiSn15
_chemical_formula_sum   'Nd8 Tm12 Si1 Sn15'
_cell_volume   1015.16928357
_cell_formula_units_Z   1
loop_
 _symmetry_equiv_pos_site_id
 _symmetry_equiv_pos_as_xyz
  1  'x, y, z'
loop_
 _atom_site_type_symbol
 _atom_site_label
 _atom_site_symmetry_multiplicity
 _atom_site_fract_x
 _atom_site_fract_y
 _atom_site_fract_z
 _atom_site_occupancy
  Nd  Nd0  1  0.653348  0.005467  0.468201  1
  Nd  Nd1  1  0.337631  0.003846  0.962546  1
  Nd  Nd2  1  0.004941  0.652883  0.533242  1
  Nd  Nd3  1  0.503652  0.847586  0.216499  1
  Nd  Nd4  1  0.488526  0.154108  0.719874  1
  Nd  Nd5  1  0.851903  0.499248  0.783302  1
  Nd  Nd6  1  0.152577  0.495357  0.282772  1
  Nd  Nd7  1  0.996279  0.343693  0.029714  1
  Tm  Tm8  1  0.497503  0.337544  0.119336  1
  Tm  Tm9  1  0.001533  0.164497  0.636058  1
  Tm  Tm10  1  0.851144  0.011183  0.868421  1
  Tm  Tm11  1  0.164441  0.999278  0.369862  1
  Tm  Tm12  1  0.500064  0.663560  0.620974  1
  Tm  Tm13  1  0.329336  0.486550  0.878737  1
  Tm  Tm14  1  0.664983  0.499689  0.380325  1
  Tm  Tm15  1  0.998168  0.837728  0.129592  1
  Tm  Tm16  1  0.331016  0.330479  0.500614  1
  Tm  Tm17  1  0.172469  0.835455  0.751806  1
  Tm  Tm18  1  0.830186  0.170017  0.249960  1
  Tm  Tm19  1  0.668977  0.671125  0.999498  1
  Si  Si20  1  0.136655  0.193727  0.824806  1
  Sn  Sn21  1  0.289882  0.965359  0.568093  1
  Sn  Sn22  1  0.706470  0.035326  0.066063  1
  Sn  Sn23  1  0.966088  0.290233  0.433399  1
  Sn  Sn24  1  0.465746  0.208899  0.318023  1
  Sn  Sn25  1  0.537569  0.789774  0.818927  1
  Sn  Sn26  1  0.209270  0.465309  0.682723  1
  Sn  Sn27  1  0.791040  0.534058  0.181218  1
  Sn  Sn28  1  0.034492  0.707763  0.932495  1
  Sn  Sn29  1  0.800941  0.864753  0.673995  1
  Sn  Sn30  1  0.198012  0.133655  0.171003  1
  Sn  Sn31  1  0.865862  0.801946  0.328465  1
  Sn  Sn32  1  0.367563  0.698201  0.421542  1
  Sn  Sn33  1  0.633367  0.300987  0.921946  1
  Sn  Sn34  1  0.699203  0.365039  0.580209  1
  Sn  Sn35  1  0.299165  0.635682  0.075762  1
