# generated using pymatgen
data_HoAl4VMo
_symmetry_space_group_name_H-M   'P 1'
_cell_length_a   5.44298305
_cell_length_b   5.44298315
_cell_length_c   5.44298337
_cell_angle_alpha   103.57012404
_cell_angle_beta   103.57012884
_cell_angle_gamma   122.05474262
_symmetry_Int_Tables_number   1
_chemical_formula_structural   HoAl4VMo
_chemical_formula_sum   'Ho1 Al4 V1 Mo1'
_cell_volume   119.56556737
_cell_formula_units_Z   1
loop_
 _symmetry_equiv_pos_site_id
 _symmetry_equiv_pos_as_xyz
  1  'x, y, z'
loop_
 _atom_site_type_symbol
 _atom_site_label
 _atom_site_symmetry_multiplicity
 _atom_site_fract_x
 _atom_site_fract_y
 _atom_site_fract_z
 _atom_site_occupancy
  Ho  Ho0  1  0.000000  0.000000  0.000000  1
  Al  Al1  1  0.305488  0.305488  0.610979  1
  Al  Al2  1  0.694512  0.694512  0.389021  1
  Al  Al3  1  0.694512  0.305488  0.000000  1
  Al  Al4  1  0.305488  0.694512  0.000000  1
  V  V5  1  0.250000  0.750000  0.500000  1
  Mo  Mo6  1  0.750000  0.250000  0.500000  1
