# generated using pymatgen
data_Tb2Dy2Ga20Ni11
_symmetry_space_group_name_H-M   'P 1'
_cell_length_a   4.08460217
_cell_length_b   10.58413173
_cell_length_c   12.97750118
_cell_angle_alpha   80.51565860
_cell_angle_beta   80.81555725
_cell_angle_gamma   78.68737683
_symmetry_Int_Tables_number   1
_chemical_formula_structural   Tb2Dy2Ga20Ni11
_chemical_formula_sum   'Tb2 Dy2 Ga20 Ni11'
_cell_volume   537.90254903
_cell_formula_units_Z   1
loop_
 _symmetry_equiv_pos_site_id
 _symmetry_equiv_pos_as_xyz
  1  'x, y, z'
loop_
 _atom_site_type_symbol
 _atom_site_label
 _atom_site_symmetry_multiplicity
 _atom_site_fract_x
 _atom_site_fract_y
 _atom_site_fract_z
 _atom_site_occupancy
  Tb  Tb0  1  0.773637  0.633873  0.820626  1
  Tb  Tb1  1  0.883104  0.903594  0.334375  1
  Dy  Dy2  1  0.121854  0.096528  0.665064  1
  Dy  Dy3  1  0.231330  0.366224  0.178410  1
  Ga  Ga4  1  0.067729  0.666223  0.202440  1
  Ga  Ga5  1  0.298383  0.902490  0.502631  1
  Ga  Ga6  1  0.608430  0.792894  0.002529  1
  Ga  Ga7  1  0.248719  0.797770  0.704165  1
  Ga  Ga8  1  0.890155  0.670528  0.548580  1
  Ga  Ga9  1  0.755614  0.203042  0.295158  1
  Ga  Ga10  1  0.633487  0.941296  0.801747  1
  Ga  Ga11  1  0.705882  0.097972  0.497034  1
  Ga  Ga12  1  0.397482  0.207370  0.996761  1
  Ga  Ga13  1  0.937698  0.333611  0.796512  1
  Ga  Ga14  1  0.462468  0.702902  0.377303  1
  Ga  Ga15  1  0.995214  0.921571  0.090046  1
  Ga  Ga16  1  0.803567  0.398621  0.003275  1
  Ga  Ga17  1  0.542631  0.296392  0.622009  1
  Ga  Ga18  1  0.010530  0.078955  0.908962  1
  Ga  Ga19  1  0.201590  0.601213  0.996232  1
  Ga  Ga20  1  0.113498  0.329594  0.450508  1
  Ga  Ga21  1  0.371920  0.059318  0.197353  1
  Ga  Ga22  1  0.614445  0.471053  0.307318  1
  Ga  Ga23  1  0.390691  0.528718  0.691266  1
  Ni  Ni24  1  0.138848  0.840258  0.894868  1
  Ni  Ni25  1  0.506073  0.183056  0.811798  1
  Ni  Ni26  1  0.866638  0.160440  0.104601  1
  Ni  Ni27  1  0.975447  0.437076  0.612233  1
  Ni  Ni28  1  0.502905  0.499373  0.499362  1
  Ni  Ni29  1  0.654333  0.579725  0.113964  1
  Ni  Ni30  1  0.029572  0.562805  0.386760  1
  Ni  Ni31  1  0.350898  0.420026  0.885173  1
  Ni  Ni32  1  0.251466  0.119870  0.386497  1
  Ni  Ni33  1  0.499627  0.816884  0.187256  1
  Ni  Ni34  1  0.752941  0.880659  0.612825  1
