# generated using pymatgen
data_YbY7Si8PdPt7
_symmetry_space_group_name_H-M   'P 1'
_cell_length_a   4.31425300
_cell_length_b   7.45906783
_cell_length_c   14.11518046
_cell_angle_alpha   89.94521364
_cell_angle_beta   90.00000000
_cell_angle_gamma   90.00000000
_symmetry_Int_Tables_number   1
_chemical_formula_structural   YbY7Si8PdPt7
_chemical_formula_sum   'Yb1 Y7 Si8 Pd1 Pt7'
_cell_volume   454.23061538
_cell_formula_units_Z   1
loop_
 _symmetry_equiv_pos_site_id
 _symmetry_equiv_pos_as_xyz
  1  'x, y, z'
loop_
 _atom_site_type_symbol
 _atom_site_label
 _atom_site_symmetry_multiplicity
 _atom_site_fract_x
 _atom_site_fract_y
 _atom_site_fract_z
 _atom_site_occupancy
  Yb  Yb0  1  0.500000  0.794075  0.748832  1
  Y  Y1  1  0.000000  0.202073  0.751113  1
  Y  Y2  1  0.500000  0.793807  0.250347  1
  Y  Y3  1  0.000000  0.206001  0.249175  1
  Y  Y4  1  0.500000  0.705534  0.998711  1
  Y  Y5  1  0.000000  0.293508  0.500430  1
  Y  Y6  1  0.500000  0.699938  0.500940  1
  Y  Y7  1  0.000000  0.300727  0.999667  1
  Si  Si8  1  0.500000  0.404942  0.648548  1
  Si  Si9  1  0.000000  0.592365  0.855511  1
  Si  Si10  1  0.500000  0.409131  0.350570  1
  Si  Si11  1  0.000000  0.591090  0.147850  1
  Si  Si12  1  0.500000  0.092325  0.092181  1
  Si  Si13  1  0.000000  0.908138  0.407009  1
  Si  Si14  1  0.500000  0.091013  0.907620  1
  Si  Si15  1  0.000000  0.911846  0.590216  1
  Pd  Pd16  1  0.000000  0.581913  0.656079  1
  Pt  Pt17  1  0.500000  0.077250  0.606326  1
  Pt  Pt18  1  0.000000  0.921081  0.892989  1
  Pt  Pt19  1  0.500000  0.077449  0.391534  1
  Pt  Pt20  1  0.000000  0.923484  0.108196  1
  Pt  Pt21  1  0.500000  0.420931  0.154889  1
  Pt  Pt22  1  0.000000  0.579839  0.348502  1
  Pt  Pt23  1  0.500000  0.421537  0.842759  1
