# generated using pymatgen
data_Pr4Ga3AgPd4
_symmetry_space_group_name_H-M   'P 1'
_cell_length_a   4.57495100
_cell_length_b   7.20673812
_cell_length_c   7.95730534
_cell_angle_alpha   90.61943345
_cell_angle_beta   90.00000000
_cell_angle_gamma   90.00000000
_symmetry_Int_Tables_number   1
_chemical_formula_structural   Pr4Ga3AgPd4
_chemical_formula_sum   'Pr4 Ga3 Ag1 Pd4'
_cell_volume   262.34079508
_cell_formula_units_Z   1
loop_
 _symmetry_equiv_pos_site_id
 _symmetry_equiv_pos_as_xyz
  1  'x, y, z'
loop_
 _atom_site_type_symbol
 _atom_site_label
 _atom_site_symmetry_multiplicity
 _atom_site_fract_x
 _atom_site_fract_y
 _atom_site_fract_z
 _atom_site_occupancy
  Pr  Pr0  1  0.250000  0.017521  0.695089  1
  Pr  Pr1  1  0.250000  0.524949  0.805509  1
  Pr  Pr2  1  0.750000  0.975723  0.307565  1
  Pr  Pr3  1  0.750000  0.475251  0.192441  1
  Ga  Ga4  1  0.250000  0.671222  0.427018  1
  Ga  Ga5  1  0.750000  0.836974  0.929541  1
  Ga  Ga6  1  0.750000  0.336802  0.568740  1
  Ag  Ag7  1  0.250000  0.165638  0.078322  1
  Pd  Pd8  1  0.250000  0.295454  0.415971  1
  Pd  Pd9  1  0.250000  0.766710  0.103690  1
  Pd  Pd10  1  0.750000  0.715477  0.599996  1
  Pd  Pd11  1  0.750000  0.218279  0.876117  1
