# generated using pymatgen
data_Nd16Cd3Ag(IrRu)2
_symmetry_space_group_name_H-M   'P 1'
_cell_length_a   9.93300915
_cell_length_b   9.93301034
_cell_length_c   9.93747343
_cell_angle_alpha   59.92797946
_cell_angle_beta   59.92797738
_cell_angle_gamma   59.90023461
_symmetry_Int_Tables_number   1
_chemical_formula_structural   Nd16Cd3Ag(IrRu)2
_chemical_formula_sum   'Nd16 Cd3 Ag1 Ir2 Ru2'
_cell_volume   692.02417628
_cell_formula_units_Z   1
loop_
 _symmetry_equiv_pos_site_id
 _symmetry_equiv_pos_as_xyz
  1  'x, y, z'
loop_
 _atom_site_type_symbol
 _atom_site_label
 _atom_site_symmetry_multiplicity
 _atom_site_fract_x
 _atom_site_fract_y
 _atom_site_fract_z
 _atom_site_occupancy
  Nd  Nd0  1  0.346764  0.346764  0.349251  1
  Nd  Nd1  1  0.346818  0.346818  0.956488  1
  Nd  Nd2  1  0.344993  0.958328  0.347373  1
  Nd  Nd3  1  0.958328  0.344993  0.347373  1
  Nd  Nd4  1  0.811277  0.190710  0.190098  1
  Nd  Nd5  1  0.191075  0.811597  0.807717  1
  Nd  Nd6  1  0.190710  0.811277  0.190098  1
  Nd  Nd7  1  0.811597  0.191075  0.807717  1
  Nd  Nd8  1  0.190339  0.190339  0.809471  1
  Nd  Nd9  1  0.809032  0.809032  0.191504  1
  Nd  Nd10  1  0.935373  0.561071  0.562519  1
  Nd  Nd11  1  0.561222  0.937818  0.938228  1
  Nd  Nd12  1  0.561071  0.935373  0.562519  1
  Nd  Nd13  1  0.937818  0.561222  0.938228  1
  Nd  Nd14  1  0.561579  0.561579  0.935743  1
  Nd  Nd15  1  0.938054  0.938054  0.562245  1
  Cd  Cd16  1  0.579860  0.579860  0.262631  1
  Cd  Cd17  1  0.579554  0.262420  0.579926  1
  Cd  Cd18  1  0.262420  0.579554  0.579926  1
  Ag  Ag19  1  0.582460  0.582460  0.582314  1
  Ir  Ir20  1  0.142013  0.578094  0.140205  1
  Ir  Ir21  1  0.578094  0.142013  0.140205  1
  Ru  Ru22  1  0.139160  0.139160  0.136261  1
  Ru  Ru23  1  0.140386  0.140386  0.581959  1
