# generated using pymatgen
data_TiNb7(GaC3)2
_symmetry_space_group_name_H-M   'P 1'
_cell_length_a   3.15106600
_cell_length_b   3.15106532
_cell_length_c   24.09077200
_cell_angle_alpha   90.00000000
_cell_angle_beta   90.00000000
_cell_angle_gamma   119.99998612
_symmetry_Int_Tables_number   1
_chemical_formula_structural   TiNb7(GaC3)2
_chemical_formula_sum   'Ti1 Nb7 Ga2 C6'
_cell_volume   207.15542726
_cell_formula_units_Z   1
loop_
 _symmetry_equiv_pos_site_id
 _symmetry_equiv_pos_as_xyz
  1  'x, y, z'
loop_
 _atom_site_type_symbol
 _atom_site_label
 _atom_site_symmetry_multiplicity
 _atom_site_fract_x
 _atom_site_fract_y
 _atom_site_fract_z
 _atom_site_occupancy
  Ti  Ti0  1  0.333333  0.666667  0.054523  1
  Nb  Nb1  1  0.000000  0.000000  0.341039  1
  Nb  Nb2  1  0.000000  0.000000  0.658723  1
  Nb  Nb3  1  0.000000  0.000000  0.842045  1
  Nb  Nb4  1  0.000000  0.000000  0.157406  1
  Nb  Nb5  1  0.333333  0.666667  0.443755  1
  Nb  Nb6  1  0.666667  0.333333  0.556062  1
  Nb  Nb7  1  0.666667  0.333333  0.947106  1
  Ga  Ga8  1  0.333333  0.666667  0.248391  1
  Ga  Ga9  1  0.666667  0.333333  0.750745  1
  C  C10  1  0.000000  0.000000  0.499986  1
  C  C11  1  0.000000  0.000000  0.001770  1
  C  C12  1  0.666667  0.333333  0.390047  1
  C  C13  1  0.333333  0.666667  0.609693  1
  C  C14  1  0.333333  0.666667  0.892313  1
  C  C15  1  0.666667  0.333333  0.106394  1
