# generated using pymatgen
data_DySc4P12Ir6Ru13
_symmetry_space_group_name_H-M   'P 1'
_cell_length_a   12.51044249
_cell_length_b   12.45268966
_cell_length_c   3.93292100
_cell_angle_alpha   90.00000000
_cell_angle_beta   90.00000000
_cell_angle_gamma   119.81134697
_symmetry_Int_Tables_number   1
_chemical_formula_structural   DySc4P12Ir6Ru13
_chemical_formula_sum   'Dy1 Sc4 P12 Ir6 Ru13'
_cell_volume   531.62347031
_cell_formula_units_Z   1
loop_
 _symmetry_equiv_pos_site_id
 _symmetry_equiv_pos_as_xyz
  1  'x, y, z'
loop_
 _atom_site_type_symbol
 _atom_site_label
 _atom_site_symmetry_multiplicity
 _atom_site_fract_x
 _atom_site_fract_y
 _atom_site_fract_z
 _atom_site_occupancy
  Dy  Dy0  1  0.333285  0.666668  0.000000  1
  Sc  Sc1  1  0.667414  0.333043  0.000000  1
  Sc  Sc2  1  0.812441  0.000732  0.500000  1
  Sc  Sc3  1  0.185824  0.186843  0.500000  1
  Sc  Sc4  1  0.000461  0.813359  0.500000  1
  P  P5  1  0.631406  0.003363  0.000000  1
  P  P6  1  0.370792  0.371023  0.000000  1
  P  P7  1  0.999976  0.629375  0.000000  1
  P  P8  1  0.689393  0.516144  0.500000  1
  P  P9  1  0.827065  0.307157  0.500000  1
  P  P10  1  0.313010  0.832752  0.500000  1
  P  P11  1  0.520027  0.686713  0.500000  1
  P  P12  1  0.180592  0.003156  0.000000  1
  P  P13  1  0.820692  0.820193  0.000000  1
  P  P14  1  0.994873  0.179040  0.000000  1
  P  P15  1  0.483007  0.170796  0.500000  1
  P  P16  1  0.167841  0.480415  0.500000  1
  Ir  Ir17  1  0.630158  0.813071  0.000000  1
  Ir  Ir18  1  0.182848  0.369708  0.000000  1
  Ir  Ir19  1  0.373732  0.184698  0.000000  1
  Ir  Ir20  1  0.186583  0.818441  0.000000  1
  Ir  Ir21  1  0.810844  0.626252  0.000000  1
  Ir  Ir22  1  0.999629  0.000326  0.000000  1
  Ru  Ru23  1  0.870460  0.506646  0.500000  1
  Ru  Ru24  1  0.492631  0.362081  0.500000  1
  Ru  Ru25  1  0.636015  0.126023  0.500000  1
  Ru  Ru26  1  0.127452  0.640108  0.500000  1
  Ru  Ru27  1  0.360772  0.487441  0.500000  1
  Ru  Ru28  1  0.511063  0.870996  0.500000  1
  Ru  Ru29  1  0.719862  0.718166  0.500000  1
  Ru  Ru30  1  0.000620  0.280767  0.500000  1
  Ru  Ru31  1  0.444622  0.996726  0.000000  1
  Ru  Ru32  1  0.552786  0.553908  0.000000  1
  Ru  Ru33  1  0.003517  0.448365  0.000000  1
  Ru  Ru34  1  0.816471  0.193491  0.000000  1
  Ru  Ru35  1  0.281832  0.002019  0.500000  1
