# generated using pymatgen
data_LiYb3Ga9Au
_symmetry_space_group_name_H-M   'P 1'
_cell_length_a   8.17183599
_cell_length_b   8.17183681
_cell_length_c   8.17183700
_cell_angle_alpha   148.61340844
_cell_angle_beta   109.18941844
_cell_angle_gamma   79.49245522
_symmetry_Int_Tables_number   1
_chemical_formula_structural   LiYb3Ga9Au
_chemical_formula_sum   'Li1 Yb3 Ga9 Au1'
_cell_volume   263.01063922
_cell_formula_units_Z   1
loop_
 _symmetry_equiv_pos_site_id
 _symmetry_equiv_pos_as_xyz
  1  'x, y, z'
loop_
 _atom_site_type_symbol
 _atom_site_label
 _atom_site_symmetry_multiplicity
 _atom_site_fract_x
 _atom_site_fract_y
 _atom_site_fract_z
 _atom_site_occupancy
  Li  Li0  1  0.819038  0.000000  0.819038  1
  Yb  Yb1  1  0.497149  0.500000  0.997149  1
  Yb  Yb2  1  0.206268  0.204884  0.001384  1
  Yb  Yb3  1  0.796500  0.795116  0.001384  1
  Ga  Ga4  1  0.074212  0.353493  0.720720  1
  Ga  Ga5  1  0.927925  0.644526  0.283399  1
  Ga  Ga6  1  0.638872  0.355474  0.283399  1
  Ga  Ga7  1  0.367225  0.646507  0.720720  1
  Ga  Ga8  1  0.792443  0.155091  0.637352  1
  Ga  Ga9  1  0.211480  0.843229  0.368251  1
  Ga  Ga10  1  0.525021  0.156771  0.368251  1
  Ga  Ga11  1  0.482262  0.844909  0.637352  1
  Ga  Ga12  1  0.994113  0.500000  0.494113  1
  Au  Au13  1  0.167491  0.000000  0.167491  1
