# generated using pymatgen
data_Ac4Zn5Au3
_symmetry_space_group_name_H-M   'P 1'
_cell_length_a   4.61690900
_cell_length_b   8.43547566
_cell_length_c   8.10656400
_cell_angle_alpha   90.02261137
_cell_angle_beta   90.00000000
_cell_angle_gamma   90.00000000
_symmetry_Int_Tables_number   1
_chemical_formula_structural   Ac4Zn5Au3
_chemical_formula_sum   'Ac4 Zn5 Au3'
_cell_volume   315.71678598
_cell_formula_units_Z   1
loop_
 _symmetry_equiv_pos_site_id
 _symmetry_equiv_pos_as_xyz
  1  'x, y, z'
loop_
 _atom_site_type_symbol
 _atom_site_label
 _atom_site_symmetry_multiplicity
 _atom_site_fract_x
 _atom_site_fract_y
 _atom_site_fract_z
 _atom_site_occupancy
  Ac  Ac0  1  0.250000  0.997324  0.254837  1
  Ac  Ac1  1  0.250000  0.504088  0.251683  1
  Ac  Ac2  1  0.750000  0.999562  0.745185  1
  Ac  Ac3  1  0.750000  0.499020  0.748106  1
  Zn  Zn4  1  0.250000  0.747866  0.584375  1
  Zn  Zn5  1  0.250000  0.247781  0.924246  1
  Zn  Zn6  1  0.750000  0.252215  0.409778  1
  Zn  Zn7  1  0.750000  0.752781  0.082737  1
  Zn  Zn8  1  0.750000  0.248409  0.081995  1
  Au  Au9  1  0.250000  0.250845  0.585289  1
  Au  Au10  1  0.250000  0.750950  0.915818  1
  Au  Au11  1  0.750000  0.749157  0.415951  1
