# generated using pymatgen
data_La4Gd3Dy(TeO6)4
_symmetry_space_group_name_H-M   'P 1'
_cell_length_a   5.49336976
_cell_length_b   9.39510047
_cell_length_c   10.29479397
_cell_angle_alpha   89.97183677
_cell_angle_beta   89.93474333
_cell_angle_gamma   89.90556710
_symmetry_Int_Tables_number   1
_chemical_formula_structural   La4Gd3Dy(TeO6)4
_chemical_formula_sum   'La4 Gd3 Dy1 Te4 O24'
_cell_volume   531.32101943
_cell_formula_units_Z   1
loop_
 _symmetry_equiv_pos_site_id
 _symmetry_equiv_pos_as_xyz
  1  'x, y, z'
loop_
 _atom_site_type_symbol
 _atom_site_label
 _atom_site_symmetry_multiplicity
 _atom_site_fract_x
 _atom_site_fract_y
 _atom_site_fract_z
 _atom_site_occupancy
  La  La0  1  0.531182  0.219792  0.357157  1
  La  La1  1  0.030818  0.280747  0.642485  1
  La  La2  1  0.468109  0.719307  0.142730  1
  La  La3  1  0.969906  0.780657  0.856389  1
  Gd  Gd4  1  0.518820  0.103001  0.955350  1
  Gd  Gd5  1  0.018949  0.396165  0.044839  1
  Gd  Gd6  1  0.478798  0.605803  0.544120  1
  Dy  Dy7  1  0.983366  0.897686  0.455557  1
  Te  Te8  1  0.467938  0.990372  0.640541  1
  Te  Te9  1  0.965462  0.510327  0.358404  1
  Te  Te10  1  0.533679  0.490862  0.857978  1
  Te  Te11  1  0.032861  0.008400  0.143275  1
  O  O12  1  0.302434  0.141647  0.170072  1
  O  O13  1  0.802564  0.356858  0.830554  1
  O  O14  1  0.694077  0.641815  0.330054  1
  O  O15  1  0.199491  0.855696  0.666026  1
  O  O16  1  0.727284  0.108564  0.563891  1
  O  O17  1  0.227072  0.394082  0.436285  1
  O  O18  1  0.272896  0.608096  0.935383  1
  O  O19  1  0.773149  0.891827  0.064917  1
  O  O20  1  0.675222  0.633421  0.744680  1
  O  O21  1  0.173248  0.866040  0.257339  1
  O  O22  1  0.323683  0.131769  0.754339  1
  O  O23  1  0.826206  0.366433  0.245652  1
  O  O24  1  0.665195  0.948816  0.791650  1
  O  O25  1  0.163561  0.551460  0.207626  1
  O  O26  1  0.334865  0.449165  0.707916  1
  O  O27  1  0.835425  0.049540  0.294604  1
  O  O28  1  0.260202  0.073509  0.502435  1
  O  O29  1  0.760201  0.425701  0.496769  1
  O  O30  1  0.739487  0.575441  0.995847  1
  O  O31  1  0.239229  0.923757  0.004816  1
  O  O32  1  0.099267  0.662339  0.466188  1
  O  O33  1  0.610315  0.841494  0.532408  1
  O  O34  1  0.896770  0.158780  0.034295  1
  O  O35  1  0.398270  0.340635  0.967429  1
