# generated using pymatgen
data_Ca3Eu8Y9Si16
_symmetry_space_group_name_H-M   'P 1'
_cell_length_a   7.54624600
_cell_length_b   7.91925617
_cell_length_c   15.08409600
_cell_angle_alpha   90.00000000
_cell_angle_beta   90.00000000
_cell_angle_gamma   89.98801885
_symmetry_Int_Tables_number   1
_chemical_formula_structural   Ca3Eu8Y9Si16
_chemical_formula_sum   'Ca3 Eu8 Y9 Si16'
_cell_volume   901.43544065
_cell_formula_units_Z   1
loop_
 _symmetry_equiv_pos_site_id
 _symmetry_equiv_pos_as_xyz
  1  'x, y, z'
loop_
 _atom_site_type_symbol
 _atom_site_label
 _atom_site_symmetry_multiplicity
 _atom_site_fract_x
 _atom_site_fract_y
 _atom_site_fract_z
 _atom_site_occupancy
  Ca  Ca0  1  0.653099  0.979485  0.750000  1
  Ca  Ca1  1  0.848613  0.481607  0.250000  1
  Ca  Ca2  1  0.347775  0.017274  0.250000  1
  Eu  Eu3  1  0.022743  0.180736  0.404309  1
  Eu  Eu4  1  0.523418  0.319880  0.403734  1
  Eu  Eu5  1  0.479673  0.678812  0.904122  1
  Eu  Eu6  1  0.479673  0.678812  0.595878  1
  Eu  Eu7  1  0.978252  0.824088  0.594803  1
  Eu  Eu8  1  0.978252  0.824088  0.905197  1
  Eu  Eu9  1  0.523418  0.319880  0.096266  1
  Eu  Eu10  1  0.022743  0.180736  0.095691  1
  Y  Y11  1  0.320006  0.177935  0.621562  1
  Y  Y12  1  0.680497  0.820081  0.378368  1
  Y  Y13  1  0.180084  0.678066  0.378871  1
  Y  Y14  1  0.817932  0.318368  0.878277  1
  Y  Y15  1  0.817932  0.318368  0.621723  1
  Y  Y16  1  0.320006  0.177935  0.878438  1
  Y  Y17  1  0.180084  0.678066  0.121129  1
  Y  Y18  1  0.680497  0.820081  0.121632  1
  Y  Y19  1  0.150119  0.520775  0.750000  1
  Si  Si20  1  0.255682  0.890102  0.750000  1
  Si  Si21  1  0.470648  0.611533  0.250000  1
  Si  Si22  1  0.031144  0.117132  0.750000  1
  Si  Si23  1  0.524210  0.392950  0.750000  1
  Si  Si24  1  0.141537  0.471472  0.542123  1
  Si  Si25  1  0.970987  0.886668  0.250000  1
  Si  Si26  1  0.741323  0.104185  0.250000  1
  Si  Si27  1  0.857135  0.532661  0.035819  1
  Si  Si28  1  0.356756  0.967128  0.037330  1
  Si  Si29  1  0.141537  0.471472  0.957877  1
  Si  Si30  1  0.641701  0.031903  0.537462  1
  Si  Si31  1  0.356756  0.967128  0.462670  1
  Si  Si32  1  0.857135  0.532661  0.464181  1
  Si  Si33  1  0.766186  0.601068  0.750000  1
  Si  Si34  1  0.240746  0.394952  0.250000  1
  Si  Si35  1  0.641701  0.031903  0.962538  1
