# generated using pymatgen
data_Ho5ZrTaO12
_symmetry_space_group_name_H-M   'P 1'
_cell_length_a   6.43521339
_cell_length_b   6.41784893
_cell_length_c   6.43941300
_cell_angle_alpha   99.36923132
_cell_angle_beta   98.69187878
_cell_angle_gamma   98.78184028
_symmetry_Int_Tables_number   1
_chemical_formula_structural   Ho5ZrTaO12
_chemical_formula_sum   'Ho5 Zr1 Ta1 O12'
_cell_volume   255.06720473
_cell_formula_units_Z   1
loop_
 _symmetry_equiv_pos_site_id
 _symmetry_equiv_pos_as_xyz
  1  'x, y, z'
loop_
 _atom_site_type_symbol
 _atom_site_label
 _atom_site_symmetry_multiplicity
 _atom_site_fract_x
 _atom_site_fract_y
 _atom_site_fract_z
 _atom_site_occupancy
  Ho  Ho0  1  0.390813  0.690005  0.856689  1
  Ho  Ho1  1  0.860561  0.386937  0.692604  1
  Ho  Ho2  1  0.313812  0.143735  0.608629  1
  Ho  Ho3  1  0.612400  0.310576  0.138966  1
  Ho  Ho4  1  0.139003  0.611510  0.307448  1
  Zr  Zr5  1  0.682812  0.856137  0.386238  1
  Ta  Ta6  1  0.000515  0.997161  0.000111  1
  O  O7  1  0.440425  0.601269  0.182829  1
  O  O8  1  0.175896  0.432381  0.582622  1
  O  O9  1  0.596517  0.169113  0.427842  1
  O  O10  1  0.566340  0.411050  0.820571  1
  O  O11  1  0.817110  0.583437  0.415983  1
  O  O12  1  0.430536  0.823675  0.565178  1
  O  O13  1  0.905052  0.024544  0.692565  1
  O  O14  1  0.956436  0.304703  0.073346  1
  O  O15  1  0.300280  0.078598  0.955694  1
  O  O16  1  0.073531  0.958969  0.306619  1
  O  O17  1  0.043341  0.693718  0.926477  1
  O  O18  1  0.694621  0.922483  0.059588  1
