# generated using pymatgen
data_Gd6Zn18Pt5S
_symmetry_space_group_name_H-M   'P 1'
_cell_length_a   9.02119061
_cell_length_b   9.02974790
_cell_length_c   8.99714800
_cell_angle_alpha   59.88149049
_cell_angle_beta   59.91164210
_cell_angle_gamma   60.03138786
_symmetry_Int_Tables_number   1
_chemical_formula_structural   Gd6Zn18Pt5S
_chemical_formula_sum   'Gd6 Zn18 Pt5 S1'
_cell_volume   517.54859506
_cell_formula_units_Z   1
loop_
 _symmetry_equiv_pos_site_id
 _symmetry_equiv_pos_as_xyz
  1  'x, y, z'
loop_
 _atom_site_type_symbol
 _atom_site_label
 _atom_site_symmetry_multiplicity
 _atom_site_fract_x
 _atom_site_fract_y
 _atom_site_fract_z
 _atom_site_occupancy
  Gd  Gd0  1  0.715109  0.281443  0.287893  1
  Gd  Gd1  1  0.283320  0.719787  0.713580  1
  Gd  Gd2  1  0.281584  0.718650  0.288144  1
  Gd  Gd3  1  0.717327  0.282155  0.711397  1
  Gd  Gd4  1  0.287761  0.280776  0.712716  1
  Gd  Gd5  1  0.711324  0.717952  0.288316  1
  Zn  Zn6  1  0.121810  0.121572  0.122656  1
  Zn  Zn7  1  0.876759  0.878778  0.878431  1
  Zn  Zn8  1  0.122115  0.123951  0.630529  1
  Zn  Zn9  1  0.119470  0.634673  0.125826  1
  Zn  Zn10  1  0.878168  0.877233  0.366587  1
  Zn  Zn11  1  0.879785  0.363937  0.875579  1
  Zn  Zn12  1  0.636074  0.120816  0.120978  1
  Zn  Zn13  1  0.368454  0.877034  0.878021  1
  Zn  Zn14  1  0.999604  0.499943  0.000303  1
  Zn  Zn15  1  0.500893  0.499654  0.999759  1
  Zn  Zn16  1  0.331499  0.331791  0.325687  1
  Zn  Zn17  1  0.669260  0.668078  0.672922  1
  Zn  Zn18  1  0.329539  0.332906  0.008200  1
  Zn  Zn19  1  0.328664  0.014795  0.328031  1
  Zn  Zn20  1  0.669723  0.667745  0.993542  1
  Zn  Zn21  1  0.672064  0.985362  0.670814  1
  Zn  Zn22  1  0.009312  0.332344  0.326793  1
  Zn  Zn23  1  0.988769  0.668312  0.674384  1
  Pt  Pt24  1  0.499446  0.001397  0.999099  1
  Pt  Pt25  1  0.000809  0.499859  0.500489  1
  Pt  Pt26  1  0.499442  0.000018  0.500246  1
  Pt  Pt27  1  0.000070  0.999751  0.500367  1
  Pt  Pt28  1  0.003297  0.998779  0.997899  1
  S  S29  1  0.498551  0.500512  0.500816  1
