# generated using pymatgen
data_Tb3Lu3MnBi2
_symmetry_space_group_name_H-M   'P 1'
_cell_length_a   8.23272800
_cell_length_b   8.23272799
_cell_length_c   4.28844600
_cell_angle_alpha   90.00000000
_cell_angle_beta   90.00000000
_cell_angle_gamma   120.00000808
_symmetry_Int_Tables_number   1
_chemical_formula_structural   Tb3Lu3MnBi2
_chemical_formula_sum   'Tb3 Lu3 Mn1 Bi2'
_cell_volume   251.72020436
_cell_formula_units_Z   1
loop_
 _symmetry_equiv_pos_site_id
 _symmetry_equiv_pos_as_xyz
  1  'x, y, z'
loop_
 _atom_site_type_symbol
 _atom_site_label
 _atom_site_symmetry_multiplicity
 _atom_site_fract_x
 _atom_site_fract_y
 _atom_site_fract_z
 _atom_site_occupancy
  Tb  Tb0  1  0.611395  0.000000  0.000000  1
  Tb  Tb1  1  0.000000  0.611395  0.000000  1
  Tb  Tb2  1  0.388605  0.388605  0.000000  1
  Lu  Lu3  1  0.228396  0.000000  0.500000  1
  Lu  Lu4  1  0.000000  0.228396  0.500000  1
  Lu  Lu5  1  0.771604  0.771604  0.500000  1
  Mn  Mn6  1  0.000000  0.000000  0.000000  1
  Bi  Bi7  1  0.333333  0.666667  0.500000  1
  Bi  Bi8  1  0.666667  0.333333  0.500000  1
