# generated using pymatgen
data_NdBiPt2O7
_symmetry_space_group_name_H-M   'P 1'
_cell_length_a   7.44018752
_cell_length_b   7.46140286
_cell_length_c   7.44018719
_cell_angle_alpha   59.90563459
_cell_angle_beta   59.85597113
_cell_angle_gamma   59.90562946
_symmetry_Int_Tables_number   1
_chemical_formula_structural   NdBiPt2O7
_chemical_formula_sum   'Nd2 Bi2 Pt4 O14'
_cell_volume   291.32562380
_cell_formula_units_Z   2
loop_
 _symmetry_equiv_pos_site_id
 _symmetry_equiv_pos_as_xyz
  1  'x, y, z'
loop_
 _atom_site_type_symbol
 _atom_site_label
 _atom_site_symmetry_multiplicity
 _atom_site_fract_x
 _atom_site_fract_y
 _atom_site_fract_z
 _atom_site_occupancy
  Nd  Nd0  1  0.125000  0.625000  0.125000  1
  Nd  Nd1  1  0.125000  0.125000  0.125000  1
  Bi  Bi2  1  0.125000  0.125000  0.625000  1
  Bi  Bi3  1  0.625000  0.125000  0.125000  1
  Pt  Pt4  1  0.625000  0.625000  0.125000  1
  Pt  Pt5  1  0.625000  0.125000  0.625000  1
  Pt  Pt6  1  0.125000  0.625000  0.625000  1
  Pt  Pt7  1  0.625000  0.625000  0.625000  1
  O  O8  1  0.249087  0.250913  0.249087  1
  O  O9  1  0.000913  0.999087  0.000913  1
  O  O10  1  0.542698  0.957302  0.542698  1
  O  O11  1  0.288770  0.711230  0.288770  1
  O  O12  1  0.538893  0.542427  0.959495  1
  O  O13  1  0.959495  0.542427  0.538893  1
  O  O14  1  0.538893  0.959185  0.959495  1
  O  O15  1  0.959495  0.959185  0.538893  1
  O  O16  1  0.961230  0.538770  0.961230  1
  O  O17  1  0.711107  0.290815  0.290505  1
  O  O18  1  0.290505  0.707573  0.711107  1
  O  O19  1  0.707302  0.292698  0.707302  1
  O  O20  1  0.290505  0.290815  0.711107  1
  O  O21  1  0.711107  0.707573  0.290505  1
