# generated using pymatgen
data_Nb12Al3Si(PtN)4
_symmetry_space_group_name_H-M   'P 1'
_cell_length_a   7.05598767
_cell_length_b   7.05598767
_cell_length_c   7.05598767
_cell_angle_alpha   90.03518739
_cell_angle_beta   89.96481261
_cell_angle_gamma   89.96481261
_symmetry_Int_Tables_number   1
_chemical_formula_structural   Nb12Al3Si(PtN)4
_chemical_formula_sum   'Nb12 Al3 Si1 Pt4 N4'
_cell_volume   351.29599050
_cell_formula_units_Z   1
loop_
 _symmetry_equiv_pos_site_id
 _symmetry_equiv_pos_as_xyz
  1  'x, y, z'
loop_
 _atom_site_type_symbol
 _atom_site_label
 _atom_site_symmetry_multiplicity
 _atom_site_fract_x
 _atom_site_fract_y
 _atom_site_fract_z
 _atom_site_occupancy
  Nb  Nb0  1  0.789286  0.954740  0.377097  1
  Nb  Nb1  1  0.709406  0.046443  0.876782  1
  Nb  Nb2  1  0.212259  0.454460  0.122339  1
  Nb  Nb3  1  0.289783  0.544510  0.623382  1
  Nb  Nb4  1  0.953557  0.376782  0.790594  1
  Nb  Nb5  1  0.045260  0.877097  0.710714  1
  Nb  Nb6  1  0.455490  0.123382  0.210217  1
  Nb  Nb7  1  0.545540  0.622339  0.287741  1
  Nb  Nb8  1  0.377661  0.787741  0.954460  1
  Nb  Nb9  1  0.876618  0.710217  0.044510  1
  Nb  Nb10  1  0.122903  0.210714  0.454740  1
  Nb  Nb11  1  0.623218  0.290594  0.546443  1
  Al  Al12  1  0.428176  0.928038  0.571768  1
  Al  Al13  1  0.928232  0.571824  0.428038  1
  Al  Al14  1  0.071962  0.071768  0.071824  1
  Si  Si15  1  0.571655  0.428345  0.928345  1
  Pt  Pt16  1  0.178433  0.821567  0.321567  1
  Pt  Pt17  1  0.323403  0.180207  0.822512  1
  Pt  Pt18  1  0.819793  0.322512  0.176597  1
  Pt  Pt19  1  0.677488  0.676597  0.680207  1
  N  N20  1  0.875468  0.124532  0.624532  1
  N  N21  1  0.624721  0.876071  0.124238  1
  N  N22  1  0.123929  0.624238  0.875279  1
  N  N23  1  0.375762  0.375279  0.376071  1
