# generated using pymatgen
data_Tb4AlZn3Ga4
_symmetry_space_group_name_H-M   'P 1'
_cell_length_a   4.42895500
_cell_length_b   7.22325769
_cell_length_c   7.66373421
_cell_angle_alpha   89.90133167
_cell_angle_beta   90.00000000
_cell_angle_gamma   90.00000000
_symmetry_Int_Tables_number   1
_chemical_formula_structural   Tb4AlZn3Ga4
_chemical_formula_sum   'Tb4 Al1 Zn3 Ga4'
_cell_volume   245.17386128
_cell_formula_units_Z   1
loop_
 _symmetry_equiv_pos_site_id
 _symmetry_equiv_pos_as_xyz
  1  'x, y, z'
loop_
 _atom_site_type_symbol
 _atom_site_label
 _atom_site_symmetry_multiplicity
 _atom_site_fract_x
 _atom_site_fract_y
 _atom_site_fract_z
 _atom_site_occupancy
  Tb  Tb0  1  0.250000  0.997818  0.725467  1
  Tb  Tb1  1  0.250000  0.507122  0.775714  1
  Tb  Tb2  1  0.750000  0.998720  0.273284  1
  Tb  Tb3  1  0.750000  0.502981  0.224523  1
  Al  Al4  1  0.750000  0.283214  0.584390  1
  Zn  Zn5  1  0.250000  0.207889  0.081529  1
  Zn  Zn6  1  0.250000  0.710012  0.416450  1
  Zn  Zn7  1  0.750000  0.795288  0.918339  1
  Ga  Ga8  1  0.250000  0.270991  0.411777  1
  Ga  Ga9  1  0.250000  0.778992  0.086893  1
  Ga  Ga10  1  0.750000  0.723084  0.586081  1
  Ga  Ga11  1  0.750000  0.223889  0.915554  1
