# generated using pymatgen
data_Er12Co5Sn
_symmetry_space_group_name_H-M   'P 1'
_cell_length_a   8.19158081
_cell_length_b   8.19158022
_cell_length_c   8.19158101
_cell_angle_alpha   110.83319734
_cell_angle_beta   110.76025100
_cell_angle_gamma   106.85155704
_symmetry_Int_Tables_number   1
_chemical_formula_structural   Er12Co5Sn
_chemical_formula_sum   'Er12 Co5 Sn1'
_cell_volume   422.47745966
_cell_formula_units_Z   1
loop_
 _symmetry_equiv_pos_site_id
 _symmetry_equiv_pos_as_xyz
  1  'x, y, z'
loop_
 _atom_site_type_symbol
 _atom_site_label
 _atom_site_symmetry_multiplicity
 _atom_site_fract_x
 _atom_site_fract_y
 _atom_site_fract_z
 _atom_site_occupancy
  Er  Er0  1  0.288122  0.185075  0.473197  1
  Er  Er1  1  0.711878  0.814925  0.526803  1
  Er  Er2  1  0.288122  0.814925  0.103047  1
  Er  Er3  1  0.711878  0.185075  0.896953  1
  Er  Er4  1  0.619197  0.313744  0.305453  1
  Er  Er5  1  0.380803  0.686256  0.694547  1
  Er  Er6  1  0.008292  0.313744  0.694547  1
  Er  Er7  1  0.991708  0.686256  0.305453  1
  Er  Er8  1  0.211907  0.405734  0.193827  1
  Er  Er9  1  0.788093  0.594266  0.806173  1
  Er  Er10  1  0.211907  0.018080  0.806173  1
  Er  Er11  1  0.788093  0.981920  0.193827  1
  Co  Co12  1  0.000000  0.375379  0.375379  1
  Co  Co13  1  0.000000  0.624621  0.624621  1
  Co  Co14  1  0.387530  0.887530  0.500000  1
  Co  Co15  1  0.612470  0.112470  0.500000  1
  Co  Co16  1  0.000000  0.000000  0.000000  1
  Sn  Sn17  1  0.500000  0.500000  0.000000  1
