# generated using pymatgen
data_TbH5Os
_symmetry_space_group_name_H-M   'P 1'
_cell_length_a   4.42802500
_cell_length_b   4.74857400
_cell_length_c   11.68340600
_cell_angle_alpha   90.00000000
_cell_angle_beta   90.00000000
_cell_angle_gamma   90.00000000
_symmetry_Int_Tables_number   1
_chemical_formula_structural   TbH5Os
_chemical_formula_sum   'Tb4 H20 Os4'
_cell_volume   245.66469253
_cell_formula_units_Z   4
loop_
 _symmetry_equiv_pos_site_id
 _symmetry_equiv_pos_as_xyz
  1  'x, y, z'
loop_
 _atom_site_type_symbol
 _atom_site_label
 _atom_site_symmetry_multiplicity
 _atom_site_fract_x
 _atom_site_fract_y
 _atom_site_fract_z
 _atom_site_occupancy
  Tb  Tb0  1  0.279452  0.150234  0.649337  1
  Tb  Tb1  1  0.779452  0.349766  0.350663  1
  Tb  Tb2  1  0.220548  0.849766  0.149337  1
  Tb  Tb3  1  0.720548  0.650234  0.850663  1
  H  H4  1  0.551898  0.373909  0.518381  1
  H  H5  1  0.051898  0.126091  0.481619  1
  H  H6  1  0.948102  0.626091  0.018381  1
  H  H7  1  0.448102  0.873909  0.981619  1
  H  H8  1  0.129600  0.939243  0.818460  1
  H  H9  1  0.629600  0.560757  0.181540  1
  H  H10  1  0.370400  0.060757  0.318460  1
  H  H11  1  0.870400  0.439243  0.681540  1
  H  H12  1  0.201579  0.441167  0.829588  1
  H  H13  1  0.701579  0.058833  0.170412  1
  H  H14  1  0.298421  0.558833  0.329588  1
  H  H15  1  0.798421  0.941167  0.670412  1
  H  H16  1  0.620703  0.144338  0.824625  1
  H  H17  1  0.120703  0.355662  0.175375  1
  H  H18  1  0.879297  0.855662  0.324625  1
  H  H19  1  0.379297  0.644338  0.675375  1
  H  H20  1  0.979671  0.090076  0.996727  1
  H  H21  1  0.479671  0.409924  0.003273  1
  H  H22  1  0.520329  0.909924  0.496727  1
  H  H23  1  0.020329  0.590076  0.503273  1
  Os  Os24  1  0.316061  0.153589  0.908739  1
  Os  Os25  1  0.816061  0.346411  0.091261  1
  Os  Os26  1  0.183939  0.846411  0.408739  1
  Os  Os27  1  0.683939  0.653589  0.591261  1
