# generated using pymatgen
data_Ho2Er2BBr6
_symmetry_space_group_name_H-M   'P 1'
_cell_length_a   3.93680400
_cell_length_b   13.09879900
_cell_length_c   13.56543400
_cell_angle_alpha   90.00000000
_cell_angle_beta   90.00000000
_cell_angle_gamma   90.00000000
_symmetry_Int_Tables_number   1
_chemical_formula_structural   Ho2Er2BBr6
_chemical_formula_sum   'Ho4 Er4 B2 Br12'
_cell_volume   699.53421956
_cell_formula_units_Z   2
loop_
 _symmetry_equiv_pos_site_id
 _symmetry_equiv_pos_as_xyz
  1  'x, y, z'
loop_
 _atom_site_type_symbol
 _atom_site_label
 _atom_site_symmetry_multiplicity
 _atom_site_fract_x
 _atom_site_fract_y
 _atom_site_fract_z
 _atom_site_occupancy
  Ho  Ho0  1  0.500000  0.122371  0.856140  1
  Ho  Ho1  1  0.500000  0.877629  0.143860  1
  Ho  Ho2  1  0.500000  0.622371  0.643860  1
  Ho  Ho3  1  0.500000  0.377629  0.356140  1
  Er  Er4  1  0.000000  0.101023  0.080220  1
  Er  Er5  1  0.000000  0.898977  0.919780  1
  Er  Er6  1  0.000000  0.601023  0.419780  1
  Er  Er7  1  0.000000  0.398977  0.580220  1
  B  B8  1  0.500000  0.000000  0.000000  1
  B  B9  1  0.500000  0.500000  0.500000  1
  Br  Br10  1  0.500000  0.267996  0.681833  1
  Br  Br11  1  0.500000  0.732004  0.318167  1
  Br  Br12  1  0.500000  0.767996  0.818167  1
  Br  Br13  1  0.500000  0.232004  0.181833  1
  Br  Br14  1  0.000000  0.261036  0.931116  1
  Br  Br15  1  0.000000  0.738964  0.068884  1
  Br  Br16  1  0.000000  0.480679  0.239304  1
  Br  Br17  1  0.000000  0.519321  0.760696  1
  Br  Br18  1  0.000000  0.980679  0.260696  1
  Br  Br19  1  0.000000  0.019321  0.739304  1
  Br  Br20  1  0.000000  0.238964  0.431116  1
  Br  Br21  1  0.000000  0.761036  0.568884  1
