# generated using pymatgen
data_Tc2OsF15
_symmetry_space_group_name_H-M   'P 1'
_cell_length_a   9.36095315
_cell_length_b   9.39583195
_cell_length_c   8.53698800
_cell_angle_alpha   90.00000000
_cell_angle_beta   90.00000000
_cell_angle_gamma   120.15316816
_symmetry_Int_Tables_number   1
_chemical_formula_structural   Tc2OsF15
_chemical_formula_sum   'Tc4 Os2 F30'
_cell_volume   649.25939557
_cell_formula_units_Z   2
loop_
 _symmetry_equiv_pos_site_id
 _symmetry_equiv_pos_as_xyz
  1  'x, y, z'
loop_
 _atom_site_type_symbol
 _atom_site_label
 _atom_site_symmetry_multiplicity
 _atom_site_fract_x
 _atom_site_fract_y
 _atom_site_fract_z
 _atom_site_occupancy
  Tc  Tc0  1  0.590704  0.689958  0.250000  1
  Tc  Tc1  1  0.403891  0.299272  0.750000  1
  Tc  Tc2  1  0.689602  0.099354  0.750000  1
  Tc  Tc3  1  0.103974  0.405149  0.250000  1
  Os  Os4  1  0.892792  0.587366  0.750000  1
  Os  Os5  1  0.305722  0.892489  0.250000  1
  F  F6  1  0.879284  0.323789  0.250000  1
  F  F7  1  0.118251  0.663179  0.750000  1
  F  F8  1  0.454817  0.117752  0.250000  1
  F  F9  1  0.674883  0.550925  0.250000  1
  F  F10  1  0.322658  0.442302  0.750000  1
  F  F11  1  0.550064  0.875615  0.750000  1
  F  F12  1  0.140454  0.445741  0.462937  1
  F  F13  1  0.883320  0.577962  0.971370  1
  F  F14  1  0.306775  0.884097  0.471325  1
  F  F15  1  0.551144  0.691453  0.462584  1
  F  F16  1  0.446728  0.307736  0.962700  1
  F  F17  1  0.693461  0.139611  0.962974  1
  F  F18  1  0.067354  0.193072  0.250000  1
  F  F19  1  0.869662  0.067819  0.750000  1
  F  F20  1  0.191232  0.124183  0.750000  1
  F  F21  1  0.802359  0.870039  0.250000  1
  F  F22  1  0.123038  0.920911  0.250000  1
  F  F23  1  0.921274  0.798081  0.750000  1
  F  F24  1  0.354797  0.488558  0.250000  1
  F  F25  1  0.854739  0.356069  0.750000  1
  F  F26  1  0.490669  0.136067  0.750000  1
  F  F27  1  0.500075  0.855488  0.250000  1
  F  F28  1  0.147369  0.647438  0.250000  1
  F  F29  1  0.647025  0.501928  0.750000  1
  F  F30  1  0.140454  0.445741  0.037063  1
  F  F31  1  0.693461  0.139611  0.537026  1
  F  F32  1  0.446728  0.307736  0.537300  1
  F  F33  1  0.551144  0.691453  0.037416  1
  F  F34  1  0.306775  0.884097  0.028675  1
  F  F35  1  0.883320  0.577962  0.528630  1
