# generated using pymatgen
data_Zr18Be4SiP7
_symmetry_space_group_name_H-M   'P 1'
_cell_length_a   11.98833379
_cell_length_b   11.98814279
_cell_length_c   3.68323700
_cell_angle_alpha   90.00000000
_cell_angle_beta   90.00000000
_cell_angle_gamma   89.95849149
_symmetry_Int_Tables_number   1
_chemical_formula_structural   Zr18Be4SiP7
_chemical_formula_sum   'Zr18 Be4 Si1 P7'
_cell_volume   529.34679030
_cell_formula_units_Z   1
loop_
 _symmetry_equiv_pos_site_id
 _symmetry_equiv_pos_as_xyz
  1  'x, y, z'
loop_
 _atom_site_type_symbol
 _atom_site_label
 _atom_site_symmetry_multiplicity
 _atom_site_fract_x
 _atom_site_fract_y
 _atom_site_fract_z
 _atom_site_occupancy
  Zr  Zr0  1  0.998004  0.999552  0.000000  1
  Zr  Zr1  1  0.500438  0.500498  0.000000  1
  Zr  Zr2  1  0.104230  0.185143  0.500000  1
  Zr  Zr3  1  0.181746  0.892041  0.500000  1
  Zr  Zr4  1  0.816827  0.105503  0.500000  1
  Zr  Zr5  1  0.894088  0.816550  0.500000  1
  Zr  Zr6  1  0.394868  0.682026  0.500000  1
  Zr  Zr7  1  0.605662  0.317815  0.500000  1
  Zr  Zr8  1  0.682839  0.605343  0.500000  1
  Zr  Zr9  1  0.317820  0.395344  0.500000  1
  Zr  Zr10  1  0.098873  0.401260  0.000000  1
  Zr  Zr11  1  0.402067  0.900086  0.000000  1
  Zr  Zr12  1  0.599263  0.099510  0.000000  1
  Zr  Zr13  1  0.900674  0.599514  0.000000  1
  Zr  Zr14  1  0.385127  0.118422  0.500000  1
  Zr  Zr15  1  0.117381  0.616855  0.500000  1
  Zr  Zr16  1  0.882064  0.382678  0.500000  1
  Zr  Zr17  1  0.618033  0.881974  0.500000  1
  Be  Be18  1  0.261375  0.241018  0.000000  1
  Be  Be19  1  0.239652  0.739199  0.000000  1
  Be  Be20  1  0.760189  0.260552  0.000000  1
  Be  Be21  1  0.739697  0.760083  0.000000  1
  Si  Si22  1  0.225139  0.056643  0.000000  1
  P  P23  1  0.056959  0.773836  0.000000  1
  P  P24  1  0.942152  0.225665  0.000000  1
  P  P25  1  0.774107  0.942349  0.000000  1
  P  P26  1  0.274386  0.557207  0.000000  1
  P  P27  1  0.725609  0.442774  0.000000  1
  P  P28  1  0.557774  0.725071  0.000000  1
  P  P29  1  0.442955  0.275489  0.000000  1
