# generated using pymatgen
data_Zr6Re5Si6Os
_symmetry_space_group_name_H-M   'P 1'
_cell_length_a   7.80313510
_cell_length_b   7.80375459
_cell_length_c   7.80375552
_cell_angle_alpha   126.69532841
_cell_angle_beta   127.70746600
_cell_angle_gamma   77.92699003
_symmetry_Int_Tables_number   1
_chemical_formula_structural   Zr6Re5Si6Os
_chemical_formula_sum   'Zr6 Re5 Si6 Os1'
_cell_volume   292.15031046
_cell_formula_units_Z   1
loop_
 _symmetry_equiv_pos_site_id
 _symmetry_equiv_pos_as_xyz
  1  'x, y, z'
loop_
 _atom_site_type_symbol
 _atom_site_label
 _atom_site_symmetry_multiplicity
 _atom_site_fract_x
 _atom_site_fract_y
 _atom_site_fract_z
 _atom_site_occupancy
  Zr  Zr0  1  0.453405  0.660000  0.705205  1
  Zr  Zr1  1  0.546595  0.251799  0.206594  1
  Zr  Zr2  1  0.749952  0.849104  0.600793  1
  Zr  Zr3  1  0.250048  0.850841  0.099153  1
  Zr  Zr4  1  0.046708  0.251627  0.703532  1
  Zr  Zr5  1  0.953292  0.656825  0.204918  1
  Re  Re6  1  0.000000  0.507432  0.507432  1
  Re  Re7  1  0.124759  0.252809  0.123903  1
  Re  Re8  1  0.875241  0.999144  0.128051  1
  Re  Re9  1  0.371913  0.001207  0.625245  1
  Re  Re10  1  0.628087  0.253331  0.629295  1
  Si  Si11  1  0.250303  0.254902  0.503175  1
  Si  Si12  1  0.749697  0.252871  0.004599  1
  Si  Si13  1  0.332472  0.586259  0.251477  1
  Si  Si14  1  0.667528  0.919005  0.253787  1
  Si  Si15  1  0.165189  0.919544  0.751873  1
  Si  Si16  1  0.834811  0.586684  0.754355  1
  Os  Os17  1  0.500000  0.506216  0.006216  1
