# generated using pymatgen
data_Ce2Th(GaPt)3
_symmetry_space_group_name_H-M   'P 1'
_cell_length_a   7.32255873
_cell_length_b   7.32823020
_cell_length_c   4.07466000
_cell_angle_alpha   90.00000000
_cell_angle_beta   90.00000000
_cell_angle_gamma   120.02563354
_symmetry_Int_Tables_number   1
_chemical_formula_structural   Ce2Th(GaPt)3
_chemical_formula_sum   'Ce2 Th1 Ga3 Pt3'
_cell_volume   189.30920786
_cell_formula_units_Z   1
loop_
 _symmetry_equiv_pos_site_id
 _symmetry_equiv_pos_as_xyz
  1  'x, y, z'
loop_
 _atom_site_type_symbol
 _atom_site_label
 _atom_site_symmetry_multiplicity
 _atom_site_fract_x
 _atom_site_fract_y
 _atom_site_fract_z
 _atom_site_occupancy
  Ce  Ce0  1  0.413994  0.413773  0.500000  1
  Ce  Ce1  1  0.586006  0.999779  0.500000  1
  Th  Th2  1  0.000000  0.585574  0.500000  1
  Ga  Ga3  1  0.753290  0.756857  0.000000  1
  Ga  Ga4  1  0.246710  0.003567  0.000000  1
  Ga  Ga5  1  0.000000  0.240382  0.000000  1
  Pt  Pt6  1  0.667454  0.333947  0.000000  1
  Pt  Pt7  1  0.332546  0.666494  0.000000  1
  Pt  Pt8  1  0.000000  0.999626  0.500000  1
