# generated using pymatgen
data_Tb10Ir4RuRh
_symmetry_space_group_name_H-M   'P 1'
_cell_length_a   10.88229900
_cell_length_b   10.88229900
_cell_length_c   6.45330000
_cell_angle_alpha   90.00000000
_cell_angle_beta   90.00000000
_cell_angle_gamma   90.00000000
_symmetry_Int_Tables_number   1
_chemical_formula_structural   Tb10Ir4RuRh
_chemical_formula_sum   'Tb20 Ir8 Ru2 Rh2'
_cell_volume   764.22838396
_cell_formula_units_Z   2
loop_
 _symmetry_equiv_pos_site_id
 _symmetry_equiv_pos_as_xyz
  1  'x, y, z'
loop_
 _atom_site_type_symbol
 _atom_site_label
 _atom_site_symmetry_multiplicity
 _atom_site_fract_x
 _atom_site_fract_y
 _atom_site_fract_z
 _atom_site_occupancy
  Tb  Tb0  1  0.290272  0.088801  0.380076  1
  Tb  Tb1  1  0.290272  0.911199  0.880076  1
  Tb  Tb2  1  0.709728  0.088801  0.880076  1
  Tb  Tb3  1  0.709728  0.911199  0.380076  1
  Tb  Tb4  1  0.588801  0.790272  0.880076  1
  Tb  Tb5  1  0.588801  0.209728  0.380076  1
  Tb  Tb6  1  0.411199  0.790272  0.380076  1
  Tb  Tb7  1  0.411199  0.209728  0.880076  1
  Tb  Tb8  1  0.205950  0.413329  0.620299  1
  Tb  Tb9  1  0.205950  0.586671  0.120299  1
  Tb  Tb10  1  0.794050  0.413329  0.120299  1
  Tb  Tb11  1  0.794050  0.586671  0.620299  1
  Tb  Tb12  1  0.913329  0.705950  0.120299  1
  Tb  Tb13  1  0.913329  0.294050  0.620299  1
  Tb  Tb14  1  0.086671  0.705950  0.620299  1
  Tb  Tb15  1  0.086671  0.294050  0.120299  1
  Tb  Tb16  1  0.000000  0.000000  0.501309  1
  Tb  Tb17  1  0.000000  0.000000  0.001309  1
  Tb  Tb18  1  0.500000  0.500000  0.001309  1
  Tb  Tb19  1  0.500000  0.500000  0.501309  1
  Ir  Ir20  1  0.845778  0.151754  0.249648  1
  Ir  Ir21  1  0.845778  0.848246  0.749648  1
  Ir  Ir22  1  0.154222  0.151754  0.749648  1
  Ir  Ir23  1  0.154222  0.848246  0.249648  1
  Ir  Ir24  1  0.651754  0.345778  0.749648  1
  Ir  Ir25  1  0.651754  0.654222  0.249648  1
  Ir  Ir26  1  0.348246  0.345778  0.249648  1
  Ir  Ir27  1  0.348246  0.654222  0.749648  1
  Ru  Ru28  1  0.000000  0.500000  0.876604  1
  Ru  Ru29  1  0.000000  0.500000  0.376604  1
  Rh  Rh30  1  0.500000  0.000000  0.120687  1
  Rh  Rh31  1  0.500000  0.000000  0.620687  1
