# generated using pymatgen
data_Er2Tm2MnRu7
_symmetry_space_group_name_H-M   'P 1'
_cell_length_a   5.30333564
_cell_length_b   5.30655581
_cell_length_c   8.61250006
_cell_angle_alpha   90.00000127
_cell_angle_beta   89.97927028
_cell_angle_gamma   59.97988195
_symmetry_Int_Tables_number   1
_chemical_formula_structural   Er2Tm2MnRu7
_chemical_formula_sum   'Er2 Tm2 Mn1 Ru7'
_cell_volume   209.86190182
_cell_formula_units_Z   1
loop_
 _symmetry_equiv_pos_site_id
 _symmetry_equiv_pos_as_xyz
  1  'x, y, z'
loop_
 _atom_site_type_symbol
 _atom_site_label
 _atom_site_symmetry_multiplicity
 _atom_site_fract_x
 _atom_site_fract_y
 _atom_site_fract_z
 _atom_site_occupancy
  Er  Er0  1  0.333451  0.333274  0.565113  1
  Er  Er1  1  0.666549  0.666726  0.434887  1
  Tm  Tm2  1  0.666563  0.666719  0.067383  1
  Tm  Tm3  1  0.333437  0.333281  0.932617  1
  Mn  Mn4  1  0.000000  0.000000  0.000000  1
  Ru  Ru5  1  0.000000  0.000000  0.500000  1
  Ru  Ru6  1  0.828783  0.342521  0.754742  1
  Ru  Ru7  1  0.342547  0.828726  0.754703  1
  Ru  Ru8  1  0.828783  0.828695  0.754742  1
  Ru  Ru9  1  0.171217  0.657479  0.245258  1
  Ru  Ru10  1  0.657453  0.171274  0.245297  1
  Ru  Ru11  1  0.171217  0.171305  0.245258  1
