# generated using pymatgen
data_Dy7Tm(Sc3Ga4)4
_symmetry_space_group_name_H-M   'P 1'
_cell_length_a   7.27549041
_cell_length_b   7.52675423
_cell_length_c   14.51913008
_cell_angle_alpha   89.97390195
_cell_angle_beta   90.00548833
_cell_angle_gamma   90.00172121
_symmetry_Int_Tables_number   1
_chemical_formula_structural   Dy7Tm(Sc3Ga4)4
_chemical_formula_sum   'Dy7 Tm1 Sc12 Ga16'
_cell_volume   795.07950156
_cell_formula_units_Z   1
loop_
 _symmetry_equiv_pos_site_id
 _symmetry_equiv_pos_as_xyz
  1  'x, y, z'
loop_
 _atom_site_type_symbol
 _atom_site_label
 _atom_site_symmetry_multiplicity
 _atom_site_fract_x
 _atom_site_fract_y
 _atom_site_fract_z
 _atom_site_occupancy
  Dy  Dy0  1  0.011518  0.177705  0.095382  1
  Dy  Dy1  1  0.988488  0.822240  0.904405  1
  Dy  Dy2  1  0.488378  0.677727  0.904811  1
  Dy  Dy3  1  0.988477  0.821844  0.595338  1
  Dy  Dy4  1  0.511497  0.322264  0.095373  1
  Dy  Dy5  1  0.011736  0.177624  0.404789  1
  Dy  Dy6  1  0.511662  0.322435  0.405108  1
  Tm  Tm7  1  0.488555  0.678703  0.595699  1
  Sc  Sc8  1  0.161708  0.503287  0.749721  1
  Sc  Sc9  1  0.838427  0.497136  0.250019  1
  Sc  Sc10  1  0.338595  0.002778  0.250025  1
  Sc  Sc11  1  0.661268  0.996637  0.749716  1
  Sc  Sc12  1  0.330620  0.175180  0.624603  1
  Sc  Sc13  1  0.669198  0.824667  0.375719  1
  Sc  Sc14  1  0.169682  0.675134  0.375523  1
  Sc  Sc15  1  0.669546  0.824966  0.124605  1
  Sc  Sc16  1  0.829831  0.325225  0.624476  1
  Sc  Sc17  1  0.330532  0.175033  0.875082  1
  Sc  Sc18  1  0.830293  0.324986  0.875153  1
  Sc  Sc19  1  0.169514  0.675151  0.124577  1
  Ga  Ga20  1  0.032077  0.116423  0.749796  1
  Ga  Ga21  1  0.967976  0.883290  0.250144  1
  Ga  Ga22  1  0.468061  0.616602  0.250132  1
  Ga  Ga23  1  0.531862  0.384163  0.749633  1
  Ga  Ga24  1  0.285226  0.871996  0.749522  1
  Ga  Ga25  1  0.715182  0.127402  0.250104  1
  Ga  Ga26  1  0.215133  0.372498  0.250157  1
  Ga  Ga27  1  0.784082  0.627769  0.749478  1
  Ga  Ga28  1  0.161228  0.465840  0.540010  1
  Ga  Ga29  1  0.839771  0.535098  0.460183  1
  Ga  Ga30  1  0.340210  0.964083  0.460423  1
  Ga  Ga31  1  0.839977  0.535125  0.039873  1
  Ga  Ga32  1  0.659742  0.033954  0.540059  1
  Ga  Ga33  1  0.159871  0.465114  0.960244  1
  Ga  Ga34  1  0.660031  0.035005  0.960231  1
  Ga  Ga35  1  0.340045  0.964914  0.039886  1
