# generated using pymatgen
data_LiNd8BePd23
_symmetry_space_group_name_H-M   'P 1'
_cell_length_a   8.45074900
_cell_length_b   8.52251500
_cell_length_c   8.52251500
_cell_angle_alpha   90.00000000
_cell_angle_beta   90.00000000
_cell_angle_gamma   90.00000000
_symmetry_Int_Tables_number   1
_chemical_formula_structural   LiNd8BePd23
_chemical_formula_sum   'Li1 Nd8 Be1 Pd23'
_cell_volume   613.80546558
_cell_formula_units_Z   1
loop_
 _symmetry_equiv_pos_site_id
 _symmetry_equiv_pos_as_xyz
  1  'x, y, z'
loop_
 _atom_site_type_symbol
 _atom_site_label
 _atom_site_symmetry_multiplicity
 _atom_site_fract_x
 _atom_site_fract_y
 _atom_site_fract_z
 _atom_site_occupancy
  Li  Li0  1  0.258091  0.500000  0.500000  1
  Nd  Nd1  1  0.251310  0.246125  0.246125  1
  Nd  Nd2  1  0.747828  0.747157  0.747157  1
  Nd  Nd3  1  0.747828  0.747157  0.252843  1
  Nd  Nd4  1  0.747828  0.252843  0.747157  1
  Nd  Nd5  1  0.251310  0.246125  0.753875  1
  Nd  Nd6  1  0.251310  0.753875  0.246125  1
  Nd  Nd7  1  0.251310  0.753875  0.753875  1
  Nd  Nd8  1  0.747828  0.252843  0.252843  1
  Be  Be9  1  0.999843  0.000000  0.000000  1
  Pd  Pd10  1  0.253205  0.500000  0.000000  1
  Pd  Pd11  1  0.745520  0.500000  0.000000  1
  Pd  Pd12  1  0.004647  0.255632  0.500000  1
  Pd  Pd13  1  0.501062  0.255182  0.000000  1
  Pd  Pd14  1  0.004647  0.744368  0.500000  1
  Pd  Pd15  1  0.501062  0.744818  0.000000  1
  Pd  Pd16  1  0.501062  0.000000  0.255182  1
  Pd  Pd17  1  0.253205  0.000000  0.500000  1
  Pd  Pd18  1  0.501062  0.000000  0.744818  1
  Pd  Pd19  1  0.745520  0.000000  0.500000  1
  Pd  Pd20  1  0.004647  0.500000  0.255632  1
  Pd  Pd21  1  0.004647  0.500000  0.744368  1
  Pd  Pd22  1  0.748346  0.500000  0.500000  1
  Pd  Pd23  1  0.495241  0.252866  0.500000  1
  Pd  Pd24  1  0.495241  0.747134  0.500000  1
  Pd  Pd25  1  0.495241  0.500000  0.252866  1
  Pd  Pd26  1  0.495241  0.500000  0.747134  1
  Pd  Pd27  1  0.271480  0.000000  0.000000  1
  Pd  Pd28  1  0.731916  0.000000  0.000000  1
  Pd  Pd29  1  0.998130  0.268877  0.000000  1
  Pd  Pd30  1  0.998130  0.731123  0.000000  1
  Pd  Pd31  1  0.998130  0.000000  0.268877  1
  Pd  Pd32  1  0.998130  0.000000  0.731123  1
