# generated using pymatgen
data_Y8Sc12Ga13Si3
_symmetry_space_group_name_H-M   'P 1'
_cell_length_a   7.24667839
_cell_length_b   7.50629659
_cell_length_c   14.44474400
_cell_angle_alpha   90.00000000
_cell_angle_beta   90.00000000
_cell_angle_gamma   90.13936924
_symmetry_Int_Tables_number   1
_chemical_formula_structural   Y8Sc12Ga13Si3
_chemical_formula_sum   'Y8 Sc12 Ga13 Si3'
_cell_volume   785.72988679
_cell_formula_units_Z   1
loop_
 _symmetry_equiv_pos_site_id
 _symmetry_equiv_pos_as_xyz
  1  'x, y, z'
loop_
 _atom_site_type_symbol
 _atom_site_label
 _atom_site_symmetry_multiplicity
 _atom_site_fract_x
 _atom_site_fract_y
 _atom_site_fract_z
 _atom_site_occupancy
  Y  Y0  1  0.011906  0.178670  0.097156  1
  Y  Y1  1  0.987923  0.820943  0.904831  1
  Y  Y2  1  0.489498  0.677483  0.904858  1
  Y  Y3  1  0.987923  0.820943  0.595169  1
  Y  Y4  1  0.511358  0.320016  0.096850  1
  Y  Y5  1  0.011906  0.178670  0.402844  1
  Y  Y6  1  0.511358  0.320016  0.403150  1
  Y  Y7  1  0.489498  0.677483  0.595142  1
  Sc  Sc8  1  0.160987  0.503821  0.750000  1
  Sc  Sc9  1  0.837881  0.493612  0.250000  1
  Sc  Sc10  1  0.338462  0.005941  0.250000  1
  Sc  Sc11  1  0.665395  0.994542  0.750000  1
  Sc  Sc12  1  0.331681  0.174405  0.622752  1
  Sc  Sc13  1  0.669815  0.828004  0.377269  1
  Sc  Sc14  1  0.169890  0.671279  0.376595  1
  Sc  Sc15  1  0.669815  0.828004  0.122731  1
  Sc  Sc16  1  0.828585  0.329233  0.623289  1
  Sc  Sc17  1  0.331681  0.174405  0.877248  1
  Sc  Sc18  1  0.828585  0.329233  0.876711  1
  Sc  Sc19  1  0.169890  0.671279  0.123405  1
  Ga  Ga20  1  0.033571  0.119747  0.750000  1
  Ga  Ga21  1  0.967016  0.886249  0.250000  1
  Ga  Ga22  1  0.467857  0.613341  0.250000  1
  Ga  Ga23  1  0.532895  0.387763  0.750000  1
  Ga  Ga24  1  0.284645  0.872188  0.750000  1
  Ga  Ga25  1  0.159303  0.464266  0.540555  1
  Ga  Ga26  1  0.838729  0.534641  0.457987  1
  Ga  Ga27  1  0.338459  0.964487  0.458384  1
  Ga  Ga28  1  0.838729  0.534641  0.042013  1
  Ga  Ga29  1  0.661262  0.035479  0.540814  1
  Ga  Ga30  1  0.159303  0.464266  0.959445  1
  Ga  Ga31  1  0.661262  0.035479  0.959186  1
  Ga  Ga32  1  0.338459  0.964487  0.041616  1
  Si  Si33  1  0.715003  0.125024  0.250000  1
  Si  Si34  1  0.215008  0.374068  0.250000  1
  Si  Si35  1  0.784460  0.625891  0.750000  1
