# generated using pymatgen
data_CeY2Lu(ReB6)2
_symmetry_space_group_name_H-M   'P 1'
_cell_length_a   3.69293000
_cell_length_b   9.17517018
_cell_length_c   11.55994425
_cell_angle_alpha   90.17261114
_cell_angle_beta   90.00000000
_cell_angle_gamma   90.00000000
_symmetry_Int_Tables_number   1
_chemical_formula_structural   CeY2Lu(ReB6)2
_chemical_formula_sum   'Ce2 Y4 Lu2 Re4 B24'
_cell_volume   391.68683310
_cell_formula_units_Z   2
loop_
 _symmetry_equiv_pos_site_id
 _symmetry_equiv_pos_as_xyz
  1  'x, y, z'
loop_
 _atom_site_type_symbol
 _atom_site_label
 _atom_site_symmetry_multiplicity
 _atom_site_fract_x
 _atom_site_fract_y
 _atom_site_fract_z
 _atom_site_occupancy
  Ce  Ce0  1  0.000000  0.322851  0.413573  1
  Ce  Ce1  1  0.000000  0.677149  0.586427  1
  Y  Y2  1  0.000000  0.823072  0.085229  1
  Y  Y3  1  0.000000  0.176928  0.914771  1
  Y  Y4  1  0.000000  0.943946  0.370081  1
  Y  Y5  1  0.000000  0.056054  0.629919  1
  Lu  Lu6  1  0.000000  0.443085  0.128053  1
  Lu  Lu7  1  0.000000  0.556915  0.871947  1
  Re  Re8  1  0.000000  0.636400  0.319727  1
  Re  Re9  1  0.000000  0.363600  0.680273  1
  Re  Re10  1  0.000000  0.141368  0.179214  1
  Re  Re11  1  0.000000  0.858632  0.820786  1
  B  B12  1  0.500000  0.553772  0.430682  1
  B  B13  1  0.500000  0.446228  0.569318  1
  B  B14  1  0.500000  0.054503  0.066565  1
  B  B15  1  0.500000  0.945497  0.933435  1
  B  B16  1  0.500000  0.748169  0.416729  1
  B  B17  1  0.500000  0.251831  0.583271  1
  B  B18  1  0.500000  0.250972  0.080632  1
  B  B19  1  0.500000  0.749028  0.919368  1
  B  B20  1  0.500000  0.790907  0.263870  1
  B  B21  1  0.500000  0.209093  0.736130  1
  B  B22  1  0.500000  0.292881  0.232948  1
  B  B23  1  0.500000  0.707119  0.767052  1
  B  B24  1  0.500000  0.629088  0.183759  1
  B  B25  1  0.500000  0.370912  0.816241  1
  B  B26  1  0.500000  0.132230  0.312883  1
  B  B27  1  0.500000  0.867770  0.687117  1
  B  B28  1  0.500000  0.983548  0.210779  1
  B  B29  1  0.500000  0.016452  0.789221  1
  B  B30  1  0.500000  0.482437  0.285498  1
  B  B31  1  0.500000  0.517563  0.714502  1
  B  B32  1  0.500000  0.598163  0.027489  1
  B  B33  1  0.500000  0.401837  0.972511  1
  B  B34  1  0.500000  0.104546  0.471215  1
  B  B35  1  0.500000  0.895454  0.528785  1
