# generated using pymatgen
data_Hf6Ti4Al12OsPt6
_symmetry_space_group_name_H-M   'P 1'
_cell_length_a   8.81075618
_cell_length_b   8.81075652
_cell_length_c   8.79992900
_cell_angle_alpha   60.04063952
_cell_angle_beta   60.04063827
_cell_angle_gamma   59.87610938
_symmetry_Int_Tables_number   1
_chemical_formula_structural   Hf6Ti4Al12OsPt6
_chemical_formula_sum   'Hf6 Ti4 Al12 Os1 Pt6'
_cell_volume   482.89006402
_cell_formula_units_Z   1
loop_
 _symmetry_equiv_pos_site_id
 _symmetry_equiv_pos_as_xyz
  1  'x, y, z'
loop_
 _atom_site_type_symbol
 _atom_site_label
 _atom_site_symmetry_multiplicity
 _atom_site_fract_x
 _atom_site_fract_y
 _atom_site_fract_z
 _atom_site_occupancy
  Hf  Hf0  1  0.686118  0.686118  0.313882  1
  Hf  Hf1  1  0.319859  0.678906  0.315919  1
  Hf  Hf2  1  0.678906  0.319859  0.315919  1
  Hf  Hf3  1  0.315775  0.315775  0.684225  1
  Hf  Hf4  1  0.678906  0.319859  0.685316  1
  Hf  Hf5  1  0.319859  0.678906  0.685316  1
  Ti  Ti6  1  0.880321  0.880321  0.358421  1
  Ti  Ti7  1  0.872096  0.359359  0.884272  1
  Ti  Ti8  1  0.359359  0.872096  0.884272  1
  Ti  Ti9  1  0.880321  0.880321  0.880935  1
  Al  Al10  1  0.120983  0.120983  0.638974  1
  Al  Al11  1  0.127329  0.636601  0.118036  1
  Al  Al12  1  0.636601  0.127329  0.118036  1
  Al  Al13  1  0.120983  0.120983  0.119061  1
  Al  Al14  1  0.663877  0.663877  0.008943  1
  Al  Al15  1  0.663162  0.009935  0.663452  1
  Al  Al16  1  0.009935  0.663162  0.663452  1
  Al  Al17  1  0.663877  0.663877  0.663300  1
  Al  Al18  1  0.336987  0.336987  0.992901  1
  Al  Al19  1  0.336239  0.990221  0.336770  1
  Al  Al20  1  0.990221  0.336239  0.336770  1
  Al  Al21  1  0.336987  0.336987  0.333126  1
  Os  Os22  1  0.503417  0.503417  0.996583  1
  Pt  Pt23  1  0.998508  0.998508  0.001492  1
  Pt  Pt24  1  0.999320  0.999320  0.500680  1
  Pt  Pt25  1  0.500415  0.999611  0.500709  1
  Pt  Pt26  1  0.999611  0.500415  0.500709  1
  Pt  Pt27  1  0.999611  0.500415  0.999265  1
  Pt  Pt28  1  0.500415  0.999611  0.999265  1
