# generated using pymatgen
data_Na2SbPt2
_symmetry_space_group_name_H-M   'P 1'
_cell_length_a   5.67325980
_cell_length_b   5.67325955
_cell_length_c   8.06310385
_cell_angle_alpha   80.07793578
_cell_angle_beta   80.07793355
_cell_angle_gamma   62.54798155
_symmetry_Int_Tables_number   1
_chemical_formula_structural   Na2SbPt2
_chemical_formula_sum   'Na4 Sb2 Pt4'
_cell_volume   225.56704095
_cell_formula_units_Z   2
loop_
 _symmetry_equiv_pos_site_id
 _symmetry_equiv_pos_as_xyz
  1  'x, y, z'
loop_
 _atom_site_type_symbol
 _atom_site_label
 _atom_site_symmetry_multiplicity
 _atom_site_fract_x
 _atom_site_fract_y
 _atom_site_fract_z
 _atom_site_occupancy
  Na  Na0  1  0.772071  0.523238  0.849144  1
  Na  Na1  1  0.476762  0.227929  0.650856  1
  Na  Na2  1  0.227929  0.476762  0.150856  1
  Na  Na3  1  0.523238  0.772071  0.349144  1
  Sb  Sb4  1  0.119203  0.880797  0.750000  1
  Sb  Sb5  1  0.880797  0.119203  0.250000  1
  Pt  Pt6  1  0.002466  0.730096  0.497941  1
  Pt  Pt7  1  0.269904  0.997534  0.002059  1
  Pt  Pt8  1  0.997534  0.269904  0.502059  1
  Pt  Pt9  1  0.730096  0.002466  0.997941  1
