# generated using pymatgen
data_Pa5Ta3(Ni4P3)4
_symmetry_space_group_name_H-M   'P 1'
_cell_length_a   12.31655400
_cell_length_b   12.31655294
_cell_length_c   3.75875900
_cell_angle_alpha   90.00000000
_cell_angle_beta   90.00000000
_cell_angle_gamma   119.99999749
_symmetry_Int_Tables_number   1
_chemical_formula_structural   Pa5Ta3(Ni4P3)4
_chemical_formula_sum   'Pa5 Ta3 Ni16 P12'
_cell_volume   493.80276426
_cell_formula_units_Z   1
loop_
 _symmetry_equiv_pos_site_id
 _symmetry_equiv_pos_as_xyz
  1  'x, y, z'
loop_
 _atom_site_type_symbol
 _atom_site_label
 _atom_site_symmetry_multiplicity
 _atom_site_fract_x
 _atom_site_fract_y
 _atom_site_fract_z
 _atom_site_occupancy
  Pa  Pa0  1  0.817215  0.000000  0.500000  1
  Pa  Pa1  1  0.000000  0.817215  0.500000  1
  Pa  Pa2  1  0.182785  0.182785  0.500000  1
  Pa  Pa3  1  0.333333  0.666667  0.000000  1
  Pa  Pa4  1  0.666667  0.333333  0.000000  1
  Ta  Ta5  1  0.439714  0.000000  0.000000  1
  Ta  Ta6  1  0.000000  0.439714  0.000000  1
  Ta  Ta7  1  0.560286  0.560286  0.000000  1
  Ni  Ni8  1  0.279090  0.000000  0.500000  1
  Ni  Ni9  1  0.000000  0.279090  0.500000  1
  Ni  Ni10  1  0.720910  0.720910  0.500000  1
  Ni  Ni11  1  0.625587  0.807481  0.000000  1
  Ni  Ni12  1  0.192519  0.818106  0.000000  1
  Ni  Ni13  1  0.181894  0.374413  0.000000  1
  Ni  Ni14  1  0.374413  0.181894  0.000000  1
  Ni  Ni15  1  0.807481  0.625587  0.000000  1
  Ni  Ni16  1  0.818106  0.192519  0.000000  1
  Ni  Ni17  1  0.520949  0.879033  0.500000  1
  Ni  Ni18  1  0.120967  0.641916  0.500000  1
  Ni  Ni19  1  0.358084  0.479051  0.500000  1
  Ni  Ni20  1  0.479051  0.358084  0.500000  1
  Ni  Ni21  1  0.879033  0.520949  0.500000  1
  Ni  Ni22  1  0.641916  0.120967  0.500000  1
  Ni  Ni23  1  0.000000  0.000000  0.000000  1
  P  P24  1  0.178904  0.000000  0.000000  1
  P  P25  1  0.000000  0.178904  0.000000  1
  P  P26  1  0.821096  0.821096  0.000000  1
  P  P27  1  0.517622  0.686255  0.500000  1
  P  P28  1  0.313745  0.831368  0.500000  1
  P  P29  1  0.168632  0.482378  0.500000  1
  P  P30  1  0.482378  0.168632  0.500000  1
  P  P31  1  0.686255  0.517622  0.500000  1
  P  P32  1  0.831368  0.313745  0.500000  1
  P  P33  1  0.636842  0.000000  0.000000  1
  P  P34  1  0.000000  0.636842  0.000000  1
  P  P35  1  0.363158  0.363158  0.000000  1
