# generated using pymatgen
data_TbDy2ThPt4
_symmetry_space_group_name_H-M   'P 1'
_cell_length_a   4.58242500
_cell_length_b   5.64765322
_cell_length_c   7.10158338
_cell_angle_alpha   90.52585969
_cell_angle_beta   90.00000000
_cell_angle_gamma   90.00000000
_symmetry_Int_Tables_number   1
_chemical_formula_structural   TbDy2ThPt4
_chemical_formula_sum   'Tb1 Dy2 Th1 Pt4'
_cell_volume   183.78086308
_cell_formula_units_Z   1
loop_
 _symmetry_equiv_pos_site_id
 _symmetry_equiv_pos_as_xyz
  1  'x, y, z'
loop_
 _atom_site_type_symbol
 _atom_site_label
 _atom_site_symmetry_multiplicity
 _atom_site_fract_x
 _atom_site_fract_y
 _atom_site_fract_z
 _atom_site_occupancy
  Tb  Tb0  1  0.750000  0.641299  0.314709  1
  Dy  Dy1  1  0.250000  0.138837  0.182707  1
  Dy  Dy2  1  0.750000  0.859263  0.821050  1
  Th  Th3  1  0.250000  0.361035  0.682151  1
  Pt  Pt4  1  0.250000  0.843720  0.544673  1
  Pt  Pt5  1  0.250000  0.656391  0.043918  1
  Pt  Pt6  1  0.750000  0.156239  0.454246  1
  Pt  Pt7  1  0.750000  0.343213  0.956546  1
