# generated using pymatgen
data_Tb3Tm9(TcRh)2
_symmetry_space_group_name_H-M   'P 1'
_cell_length_a   6.27446973
_cell_length_b   7.29285885
_cell_length_c   9.12047000
_cell_angle_alpha   90.00000000
_cell_angle_beta   90.00000000
_cell_angle_gamma   90.05525915
_symmetry_Int_Tables_number   1
_chemical_formula_structural   Tb3Tm9(TcRh)2
_chemical_formula_sum   'Tb3 Tm9 Tc2 Rh2'
_cell_volume   417.34176995
_cell_formula_units_Z   1
loop_
 _symmetry_equiv_pos_site_id
 _symmetry_equiv_pos_as_xyz
  1  'x, y, z'
loop_
 _atom_site_type_symbol
 _atom_site_label
 _atom_site_symmetry_multiplicity
 _atom_site_fract_x
 _atom_site_fract_y
 _atom_site_fract_z
 _atom_site_occupancy
  Tb  Tb0  1  0.628522  0.038240  0.250000  1
  Tb  Tb1  1  0.137365  0.459134  0.750000  1
  Tb  Tb2  1  0.362720  0.959050  0.750000  1
  Tm  Tm3  1  0.327841  0.677430  0.068199  1
  Tm  Tm4  1  0.170686  0.177998  0.432092  1
  Tm  Tm5  1  0.665403  0.323836  0.559932  1
  Tm  Tm6  1  0.835271  0.822348  0.939917  1
  Tm  Tm7  1  0.665403  0.323836  0.940068  1
  Tm  Tm8  1  0.835271  0.822348  0.560083  1
  Tm  Tm9  1  0.327841  0.677430  0.431801  1
  Tm  Tm10  1  0.170686  0.177998  0.067908  1
  Tm  Tm11  1  0.871482  0.538211  0.250000  1
  Tc  Tc12  1  0.038419  0.885764  0.250000  1
  Tc  Tc13  1  0.462933  0.386971  0.250000  1
  Rh  Rh14  1  0.947440  0.114748  0.750000  1
  Rh  Rh15  1  0.552717  0.614654  0.750000  1
