# generated using pymatgen
data_Nd3Cu3Sn5Pd3
_symmetry_space_group_name_H-M   'P 1'
_cell_length_a   4.47298600
_cell_length_b   9.68727864
_cell_length_c   13.72437618
_cell_angle_alpha   89.53837733
_cell_angle_beta   90.00000000
_cell_angle_gamma   90.00000000
_symmetry_Int_Tables_number   1
_chemical_formula_structural   Nd3Cu3Sn5Pd3
_chemical_formula_sum   'Nd6 Cu6 Sn10 Pd6'
_cell_volume   594.67249001
_cell_formula_units_Z   2
loop_
 _symmetry_equiv_pos_site_id
 _symmetry_equiv_pos_as_xyz
  1  'x, y, z'
loop_
 _atom_site_type_symbol
 _atom_site_label
 _atom_site_symmetry_multiplicity
 _atom_site_fract_x
 _atom_site_fract_y
 _atom_site_fract_z
 _atom_site_occupancy
  Nd  Nd0  1  0.000000  0.228721  0.999134  1
  Nd  Nd1  1  0.500000  0.771279  0.500866  1
  Nd  Nd2  1  0.000000  0.240402  0.320642  1
  Nd  Nd3  1  0.500000  0.759598  0.179358  1
  Nd  Nd4  1  0.000000  0.237108  0.676967  1
  Nd  Nd5  1  0.500000  0.762892  0.823033  1
  Cu  Cu6  1  0.000000  0.990769  0.150202  1
  Cu  Cu7  1  0.500000  0.009231  0.349798  1
  Cu  Cu8  1  0.000000  0.993300  0.849473  1
  Cu  Cu9  1  0.500000  0.006700  0.650527  1
  Cu  Cu10  1  0.000000  0.597273  0.312029  1
  Cu  Cu11  1  0.500000  0.402727  0.187971  1
  Sn  Sn12  1  0.000000  0.522164  0.125879  1
  Sn  Sn13  1  0.500000  0.477836  0.374121  1
  Sn  Sn14  1  0.000000  0.528431  0.885098  1
  Sn  Sn15  1  0.500000  0.471569  0.614902  1
  Sn  Sn16  1  0.000000  0.867005  0.330296  1
  Sn  Sn17  1  0.500000  0.132995  0.169704  1
  Sn  Sn18  1  0.000000  0.866566  0.669863  1
  Sn  Sn19  1  0.500000  0.133434  0.830137  1
  Sn  Sn20  1  0.000000  0.809647  0.000790  1
  Sn  Sn21  1  0.500000  0.190353  0.499210  1
  Pd  Pd22  1  0.500000  0.980338  0.001523  1
  Pd  Pd23  1  0.000000  0.019662  0.498477  1
  Pd  Pd24  1  0.000000  0.587078  0.691614  1
  Pd  Pd25  1  0.500000  0.412922  0.808386  1
  Pd  Pd26  1  0.500000  0.492778  0.006191  1
  Pd  Pd27  1  0.000000  0.507222  0.493809  1
