# generated using pymatgen
data_LaPa(NiSb)2
_symmetry_space_group_name_H-M   'P 1'
_cell_length_a   4.39500100
_cell_length_b   4.39500130
_cell_length_c   16.76373600
_cell_angle_alpha   90.00000000
_cell_angle_beta   90.00000000
_cell_angle_gamma   120.00002030
_symmetry_Int_Tables_number   1
_chemical_formula_structural   LaPa(NiSb)2
_chemical_formula_sum   'La2 Pa2 Ni4 Sb4'
_cell_volume   280.42668760
_cell_formula_units_Z   2
loop_
 _symmetry_equiv_pos_site_id
 _symmetry_equiv_pos_as_xyz
  1  'x, y, z'
loop_
 _atom_site_type_symbol
 _atom_site_label
 _atom_site_symmetry_multiplicity
 _atom_site_fract_x
 _atom_site_fract_y
 _atom_site_fract_z
 _atom_site_occupancy
  La  La0  1  0.000000  0.000000  0.000000  1
  La  La1  1  0.000000  0.000000  0.500000  1
  Pa  Pa2  1  0.000000  0.000000  0.250000  1
  Pa  Pa3  1  0.000000  0.000000  0.750000  1
  Ni  Ni4  1  0.333333  0.666667  0.169929  1
  Ni  Ni5  1  0.666667  0.333333  0.830071  1
  Ni  Ni6  1  0.666667  0.333333  0.669929  1
  Ni  Ni7  1  0.333333  0.666667  0.330071  1
  Sb  Sb8  1  0.333333  0.666667  0.623575  1
  Sb  Sb9  1  0.666667  0.333333  0.376425  1
  Sb  Sb10  1  0.666667  0.333333  0.123575  1
  Sb  Sb11  1  0.333333  0.666667  0.876425  1
