# generated using pymatgen
data_Yb3CdAs3Pd2
_symmetry_space_group_name_H-M   'P 1'
_cell_length_a   7.22094900
_cell_length_b   7.01844071
_cell_length_c   4.24777400
_cell_angle_alpha   90.00000000
_cell_angle_beta   90.00000000
_cell_angle_gamma   120.95915878
_symmetry_Int_Tables_number   1
_chemical_formula_structural   Yb3CdAs3Pd2
_chemical_formula_sum   'Yb3 Cd1 As3 Pd2'
_cell_volume   184.60683192
_cell_formula_units_Z   1
loop_
 _symmetry_equiv_pos_site_id
 _symmetry_equiv_pos_as_xyz
  1  'x, y, z'
loop_
 _atom_site_type_symbol
 _atom_site_label
 _atom_site_symmetry_multiplicity
 _atom_site_fract_x
 _atom_site_fract_y
 _atom_site_fract_z
 _atom_site_occupancy
  Yb  Yb0  1  0.997937  0.572090  0.500000  1
  Yb  Yb1  1  0.425846  0.427910  0.500000  1
  Yb  Yb2  1  0.592788  0.000000  0.500000  1
  Cd  Cd3  1  0.239569  0.000000  0.000000  1
  As  As4  1  0.674206  0.342261  0.000000  1
  As  As5  1  0.331944  0.657739  0.000000  1
  As  As6  1  0.986230  0.000000  0.500000  1
  Pd  Pd7  1  0.751845  0.752210  0.000000  1
  Pd  Pd8  1  0.999635  0.247790  0.000000  1
