# generated using pymatgen
data_Ca5YSi4(GeRh6)2
_symmetry_space_group_name_H-M   'P 1'
_cell_length_a   5.65296500
_cell_length_b   5.65296313
_cell_length_c   15.08236300
_cell_angle_alpha   90.00000000
_cell_angle_beta   90.00000000
_cell_angle_gamma   119.99999340
_symmetry_Int_Tables_number   1
_chemical_formula_structural   Ca5YSi4(GeRh6)2
_chemical_formula_sum   'Ca5 Y1 Si4 Ge2 Rh12'
_cell_volume   417.40005206
_cell_formula_units_Z   1
loop_
 _symmetry_equiv_pos_site_id
 _symmetry_equiv_pos_as_xyz
  1  'x, y, z'
loop_
 _atom_site_type_symbol
 _atom_site_label
 _atom_site_symmetry_multiplicity
 _atom_site_fract_x
 _atom_site_fract_y
 _atom_site_fract_z
 _atom_site_occupancy
  Ca  Ca0  1  0.666667  0.333333  0.959998  1
  Ca  Ca1  1  0.666667  0.333333  0.542583  1
  Ca  Ca2  1  0.333333  0.666667  0.037777  1
  Ca  Ca3  1  0.666667  0.333333  0.750809  1
  Ca  Ca4  1  0.333333  0.666667  0.245545  1
  Y  Y5  1  0.333333  0.666667  0.460087  1
  Si  Si6  1  0.666667  0.333333  0.250930  1
  Si  Si7  1  0.000000  0.000000  0.251314  1
  Si  Si8  1  0.000000  0.000000  0.749226  1
  Si  Si9  1  0.333333  0.666667  0.749636  1
  Ge  Ge10  1  0.000000  0.000000  0.500759  1
  Ge  Ge11  1  0.000000  0.000000  0.999956  1
  Rh  Rh12  1  0.165412  0.330823  0.863634  1
  Rh  Rh13  1  0.166543  0.333086  0.634418  1
  Rh  Rh14  1  0.669177  0.834588  0.863634  1
  Rh  Rh15  1  0.332586  0.166293  0.366049  1
  Rh  Rh16  1  0.833707  0.667414  0.366049  1
  Rh  Rh17  1  0.833707  0.166293  0.366049  1
  Rh  Rh18  1  0.834399  0.165601  0.136360  1
  Rh  Rh19  1  0.331201  0.165601  0.136360  1
  Rh  Rh20  1  0.666914  0.833457  0.634418  1
  Rh  Rh21  1  0.166543  0.833457  0.634418  1
  Rh  Rh22  1  0.834399  0.668799  0.136360  1
  Rh  Rh23  1  0.165412  0.834588  0.863634  1
