# generated using pymatgen
data_Y2Si5Pt2Rh
_symmetry_space_group_name_H-M   'P 1'
_cell_length_a   8.14969592
_cell_length_b   8.14969636
_cell_length_c   5.96117143
_cell_angle_alpha   68.69112889
_cell_angle_beta   68.69112700
_cell_angle_gamma   89.02229587
_symmetry_Int_Tables_number   1
_chemical_formula_structural   Y2Si5Pt2Rh
_chemical_formula_sum   'Y4 Si10 Pt4 Rh2'
_cell_volume   340.61243645
_cell_formula_units_Z   2
loop_
 _symmetry_equiv_pos_site_id
 _symmetry_equiv_pos_as_xyz
  1  'x, y, z'
loop_
 _atom_site_type_symbol
 _atom_site_label
 _atom_site_symmetry_multiplicity
 _atom_site_fract_x
 _atom_site_fract_y
 _atom_site_fract_z
 _atom_site_occupancy
  Y  Y0  1  0.860802  0.599080  0.770613  1
  Y  Y1  1  0.139198  0.400920  0.229387  1
  Y  Y2  1  0.400920  0.139198  0.729387  1
  Y  Y3  1  0.599080  0.860802  0.270613  1
  Si  Si4  1  0.775383  0.224617  0.750000  1
  Si  Si5  1  0.224617  0.775383  0.250000  1
  Si  Si6  1  0.500729  0.499271  0.750000  1
  Si  Si7  1  0.499271  0.500729  0.250000  1
  Si  Si8  1  0.223807  0.776193  0.750000  1
  Si  Si9  1  0.776193  0.223807  0.250000  1
  Si  Si10  1  0.255589  0.044985  0.349412  1
  Si  Si11  1  0.744411  0.955015  0.650588  1
  Si  Si12  1  0.955015  0.744411  0.150588  1
  Si  Si13  1  0.044985  0.255589  0.849412  1
  Pt  Pt14  1  0.524391  0.248090  0.114314  1
  Pt  Pt15  1  0.751910  0.475609  0.385686  1
  Pt  Pt16  1  0.475609  0.751910  0.885686  1
  Pt  Pt17  1  0.248090  0.524391  0.614314  1
  Rh  Rh18  1  0.999635  0.000365  0.250000  1
  Rh  Rh19  1  0.000365  0.999635  0.750000  1
