# generated using pymatgen
data_Pr2ScAlIr2
_symmetry_space_group_name_H-M   'P 1'
_cell_length_a   4.37995800
_cell_length_b   7.25643900
_cell_length_c   8.32848600
_cell_angle_alpha   90.00000000
_cell_angle_beta   90.00000000
_cell_angle_gamma   90.00000000
_symmetry_Int_Tables_number   1
_chemical_formula_structural   Pr2ScAlIr2
_chemical_formula_sum   'Pr4 Sc2 Al2 Ir4'
_cell_volume   264.70342145
_cell_formula_units_Z   2
loop_
 _symmetry_equiv_pos_site_id
 _symmetry_equiv_pos_as_xyz
  1  'x, y, z'
loop_
 _atom_site_type_symbol
 _atom_site_label
 _atom_site_symmetry_multiplicity
 _atom_site_fract_x
 _atom_site_fract_y
 _atom_site_fract_z
 _atom_site_occupancy
  Pr  Pr0  1  0.250000  0.545918  0.821842  1
  Pr  Pr1  1  0.250000  0.021032  0.678336  1
  Pr  Pr2  1  0.750000  0.954082  0.321842  1
  Pr  Pr3  1  0.750000  0.478968  0.178336  1
  Sc  Sc4  1  0.250000  0.125072  0.060763  1
  Sc  Sc5  1  0.750000  0.374928  0.560763  1
  Al  Al6  1  0.250000  0.638202  0.437201  1
  Al  Al7  1  0.750000  0.861798  0.937201  1
  Ir  Ir8  1  0.250000  0.767716  0.117256  1
  Ir  Ir9  1  0.250000  0.272184  0.384604  1
  Ir  Ir10  1  0.750000  0.732284  0.617256  1
  Ir  Ir11  1  0.750000  0.227816  0.884604  1
