# generated using pymatgen
data_Tm9Lu11ZnSb11
_symmetry_space_group_name_H-M   'P 1'
_cell_length_a   7.89419546
_cell_length_b   9.12332326
_cell_length_c   11.54321300
_cell_angle_alpha   89.98888415
_cell_angle_beta   89.71383910
_cell_angle_gamma   90.00785108
_symmetry_Int_Tables_number   1
_chemical_formula_structural   Tm9Lu11ZnSb11
_chemical_formula_sum   'Tm9 Lu11 Zn1 Sb11'
_cell_volume   831.34677973
_cell_formula_units_Z   1
loop_
 _symmetry_equiv_pos_site_id
 _symmetry_equiv_pos_as_xyz
  1  'x, y, z'
loop_
 _atom_site_type_symbol
 _atom_site_label
 _atom_site_symmetry_multiplicity
 _atom_site_fract_x
 _atom_site_fract_y
 _atom_site_fract_z
 _atom_site_occupancy
  Tm  Tm0  1  0.355276  0.249877  0.293168  1
  Tm  Tm1  1  0.649820  0.750090  0.714452  1
  Tm  Tm2  1  0.152090  0.750311  0.784260  1
  Tm  Tm3  1  0.850041  0.250189  0.214134  1
  Tm  Tm4  1  0.189206  0.249843  0.780149  1
  Tm  Tm5  1  0.810975  0.750129  0.218916  1
  Tm  Tm6  1  0.313199  0.750272  0.279739  1
  Tm  Tm7  1  0.678116  0.250130  0.714304  1
  Tm  Tm8  1  0.308434  0.546465  0.559432  1
  Lu  Lu9  1  0.034951  0.249806  0.507965  1
  Lu  Lu10  1  0.977040  0.750131  0.490386  1
  Lu  Lu11  1  0.473016  0.750034  0.009384  1
  Lu  Lu12  1  0.527028  0.250087  0.989957  1
  Lu  Lu13  1  0.193316  0.062406  0.061832  1
  Lu  Lu14  1  0.806253  0.937854  0.940023  1
  Lu  Lu15  1  0.308423  0.952770  0.559384  1
  Lu  Lu16  1  0.806303  0.562171  0.940084  1
  Lu  Lu17  1  0.687155  0.066348  0.444147  1
  Lu  Lu18  1  0.193256  0.437560  0.061928  1
  Lu  Lu19  1  0.687182  0.433659  0.444238  1
  Zn  Zn20  1  0.410119  0.248851  0.539757  1
  Sb  Sb21  1  0.590935  0.750213  0.458010  1
  Sb  Sb22  1  0.090969  0.749998  0.041180  1
  Sb  Sb23  1  0.909090  0.249996  0.956790  1
  Sb  Sb24  1  0.061638  0.002906  0.324974  1
  Sb  Sb25  1  0.936584  0.997327  0.674580  1
  Sb  Sb26  1  0.436646  0.997356  0.825869  1
  Sb  Sb27  1  0.936471  0.502905  0.674683  1
  Sb  Sb28  1  0.563870  0.003663  0.172498  1
  Sb  Sb29  1  0.062025  0.497267  0.325162  1
  Sb  Sb30  1  0.564043  0.496562  0.172595  1
  Sb  Sb31  1  0.436532  0.502824  0.826025  1
