# generated using pymatgen
data_Zr6Nb4Al12FeIr5Ru
_symmetry_space_group_name_H-M   'P 1'
_cell_length_a   8.85500030
_cell_length_b   8.85500073
_cell_length_c   8.85284700
_cell_angle_alpha   60.00804914
_cell_angle_beta   60.00804751
_cell_angle_gamma   60.02409457
_symmetry_Int_Tables_number   1
_chemical_formula_structural   Zr6Nb4Al12FeIr5Ru
_chemical_formula_sum   'Zr6 Nb4 Al12 Fe1 Ir5 Ru1'
_cell_volume   490.99492518
_cell_formula_units_Z   1
loop_
 _symmetry_equiv_pos_site_id
 _symmetry_equiv_pos_as_xyz
  1  'x, y, z'
loop_
 _atom_site_type_symbol
 _atom_site_label
 _atom_site_symmetry_multiplicity
 _atom_site_fract_x
 _atom_site_fract_y
 _atom_site_fract_z
 _atom_site_occupancy
  Zr  Zr0  1  0.691766  0.691766  0.308234  1
  Zr  Zr1  1  0.311543  0.688683  0.311973  1
  Zr  Zr2  1  0.688683  0.311543  0.311973  1
  Zr  Zr3  1  0.308300  0.308300  0.691700  1
  Zr  Zr4  1  0.688683  0.311543  0.687801  1
  Zr  Zr5  1  0.311543  0.688683  0.687801  1
  Nb  Nb6  1  0.883998  0.883998  0.352199  1
  Nb  Nb7  1  0.883299  0.351251  0.882725  1
  Nb  Nb8  1  0.351251  0.883299  0.882725  1
  Nb  Nb9  1  0.883998  0.883998  0.879806  1
  Al  Al10  1  0.119110  0.119110  0.639957  1
  Al  Al11  1  0.118896  0.640790  0.120156  1
  Al  Al12  1  0.640790  0.118896  0.120156  1
  Al  Al13  1  0.119110  0.119110  0.121825  1
  Al  Al14  1  0.661512  0.661512  0.015996  1
  Al  Al15  1  0.662156  0.015258  0.661293  1
  Al  Al16  1  0.015258  0.662156  0.661293  1
  Al  Al17  1  0.661512  0.661512  0.660979  1
  Al  Al18  1  0.337315  0.337315  0.987904  1
  Al  Al19  1  0.335899  0.988349  0.337878  1
  Al  Al20  1  0.988349  0.335899  0.337878  1
  Al  Al21  1  0.337315  0.337315  0.337468  1
  Fe  Fe22  1  0.000891  0.000891  0.999109  1
  Ir  Ir23  1  0.501779  0.998251  0.502258  1
  Ir  Ir24  1  0.998251  0.501779  0.502258  1
  Ir  Ir25  1  0.501946  0.501946  0.998054  1
  Ir  Ir26  1  0.998251  0.501779  0.997711  1
  Ir  Ir27  1  0.501779  0.998251  0.997711  1
  Ru  Ru28  1  0.996817  0.996817  0.503183  1
