# generated using pymatgen
data_Ho7Tm4In9Ni4
_symmetry_space_group_name_H-M   'P 1'
_cell_length_a   3.60999100
_cell_length_b   12.94547524
_cell_length_c   12.94547408
_cell_angle_alpha   112.44656807
_cell_angle_beta   90.00000000
_cell_angle_gamma   90.00000000
_symmetry_Int_Tables_number   1
_chemical_formula_structural   Ho7Tm4In9Ni4
_chemical_formula_sum   'Ho7 Tm4 In9 Ni4'
_cell_volume   559.14566369
_cell_formula_units_Z   1
loop_
 _symmetry_equiv_pos_site_id
 _symmetry_equiv_pos_as_xyz
  1  'x, y, z'
loop_
 _atom_site_type_symbol
 _atom_site_label
 _atom_site_symmetry_multiplicity
 _atom_site_fract_x
 _atom_site_fract_y
 _atom_site_fract_z
 _atom_site_occupancy
  Ho  Ho0  1  0.000000  0.159547  0.840453  1
  Ho  Ho1  1  0.000000  0.840453  0.159547  1
  Ho  Ho2  1  0.000000  0.373424  0.626576  1
  Ho  Ho3  1  0.000000  0.626576  0.373424  1
  Ho  Ho4  1  0.000000  0.687839  0.687839  1
  Ho  Ho5  1  0.000000  0.312161  0.312161  1
  Ho  Ho6  1  0.000000  0.000000  0.000000  1
  Tm  Tm7  1  0.000000  0.918391  0.581363  1
  Tm  Tm8  1  0.000000  0.081609  0.418637  1
  Tm  Tm9  1  0.000000  0.581363  0.918391  1
  Tm  Tm10  1  0.000000  0.418637  0.081609  1
  In  In11  1  0.500000  0.156146  0.632365  1
  In  In12  1  0.500000  0.843854  0.367635  1
  In  In13  1  0.500000  0.632365  0.156146  1
  In  In14  1  0.500000  0.367635  0.843854  1
  In  In15  1  0.500000  0.923936  0.779694  1
  In  In16  1  0.500000  0.076064  0.220306  1
  In  In17  1  0.500000  0.779694  0.923936  1
  In  In18  1  0.500000  0.220306  0.076064  1
  In  In19  1  0.500000  0.500000  0.500000  1
  Ni  Ni20  1  0.500000  0.752792  0.548986  1
  Ni  Ni21  1  0.500000  0.247208  0.451014  1
  Ni  Ni22  1  0.500000  0.548986  0.752792  1
  Ni  Ni23  1  0.500000  0.451014  0.247208  1
