# generated using pymatgen
data_CsRbHo2(Bi2Se5)2
_symmetry_space_group_name_H-M   'P 1'
_cell_length_a   4.17751200
_cell_length_b   12.42101823
_cell_length_c   22.80072541
_cell_angle_alpha   90.16075233
_cell_angle_beta   90.00000000
_cell_angle_gamma   90.00000000
_symmetry_Int_Tables_number   1
_chemical_formula_structural   CsRbHo2(Bi2Se5)2
_chemical_formula_sum   'Cs2 Rb2 Ho4 Bi8 Se20'
_cell_volume   1183.10110650
_cell_formula_units_Z   2
loop_
 _symmetry_equiv_pos_site_id
 _symmetry_equiv_pos_as_xyz
  1  'x, y, z'
loop_
 _atom_site_type_symbol
 _atom_site_label
 _atom_site_symmetry_multiplicity
 _atom_site_fract_x
 _atom_site_fract_y
 _atom_site_fract_z
 _atom_site_occupancy
  Cs  Cs0  1  0.250000  0.489766  0.211303  1
  Cs  Cs1  1  0.750000  0.510234  0.788697  1
  Rb  Rb2  1  0.750000  0.989036  0.289791  1
  Rb  Rb3  1  0.250000  0.010964  0.710209  1
  Ho  Ho4  1  0.250000  0.364201  0.023527  1
  Ho  Ho5  1  0.750000  0.635799  0.976473  1
  Ho  Ho6  1  0.750000  0.864628  0.476354  1
  Ho  Ho7  1  0.250000  0.135372  0.523646  1
  Bi  Bi8  1  0.250000  0.804659  0.123652  1
  Bi  Bi9  1  0.750000  0.195341  0.876348  1
  Bi  Bi10  1  0.750000  0.299611  0.377480  1
  Bi  Bi11  1  0.250000  0.700389  0.622520  1
  Bi  Bi12  1  0.250000  0.596402  0.426342  1
  Bi  Bi13  1  0.750000  0.403598  0.573658  1
  Bi  Bi14  1  0.750000  0.095087  0.074500  1
  Bi  Bi15  1  0.250000  0.904913  0.925500  1
  Se  Se16  1  0.250000  0.812422  0.393001  1
  Se  Se17  1  0.750000  0.187578  0.606999  1
  Se  Se18  1  0.750000  0.310837  0.106932  1
  Se  Se19  1  0.250000  0.689163  0.893068  1
  Se  Se20  1  0.250000  0.241993  0.300873  1
  Se  Se21  1  0.750000  0.758007  0.699127  1
  Se  Se22  1  0.750000  0.753081  0.201063  1
  Se  Se23  1  0.250000  0.246919  0.798937  1
  Se  Se24  1  0.250000  0.352741  0.480526  1
  Se  Se25  1  0.750000  0.647259  0.519474  1
  Se  Se26  1  0.750000  0.854796  0.018576  1
  Se  Se27  1  0.250000  0.145204  0.981424  1
  Se  Se28  1  0.250000  0.026965  0.156322  1
  Se  Se29  1  0.750000  0.973035  0.843678  1
  Se  Se30  1  0.750000  0.525551  0.346207  1
  Se  Se31  1  0.250000  0.474449  0.653793  1
  Se  Se32  1  0.250000  0.583459  0.057529  1
  Se  Se33  1  0.750000  0.416541  0.942471  1
  Se  Se34  1  0.750000  0.082495  0.441903  1
  Se  Se35  1  0.250000  0.917505  0.558097  1
