# generated using pymatgen
data_Tb2HoPaIn2Ir3
_symmetry_space_group_name_H-M   'P 1'
_cell_length_a   7.50485223
_cell_length_b   7.37296514
_cell_length_c   4.20006500
_cell_angle_alpha   90.00000000
_cell_angle_beta   90.00000000
_cell_angle_gamma   119.42034745
_symmetry_Int_Tables_number   1
_chemical_formula_structural   Tb2HoPaIn2Ir3
_chemical_formula_sum   'Tb2 Ho1 Pa1 In2 Ir3'
_cell_volume   202.43152578
_cell_formula_units_Z   1
loop_
 _symmetry_equiv_pos_site_id
 _symmetry_equiv_pos_as_xyz
  1  'x, y, z'
loop_
 _atom_site_type_symbol
 _atom_site_label
 _atom_site_symmetry_multiplicity
 _atom_site_fract_x
 _atom_site_fract_y
 _atom_site_fract_z
 _atom_site_occupancy
  Tb  Tb0  1  0.567918  0.592889  0.000000  1
  Tb  Tb1  1  0.432082  0.024971  0.000000  1
  Ho  Ho2  1  0.000000  0.375941  0.000000  1
  Pa  Pa3  1  0.000000  0.734043  0.500000  1
  In  In4  1  0.256555  0.255838  0.500000  1
  In  In5  1  0.743445  0.999284  0.500000  1
  Ir  Ir6  1  0.000000  0.982653  0.000000  1
  Ir  Ir7  1  0.684013  0.359196  0.500000  1
  Ir  Ir8  1  0.315987  0.675184  0.500000  1
