# generated using pymatgen
data_Pu(CuS)3
_symmetry_space_group_name_H-M   'P 1'
_cell_length_a   7.51035140
_cell_length_b   7.51035185
_cell_length_c   7.51035217
_cell_angle_alpha   53.10936427
_cell_angle_beta   53.10936112
_cell_angle_gamma   53.10935785
_symmetry_Int_Tables_number   1
_chemical_formula_structural   Pu(CuS)3
_chemical_formula_sum   'Pu2 Cu6 S6'
_cell_volume   251.18565063
_cell_formula_units_Z   2
loop_
 _symmetry_equiv_pos_site_id
 _symmetry_equiv_pos_as_xyz
  1  'x, y, z'
loop_
 _atom_site_type_symbol
 _atom_site_label
 _atom_site_symmetry_multiplicity
 _atom_site_fract_x
 _atom_site_fract_y
 _atom_site_fract_z
 _atom_site_occupancy
  Pu  Pu0  1  0.666354  0.666354  0.666354  1
  Pu  Pu1  1  0.333646  0.333646  0.333646  1
  Cu  Cu2  1  0.877335  0.538513  0.212064  1
  Cu  Cu3  1  0.538513  0.212064  0.877335  1
  Cu  Cu4  1  0.212064  0.877335  0.538513  1
  Cu  Cu5  1  0.787936  0.122665  0.461487  1
  Cu  Cu6  1  0.461487  0.787936  0.122665  1
  Cu  Cu7  1  0.122665  0.461487  0.787936  1
  S  S8  1  0.084140  0.749776  0.421050  1
  S  S9  1  0.421050  0.084140  0.749776  1
  S  S10  1  0.749776  0.421050  0.084140  1
  S  S11  1  0.250224  0.578950  0.915860  1
  S  S12  1  0.578950  0.915860  0.250224  1
  S  S13  1  0.915860  0.250224  0.578950  1
