# generated using pymatgen
data_Sm3Lu(P3Rh4)2
_symmetry_space_group_name_H-M   'P 1'
_cell_length_a   3.98580300
_cell_length_b   11.35621100
_cell_length_c   13.05728800
_cell_angle_alpha   90.00000000
_cell_angle_beta   90.00000000
_cell_angle_gamma   90.00000000
_symmetry_Int_Tables_number   1
_chemical_formula_structural   Sm3Lu(P3Rh4)2
_chemical_formula_sum   'Sm6 Lu2 P12 Rh16'
_cell_volume   591.02012060
_cell_formula_units_Z   2
loop_
 _symmetry_equiv_pos_site_id
 _symmetry_equiv_pos_as_xyz
  1  'x, y, z'
loop_
 _atom_site_type_symbol
 _atom_site_label
 _atom_site_symmetry_multiplicity
 _atom_site_fract_x
 _atom_site_fract_y
 _atom_site_fract_z
 _atom_site_occupancy
  Sm  Sm0  1  0.000000  0.500000  0.522091  1
  Sm  Sm1  1  0.500000  0.000000  0.477909  1
  Sm  Sm2  1  0.500000  0.820576  0.204248  1
  Sm  Sm3  1  0.500000  0.179424  0.204248  1
  Sm  Sm4  1  0.000000  0.679424  0.795752  1
  Sm  Sm5  1  0.000000  0.320576  0.795752  1
  Lu  Lu6  1  0.500000  0.500000  0.158499  1
  Lu  Lu7  1  0.000000  0.000000  0.841501  1
  P  P8  1  0.500000  0.500000  0.881300  1
  P  P9  1  0.000000  0.000000  0.118700  1
  P  P10  1  0.500000  0.500000  0.361162  1
  P  P11  1  0.000000  0.000000  0.638838  1
  P  P12  1  0.500000  0.310594  0.615796  1
  P  P13  1  0.500000  0.689406  0.615796  1
  P  P14  1  0.000000  0.189406  0.384204  1
  P  P15  1  0.000000  0.810594  0.384204  1
  P  P16  1  0.500000  0.840200  0.890841  1
  P  P17  1  0.500000  0.159800  0.890841  1
  P  P18  1  0.000000  0.659800  0.109159  1
  P  P19  1  0.000000  0.340200  0.109159  1
  Rh  Rh20  1  0.500000  0.500000  0.701893  1
  Rh  Rh21  1  0.000000  0.000000  0.298107  1
  Rh  Rh22  1  0.000000  0.500000  0.983740  1
  Rh  Rh23  1  0.500000  0.000000  0.016260  1
  Rh  Rh24  1  0.500000  0.331442  0.992065  1
  Rh  Rh25  1  0.500000  0.668558  0.992065  1
  Rh  Rh26  1  0.000000  0.168558  0.007935  1
  Rh  Rh27  1  0.000000  0.831442  0.007935  1
  Rh  Rh28  1  0.500000  0.290911  0.432345  1
  Rh  Rh29  1  0.500000  0.709089  0.432345  1
  Rh  Rh30  1  0.000000  0.209089  0.567655  1
  Rh  Rh31  1  0.000000  0.790911  0.567655  1
  Rh  Rh32  1  0.500000  0.874270  0.706218  1
  Rh  Rh33  1  0.500000  0.125730  0.706218  1
  Rh  Rh34  1  0.000000  0.625730  0.293782  1
  Rh  Rh35  1  0.000000  0.374270  0.293782  1
