# generated using pymatgen
data_ZrNp2P3
_symmetry_space_group_name_H-M   'P 1'
_cell_length_a   3.83425800
_cell_length_b   3.83425728
_cell_length_c   9.43030600
_cell_angle_alpha   90.00000000
_cell_angle_beta   90.00000000
_cell_angle_gamma   120.00000622
_symmetry_Int_Tables_number   1
_chemical_formula_structural   ZrNp2P3
_chemical_formula_sum   'Zr1 Np2 P3'
_cell_volume   120.06570430
_cell_formula_units_Z   1
loop_
 _symmetry_equiv_pos_site_id
 _symmetry_equiv_pos_as_xyz
  1  'x, y, z'
loop_
 _atom_site_type_symbol
 _atom_site_label
 _atom_site_symmetry_multiplicity
 _atom_site_fract_x
 _atom_site_fract_y
 _atom_site_fract_z
 _atom_site_occupancy
  Zr  Zr0  1  0.000000  0.000000  0.500000  1
  Np  Np1  1  0.333333  0.666667  0.174884  1
  Np  Np2  1  0.666667  0.333333  0.825116  1
  P  P3  1  0.333333  0.666667  0.656550  1
  P  P4  1  0.666667  0.333333  0.343450  1
  P  P5  1  0.000000  0.000000  0.000000  1
