# generated using pymatgen
data_NdEuAl16Pt9
_symmetry_space_group_name_H-M   'P 1'
_cell_length_a   11.20836687
_cell_length_b   11.20836812
_cell_length_c   11.20836700
_cell_angle_alpha   158.47545685
_cell_angle_beta   115.34420864
_cell_angle_gamma   69.00319721
_symmetry_Int_Tables_number   1
_chemical_formula_structural   NdEuAl16Pt9
_chemical_formula_sum   'Nd1 Eu1 Al16 Pt9'
_cell_volume   463.50979300
_cell_formula_units_Z   1
loop_
 _symmetry_equiv_pos_site_id
 _symmetry_equiv_pos_as_xyz
  1  'x, y, z'
loop_
 _atom_site_type_symbol
 _atom_site_label
 _atom_site_symmetry_multiplicity
 _atom_site_fract_x
 _atom_site_fract_y
 _atom_site_fract_z
 _atom_site_occupancy
  Nd  Nd0  1  0.772153  0.772153  0.000000  1
  Eu  Eu1  1  0.228576  0.228576  0.000000  1
  Al  Al2  1  0.273232  0.391993  0.881239  1
  Al  Al3  1  0.092513  0.920256  0.172257  1
  Al  Al4  1  0.511710  0.204233  0.307479  1
  Al  Al5  1  0.251706  0.079401  0.172307  1
  Al  Al6  1  0.913805  0.413805  0.500000  1
  Al  Al7  1  0.725378  0.607725  0.117652  1
  Al  Al8  1  0.896754  0.204233  0.692521  1
  Al  Al9  1  0.489684  0.795448  0.694235  1
  Al  Al10  1  0.385685  0.000585  0.385100  1
  Al  Al11  1  0.615485  0.000585  0.614900  1
  Al  Al12  1  0.490072  0.607725  0.882348  1
  Al  Al13  1  0.101213  0.795448  0.305765  1
  Al  Al14  1  0.907094  0.079401  0.827693  1
  Al  Al15  1  0.748000  0.920256  0.827743  1
  Al  Al16  1  0.510754  0.391993  0.118761  1
  Al  Al17  1  0.085575  0.585575  0.500000  1
  Pt  Pt18  1  0.748062  0.499909  0.248154  1
  Pt  Pt19  1  0.026462  0.340000  0.686462  1
  Pt  Pt20  1  0.624773  0.124773  0.500000  1
  Pt  Pt21  1  0.251755  0.499909  0.751846  1
  Pt  Pt22  1  0.377299  0.877299  0.500000  1
  Pt  Pt23  1  0.999509  0.999509  0.000000  1
  Pt  Pt24  1  0.653538  0.340000  0.313538  1
  Pt  Pt25  1  0.347894  0.659606  0.688288  1
  Pt  Pt26  1  0.971318  0.659606  0.311712  1
