# generated using pymatgen
data_YGaCo2NiB
_symmetry_space_group_name_H-M   'P 1'
_cell_length_a   5.14661932
_cell_length_b   5.14661877
_cell_length_c   6.67553800
_cell_angle_alpha   90.00000000
_cell_angle_beta   90.00000000
_cell_angle_gamma   119.24970742
_symmetry_Int_Tables_number   1
_chemical_formula_structural   YGaCo2NiB
_chemical_formula_sum   'Y2 Ga2 Co4 Ni2 B2'
_cell_volume   154.27480552
_cell_formula_units_Z   2
loop_
 _symmetry_equiv_pos_site_id
 _symmetry_equiv_pos_as_xyz
  1  'x, y, z'
loop_
 _atom_site_type_symbol
 _atom_site_label
 _atom_site_symmetry_multiplicity
 _atom_site_fract_x
 _atom_site_fract_y
 _atom_site_fract_z
 _atom_site_occupancy
  Y  Y0  1  0.000000  0.000000  0.500000  1
  Y  Y1  1  0.000000  0.000000  0.000000  1
  Ga  Ga2  1  0.330748  0.669252  0.000000  1
  Ga  Ga3  1  0.669252  0.330748  0.000000  1
  Co  Co4  1  0.500000  0.000000  0.295716  1
  Co  Co5  1  0.000000  0.500000  0.295716  1
  Co  Co6  1  0.500000  0.000000  0.704284  1
  Co  Co7  1  0.000000  0.500000  0.704284  1
  Ni  Ni8  1  0.500000  0.500000  0.294725  1
  Ni  Ni9  1  0.500000  0.500000  0.705275  1
  B  B10  1  0.673022  0.326978  0.500000  1
  B  B11  1  0.326978  0.673022  0.500000  1
