# generated using pymatgen
data_LaDy2IrO7
_symmetry_space_group_name_H-M   'P 1'
_cell_length_a   6.49675885
_cell_length_b   6.49675857
_cell_length_c   7.52135400
_cell_angle_alpha   90.00000000
_cell_angle_beta   90.00000000
_cell_angle_gamma   109.71474804
_symmetry_Int_Tables_number   1
_chemical_formula_structural   LaDy2IrO7
_chemical_formula_sum   'La2 Dy4 Ir2 O14'
_cell_volume   298.85202239
_cell_formula_units_Z   2
loop_
 _symmetry_equiv_pos_site_id
 _symmetry_equiv_pos_as_xyz
  1  'x, y, z'
loop_
 _atom_site_type_symbol
 _atom_site_label
 _atom_site_symmetry_multiplicity
 _atom_site_fract_x
 _atom_site_fract_y
 _atom_site_fract_z
 _atom_site_occupancy
  La  La0  1  0.000000  0.000000  0.500000  1
  La  La1  1  0.000000  0.000000  0.000000  1
  Dy  Dy2  1  0.516776  0.065603  0.250000  1
  Dy  Dy3  1  0.934397  0.483224  0.750000  1
  Dy  Dy4  1  0.483224  0.934397  0.750000  1
  Dy  Dy5  1  0.065603  0.516776  0.250000  1
  Ir  Ir6  1  0.500000  0.500000  0.500000  1
  Ir  Ir7  1  0.500000  0.500000  0.000000  1
  O  O8  1  0.443176  0.182071  0.535322  1
  O  O9  1  0.817929  0.556824  0.464678  1
  O  O10  1  0.443176  0.182071  0.964678  1
  O  O11  1  0.817929  0.556824  0.035322  1
  O  O12  1  0.556824  0.817929  0.464678  1
  O  O13  1  0.182071  0.443176  0.535322  1
  O  O14  1  0.556824  0.817929  0.035322  1
  O  O15  1  0.182071  0.443176  0.964678  1
  O  O16  1  0.162132  0.879737  0.250000  1
  O  O17  1  0.120263  0.837868  0.750000  1
  O  O18  1  0.837868  0.120263  0.750000  1
  O  O19  1  0.879737  0.162132  0.250000  1
  O  O20  1  0.407448  0.407448  0.250000  1
  O  O21  1  0.592552  0.592552  0.750000  1
