# generated using pymatgen
data_Tb5DyTiAl23Ru8
_symmetry_space_group_name_H-M   'P 1'
_cell_length_a   8.84621845
_cell_length_b   8.83117036
_cell_length_c   9.61073143
_cell_angle_alpha   90.00000278
_cell_angle_beta   89.93740264
_cell_angle_gamma   119.94374612
_symmetry_Int_Tables_number   1
_chemical_formula_structural   Tb5DyTiAl23Ru8
_chemical_formula_sum   'Tb5 Dy1 Ti1 Al23 Ru8'
_cell_volume   650.59174948
_cell_formula_units_Z   1
loop_
 _symmetry_equiv_pos_site_id
 _symmetry_equiv_pos_as_xyz
  1  'x, y, z'
loop_
 _atom_site_type_symbol
 _atom_site_label
 _atom_site_symmetry_multiplicity
 _atom_site_fract_x
 _atom_site_fract_y
 _atom_site_fract_z
 _atom_site_occupancy
  Tb  Tb0  1  0.191652  0.802764  0.247479  1
  Tb  Tb1  1  0.191652  0.388889  0.247479  1
  Tb  Tb2  1  0.615468  0.807735  0.250177  1
  Tb  Tb3  1  0.806851  0.192871  0.750841  1
  Tb  Tb4  1  0.806851  0.613981  0.750841  1
  Dy  Dy5  1  0.389024  0.194511  0.758468  1
  Ti  Ti6  1  0.330795  0.165397  0.428546  1
  Al  Al7  1  0.561961  0.439077  0.247651  1
  Al  Al8  1  0.561961  0.122884  0.247651  1
  Al  Al9  1  0.878150  0.439075  0.249409  1
  Al  Al10  1  0.437769  0.561778  0.749422  1
  Al  Al11  1  0.437769  0.875991  0.749422  1
  Al  Al12  1  0.121336  0.560668  0.749576  1
  Al  Al13  1  0.836999  0.164235  0.423464  1
  Al  Al14  1  0.836999  0.672765  0.423464  1
  Al  Al15  1  0.673887  0.836944  0.578777  1
  Al  Al16  1  0.160967  0.834107  0.574787  1
  Al  Al17  1  0.160967  0.326859  0.574787  1
  Al  Al18  1  0.674051  0.837026  0.922870  1
  Al  Al19  1  0.162647  0.837013  0.924131  1
  Al  Al20  1  0.162647  0.325635  0.924131  1
  Al  Al21  1  0.324455  0.162228  0.082902  1
  Al  Al22  1  0.836169  0.162238  0.076129  1
  Al  Al23  1  0.836169  0.673931  0.076129  1
  Al  Al24  1  0.670037  0.335018  0.518941  1
  Al  Al25  1  0.331686  0.665844  0.484539  1
  Al  Al26  1  0.335225  0.667613  0.012928  1
  Al  Al27  1  0.668172  0.334085  0.985815  1
  Al  Al28  1  0.003672  0.001836  0.248547  1
  Al  Al29  1  0.001031  0.000515  0.749278  1
  Ru  Ru30  1  0.001044  0.000523  0.499551  1
  Ru  Ru31  1  0.998606  0.999302  0.998280  1
  Ru  Ru32  1  0.496775  0.495587  0.498563  1
  Ru  Ru33  1  0.496775  0.001187  0.498563  1
  Ru  Ru34  1  0.998531  0.499266  0.499484  1
  Ru  Ru35  1  0.499509  0.498941  0.998154  1
  Ru  Ru36  1  0.499509  0.000568  0.998154  1
  Ru  Ru37  1  0.002230  0.501115  0.000677  1
