# generated using pymatgen
data_YbDy(PaRh2)2
_symmetry_space_group_name_H-M   'P 1'
_cell_length_a   3.71013900
_cell_length_b   4.34414800
_cell_length_c   10.69724700
_cell_angle_alpha   90.00000000
_cell_angle_beta   90.00000000
_cell_angle_gamma   90.00000000
_symmetry_Int_Tables_number   1
_chemical_formula_structural   YbDy(PaRh2)2
_chemical_formula_sum   'Yb1 Dy1 Pa2 Rh4'
_cell_volume   172.41173302
_cell_formula_units_Z   1
loop_
 _symmetry_equiv_pos_site_id
 _symmetry_equiv_pos_as_xyz
  1  'x, y, z'
loop_
 _atom_site_type_symbol
 _atom_site_label
 _atom_site_symmetry_multiplicity
 _atom_site_fract_x
 _atom_site_fract_y
 _atom_site_fract_z
 _atom_site_occupancy
  Yb  Yb0  1  0.000000  0.250000  0.140717  1
  Dy  Dy1  1  0.500000  0.750000  0.357506  1
  Pa  Pa2  1  0.000000  0.750000  0.873198  1
  Pa  Pa3  1  0.500000  0.250000  0.630323  1
  Rh  Rh4  1  0.500000  0.750000  0.066586  1
  Rh  Rh5  1  0.000000  0.750000  0.610006  1
  Rh  Rh6  1  0.000000  0.250000  0.430067  1
  Rh  Rh7  1  0.500000  0.250000  0.891596  1
