# generated using pymatgen
data_LaSmAl20IrOs3
_symmetry_space_group_name_H-M   'P 1'
_cell_length_a   6.89853206
_cell_length_b   6.89006071
_cell_length_c   9.20854103
_cell_angle_alpha   90.13824806
_cell_angle_beta   90.05461869
_cell_angle_gamma   96.74297129
_symmetry_Int_Tables_number   1
_chemical_formula_structural   LaSmAl20IrOs3
_chemical_formula_sum   'La1 Sm1 Al20 Ir1 Os3'
_cell_volume   434.66478091
_cell_formula_units_Z   1
loop_
 _symmetry_equiv_pos_site_id
 _symmetry_equiv_pos_as_xyz
  1  'x, y, z'
loop_
 _atom_site_type_symbol
 _atom_site_label
 _atom_site_symmetry_multiplicity
 _atom_site_fract_x
 _atom_site_fract_y
 _atom_site_fract_z
 _atom_site_occupancy
  La  La0  1  0.872139  0.124864  0.749700  1
  Sm  Sm1  1  0.129749  0.873840  0.250041  1
  Al  Al2  1  0.619726  0.377313  0.550379  1
  Al  Al3  1  0.379229  0.623486  0.447977  1
  Al  Al4  1  0.377043  0.623255  0.050151  1
  Al  Al5  1  0.622045  0.377609  0.951622  1
  Al  Al6  1  0.226305  0.224435  0.497490  1
  Al  Al7  1  0.774043  0.775006  0.499388  1
  Al  Al8  1  0.775467  0.775379  0.001386  1
  Al  Al9  1  0.224929  0.224232  0.001923  1
  Al  Al10  1  0.841720  0.159235  0.102855  1
  Al  Al11  1  0.160022  0.839209  0.898697  1
  Al  Al12  1  0.161777  0.839638  0.603127  1
  Al  Al13  1  0.839729  0.158447  0.395410  1
  Al  Al14  1  0.855145  0.588904  0.750835  1
  Al  Al15  1  0.145034  0.414579  0.249244  1
  Al  Al16  1  0.410243  0.143454  0.750320  1
  Al  Al17  1  0.586559  0.856561  0.249659  1
  Al  Al18  1  0.221015  0.483839  0.752386  1
  Al  Al19  1  0.780377  0.517293  0.247704  1
  Al  Al20  1  0.515791  0.779742  0.749440  1
  Al  Al21  1  0.483144  0.219056  0.250514  1
  Ir  Ir22  1  0.999666  0.500290  0.499073  1
  Os  Os23  1  0.000078  0.500563  0.000803  1
  Os  Os24  1  0.499485  0.999809  0.000811  1
  Os  Os25  1  0.499541  0.999969  0.499064  1
