# generated using pymatgen
data_Yb3PaMn3CrB16
_symmetry_space_group_name_H-M   'P 1'
_cell_length_a   3.39626800
_cell_length_b   5.90584535
_cell_length_c   11.45028933
_cell_angle_alpha   89.90283299
_cell_angle_beta   90.00000000
_cell_angle_gamma   90.00000000
_symmetry_Int_Tables_number   1
_chemical_formula_structural   Yb3PaMn3CrB16
_chemical_formula_sum   'Yb3 Pa1 Mn3 Cr1 B16'
_cell_volume   229.66766752
_cell_formula_units_Z   1
loop_
 _symmetry_equiv_pos_site_id
 _symmetry_equiv_pos_as_xyz
  1  'x, y, z'
loop_
 _atom_site_type_symbol
 _atom_site_label
 _atom_site_symmetry_multiplicity
 _atom_site_fract_x
 _atom_site_fract_y
 _atom_site_fract_z
 _atom_site_occupancy
  Yb  Yb0  1  0.500000  0.626995  0.847254  1
  Yb  Yb1  1  0.500000  0.124421  0.651398  1
  Yb  Yb2  1  0.500000  0.875932  0.350639  1
  Pa  Pa3  1  0.500000  0.374877  0.150465  1
  Mn  Mn4  1  0.500000  0.624335  0.581269  1
  Mn  Mn5  1  0.500000  0.128961  0.916809  1
  Mn  Mn6  1  0.500000  0.872569  0.086181  1
  Cr  Cr7  1  0.500000  0.376925  0.417722  1
  B  B8  1  0.000000  0.109218  0.046093  1
  B  B9  1  0.000000  0.886118  0.952762  1
  B  B10  1  0.000000  0.386758  0.547393  1
  B  B11  1  0.000000  0.615072  0.454757  1
  B  B12  1  0.000000  0.136773  0.468035  1
  B  B13  1  0.000000  0.862631  0.533129  1
  B  B14  1  0.000000  0.360225  0.966337  1
  B  B15  1  0.000000  0.639310  0.032546  1
  B  B16  1  0.000000  0.023933  0.190006  1
  B  B17  1  0.000000  0.975476  0.808752  1
  B  B18  1  0.000000  0.476540  0.690803  1
  B  B19  1  0.000000  0.524675  0.310440  1
  B  B20  1  0.000000  0.218071  0.316578  1
  B  B21  1  0.000000  0.780499  0.683141  1
  B  B22  1  0.000000  0.279276  0.815033  1
  B  B23  1  0.000000  0.720408  0.182456  1
