# generated using pymatgen
data_Dy17Ho3(Ir2Os)4
_symmetry_space_group_name_H-M   'P 1'
_cell_length_a   10.86051400
_cell_length_b   10.86051400
_cell_length_c   6.41506100
_cell_angle_alpha   90.00000000
_cell_angle_beta   90.00000000
_cell_angle_gamma   90.00000000
_symmetry_Int_Tables_number   1
_chemical_formula_structural   Dy17Ho3(Ir2Os)4
_chemical_formula_sum   'Dy17 Ho3 Ir8 Os4'
_cell_volume   756.66134826
_cell_formula_units_Z   1
loop_
 _symmetry_equiv_pos_site_id
 _symmetry_equiv_pos_as_xyz
  1  'x, y, z'
loop_
 _atom_site_type_symbol
 _atom_site_label
 _atom_site_symmetry_multiplicity
 _atom_site_fract_x
 _atom_site_fract_y
 _atom_site_fract_z
 _atom_site_occupancy
  Dy  Dy0  1  0.293588  0.086268  0.376984  1
  Dy  Dy1  1  0.293527  0.913746  0.877051  1
  Dy  Dy2  1  0.706473  0.086254  0.877051  1
  Dy  Dy3  1  0.706412  0.913732  0.376984  1
  Dy  Dy4  1  0.586259  0.793493  0.876973  1
  Dy  Dy5  1  0.586259  0.206514  0.376954  1
  Dy  Dy6  1  0.413741  0.793486  0.376954  1
  Dy  Dy7  1  0.413741  0.206507  0.876973  1
  Dy  Dy8  1  0.206514  0.413741  0.623046  1
  Dy  Dy9  1  0.206507  0.586259  0.123027  1
  Dy  Dy10  1  0.793493  0.413741  0.123027  1
  Dy  Dy11  1  0.793486  0.586259  0.623046  1
  Dy  Dy12  1  0.913746  0.706473  0.122949  1
  Dy  Dy13  1  0.913732  0.293588  0.623016  1
  Dy  Dy14  1  0.086268  0.706412  0.623016  1
  Dy  Dy15  1  0.086254  0.293527  0.122949  1
  Dy  Dy16  1  0.000000  0.000000  0.500000  1
  Ho  Ho17  1  0.000000  0.000000  0.000000  1
  Ho  Ho18  1  0.500000  0.500000  0.000000  1
  Ho  Ho19  1  0.500000  0.500000  0.500000  1
  Ir  Ir20  1  0.847870  0.152127  0.249770  1
  Ir  Ir21  1  0.847873  0.847870  0.750230  1
  Ir  Ir22  1  0.152127  0.152130  0.750230  1
  Ir  Ir23  1  0.152130  0.847873  0.249770  1
  Ir  Ir24  1  0.652021  0.347985  0.750024  1
  Ir  Ir25  1  0.652015  0.652021  0.249976  1
  Ir  Ir26  1  0.347985  0.347979  0.249976  1
  Ir  Ir27  1  0.347979  0.652015  0.750024  1
  Os  Os28  1  0.500000  0.000000  0.122290  1
  Os  Os29  1  0.500000  0.000000  0.622314  1
  Os  Os30  1  0.000000  0.500000  0.877710  1
  Os  Os31  1  0.000000  0.500000  0.377686  1
