# generated using pymatgen
data_La3Pr(Ni2I)2
_symmetry_space_group_name_H-M   'P 1'
_cell_length_a   4.11441800
_cell_length_b   4.11441842
_cell_length_c   17.67656000
_cell_angle_alpha   90.00000000
_cell_angle_beta   90.00000000
_cell_angle_gamma   119.99999659
_symmetry_Int_Tables_number   1
_chemical_formula_structural   La3Pr(Ni2I)2
_chemical_formula_sum   'La3 Pr1 Ni4 I2'
_cell_volume   259.14645111
_cell_formula_units_Z   1
loop_
 _symmetry_equiv_pos_site_id
 _symmetry_equiv_pos_as_xyz
  1  'x, y, z'
loop_
 _atom_site_type_symbol
 _atom_site_label
 _atom_site_symmetry_multiplicity
 _atom_site_fract_x
 _atom_site_fract_y
 _atom_site_fract_z
 _atom_site_occupancy
  La  La0  1  0.000000  0.000000  0.605827  1
  La  La1  1  0.000000  0.000000  0.394466  1
  La  La2  1  0.000000  0.000000  0.104491  1
  Pr  Pr3  1  0.000000  0.000000  0.894176  1
  Ni  Ni4  1  0.666667  0.333333  0.500477  1
  Ni  Ni5  1  0.333333  0.666667  0.000398  1
  Ni  Ni6  1  0.666667  0.333333  0.999376  1
  Ni  Ni7  1  0.333333  0.666667  0.499586  1
  I  I8  1  0.666667  0.333333  0.250079  1
  I  I9  1  0.333333  0.666667  0.751124  1
