# generated using pymatgen
data_DyGaTeO6
_symmetry_space_group_name_H-M   'P 1'
_cell_length_a   5.16077313
_cell_length_b   5.16077316
_cell_length_c   9.84636600
_cell_angle_alpha   90.00303187
_cell_angle_beta   90.00302207
_cell_angle_gamma   120.00442851
_symmetry_Int_Tables_number   1
_chemical_formula_structural   DyGaTeO6
_chemical_formula_sum   'Dy2 Ga2 Te2 O12'
_cell_volume   227.09980433
_cell_formula_units_Z   2
loop_
 _symmetry_equiv_pos_site_id
 _symmetry_equiv_pos_as_xyz
  1  'x, y, z'
loop_
 _atom_site_type_symbol
 _atom_site_label
 _atom_site_symmetry_multiplicity
 _atom_site_fract_x
 _atom_site_fract_y
 _atom_site_fract_z
 _atom_site_occupancy
  Dy  Dy0  1  0.000001  0.000000  0.500000  1
  Dy  Dy1  1  0.000000  0.000000  0.000000  1
  Ga  Ga2  1  0.333349  0.666652  0.250000  1
  Ga  Ga3  1  0.666651  0.333348  0.750000  1
  Te  Te4  1  0.666700  0.333305  0.250000  1
  Te  Te5  1  0.333302  0.666696  0.750000  1
  O  O6  1  0.633786  0.991494  0.860796  1
  O  O7  1  0.357667  0.366259  0.860805  1
  O  O8  1  0.008571  0.642372  0.860796  1
  O  O9  1  0.366214  0.008507  0.139204  1
  O  O10  1  0.642333  0.633741  0.139195  1
  O  O11  1  0.991431  0.357628  0.139204  1
  O  O12  1  0.357629  0.991430  0.639204  1
  O  O13  1  0.633742  0.642333  0.639195  1
  O  O14  1  0.642371  0.008570  0.360796  1
  O  O15  1  0.008507  0.366214  0.639203  1
  O  O16  1  0.366260  0.357668  0.360805  1
  O  O17  1  0.991493  0.633786  0.360795  1
