# generated using pymatgen
data_Lu12Mn2In2Pt
_symmetry_space_group_name_H-M   'P 1'
_cell_length_a   8.21924101
_cell_length_b   8.21924209
_cell_length_c   8.21924165
_cell_angle_alpha   108.84587672
_cell_angle_beta   108.84587845
_cell_angle_gamma   110.72927764
_symmetry_Int_Tables_number   1
_chemical_formula_structural   Lu12Mn2In2Pt
_chemical_formula_sum   'Lu12 Mn2 In2 Pt1'
_cell_volume   427.28327619
_cell_formula_units_Z   1
loop_
 _symmetry_equiv_pos_site_id
 _symmetry_equiv_pos_as_xyz
  1  'x, y, z'
loop_
 _atom_site_type_symbol
 _atom_site_label
 _atom_site_symmetry_multiplicity
 _atom_site_fract_x
 _atom_site_fract_y
 _atom_site_fract_z
 _atom_site_occupancy
  Lu  Lu0  1  0.307437  0.307437  0.614874  1
  Lu  Lu1  1  0.692563  0.692563  0.385126  1
  Lu  Lu2  1  0.692563  0.307437  0.000000  1
  Lu  Lu3  1  0.307437  0.692563  0.000000  1
  Lu  Lu4  1  0.196960  0.437261  0.240301  1
  Lu  Lu5  1  0.803040  0.562739  0.759699  1
  Lu  Lu6  1  0.196960  0.956657  0.759699  1
  Lu  Lu7  1  0.956657  0.196960  0.759699  1
  Lu  Lu8  1  0.803040  0.043343  0.240301  1
  Lu  Lu9  1  0.043343  0.803040  0.240301  1
  Lu  Lu10  1  0.437261  0.196960  0.240301  1
  Lu  Lu11  1  0.562739  0.803040  0.759699  1
  Mn  Mn12  1  0.386802  0.386802  0.000000  1
  Mn  Mn13  1  0.613198  0.613198  0.000000  1
  In  In14  1  0.000000  0.500000  0.500000  1
  In  In15  1  0.500000  0.000000  0.500000  1
  Pt  Pt16  1  0.000000  0.000000  0.000000  1
