# generated using pymatgen
data_Er11Tm9(CoBi2)4
_symmetry_space_group_name_H-M   'P 1'
_cell_length_a   7.87602609
_cell_length_b   8.84389600
_cell_length_c   12.32748614
_cell_angle_alpha   90.00000000
_cell_angle_beta   89.98278931
_cell_angle_gamma   90.00000000
_symmetry_Int_Tables_number   1
_chemical_formula_structural   Er11Tm9(CoBi2)4
_chemical_formula_sum   'Er11 Tm9 Co4 Bi8'
_cell_volume   858.66799572
_cell_formula_units_Z   1
loop_
 _symmetry_equiv_pos_site_id
 _symmetry_equiv_pos_as_xyz
  1  'x, y, z'
loop_
 _atom_site_type_symbol
 _atom_site_label
 _atom_site_symmetry_multiplicity
 _atom_site_fract_x
 _atom_site_fract_y
 _atom_site_fract_z
 _atom_site_occupancy
  Er  Er0  1  0.346410  0.250000  0.300668  1
  Er  Er1  1  0.153765  0.250000  0.800376  1
  Er  Er2  1  0.846372  0.750000  0.199542  1
  Er  Er3  1  0.119020  0.750000  0.814115  1
  Er  Er4  1  0.880845  0.250000  0.185976  1
  Er  Er5  1  0.619101  0.250000  0.685939  1
  Er  Er6  1  0.380675  0.750000  0.313828  1
  Er  Er7  1  0.554518  0.750000  0.997174  1
  Er  Er8  1  0.445684  0.250000  0.002567  1
  Er  Er9  1  0.054799  0.250000  0.502933  1
  Er  Er10  1  0.945008  0.750000  0.497333  1
  Tm  Tm11  1  0.653473  0.750000  0.699171  1
  Tm  Tm12  1  0.827037  0.463101  0.936013  1
  Tm  Tm13  1  0.172944  0.536723  0.063914  1
  Tm  Tm14  1  0.327164  0.537122  0.564110  1
  Tm  Tm15  1  0.172944  0.963277  0.063914  1
  Tm  Tm16  1  0.672897  0.463147  0.436174  1
  Tm  Tm17  1  0.827037  0.036899  0.936013  1
  Tm  Tm18  1  0.672897  0.036853  0.436174  1
  Tm  Tm19  1  0.327164  0.962878  0.564110  1
  Co  Co20  1  0.936458  0.750000  0.993141  1
  Co  Co21  1  0.063716  0.250000  0.006870  1
  Co  Co22  1  0.436352  0.250000  0.507062  1
  Co  Co23  1  0.563713  0.750000  0.493122  1
  Bi  Bi24  1  0.932281  0.007587  0.673360  1
  Bi  Bi25  1  0.067426  0.992209  0.326733  1
  Bi  Bi26  1  0.432940  0.991896  0.826533  1
  Bi  Bi27  1  0.067426  0.507791  0.326733  1
  Bi  Bi28  1  0.567356  0.007844  0.173253  1
  Bi  Bi29  1  0.932281  0.492413  0.673360  1
  Bi  Bi30  1  0.567356  0.492156  0.173253  1
  Bi  Bi31  1  0.432940  0.508104  0.826533  1
