# generated using pymatgen
data_Hf2Th3InRh10
_symmetry_space_group_name_H-M   'P 1'
_cell_length_a   4.30323600
_cell_length_b   5.86793669
_cell_length_c   11.51373321
_cell_angle_alpha   88.76933924
_cell_angle_beta   90.00000000
_cell_angle_gamma   90.00000000
_symmetry_Int_Tables_number   1
_chemical_formula_structural   Hf2Th3InRh10
_chemical_formula_sum   'Hf2 Th3 In1 Rh10'
_cell_volume   290.66755498
_cell_formula_units_Z   1
loop_
 _symmetry_equiv_pos_site_id
 _symmetry_equiv_pos_as_xyz
  1  'x, y, z'
loop_
 _atom_site_type_symbol
 _atom_site_label
 _atom_site_symmetry_multiplicity
 _atom_site_fract_x
 _atom_site_fract_y
 _atom_site_fract_z
 _atom_site_occupancy
  Hf  Hf0  1  0.500000  0.337563  0.146165  1
  Hf  Hf1  1  0.000000  0.013710  0.008808  1
  Th  Th2  1  0.500000  0.176879  0.641384  1
  Th  Th3  1  0.500000  0.821734  0.353268  1
  Th  Th4  1  0.500000  0.665337  0.859797  1
  In  In5  1  0.000000  0.497986  0.496813  1
  Rh  Rh6  1  0.500000  0.182939  0.901876  1
  Rh  Rh7  1  0.500000  0.807135  0.104871  1
  Rh  Rh8  1  0.500000  0.699624  0.611527  1
  Rh  Rh9  1  0.500000  0.300419  0.378139  1
  Rh  Rh10  1  0.000000  0.429772  0.749286  1
  Rh  Rh11  1  0.000000  0.565483  0.246680  1
  Rh  Rh12  1  0.000000  0.000000  0.496612  1
  Rh  Rh13  1  0.000000  0.485160  0.008555  1
  Rh  Rh14  1  0.000000  0.087926  0.235992  1
  Rh  Rh15  1  0.000000  0.928333  0.760228  1
