# generated using pymatgen
data_DyY3(ScAu)4
_symmetry_space_group_name_H-M   'P 1'
_cell_length_a   4.80941700
_cell_length_b   6.97354403
_cell_length_c   8.72729500
_cell_angle_alpha   89.95625714
_cell_angle_beta   90.00000000
_cell_angle_gamma   90.00000000
_symmetry_Int_Tables_number   1
_chemical_formula_structural   DyY3(ScAu)4
_chemical_formula_sum   'Dy1 Y3 Sc4 Au4'
_cell_volume   292.70187961
_cell_formula_units_Z   1
loop_
 _symmetry_equiv_pos_site_id
 _symmetry_equiv_pos_as_xyz
  1  'x, y, z'
loop_
 _atom_site_type_symbol
 _atom_site_label
 _atom_site_symmetry_multiplicity
 _atom_site_fract_x
 _atom_site_fract_y
 _atom_site_fract_z
 _atom_site_occupancy
  Dy  Dy0  1  0.750000  0.015828  0.678697  1
  Y  Y1  1  0.250000  0.484300  0.179903  1
  Y  Y2  1  0.750000  0.516222  0.820107  1
  Y  Y3  1  0.250000  0.983705  0.319619  1
  Sc  Sc4  1  0.750000  0.644811  0.422860  1
  Sc  Sc5  1  0.250000  0.354945  0.577776  1
  Sc  Sc6  1  0.750000  0.144677  0.077392  1
  Sc  Sc7  1  0.250000  0.855506  0.922208  1
  Au  Au8  1  0.250000  0.245412  0.897497  1
  Au  Au9  1  0.750000  0.754470  0.102943  1
  Au  Au10  1  0.250000  0.745950  0.602885  1
  Au  Au11  1  0.750000  0.254173  0.398114  1
