# generated using pymatgen
data_Sr4CdSb3Pt4
_symmetry_space_group_name_H-M   'P 1'
_cell_length_a   4.76812600
_cell_length_b   7.77830856
_cell_length_c   8.09387187
_cell_angle_alpha   91.29061963
_cell_angle_beta   90.00000000
_cell_angle_gamma   90.00000000
_symmetry_Int_Tables_number   1
_chemical_formula_structural   Sr4CdSb3Pt4
_chemical_formula_sum   'Sr4 Cd1 Sb3 Pt4'
_cell_volume   300.10900398
_cell_formula_units_Z   1
loop_
 _symmetry_equiv_pos_site_id
 _symmetry_equiv_pos_as_xyz
  1  'x, y, z'
loop_
 _atom_site_type_symbol
 _atom_site_label
 _atom_site_symmetry_multiplicity
 _atom_site_fract_x
 _atom_site_fract_y
 _atom_site_fract_z
 _atom_site_occupancy
  Sr  Sr0  1  0.250000  0.017267  0.308447  1
  Sr  Sr1  1  0.250000  0.509522  0.188210  1
  Sr  Sr2  1  0.750000  0.982881  0.691082  1
  Sr  Sr3  1  0.750000  0.489390  0.809949  1
  Cd  Cd4  1  0.750000  0.328295  0.414753  1
  Sb  Sb5  1  0.250000  0.169527  0.918287  1
  Sb  Sb6  1  0.250000  0.670628  0.577818  1
  Sb  Sb7  1  0.750000  0.820045  0.086228  1
  Pt  Pt8  1  0.250000  0.312195  0.614477  1
  Pt  Pt9  1  0.250000  0.803391  0.903491  1
  Pt  Pt10  1  0.750000  0.710324  0.405718  1
  Pt  Pt11  1  0.750000  0.186535  0.081540  1
