# generated using pymatgen
data_Yb(GdRh)2
_symmetry_space_group_name_H-M   'P 1'
_cell_length_a   7.40035883
_cell_length_b   7.40035832
_cell_length_c   7.40035887
_cell_angle_alpha   71.18827105
_cell_angle_beta   71.18826488
_cell_angle_gamma   71.18826210
_symmetry_Int_Tables_number   1
_chemical_formula_structural   Yb(GdRh)2
_chemical_formula_sum   'Yb3 Gd6 Rh6'
_cell_volume   352.18090410
_cell_formula_units_Z   3
loop_
 _symmetry_equiv_pos_site_id
 _symmetry_equiv_pos_as_xyz
  1  'x, y, z'
loop_
 _atom_site_type_symbol
 _atom_site_label
 _atom_site_symmetry_multiplicity
 _atom_site_fract_x
 _atom_site_fract_y
 _atom_site_fract_z
 _atom_site_occupancy
  Yb  Yb0  1  0.000000  0.000000  0.000000  1
  Yb  Yb1  1  0.799958  0.799958  0.799958  1
  Yb  Yb2  1  0.200042  0.200042  0.200042  1
  Gd  Gd3  1  0.154026  0.396732  0.670867  1
  Gd  Gd4  1  0.670867  0.154026  0.396732  1
  Gd  Gd5  1  0.396732  0.670867  0.154026  1
  Gd  Gd6  1  0.845974  0.603268  0.329133  1
  Gd  Gd7  1  0.329133  0.845974  0.603268  1
  Gd  Gd8  1  0.603268  0.329133  0.845974  1
  Rh  Rh9  1  0.950578  0.174399  0.584643  1
  Rh  Rh10  1  0.584643  0.950578  0.174399  1
  Rh  Rh11  1  0.174399  0.584643  0.950578  1
  Rh  Rh12  1  0.049422  0.825601  0.415357  1
  Rh  Rh13  1  0.415357  0.049422  0.825601  1
  Rh  Rh14  1  0.825601  0.415357  0.049422  1
