# generated using pymatgen
data_HoEr7Ti11Si16W
_symmetry_space_group_name_H-M   'P 1'
_cell_length_a   7.00786641
_cell_length_b   7.00805715
_cell_length_c   12.88281811
_cell_angle_alpha   89.96715778
_cell_angle_beta   90.03032947
_cell_angle_gamma   90.04101678
_symmetry_Int_Tables_number   1
_chemical_formula_structural   HoEr7Ti11Si16W
_chemical_formula_sum   'Ho1 Er7 Ti11 Si16 W1'
_cell_volume   632.69453184
_cell_formula_units_Z   1
loop_
 _symmetry_equiv_pos_site_id
 _symmetry_equiv_pos_as_xyz
  1  'x, y, z'
loop_
 _atom_site_type_symbol
 _atom_site_label
 _atom_site_symmetry_multiplicity
 _atom_site_fract_x
 _atom_site_fract_y
 _atom_site_fract_z
 _atom_site_occupancy
  Ho  Ho0  1  0.998248  0.658041  0.032963  1
  Er  Er1  1  0.340897  0.002925  0.466988  1
  Er  Er2  1  0.497204  0.840579  0.717316  1
  Er  Er3  1  0.501327  0.159236  0.215662  1
  Er  Er4  1  0.840516  0.497120  0.282710  1
  Er  Er5  1  0.159219  0.501283  0.784289  1
  Er  Er6  1  0.657905  0.998559  0.966957  1
  Er  Er7  1  0.002904  0.340880  0.533099  1
  Ti  Ti8  1  0.173882  0.827326  0.249610  1
  Ti  Ti9  1  0.827273  0.173862  0.750419  1
  Ti  Ti10  1  0.673028  0.673033  0.499999  1
  Ti  Ti11  1  0.153391  0.008622  0.876426  1
  Ti  Ti12  1  0.492141  0.651019  0.124455  1
  Ti  Ti13  1  0.506876  0.349004  0.626225  1
  Ti  Ti14  1  0.650985  0.492067  0.875518  1
  Ti  Ti15  1  0.349047  0.506868  0.373794  1
  Ti  Ti16  1  0.848471  0.992750  0.375765  1
  Ti  Ti17  1  0.008595  0.153415  0.123546  1
  Ti  Ti18  1  0.992717  0.848493  0.624241  1
  Si  Si19  1  0.202433  0.131124  0.684155  1
  Si  Si20  1  0.369309  0.701056  0.934033  1
  Si  Si21  1  0.631100  0.297250  0.434033  1
  Si  Si22  1  0.700888  0.369001  0.065921  1
  Si  Si23  1  0.297273  0.631100  0.565965  1
  Si  Si24  1  0.797229  0.868993  0.184262  1
  Si  Si25  1  0.131123  0.202422  0.315860  1
  Si  Si26  1  0.868848  0.797411  0.815791  1
  Si  Si27  1  0.291390  0.954236  0.064785  1
  Si  Si28  1  0.546598  0.791811  0.314919  1
  Si  Si29  1  0.452635  0.208170  0.815505  1
  Si  Si30  1  0.791795  0.546593  0.685079  1
  Si  Si31  1  0.208298  0.452493  0.184569  1
  Si  Si32  1  0.708579  0.047219  0.564909  1
  Si  Si33  1  0.954081  0.291050  0.935158  1
  Si  Si34  1  0.047206  0.708582  0.435089  1
  W  W35  1  0.326591  0.326406  0.999984  1
