# generated using pymatgen
data_ErLu3Al18(RePd2)2
_symmetry_space_group_name_H-M   'P 1'
_cell_length_a   7.57284415
_cell_length_b   7.57407825
_cell_length_c   9.44667600
_cell_angle_alpha   90.00000000
_cell_angle_beta   90.00000000
_cell_angle_gamma   118.33874712
_symmetry_Int_Tables_number   1
_chemical_formula_structural   ErLu3Al18(RePd2)2
_chemical_formula_sum   'Er1 Lu3 Al18 Re2 Pd4'
_cell_volume   476.90046809
_cell_formula_units_Z   1
loop_
 _symmetry_equiv_pos_site_id
 _symmetry_equiv_pos_as_xyz
  1  'x, y, z'
loop_
 _atom_site_type_symbol
 _atom_site_label
 _atom_site_symmetry_multiplicity
 _atom_site_fract_x
 _atom_site_fract_y
 _atom_site_fract_z
 _atom_site_occupancy
  Er  Er0  1  0.315051  0.006642  0.750000  1
  Lu  Lu1  1  0.992925  0.685899  0.250000  1
  Lu  Lu2  1  0.005585  0.313620  0.750000  1
  Lu  Lu3  1  0.686371  0.992776  0.250000  1
  Al  Al4  1  0.133162  0.132739  0.250000  1
  Al  Al5  1  0.865562  0.866581  0.750000  1
  Al  Al6  1  0.001533  0.336520  0.078683  1
  Al  Al7  1  0.998351  0.663000  0.921510  1
  Al  Al8  1  0.998351  0.663000  0.578490  1
  Al  Al9  1  0.336456  0.001256  0.421303  1
  Al  Al10  1  0.001533  0.336520  0.421317  1
  Al  Al11  1  0.663647  0.999309  0.578348  1
  Al  Al12  1  0.663647  0.999309  0.921652  1
  Al  Al13  1  0.336456  0.001256  0.078697  1
  Al  Al14  1  0.329295  0.330089  0.549379  1
  Al  Al15  1  0.670606  0.670761  0.451005  1
  Al  Al16  1  0.670606  0.670761  0.048995  1
  Al  Al17  1  0.329295  0.330089  0.950621  1
  Al  Al18  1  0.345837  0.555529  0.250000  1
  Al  Al19  1  0.654815  0.444391  0.750000  1
  Al  Al20  1  0.556406  0.345111  0.250000  1
  Al  Al21  1  0.442911  0.654313  0.750000  1
  Re  Re22  1  0.999552  0.000142  0.000090  1
  Re  Re23  1  0.999552  0.000142  0.499910  1
  Pd  Pd24  1  0.674481  0.327938  0.000113  1
  Pd  Pd25  1  0.326766  0.672184  0.000427  1
  Pd  Pd26  1  0.326766  0.672184  0.499573  1
  Pd  Pd27  1  0.674481  0.327938  0.499887  1
