# generated using pymatgen
data_NdTh2(InIr)3
_symmetry_space_group_name_H-M   'P 1'
_cell_length_a   7.75683287
_cell_length_b   7.65169549
_cell_length_c   4.00404100
_cell_angle_alpha   90.00000000
_cell_angle_beta   90.00000000
_cell_angle_gamma   119.55263814
_symmetry_Int_Tables_number   1
_chemical_formula_structural   NdTh2(InIr)3
_chemical_formula_sum   'Nd1 Th2 In3 Ir3'
_cell_volume   206.73376992
_cell_formula_units_Z   1
loop_
 _symmetry_equiv_pos_site_id
 _symmetry_equiv_pos_as_xyz
  1  'x, y, z'
loop_
 _atom_site_type_symbol
 _atom_site_label
 _atom_site_symmetry_multiplicity
 _atom_site_fract_x
 _atom_site_fract_y
 _atom_site_fract_z
 _atom_site_occupancy
  Nd  Nd0  1  0.000000  0.409161  0.000000  1
  Th  Th1  1  0.588228  0.589543  0.000000  1
  Th  Th2  1  0.411772  0.001315  0.000000  1
  In  In3  1  0.000000  0.738750  0.500000  1
  In  In4  1  0.242063  0.251193  0.500000  1
  In  In5  1  0.757937  0.009130  0.500000  1
  Ir  Ir6  1  0.000000  0.986352  0.000000  1
  Ir  Ir7  1  0.644556  0.329556  0.500000  1
  Ir  Ir8  1  0.355444  0.685001  0.500000  1
