# generated using pymatgen
data_ThAlF36
_symmetry_space_group_name_H-M   'P 1'
_cell_length_a   6.08935549
_cell_length_b   10.69451033
_cell_length_c   10.84806934
_cell_angle_alpha   91.51625562
_cell_angle_beta   99.88567969
_cell_angle_gamma   76.18695427
_symmetry_Int_Tables_number   1
_chemical_formula_structural   ThAlF36
_chemical_formula_sum   'Th1 Al1 F36'
_cell_volume   675.76070716
_cell_formula_units_Z   1
loop_
 _symmetry_equiv_pos_site_id
 _symmetry_equiv_pos_as_xyz
  1  'x, y, z'
loop_
 _atom_site_type_symbol
 _atom_site_label
 _atom_site_symmetry_multiplicity
 _atom_site_fract_x
 _atom_site_fract_y
 _atom_site_fract_z
 _atom_site_occupancy
  Th  Th0  1  0.748823  0.832721  0.878400  1
  Al  Al1  1  0.261595  0.182326  0.149152  1
  F  F2  1  0.296717  0.390681  0.886944  1
  F  F3  1  0.626609  0.621143  0.123520  1
  F  F4  1  0.332468  0.281904  0.593181  1
  F  F5  1  0.666631  0.750726  0.423074  1
  F  F6  1  0.862763  0.223234  0.803467  1
  F  F7  1  0.168370  0.764460  0.188697  1
  F  F8  1  0.676211  0.834748  0.061107  1
  F  F9  1  0.275334  0.105166  0.999143  1
  F  F10  1  0.775560  0.608871  0.864729  1
  F  F11  1  0.280837  0.342397  0.121975  1
  F  F12  1  0.464133  0.451439  0.855665  1
  F  F13  1  0.575340  0.501013  0.147193  1
  F  F14  1  0.723252  0.702824  0.701570  1
  F  F15  1  0.215532  0.258326  0.293920  1
  F  F16  1  0.749088  0.968321  0.550502  1
  F  F17  1  0.235932  0.009941  0.465565  1
  F  F18  1  0.291915  0.174682  0.654012  1
  F  F19  1  0.681360  0.821141  0.315912  1
  F  F20  1  0.805541  0.087735  0.586081  1
  F  F21  1  0.165807  0.932490  0.364357  1
  F  F22  1  0.820930  0.011284  0.849385  1
  F  F23  1  0.196759  0.026101  0.155205  1
  F  F24  1  0.895573  0.350447  0.791896  1
  F  F25  1  0.113220  0.646146  0.212935  1
  F  F26  1  0.156594  0.750855  0.912271  1
  F  F27  1  0.931629  0.256956  0.084712  1
  F  F28  1  0.393664  0.944526  0.750886  1
  F  F29  1  0.563092  0.114065  0.207271  1
  F  F30  1  0.117956  0.752356  0.579051  1
  F  F31  1  0.893062  0.251411  0.425015  1
  F  F32  1  0.199656  0.634901  0.649657  1
  F  F33  1  0.785509  0.369656  0.360329  1
  F  F34  1  0.278566  0.847842  0.830507  1
  F  F35  1  0.754740  0.188809  0.140831  1
  F  F36  1  0.536951  0.453213  0.556096  1
  F  F37  1  0.482282  0.555142  0.465792  1
