# generated using pymatgen
data_Tm10In8Ir3Pt
_symmetry_space_group_name_H-M   'P 1'
_cell_length_a   3.57117100
_cell_length_b   8.02608402
_cell_length_c   18.11489605
_cell_angle_alpha   89.99167665
_cell_angle_beta   90.00000000
_cell_angle_gamma   90.00000000
_symmetry_Int_Tables_number   1
_chemical_formula_structural   Tm10In8Ir3Pt
_chemical_formula_sum   'Tm10 In8 Ir3 Pt1'
_cell_volume   519.21853762
_cell_formula_units_Z   1
loop_
 _symmetry_equiv_pos_site_id
 _symmetry_equiv_pos_as_xyz
  1  'x, y, z'
loop_
 _atom_site_type_symbol
 _atom_site_label
 _atom_site_symmetry_multiplicity
 _atom_site_fract_x
 _atom_site_fract_y
 _atom_site_fract_z
 _atom_site_occupancy
  Tm  Tm0  1  0.000000  0.115649  0.412899  1
  Tm  Tm1  1  0.000000  0.883625  0.587411  1
  Tm  Tm2  1  0.000000  0.383708  0.912589  1
  Tm  Tm3  1  0.000000  0.617115  0.085752  1
  Tm  Tm4  1  0.000000  0.238255  0.221551  1
  Tm  Tm5  1  0.000000  0.756424  0.778892  1
  Tm  Tm6  1  0.000000  0.256230  0.721151  1
  Tm  Tm7  1  0.000000  0.748813  0.280029  1
  Tm  Tm8  1  0.000000  0.999742  0.999920  1
  Tm  Tm9  1  0.000000  0.500123  0.500206  1
  In  In10  1  0.500000  0.423455  0.351928  1
  In  In11  1  0.500000  0.574394  0.649148  1
  In  In12  1  0.500000  0.074979  0.850788  1
  In  In13  1  0.500000  0.926480  0.148940  1
  In  In14  1  0.500000  0.291626  0.066132  1
  In  In15  1  0.500000  0.706877  0.933049  1
  In  In16  1  0.500000  0.207069  0.566875  1
  In  In17  1  0.500000  0.792870  0.432729  1
  Ir  Ir18  1  0.500000  0.023645  0.303835  1
  Ir  Ir19  1  0.500000  0.977249  0.696123  1
  Ir  Ir20  1  0.500000  0.477122  0.803946  1
  Pt  Pt21  1  0.500000  0.524549  0.196105  1
