# generated using pymatgen
data_TbY3Sn6Ir7
_symmetry_space_group_name_H-M   'P 1'
_cell_length_a   7.61109568
_cell_length_b   7.60987160
_cell_length_c   7.61109601
_cell_angle_alpha   109.46795593
_cell_angle_beta   109.47446823
_cell_angle_gamma   109.46796071
_symmetry_Int_Tables_number   1
_chemical_formula_structural   TbY3Sn6Ir7
_chemical_formula_sum   'Tb1 Y3 Sn6 Ir7'
_cell_volume   339.36525932
_cell_formula_units_Z   1
loop_
 _symmetry_equiv_pos_site_id
 _symmetry_equiv_pos_as_xyz
  1  'x, y, z'
loop_
 _atom_site_type_symbol
 _atom_site_label
 _atom_site_symmetry_multiplicity
 _atom_site_fract_x
 _atom_site_fract_y
 _atom_site_fract_z
 _atom_site_occupancy
  Tb  Tb0  1  0.000000  0.500000  0.000000  1
  Y  Y1  1  0.000000  0.000000  0.500000  1
  Y  Y2  1  0.500000  0.000000  0.000000  1
  Y  Y3  1  0.500000  0.500000  0.500000  1
  Sn  Sn4  1  0.685665  0.685833  0.000000  1
  Sn  Sn5  1  0.314335  0.000167  0.314335  1
  Sn  Sn6  1  0.000000  0.314167  0.314335  1
  Sn  Sn7  1  0.314335  0.314167  0.000000  1
  Sn  Sn8  1  0.685665  0.999833  0.685665  1
  Sn  Sn9  1  0.000000  0.685833  0.685665  1
  Ir  Ir10  1  0.749916  0.249916  0.499832  1
  Ir  Ir11  1  0.749916  0.500000  0.250084  1
  Ir  Ir12  1  0.499832  0.249916  0.749916  1
  Ir  Ir13  1  0.250084  0.500000  0.749916  1
  Ir  Ir14  1  0.250084  0.750084  0.500168  1
  Ir  Ir15  1  0.500168  0.750084  0.250084  1
  Ir  Ir16  1  0.000000  0.000000  0.000000  1
