# generated using pymatgen
data_DyYEr2(GaCo)4
_symmetry_space_group_name_H-M   'P 1'
_cell_length_a   4.41595500
_cell_length_b   6.83469905
_cell_length_c   6.97885678
_cell_angle_alpha   90.09249720
_cell_angle_beta   90.00000000
_cell_angle_gamma   90.00000000
_symmetry_Int_Tables_number   1
_chemical_formula_structural   DyYEr2(GaCo)4
_chemical_formula_sum   'Dy1 Y1 Er2 Ga4 Co4'
_cell_volume   210.63365070
_cell_formula_units_Z   1
loop_
 _symmetry_equiv_pos_site_id
 _symmetry_equiv_pos_as_xyz
  1  'x, y, z'
loop_
 _atom_site_type_symbol
 _atom_site_label
 _atom_site_symmetry_multiplicity
 _atom_site_fract_x
 _atom_site_fract_y
 _atom_site_fract_z
 _atom_site_occupancy
  Dy  Dy0  1  0.750000  0.803110  0.477996  1
  Y  Y1  1  0.250000  0.194712  0.520827  1
  Er  Er2  1  0.250000  0.304308  0.021765  1
  Er  Er3  1  0.750000  0.695743  0.977936  1
  Ga  Ga4  1  0.250000  0.894066  0.193130  1
  Ga  Ga5  1  0.750000  0.395432  0.303539  1
  Ga  Ga6  1  0.250000  0.605214  0.696358  1
  Ga  Ga7  1  0.750000  0.105369  0.806652  1
  Co  Co8  1  0.250000  0.936058  0.845397  1
  Co  Co9  1  0.250000  0.563964  0.341752  1
  Co  Co10  1  0.750000  0.063808  0.155877  1
  Co  Co11  1  0.750000  0.438215  0.658773  1
