# generated using pymatgen
data_Li4Pr3Si4
_symmetry_space_group_name_H-M   'P 1'
_cell_length_a   4.43775176
_cell_length_b   6.77563857
_cell_length_c   8.41341439
_cell_angle_alpha   113.74512029
_cell_angle_beta   105.29155162
_cell_angle_gamma   89.99999889
_symmetry_Int_Tables_number   1
_chemical_formula_structural   Li4Pr3Si4
_chemical_formula_sum   'Li4 Pr3 Si4'
_cell_volume   221.74408794
_cell_formula_units_Z   1
loop_
 _symmetry_equiv_pos_site_id
 _symmetry_equiv_pos_as_xyz
  1  'x, y, z'
loop_
 _atom_site_type_symbol
 _atom_site_label
 _atom_site_symmetry_multiplicity
 _atom_site_fract_x
 _atom_site_fract_y
 _atom_site_fract_z
 _atom_site_occupancy
  Li  Li0  1  0.670801  0.980892  0.341601  1
  Li  Li1  1  0.329199  0.019108  0.658399  1
  Li  Li2  1  0.329199  0.639292  0.658399  1
  Li  Li3  1  0.670801  0.360708  0.341601  1
  Pr  Pr4  1  0.000000  0.000000  0.000000  1
  Pr  Pr5  1  0.131639  0.631639  0.263279  1
  Pr  Pr6  1  0.868361  0.368361  0.736721  1
  Si  Si7  1  0.500000  0.676676  0.000000  1
  Si  Si8  1  0.500000  0.323324  0.000000  1
  Si  Si9  1  0.787534  0.787534  0.575066  1
  Si  Si10  1  0.212466  0.212466  0.424934  1
