# generated using pymatgen
data_Ca3Pr5(IO6)4
_symmetry_space_group_name_H-M   'P 1'
_cell_length_a   5.54804237
_cell_length_b   7.84498681
_cell_length_c   11.67272800
_cell_angle_alpha   76.71879989
_cell_angle_beta   90.11601592
_cell_angle_gamma   90.05763371
_symmetry_Int_Tables_number   1
_chemical_formula_structural   Ca3Pr5(IO6)4
_chemical_formula_sum   'Ca3 Pr5 I4 O24'
_cell_volume   494.45836493
_cell_formula_units_Z   1
loop_
 _symmetry_equiv_pos_site_id
 _symmetry_equiv_pos_as_xyz
  1  'x, y, z'
loop_
 _atom_site_type_symbol
 _atom_site_label
 _atom_site_symmetry_multiplicity
 _atom_site_fract_x
 _atom_site_fract_y
 _atom_site_fract_z
 _atom_site_occupancy
  Ca  Ca0  1  0.194107  0.788380  0.579638  1
  Ca  Ca1  1  0.809251  0.779466  0.078109  1
  Ca  Ca2  1  0.193916  0.222632  0.917125  1
  Pr  Pr3  1  0.751644  0.004468  0.755786  1
  Pr  Pr4  1  0.251754  0.996164  0.243898  1
  Pr  Pr5  1  0.685049  0.502906  0.751396  1
  Pr  Pr6  1  0.310350  0.500243  0.244941  1
  Pr  Pr7  1  0.811602  0.213384  0.427129  1
  I  I8  1  0.261223  0.732755  0.887584  1
  I  I9  1  0.740953  0.730221  0.383923  1
  I  I10  1  0.260205  0.273772  0.617057  1
  I  I11  1  0.739648  0.267584  0.111449  1
  O  O12  1  0.088267  0.942766  0.893525  1
  O  O13  1  0.537391  0.834123  0.937372  1
  O  O14  1  0.921896  0.940500  0.383979  1
  O  O15  1  0.433481  0.797753  0.736903  1
  O  O16  1  0.469452  0.839828  0.431712  1
  O  O17  1  0.985885  0.702773  0.790320  1
  O  O18  1  0.560354  0.787897  0.233437  1
  O  O19  1  0.854309  0.645741  0.537441  1
  O  O20  1  0.368675  0.506591  0.890312  1
  O  O21  1  0.010599  0.700897  0.283102  1
  O  O22  1  0.369098  0.504951  0.609079  1
  O  O23  1  0.849109  0.353185  0.958959  1
  O  O24  1  0.156341  0.648634  0.044926  1
  O  O25  1  0.631403  0.503383  0.386413  1
  O  O26  1  0.974849  0.292380  0.728927  1
  O  O27  1  0.636978  0.493295  0.113319  1
  O  O28  1  0.172327  0.352679  0.446435  1
  O  O29  1  0.460562  0.220557  0.770452  1
  O  O30  1  0.010458  0.292436  0.215877  1
  O  O31  1  0.528720  0.145249  0.571687  1
  O  O32  1  0.556386  0.206021  0.263813  1
  O  O33  1  0.038534  0.055299  0.599773  1
  O  O34  1  0.461590  0.164697  0.064820  1
  O  O35  1  0.913634  0.056392  0.109383  1
