# generated using pymatgen
data_Dy4HoRuRh
_symmetry_space_group_name_H-M   'P 1'
_cell_length_a   6.37588063
_cell_length_b   7.24738787
_cell_length_c   8.53073387
_cell_angle_alpha   96.67820313
_cell_angle_beta   111.94402561
_cell_angle_gamma   90.00000206
_symmetry_Int_Tables_number   1
_chemical_formula_structural   Dy4HoRuRh
_chemical_formula_sum   'Dy8 Ho2 Ru2 Rh2'
_cell_volume   362.74764869
_cell_formula_units_Z   2
loop_
 _symmetry_equiv_pos_site_id
 _symmetry_equiv_pos_as_xyz
  1  'x, y, z'
loop_
 _atom_site_type_symbol
 _atom_site_label
 _atom_site_symmetry_multiplicity
 _atom_site_fract_x
 _atom_site_fract_y
 _atom_site_fract_z
 _atom_site_occupancy
  Dy  Dy0  1  0.980920  0.917850  0.187926  1
  Dy  Dy1  1  0.792994  0.582150  0.812074  1
  Dy  Dy2  1  0.023917  0.085324  0.814500  1
  Dy  Dy3  1  0.209419  0.414676  0.185500  1
  Dy  Dy4  1  0.641473  0.815586  0.433852  1
  Dy  Dy5  1  0.207620  0.684414  0.566148  1
  Dy  Dy6  1  0.355966  0.187671  0.563487  1
  Dy  Dy7  1  0.792480  0.312329  0.436513  1
  Ho  Ho8  1  0.420358  0.750000  0.000000  1
  Ho  Ho9  1  0.576808  0.250000  0.000000  1
  Ru  Ru10  1  0.177662  0.425424  0.779813  1
  Ru  Ru11  1  0.397849  0.074576  0.220187  1
  Rh  Rh12  1  0.821717  0.576213  0.220901  1
  Rh  Rh13  1  0.600817  0.923787  0.779099  1
