# generated using pymatgen
data_Na4RuO5
_symmetry_space_group_name_H-M   'P 1'
_cell_length_a   5.70779339
_cell_length_b   5.72878661
_cell_length_c   8.53875545
_cell_angle_alpha   109.32719472
_cell_angle_beta   101.50578200
_cell_angle_gamma   102.06059144
_symmetry_Int_Tables_number   1
_chemical_formula_structural   Na4RuO5
_chemical_formula_sum   'Na8 Ru2 O10'
_cell_volume   246.49850390
_cell_formula_units_Z   2
loop_
 _symmetry_equiv_pos_site_id
 _symmetry_equiv_pos_as_xyz
  1  'x, y, z'
loop_
 _atom_site_type_symbol
 _atom_site_label
 _atom_site_symmetry_multiplicity
 _atom_site_fract_x
 _atom_site_fract_y
 _atom_site_fract_z
 _atom_site_occupancy
  Na  Na0  1  0.206444  0.414820  0.903397  1
  Na  Na1  1  0.411331  0.799803  0.293806  1
  Na  Na2  1  0.700620  0.397199  0.399613  1
  Na  Na3  1  0.299380  0.602801  0.600387  1
  Na  Na4  1  0.793556  0.585180  0.096603  1
  Na  Na5  1  0.000000  0.000000  0.500000  1
  Na  Na6  1  0.500000  0.000000  0.000000  1
  Na  Na7  1  0.588669  0.200197  0.706194  1
  Ru  Ru8  1  0.896948  0.800673  0.796566  1
  Ru  Ru9  1  0.103052  0.199327  0.203434  1
  O  O10  1  0.602126  0.627999  0.843332  1
  O  O11  1  0.397874  0.372001  0.156668  1
  O  O12  1  0.691157  0.820404  0.598350  1
  O  O13  1  0.308843  0.179596  0.401650  1
  O  O14  1  0.804618  0.020317  0.242826  1
  O  O15  1  0.195382  0.979683  0.757174  1
  O  O16  1  0.886538  0.153777  0.963372  1
  O  O17  1  0.113462  0.846223  0.036628  1
  O  O18  1  0.056582  0.524488  0.315131  1
  O  O19  1  0.943418  0.475512  0.684869  1
