# generated using pymatgen
data_Ho4Zn(SiIr2)2
_symmetry_space_group_name_H-M   'P 1'
_cell_length_a   10.76935325
_cell_length_b   10.76935222
_cell_length_c   7.72758300
_cell_angle_alpha   71.51463972
_cell_angle_beta   71.51463594
_cell_angle_gamma   29.86887358
_symmetry_Int_Tables_number   1
_chemical_formula_structural   Ho4Zn(SiIr2)2
_chemical_formula_sum   'Ho8 Zn2 Si4 Ir8'
_cell_volume   421.62567661
_cell_formula_units_Z   2
loop_
 _symmetry_equiv_pos_site_id
 _symmetry_equiv_pos_as_xyz
  1  'x, y, z'
loop_
 _atom_site_type_symbol
 _atom_site_label
 _atom_site_symmetry_multiplicity
 _atom_site_fract_x
 _atom_site_fract_y
 _atom_site_fract_z
 _atom_site_occupancy
  Ho  Ho0  1  0.210947  0.446063  0.399979  1
  Ho  Ho1  1  0.553937  0.789053  0.100021  1
  Ho  Ho2  1  0.446063  0.210947  0.899979  1
  Ho  Ho3  1  0.916010  0.221147  0.335226  1
  Ho  Ho4  1  0.778853  0.083990  0.164774  1
  Ho  Ho5  1  0.083990  0.778853  0.664774  1
  Ho  Ho6  1  0.221147  0.916010  0.835226  1
  Ho  Ho7  1  0.789053  0.553937  0.600021  1
  Zn  Zn8  1  0.638451  0.361549  0.750000  1
  Zn  Zn9  1  0.361549  0.638451  0.250000  1
  Si  Si10  1  0.298320  0.049274  0.443520  1
  Si  Si11  1  0.950726  0.701680  0.056480  1
  Si  Si12  1  0.701680  0.950726  0.556480  1
  Si  Si13  1  0.049274  0.298320  0.943520  1
  Ir  Ir14  1  0.276160  0.589205  0.023668  1
  Ir  Ir15  1  0.589205  0.276160  0.523668  1
  Ir  Ir16  1  0.723840  0.410795  0.976332  1
  Ir  Ir17  1  0.069938  0.370092  0.193373  1
  Ir  Ir18  1  0.629908  0.930062  0.306627  1
  Ir  Ir19  1  0.410795  0.723840  0.476332  1
  Ir  Ir20  1  0.930062  0.629908  0.806627  1
  Ir  Ir21  1  0.370092  0.069938  0.693373  1
