# generated using pymatgen
data_Er4MoOs7
_symmetry_space_group_name_H-M   'P 1'
_cell_length_a   5.26475702
_cell_length_b   5.26475681
_cell_length_c   8.83248700
_cell_angle_alpha   90.00000000
_cell_angle_beta   90.00000000
_cell_angle_gamma   117.74758370
_symmetry_Int_Tables_number   1
_chemical_formula_structural   Er4MoOs7
_chemical_formula_sum   'Er4 Mo1 Os7'
_cell_volume   216.66386888
_cell_formula_units_Z   1
loop_
 _symmetry_equiv_pos_site_id
 _symmetry_equiv_pos_as_xyz
  1  'x, y, z'
loop_
 _atom_site_type_symbol
 _atom_site_label
 _atom_site_symmetry_multiplicity
 _atom_site_fract_x
 _atom_site_fract_y
 _atom_site_fract_z
 _atom_site_occupancy
  Er  Er0  1  0.329828  0.670172  0.437079  1
  Er  Er1  1  0.666437  0.333563  0.566309  1
  Er  Er2  1  0.666437  0.333563  0.933691  1
  Er  Er3  1  0.329828  0.670172  0.062921  1
  Mo  Mo4  1  0.832444  0.167556  0.250000  1
  Os  Os5  1  0.995278  0.004722  0.502515  1
  Os  Os6  1  0.995278  0.004722  0.997485  1
  Os  Os7  1  0.826398  0.653435  0.250000  1
  Os  Os8  1  0.346565  0.173602  0.250000  1
  Os  Os9  1  0.178009  0.821991  0.750000  1
  Os  Os10  1  0.172619  0.339118  0.750000  1
  Os  Os11  1  0.660882  0.827381  0.750000  1
