# generated using pymatgen
data_Lu5PaAl18
_symmetry_space_group_name_H-M   'P 1'
_cell_length_a   14.54941489
_cell_length_b   14.54941502
_cell_length_c   14.54941558
_cell_angle_alpha   24.15314624
_cell_angle_beta   24.15314341
_cell_angle_gamma   24.15314942
_symmetry_Int_Tables_number   1
_chemical_formula_structural   Lu5PaAl18
_chemical_formula_sum   'Lu5 Pa1 Al18'
_cell_volume   453.17937935
_cell_formula_units_Z   1
loop_
 _symmetry_equiv_pos_site_id
 _symmetry_equiv_pos_as_xyz
  1  'x, y, z'
loop_
 _atom_site_type_symbol
 _atom_site_label
 _atom_site_symmetry_multiplicity
 _atom_site_fract_x
 _atom_site_fract_y
 _atom_site_fract_z
 _atom_site_occupancy
  Lu  Lu0  1  0.890658  0.890658  0.890658  1
  Lu  Lu1  1  0.390696  0.390696  0.390696  1
  Lu  Lu2  1  0.999584  0.999584  0.999584  1
  Lu  Lu3  1  0.499933  0.499933  0.499933  1
  Lu  Lu4  1  0.609552  0.609552  0.609552  1
  Pa  Pa5  1  0.109222  0.109222  0.109222  1
  Al  Al6  1  0.919802  0.373784  0.373784  1
  Al  Al7  1  0.417575  0.872598  0.872598  1
  Al  Al8  1  0.373784  0.373784  0.919802  1
  Al  Al9  1  0.872598  0.872598  0.417575  1
  Al  Al10  1  0.373784  0.919802  0.373784  1
  Al  Al11  1  0.872598  0.417575  0.872598  1
  Al  Al12  1  0.581002  0.126717  0.126717  1
  Al  Al13  1  0.081760  0.626492  0.626492  1
  Al  Al14  1  0.126717  0.126717  0.581002  1
  Al  Al15  1  0.626492  0.626492  0.081760  1
  Al  Al16  1  0.126717  0.581002  0.126717  1
  Al  Al17  1  0.626492  0.081760  0.626492  1
  Al  Al18  1  0.499246  0.499246  0.000361  1
  Al  Al19  1  0.001645  0.001645  0.498891  1
  Al  Al20  1  0.499246  0.000361  0.499246  1
  Al  Al21  1  0.001645  0.498891  0.001645  1
  Al  Al22  1  0.000361  0.499246  0.499246  1
  Al  Al23  1  0.498891  0.001645  0.001645  1
