# generated using pymatgen
data_La3AsSe3
_symmetry_space_group_name_H-M   'P 1'
_cell_length_a   7.87318500
_cell_length_b   7.89215117
_cell_length_c   7.89215085
_cell_angle_alpha   109.51985135
_cell_angle_beta   109.42255065
_cell_angle_gamma   109.42255106
_symmetry_Int_Tables_number   1
_chemical_formula_structural   La3AsSe3
_chemical_formula_sum   'La6 As2 Se6'
_cell_volume   377.72855670
_cell_formula_units_Z   2
loop_
 _symmetry_equiv_pos_site_id
 _symmetry_equiv_pos_as_xyz
  1  'x, y, z'
loop_
 _atom_site_type_symbol
 _atom_site_label
 _atom_site_symmetry_multiplicity
 _atom_site_fract_x
 _atom_site_fract_y
 _atom_site_fract_z
 _atom_site_occupancy
  La  La0  1  0.876260  0.756929  0.122009  1
  La  La1  1  0.119331  0.365080  0.243071  1
  La  La2  1  0.619331  0.243071  0.365080  1
  La  La3  1  0.754250  0.877989  0.634918  1
  La  La4  1  0.376262  0.122011  0.756929  1
  La  La5  1  0.254250  0.634918  0.877989  1
  As  As6  1  0.652863  0.000000  0.000000  1
  As  As7  1  0.152863  0.000000  0.000000  1
  Se  Se8  1  0.499945  0.501445  0.151096  1
  Se  Se9  1  0.348849  0.848904  0.350349  1
  Se  Se10  1  0.999945  0.151096  0.501445  1
  Se  Se11  1  0.998500  0.649651  0.498555  1
  Se  Se12  1  0.498500  0.498555  0.649651  1
  Se  Se13  1  0.848849  0.350349  0.848904  1
