# generated using pymatgen
data_CeSm(AlRh)2
_symmetry_space_group_name_H-M   'P 1'
_cell_length_a   4.23272900
_cell_length_b   7.05424200
_cell_length_c   16.01219900
_cell_angle_alpha   90.00000000
_cell_angle_beta   90.00000000
_cell_angle_gamma   90.00000000
_symmetry_Int_Tables_number   1
_chemical_formula_structural   CeSm(AlRh)2
_chemical_formula_sum   'Ce4 Sm4 Al8 Rh8'
_cell_volume   478.10336120
_cell_formula_units_Z   4
loop_
 _symmetry_equiv_pos_site_id
 _symmetry_equiv_pos_as_xyz
  1  'x, y, z'
loop_
 _atom_site_type_symbol
 _atom_site_label
 _atom_site_symmetry_multiplicity
 _atom_site_fract_x
 _atom_site_fract_y
 _atom_site_fract_z
 _atom_site_occupancy
  Ce  Ce0  1  0.250000  0.028567  0.779835  1
  Ce  Ce1  1  0.750000  0.971433  0.220165  1
  Ce  Ce2  1  0.250000  0.528567  0.720165  1
  Ce  Ce3  1  0.750000  0.471433  0.279835  1
  Sm  Sm4  1  0.250000  0.156945  0.559823  1
  Sm  Sm5  1  0.750000  0.843055  0.440177  1
  Sm  Sm6  1  0.250000  0.656945  0.940177  1
  Sm  Sm7  1  0.750000  0.343055  0.059823  1
  Al  Al8  1  0.250000  0.143191  0.351341  1
  Al  Al9  1  0.750000  0.856809  0.648659  1
  Al  Al10  1  0.250000  0.643191  0.148659  1
  Al  Al11  1  0.750000  0.356809  0.851341  1
  Al  Al12  1  0.250000  0.007072  0.061460  1
  Al  Al13  1  0.750000  0.992928  0.938540  1
  Al  Al14  1  0.250000  0.507072  0.438540  1
  Al  Al15  1  0.750000  0.492928  0.561460  1
  Rh  Rh16  1  0.750000  0.281967  0.425165  1
  Rh  Rh17  1  0.250000  0.718033  0.574835  1
  Rh  Rh18  1  0.750000  0.781967  0.074835  1
  Rh  Rh19  1  0.250000  0.218033  0.925165  1
  Rh  Rh20  1  0.750000  0.742284  0.812714  1
  Rh  Rh21  1  0.250000  0.257716  0.187286  1
  Rh  Rh22  1  0.750000  0.242284  0.687286  1
  Rh  Rh23  1  0.250000  0.757716  0.312714  1
