# generated using pymatgen
data_Pr3Y3Ho2(CdIr)2
_symmetry_space_group_name_H-M   'P 1'
_cell_length_a   9.78896170
_cell_length_b   9.78896070
_cell_length_c   9.78896200
_cell_angle_alpha   60.00000237
_cell_angle_beta   60.00000575
_cell_angle_gamma   60.00000046
_symmetry_Int_Tables_number   1
_chemical_formula_structural   Pr3Y3Ho2(CdIr)2
_chemical_formula_sum   'Pr6 Y6 Ho4 Cd4 Ir4'
_cell_volume   663.27692285
_cell_formula_units_Z   2
loop_
 _symmetry_equiv_pos_site_id
 _symmetry_equiv_pos_as_xyz
  1  'x, y, z'
loop_
 _atom_site_type_symbol
 _atom_site_label
 _atom_site_symmetry_multiplicity
 _atom_site_fract_x
 _atom_site_fract_y
 _atom_site_fract_z
 _atom_site_occupancy
  Pr  Pr0  1  0.941317  0.558683  0.558683  1
  Pr  Pr1  1  0.558683  0.941317  0.941317  1
  Pr  Pr2  1  0.558683  0.941317  0.558683  1
  Pr  Pr3  1  0.941317  0.558683  0.941317  1
  Pr  Pr4  1  0.558683  0.558683  0.941317  1
  Pr  Pr5  1  0.941317  0.941317  0.558683  1
  Y  Y6  1  0.812051  0.187949  0.187949  1
  Y  Y7  1  0.187949  0.812051  0.812051  1
  Y  Y8  1  0.187949  0.812051  0.187949  1
  Y  Y9  1  0.812051  0.187949  0.812051  1
  Y  Y10  1  0.187949  0.187949  0.812051  1
  Y  Y11  1  0.812051  0.812051  0.187949  1
  Ho  Ho12  1  0.346820  0.346820  0.346820  1
  Ho  Ho13  1  0.346820  0.346820  0.959540  1
  Ho  Ho14  1  0.346820  0.959540  0.346820  1
  Ho  Ho15  1  0.959540  0.346820  0.346820  1
  Cd  Cd16  1  0.579237  0.579237  0.579237  1
  Cd  Cd17  1  0.579237  0.579237  0.262288  1
  Cd  Cd18  1  0.579237  0.262288  0.579237  1
  Cd  Cd19  1  0.262288  0.579237  0.579237  1
  Ir  Ir20  1  0.142018  0.142018  0.142018  1
  Ir  Ir21  1  0.142018  0.142018  0.573948  1
  Ir  Ir22  1  0.142018  0.573948  0.142018  1
  Ir  Ir23  1  0.573948  0.142018  0.142018  1
