# generated using pymatgen
data_LaNdAs4(IrRu)2
_symmetry_space_group_name_H-M   'P 1'
_cell_length_a   4.37229900
_cell_length_b   4.37229900
_cell_length_c   9.83490500
_cell_angle_alpha   90.00000000
_cell_angle_beta   90.00000000
_cell_angle_gamma   90.00000000
_symmetry_Int_Tables_number   1
_chemical_formula_structural   LaNdAs4(IrRu)2
_chemical_formula_sum   'La1 Nd1 As4 Ir2 Ru2'
_cell_volume   188.01386458
_cell_formula_units_Z   1
loop_
 _symmetry_equiv_pos_site_id
 _symmetry_equiv_pos_as_xyz
  1  'x, y, z'
loop_
 _atom_site_type_symbol
 _atom_site_label
 _atom_site_symmetry_multiplicity
 _atom_site_fract_x
 _atom_site_fract_y
 _atom_site_fract_z
 _atom_site_occupancy
  La  La0  1  0.500000  0.000000  0.757704  1
  Nd  Nd1  1  0.000000  0.500000  0.240984  1
  As  As2  1  0.000000  0.000000  0.001038  1
  As  As3  1  0.500000  0.500000  0.001038  1
  As  As4  1  0.000000  0.500000  0.625987  1
  As  As5  1  0.500000  0.000000  0.373259  1
  Ir  Ir6  1  0.000000  0.500000  0.880437  1
  Ir  Ir7  1  0.500000  0.000000  0.121474  1
  Ru  Ru8  1  0.000000  0.000000  0.499040  1
  Ru  Ru9  1  0.500000  0.500000  0.499040  1
