# generated using pymatgen
data_Ho6Al24IrOsRu6
_symmetry_space_group_name_H-M   'P 1'
_cell_length_a   8.78705885
_cell_length_b   8.80161884
_cell_length_c   9.59850352
_cell_angle_alpha   89.81597704
_cell_angle_beta   90.10419284
_cell_angle_gamma   119.90163680
_symmetry_Int_Tables_number   1
_chemical_formula_structural   Ho6Al24IrOsRu6
_chemical_formula_sum   'Ho6 Al24 Ir1 Os1 Ru6'
_cell_volume   643.52823532
_cell_formula_units_Z   1
loop_
 _symmetry_equiv_pos_site_id
 _symmetry_equiv_pos_as_xyz
  1  'x, y, z'
loop_
 _atom_site_type_symbol
 _atom_site_label
 _atom_site_symmetry_multiplicity
 _atom_site_fract_x
 _atom_site_fract_y
 _atom_site_fract_z
 _atom_site_occupancy
  Ho  Ho0  1  0.803929  0.193106  0.750737  1
  Ho  Ho1  1  0.196071  0.806894  0.249263  1
  Ho  Ho2  1  0.388269  0.192089  0.750216  1
  Ho  Ho3  1  0.611731  0.807911  0.249784  1
  Ho  Ho4  1  0.806610  0.612223  0.749440  1
  Ho  Ho5  1  0.193390  0.387777  0.250560  1
  Al  Al6  1  0.667864  0.333057  0.980566  1
  Al  Al7  1  0.332136  0.666943  0.019434  1
  Al  Al8  1  0.333263  0.666670  0.480260  1
  Al  Al9  1  0.666737  0.333330  0.519740  1
  Al  Al10  1  0.837235  0.163178  0.422810  1
  Al  Al11  1  0.162765  0.836822  0.577190  1
  Al  Al12  1  0.325650  0.163433  0.422636  1
  Al  Al13  1  0.162720  0.837288  0.922852  1
  Al  Al14  1  0.674350  0.836567  0.577364  1
  Al  Al15  1  0.837280  0.162712  0.077148  1
  Al  Al16  1  0.837119  0.674861  0.422200  1
  Al  Al17  1  0.674586  0.838287  0.922915  1
  Al  Al18  1  0.162881  0.325139  0.577800  1
  Al  Al19  1  0.325414  0.161713  0.077085  1
  Al  Al20  1  0.161376  0.324722  0.922354  1
  Al  Al21  1  0.838624  0.675278  0.077646  1
  Al  Al22  1  0.438452  0.561050  0.748649  1
  Al  Al23  1  0.561548  0.438950  0.251351  1
  Al  Al24  1  0.121894  0.560379  0.750023  1
  Al  Al25  1  0.878106  0.439621  0.249977  1
  Al  Al26  1  0.438471  0.876289  0.749704  1
  Al  Al27  1  0.561529  0.123711  0.250296  1
  Al  Al28  1  0.000104  0.999754  0.750037  1
  Al  Al29  1  0.999896  0.000246  0.249963  1
  Ir  Ir30  1  0.500000  0.500000  0.000000  1
  Os  Os31  1  0.500000  0.000000  0.000000  1
  Ru  Ru32  1  0.000000  0.500000  0.000000  1
  Ru  Ru33  1  0.500000  0.500000  0.500000  1
  Ru  Ru34  1  0.000000  0.500000  0.500000  1
  Ru  Ru35  1  0.500000  0.000000  0.500000  1
  Ru  Ru36  1  0.000000  0.000000  0.000000  1
  Ru  Ru37  1  0.000000  0.000000  0.500000  1
