# generated using pymatgen
data_Er20Ir6Ru5Rh
_symmetry_space_group_name_H-M   'P 1'
_cell_length_a   10.73681404
_cell_length_b   10.73548444
_cell_length_c   6.38872817
_cell_angle_alpha   89.87675698
_cell_angle_beta   89.83614337
_cell_angle_gamma   90.16960223
_symmetry_Int_Tables_number   1
_chemical_formula_structural   Er20Ir6Ru5Rh
_chemical_formula_sum   'Er20 Ir6 Ru5 Rh1'
_cell_volume   736.38815937
_cell_formula_units_Z   1
loop_
 _symmetry_equiv_pos_site_id
 _symmetry_equiv_pos_as_xyz
  1  'x, y, z'
loop_
 _atom_site_type_symbol
 _atom_site_label
 _atom_site_symmetry_multiplicity
 _atom_site_fract_x
 _atom_site_fract_y
 _atom_site_fract_z
 _atom_site_occupancy
  Er  Er0  1  0.294111  0.086545  0.380310  1
  Er  Er1  1  0.292907  0.913780  0.881424  1
  Er  Er2  1  0.707011  0.089342  0.879017  1
  Er  Er3  1  0.706627  0.914332  0.375552  1
  Er  Er4  1  0.584612  0.793984  0.879385  1
  Er  Er5  1  0.586759  0.207558  0.379796  1
  Er  Er6  1  0.413254  0.793556  0.379355  1
  Er  Er7  1  0.413350  0.207409  0.879707  1
  Er  Er8  1  0.206454  0.413534  0.619626  1
  Er  Er9  1  0.206165  0.586318  0.119385  1
  Er  Er10  1  0.792445  0.412391  0.121544  1
  Er  Er11  1  0.792827  0.584303  0.621651  1
  Er  Er12  1  0.913598  0.704727  0.121429  1
  Er  Er13  1  0.913567  0.291990  0.620898  1
  Er  Er14  1  0.088691  0.706443  0.619318  1
  Er  Er15  1  0.086673  0.291896  0.121904  1
  Er  Er16  1  0.000193  0.001094  0.498008  1
  Er  Er17  1  0.999231  0.999871  0.000377  1
  Er  Er18  1  0.499483  0.500731  0.000174  1
  Er  Er19  1  0.499693  0.500308  0.499712  1
  Ir  Ir20  1  0.153457  0.153004  0.750626  1
  Ir  Ir21  1  0.151909  0.846783  0.249575  1
  Ir  Ir22  1  0.652205  0.347543  0.750548  1
  Ir  Ir23  1  0.653699  0.652958  0.249885  1
  Ir  Ir24  1  0.346599  0.347323  0.250102  1
  Ir  Ir25  1  0.346779  0.653045  0.749682  1
  Ru  Ru26  1  0.848266  0.151742  0.250087  1
  Ru  Ru27  1  0.501840  0.000809  0.126583  1
  Ru  Ru28  1  0.501188  0.000581  0.626582  1
  Ru  Ru29  1  0.999545  0.500309  0.873826  1
  Ru  Ru30  1  0.999684  0.499060  0.374415  1
  Rh  Rh31  1  0.847182  0.846728  0.749519  1
