# generated using pymatgen
data_Hf9VZnRe3
_symmetry_space_group_name_H-M   'P 1'
_cell_length_a   8.60680700
_cell_length_b   8.60680718
_cell_length_c   8.41342000
_cell_angle_alpha   90.00000000
_cell_angle_beta   90.00000000
_cell_angle_gamma   119.99999548
_symmetry_Int_Tables_number   1
_chemical_formula_structural   Hf9VZnRe3
_chemical_formula_sum   'Hf18 V2 Zn2 Re6'
_cell_volume   539.74342272
_cell_formula_units_Z   2
loop_
 _symmetry_equiv_pos_site_id
 _symmetry_equiv_pos_as_xyz
  1  'x, y, z'
loop_
 _atom_site_type_symbol
 _atom_site_label
 _atom_site_symmetry_multiplicity
 _atom_site_fract_x
 _atom_site_fract_y
 _atom_site_fract_z
 _atom_site_occupancy
  Hf  Hf0  1  0.193215  0.806785  0.449539  1
  Hf  Hf1  1  0.193215  0.386433  0.449539  1
  Hf  Hf2  1  0.613567  0.806785  0.449539  1
  Hf  Hf3  1  0.806207  0.193793  0.550111  1
  Hf  Hf4  1  0.806207  0.612415  0.550111  1
  Hf  Hf5  1  0.387585  0.193793  0.550111  1
  Hf  Hf6  1  0.806207  0.193793  0.949889  1
  Hf  Hf7  1  0.806207  0.612415  0.949889  1
  Hf  Hf8  1  0.387585  0.193793  0.949889  1
  Hf  Hf9  1  0.193215  0.806785  0.050461  1
  Hf  Hf10  1  0.193215  0.386433  0.050461  1
  Hf  Hf11  1  0.613567  0.806785  0.050461  1
  Hf  Hf12  1  0.540935  0.459065  0.250000  1
  Hf  Hf13  1  0.540935  0.081871  0.250000  1
  Hf  Hf14  1  0.918129  0.459065  0.250000  1
  Hf  Hf15  1  0.458983  0.541017  0.750000  1
  Hf  Hf16  1  0.458983  0.917965  0.750000  1
  Hf  Hf17  1  0.082035  0.541017  0.750000  1
  V  V18  1  0.000000  0.000000  0.500243  1
  V  V19  1  0.000000  0.000000  0.999757  1
  Zn  Zn20  1  0.333333  0.666667  0.250000  1
  Zn  Zn21  1  0.666667  0.333333  0.750000  1
  Re  Re22  1  0.890768  0.109232  0.250000  1
  Re  Re23  1  0.890768  0.781538  0.250000  1
  Re  Re24  1  0.218462  0.109232  0.250000  1
  Re  Re25  1  0.109163  0.890837  0.750000  1
  Re  Re26  1  0.109163  0.218326  0.750000  1
  Re  Re27  1  0.781674  0.890837  0.750000  1
