# generated using pymatgen
data_YSn6RuRh3
_symmetry_space_group_name_H-M   'P 1'
_cell_length_a   6.97980559
_cell_length_b   6.97980583
_cell_length_c   6.92760959
_cell_angle_alpha   119.80749176
_cell_angle_beta   119.80749241
_cell_angle_gamma   90.83508824
_symmetry_Int_Tables_number   1
_chemical_formula_structural   YSn6RuRh3
_chemical_formula_sum   'Y1 Sn6 Ru1 Rh3'
_cell_volume   238.26272571
_cell_formula_units_Z   1
loop_
 _symmetry_equiv_pos_site_id
 _symmetry_equiv_pos_as_xyz
  1  'x, y, z'
loop_
 _atom_site_type_symbol
 _atom_site_label
 _atom_site_symmetry_multiplicity
 _atom_site_fract_x
 _atom_site_fract_y
 _atom_site_fract_z
 _atom_site_occupancy
  Y  Y0  1  0.996464  0.996464  0.991526  1
  Sn  Sn1  1  0.874001  0.538361  0.004809  1
  Sn  Sn2  1  0.538361  0.874001  0.004809  1
  Sn  Sn3  1  0.127190  0.127190  0.663672  1
  Sn  Sn4  1  0.002856  0.503842  0.500864  1
  Sn  Sn5  1  0.465559  0.465559  0.337743  1
  Sn  Sn6  1  0.503842  0.002856  0.500864  1
  Ru  Ru7  1  0.754990  0.754990  0.358729  1
  Rh  Rh8  1  0.236685  0.604787  0.998922  1
  Rh  Rh9  1  0.395265  0.395265  0.639141  1
  Rh  Rh10  1  0.604787  0.236685  0.998922  1
