# generated using pymatgen
data_Ac3Al8
_symmetry_space_group_name_H-M   'P 1'
_cell_length_a   4.61099336
_cell_length_b   4.49998339
_cell_length_c   13.73106056
_cell_angle_alpha   99.43110313
_cell_angle_beta   99.66597568
_cell_angle_gamma   89.99998355
_symmetry_Int_Tables_number   1
_chemical_formula_structural   Ac3Al8
_chemical_formula_sum   'Ac3 Al8'
_cell_volume   276.95911818
_cell_formula_units_Z   1
loop_
 _symmetry_equiv_pos_site_id
 _symmetry_equiv_pos_as_xyz
  1  'x, y, z'
loop_
 _atom_site_type_symbol
 _atom_site_label
 _atom_site_symmetry_multiplicity
 _atom_site_fract_x
 _atom_site_fract_y
 _atom_site_fract_z
 _atom_site_occupancy
  Ac  Ac0  1  0.147773  0.647773  0.295547  1
  Ac  Ac1  1  0.852227  0.352227  0.704453  1
  Ac  Ac2  1  0.000000  0.000000  0.000000  1
  Al  Al3  1  0.750979  0.750979  0.501958  1
  Al  Al4  1  0.249021  0.249021  0.498042  1
  Al  Al5  1  0.403536  0.903536  0.807073  1
  Al  Al6  1  0.596464  0.096464  0.192927  1
  Al  Al7  1  0.305459  0.805459  0.610918  1
  Al  Al8  1  0.694541  0.194541  0.389082  1
  Al  Al9  1  0.549072  0.549072  0.098143  1
  Al  Al10  1  0.450928  0.450928  0.901857  1
