# generated using pymatgen
data_Dy2TcOs3
_symmetry_space_group_name_H-M   'P 1'
_cell_length_a   5.33905844
_cell_length_b   5.26285154
_cell_length_c   8.96500100
_cell_angle_alpha   90.00000000
_cell_angle_beta   90.00000000
_cell_angle_gamma   119.52895179
_symmetry_Int_Tables_number   1
_chemical_formula_structural   Dy2TcOs3
_chemical_formula_sum   'Dy4 Tc2 Os6'
_cell_volume   219.18391470
_cell_formula_units_Z   2
loop_
 _symmetry_equiv_pos_site_id
 _symmetry_equiv_pos_as_xyz
  1  'x, y, z'
loop_
 _atom_site_type_symbol
 _atom_site_label
 _atom_site_symmetry_multiplicity
 _atom_site_fract_x
 _atom_site_fract_y
 _atom_site_fract_z
 _atom_site_occupancy
  Dy  Dy0  1  0.329073  0.664537  0.436696  1
  Dy  Dy1  1  0.659891  0.329945  0.565550  1
  Dy  Dy2  1  0.659891  0.329945  0.934450  1
  Dy  Dy3  1  0.329073  0.664537  0.063304  1
  Tc  Tc4  1  0.836807  0.170371  0.250000  1
  Tc  Tc5  1  0.836807  0.666435  0.250000  1
  Os  Os6  1  0.975485  0.987743  0.499632  1
  Os  Os7  1  0.975485  0.987743  0.000368  1
  Os  Os8  1  0.358641  0.179320  0.250000  1
  Os  Os9  1  0.179384  0.828775  0.750000  1
  Os  Os10  1  0.179384  0.350610  0.750000  1
  Os  Os11  1  0.680078  0.840040  0.750000  1
