# generated using pymatgen
data_Ca2TbEr(SiPd2)4
_symmetry_space_group_name_H-M   'P 1'
_cell_length_a   5.54226509
_cell_length_b   6.99716800
_cell_length_c   7.37916765
_cell_angle_alpha   90.00000000
_cell_angle_beta   89.89889290
_cell_angle_gamma   90.00000000
_symmetry_Int_Tables_number   1
_chemical_formula_structural   Ca2TbEr(SiPd2)4
_chemical_formula_sum   'Ca2 Tb1 Er1 Si4 Pd8'
_cell_volume   286.16485604
_cell_formula_units_Z   1
loop_
 _symmetry_equiv_pos_site_id
 _symmetry_equiv_pos_as_xyz
  1  'x, y, z'
loop_
 _atom_site_type_symbol
 _atom_site_label
 _atom_site_symmetry_multiplicity
 _atom_site_fract_x
 _atom_site_fract_y
 _atom_site_fract_z
 _atom_site_occupancy
  Ca  Ca0  1  0.133875  0.750000  0.525900  1
  Ca  Ca1  1  0.866305  0.250000  0.473894  1
  Tb  Tb2  1  0.359188  0.750000  0.027281  1
  Er  Er3  1  0.641889  0.250000  0.972881  1
  Si  Si4  1  0.860666  0.750000  0.876072  1
  Si  Si5  1  0.140087  0.250000  0.123213  1
  Si  Si6  1  0.365034  0.250000  0.623772  1
  Si  Si7  1  0.635498  0.750000  0.377302  1
  Pd  Pd8  1  0.593194  0.551869  0.677707  1
  Pd  Pd9  1  0.407405  0.447232  0.322438  1
  Pd  Pd10  1  0.100815  0.446486  0.828458  1
  Pd  Pd11  1  0.407405  0.052768  0.322438  1
  Pd  Pd12  1  0.897315  0.552415  0.171239  1
  Pd  Pd13  1  0.593194  0.948131  0.677707  1
  Pd  Pd14  1  0.897315  0.947585  0.171239  1
  Pd  Pd15  1  0.100815  0.053514  0.828458  1
