# generated using pymatgen
data_Y2ErGaSn3Rh2
_symmetry_space_group_name_H-M   'P 1'
_cell_length_a   7.46844937
_cell_length_b   7.46068287
_cell_length_c   4.07330300
_cell_angle_alpha   90.00000000
_cell_angle_beta   90.00000000
_cell_angle_gamma   120.20621999
_symmetry_Int_Tables_number   1
_chemical_formula_structural   Y2ErGaSn3Rh2
_chemical_formula_sum   'Y2 Er1 Ga1 Sn3 Rh2'
_cell_volume   196.14631153
_cell_formula_units_Z   1
loop_
 _symmetry_equiv_pos_site_id
 _symmetry_equiv_pos_as_xyz
  1  'x, y, z'
loop_
 _atom_site_type_symbol
 _atom_site_label
 _atom_site_symmetry_multiplicity
 _atom_site_fract_x
 _atom_site_fract_y
 _atom_site_fract_z
 _atom_site_occupancy
  Y  Y0  1  0.399354  0.409714  0.000000  1
  Y  Y1  1  0.010553  0.601319  0.000000  1
  Er  Er2  1  0.589674  0.985986  0.000000  1
  Ga  Ga3  1  0.666433  0.331552  0.500000  1
  Sn  Sn4  1  0.742450  0.748144  0.500000  1
  Sn  Sn5  1  0.004736  0.257600  0.500000  1
  Sn  Sn6  1  0.252538  0.995370  0.500000  1
  Rh  Rh7  1  0.998204  0.000200  0.000000  1
  Rh  Rh8  1  0.336059  0.670114  0.500000  1
