# generated using pymatgen
data_Y4Co19P12Ru
_symmetry_space_group_name_H-M   'P 1'
_cell_length_a   3.67887100
_cell_length_b   10.33567037
_cell_length_c   11.79461199
_cell_angle_alpha   89.89462901
_cell_angle_beta   90.00000000
_cell_angle_gamma   90.00000000
_symmetry_Int_Tables_number   1
_chemical_formula_structural   Y4Co19P12Ru
_chemical_formula_sum   'Y4 Co19 P12 Ru1'
_cell_volume   448.47282619
_cell_formula_units_Z   1
loop_
 _symmetry_equiv_pos_site_id
 _symmetry_equiv_pos_as_xyz
  1  'x, y, z'
loop_
 _atom_site_type_symbol
 _atom_site_label
 _atom_site_symmetry_multiplicity
 _atom_site_fract_x
 _atom_site_fract_y
 _atom_site_fract_z
 _atom_site_occupancy
  Y  Y0  1  0.250000  0.916579  0.202632  1
  Y  Y1  1  0.750000  0.083414  0.797298  1
  Y  Y2  1  0.750000  0.414714  0.295905  1
  Y  Y3  1  0.250000  0.581988  0.702397  1
  Co  Co4  1  0.750000  0.216071  0.508851  1
  Co  Co5  1  0.750000  0.283825  0.008649  1
  Co  Co6  1  0.250000  0.716452  0.991532  1
  Co  Co7  1  0.250000  0.093426  0.988551  1
  Co  Co8  1  0.750000  0.906713  0.011385  1
  Co  Co9  1  0.750000  0.591473  0.510556  1
  Co  Co10  1  0.250000  0.406616  0.488015  1
  Co  Co11  1  0.250000  0.279058  0.677062  1
  Co  Co12  1  0.750000  0.720947  0.322800  1
  Co  Co13  1  0.750000  0.777556  0.823718  1
  Co  Co14  1  0.250000  0.221651  0.176284  1
  Co  Co15  1  0.250000  0.616995  0.198391  1
  Co  Co16  1  0.750000  0.383286  0.801916  1
  Co  Co17  1  0.750000  0.117532  0.300748  1
  Co  Co18  1  0.250000  0.885199  0.701276  1
  Co  Co19  1  0.250000  0.035757  0.432405  1
  Co  Co20  1  0.750000  0.967282  0.568378  1
  Co  Co21  1  0.750000  0.532320  0.068299  1
  Co  Co22  1  0.250000  0.467637  0.932348  1
  P  P23  1  0.250000  0.082275  0.612264  1
  P  P24  1  0.750000  0.921162  0.386820  1
  P  P25  1  0.750000  0.580650  0.888537  1
  P  P26  1  0.250000  0.418570  0.111626  1
  P  P27  1  0.250000  0.229764  0.369358  1
  P  P28  1  0.750000  0.771351  0.633219  1
  P  P29  1  0.750000  0.728802  0.129127  1
  P  P30  1  0.250000  0.271400  0.870137  1
  P  P31  1  0.250000  0.898233  0.892777  1
  P  P32  1  0.750000  0.102363  0.108108  1
  P  P33  1  0.750000  0.396772  0.608840  1
  P  P34  1  0.250000  0.596564  0.389102  1
  Ru  Ru35  1  0.250000  0.785603  0.490695  1
