# generated using pymatgen
data_CeSm2Er17Pb16
_symmetry_space_group_name_H-M   'P 1'
_cell_length_a   8.22380579
_cell_length_b   8.30484074
_cell_length_c   15.63869100
_cell_angle_alpha   90.15353926
_cell_angle_beta   90.77370201
_cell_angle_gamma   89.51184201
_symmetry_Int_Tables_number   1
_chemical_formula_structural   CeSm2Er17Pb16
_chemical_formula_sum   'Ce1 Sm2 Er17 Pb16'
_cell_volume   1067.94223785
_cell_formula_units_Z   1
loop_
 _symmetry_equiv_pos_site_id
 _symmetry_equiv_pos_as_xyz
  1  'x, y, z'
loop_
 _atom_site_type_symbol
 _atom_site_label
 _atom_site_symmetry_multiplicity
 _atom_site_fract_x
 _atom_site_fract_y
 _atom_site_fract_z
 _atom_site_occupancy
  Ce  Ce0  1  0.026151  0.178213  0.094711  1
  Sm  Sm1  1  0.472262  0.677219  0.903785  1
  Sm  Sm2  1  0.967005  0.822572  0.598357  1
  Er  Er3  1  0.624700  0.158320  0.620751  1
  Er  Er4  1  0.130652  0.341944  0.878655  1
  Er  Er5  1  0.369306  0.841948  0.123190  1
  Er  Er6  1  0.873595  0.657415  0.379607  1
  Er  Er7  1  0.377950  0.843186  0.378892  1
  Er  Er8  1  0.871244  0.657171  0.122185  1
  Er  Er9  1  0.626404  0.157305  0.877321  1
  Er  Er10  1  0.122614  0.342379  0.620414  1
  Er  Er11  1  0.459734  0.672912  0.602045  1
  Er  Er12  1  0.965059  0.822162  0.900258  1
  Er  Er13  1  0.534963  0.324884  0.099650  1
  Er  Er14  1  0.039710  0.177495  0.398206  1
  Er  Er15  1  0.536173  0.325742  0.400698  1
  Er  Er16  1  0.793456  0.495671  0.749889  1
  Er  Er17  1  0.293975  0.004488  0.748726  1
  Er  Er18  1  0.206688  0.503981  0.251911  1
  Er  Er19  1  0.706556  0.995549  0.250512  1
  Pb  Pb20  1  0.719866  0.973880  0.454704  1
  Pb  Pb21  1  0.214683  0.533651  0.045199  1
  Pb  Pb22  1  0.284187  0.033402  0.956380  1
  Pb  Pb23  1  0.777842  0.467262  0.543450  1
  Pb  Pb24  1  0.285366  0.035879  0.542010  1
  Pb  Pb25  1  0.790480  0.457538  0.958539  1
  Pb  Pb26  1  0.709445  0.959827  0.041740  1
  Pb  Pb27  1  0.218327  0.535545  0.458004  1
  Pb  Pb28  1  0.430873  0.373726  0.749051  1
  Pb  Pb29  1  0.932039  0.127436  0.749956  1
  Pb  Pb30  1  0.568265  0.625255  0.250222  1
  Pb  Pb31  1  0.067963  0.874160  0.250439  1
  Pb  Pb32  1  0.654995  0.846292  0.749132  1
  Pb  Pb33  1  0.155181  0.653189  0.752348  1
  Pb  Pb34  1  0.347236  0.156042  0.249153  1
  Pb  Pb35  1  0.845058  0.346358  0.249907  1
