# generated using pymatgen
data_SmThPd5Pt
_symmetry_space_group_name_H-M   'P 1'
_cell_length_a   5.92794000
_cell_length_b   5.92020753
_cell_length_c   9.73041900
_cell_angle_alpha   90.00000000
_cell_angle_beta   90.00000000
_cell_angle_gamma   120.04321534
_symmetry_Int_Tables_number   1
_chemical_formula_structural   SmThPd5Pt
_chemical_formula_sum   'Sm2 Th2 Pd10 Pt2'
_cell_volume   295.60625417
_cell_formula_units_Z   2
loop_
 _symmetry_equiv_pos_site_id
 _symmetry_equiv_pos_as_xyz
  1  'x, y, z'
loop_
 _atom_site_type_symbol
 _atom_site_label
 _atom_site_symmetry_multiplicity
 _atom_site_fract_x
 _atom_site_fract_y
 _atom_site_fract_z
 _atom_site_occupancy
  Sm  Sm0  1  0.000000  0.000000  0.500000  1
  Sm  Sm1  1  0.000000  0.000000  0.000000  1
  Th  Th2  1  0.334272  0.668546  0.250000  1
  Th  Th3  1  0.665728  0.331454  0.750000  1
  Pd  Pd4  1  0.500000  0.500000  0.500000  1
  Pd  Pd5  1  0.000000  0.500000  0.500000  1
  Pd  Pd6  1  0.500000  0.500000  0.000000  1
  Pd  Pd7  1  0.000000  0.500000  0.000000  1
  Pd  Pd8  1  0.826114  0.652226  0.250000  1
  Pd  Pd9  1  0.350963  0.176445  0.250000  1
  Pd  Pd10  1  0.825482  0.176445  0.250000  1
  Pd  Pd11  1  0.173886  0.347774  0.750000  1
  Pd  Pd12  1  0.649037  0.823555  0.750000  1
  Pd  Pd13  1  0.174518  0.823555  0.750000  1
  Pt  Pt14  1  0.500000  0.000000  0.500000  1
  Pt  Pt15  1  0.500000  0.000000  0.000000  1
