# generated using pymatgen
data_Sc12Co2TcBr16
_symmetry_space_group_name_H-M   'P 1'
_cell_length_a   8.90002501
_cell_length_b   10.86923027
_cell_length_c   11.55735743
_cell_angle_alpha   116.58620644
_cell_angle_beta   101.79545475
_cell_angle_gamma   101.51275480
_symmetry_Int_Tables_number   1
_chemical_formula_structural   Sc12Co2TcBr16
_chemical_formula_sum   'Sc12 Co2 Tc1 Br16'
_cell_volume   923.00059884
_cell_formula_units_Z   1
loop_
 _symmetry_equiv_pos_site_id
 _symmetry_equiv_pos_as_xyz
  1  'x, y, z'
loop_
 _atom_site_type_symbol
 _atom_site_label
 _atom_site_symmetry_multiplicity
 _atom_site_fract_x
 _atom_site_fract_y
 _atom_site_fract_z
 _atom_site_occupancy
  Sc  Sc0  1  0.082292  0.256037  0.350187  1
  Sc  Sc1  1  0.917708  0.743963  0.649813  1
  Sc  Sc2  1  0.777682  0.537326  0.319518  1
  Sc  Sc3  1  0.222318  0.462674  0.680482  1
  Sc  Sc4  1  0.282581  0.744937  0.650236  1
  Sc  Sc5  1  0.717419  0.255063  0.349764  1
  Sc  Sc6  1  0.142338  0.537748  0.320100  1
  Sc  Sc7  1  0.857662  0.462252  0.679900  1
  Sc  Sc8  1  0.400437  0.350736  0.261687  1
  Sc  Sc9  1  0.599563  0.649264  0.738313  1
  Sc  Sc10  1  0.457959  0.306219  0.520927  1
  Sc  Sc11  1  0.542041  0.693781  0.479073  1
  Co  Co12  1  0.343344  0.500285  0.499615  1
  Co  Co13  1  0.656657  0.499715  0.500385  1
  Tc  Tc14  1  0.000000  0.500000  0.500000  1
  Br  Br15  1  0.398339  0.745212  0.891096  1
  Br  Br16  1  0.601661  0.254788  0.108904  1
  Br  Br17  1  0.192692  0.976749  0.788657  1
  Br  Br18  1  0.807308  0.023251  0.211343  1
  Br  Br19  1  0.335155  0.086297  0.247316  1
  Br  Br20  1  0.664845  0.913703  0.752684  1
  Br  Br21  1  0.557264  0.435241  0.804201  1
  Br  Br22  1  0.442736  0.564759  0.195799  1
  Br  Br23  1  0.313284  0.832255  0.462193  1
  Br  Br24  1  0.686716  0.167745  0.537807  1
  Br  Br25  1  0.169121  0.167082  0.534574  1
  Br  Br26  1  0.830879  0.832918  0.465426  1
  Br  Br27  1  0.926269  0.580836  0.154960  1
  Br  Br28  1  0.073731  0.419164  0.845040  1
  Br  Br29  1  0.926775  0.743724  0.890744  1
  Br  Br30  1  0.073225  0.256276  0.109256  1
