# generated using pymatgen
data_DyY(B4Os)2
_symmetry_space_group_name_H-M   'P 1'
_cell_length_a   3.57369200
_cell_length_b   5.97661800
_cell_length_c   11.56324800
_cell_angle_alpha   90.00225601
_cell_angle_beta   90.00000000
_cell_angle_gamma   90.00000000
_symmetry_Int_Tables_number   1
_chemical_formula_structural   DyY(B4Os)2
_chemical_formula_sum   'Dy2 Y2 B16 Os4'
_cell_volume   246.97469536
_cell_formula_units_Z   2
loop_
 _symmetry_equiv_pos_site_id
 _symmetry_equiv_pos_as_xyz
  1  'x, y, z'
loop_
 _atom_site_type_symbol
 _atom_site_label
 _atom_site_symmetry_multiplicity
 _atom_site_fract_x
 _atom_site_fract_y
 _atom_site_fract_z
 _atom_site_occupancy
  Dy  Dy0  1  0.000000  0.127977  0.150231  1
  Dy  Dy1  1  0.000000  0.872023  0.849769  1
  Y  Y2  1  0.000000  0.627991  0.349767  1
  Y  Y3  1  0.000000  0.372009  0.650233  1
  B  B4  1  0.500000  0.788609  0.185800  1
  B  B5  1  0.500000  0.211391  0.814200  1
  B  B6  1  0.500000  0.288490  0.314142  1
  B  B7  1  0.500000  0.711510  0.685858  1
  B  B8  1  0.500000  0.863664  0.030108  1
  B  B9  1  0.500000  0.136336  0.969892  1
  B  B10  1  0.500000  0.363606  0.469882  1
  B  B11  1  0.500000  0.636394  0.530118  1
  B  B12  1  0.500000  0.887563  0.453436  1
  B  B13  1  0.500000  0.112437  0.546564  1
  B  B14  1  0.500000  0.387492  0.046595  1
  B  B15  1  0.500000  0.612508  0.953405  1
  B  B16  1  0.500000  0.974825  0.308664  1
  B  B17  1  0.500000  0.025175  0.691336  1
  B  B18  1  0.500000  0.474690  0.191281  1
  B  B19  1  0.500000  0.525310  0.808719  1
  Os  Os20  1  0.000000  0.641075  0.093272  1
  Os  Os21  1  0.000000  0.358925  0.906728  1
  Os  Os22  1  0.000000  0.140991  0.406683  1
  Os  Os23  1  0.000000  0.859009  0.593317  1
