# generated using pymatgen
data_Zr3TaFe3Co5P6
_symmetry_space_group_name_H-M   'P 1'
_cell_length_a   12.03615826
_cell_length_b   12.00670563
_cell_length_c   3.65147700
_cell_angle_alpha   90.00000000
_cell_angle_beta   90.00000000
_cell_angle_gamma   120.11025393
_symmetry_Int_Tables_number   1
_chemical_formula_structural   Zr3TaFe3Co5P6
_chemical_formula_sum   'Zr6 Ta2 Fe6 Co10 P12'
_cell_volume   456.48591646
_cell_formula_units_Z   2
loop_
 _symmetry_equiv_pos_site_id
 _symmetry_equiv_pos_as_xyz
  1  'x, y, z'
loop_
 _atom_site_type_symbol
 _atom_site_label
 _atom_site_symmetry_multiplicity
 _atom_site_fract_x
 _atom_site_fract_y
 _atom_site_fract_z
 _atom_site_occupancy
  Zr  Zr0  1  0.000263  0.556933  0.000000  1
  Zr  Zr1  1  0.665914  0.333787  0.000000  1
  Zr  Zr2  1  0.332790  0.668008  0.000000  1
  Zr  Zr3  1  0.819137  0.819369  0.500000  1
  Zr  Zr4  1  0.182284  0.000827  0.500000  1
  Zr  Zr5  1  0.000105  0.178850  0.500000  1
  Ta  Ta6  1  0.442378  0.443101  0.000000  1
  Ta  Ta7  1  0.557093  0.001124  0.000000  1
  Fe  Fe8  1  0.197711  0.372302  0.000000  1
  Fe  Fe9  1  0.181123  0.807879  0.000000  1
  Fe  Fe10  1  0.818832  0.626793  0.000000  1
  Fe  Fe11  1  0.802904  0.174460  0.000000  1
  Fe  Fe12  1  0.375441  0.197654  0.000000  1
  Fe  Fe13  1  0.127112  0.478795  0.500000  1
  Co  Co14  1  0.359187  0.875937  0.500000  1
  Co  Co15  1  0.516151  0.645495  0.500000  1
  Co  Co16  1  0.640504  0.517386  0.500000  1
  Co  Co17  1  0.870301  0.353006  0.500000  1
  Co  Co18  1  0.485030  0.128027  0.500000  1
  Co  Co19  1  0.999897  0.999273  0.000000  1
  Co  Co20  1  0.718958  0.996643  0.500000  1
  Co  Co21  1  0.999601  0.723441  0.500000  1
  Co  Co22  1  0.626125  0.821800  0.000000  1
  Co  Co23  1  0.279843  0.278504  0.500000  1
  P  P24  1  0.649093  0.648937  0.000000  1
  P  P25  1  0.351321  0.001968  0.000000  1
  P  P26  1  0.999549  0.345149  0.000000  1
  P  P27  1  0.480704  0.309838  0.500000  1
  P  P28  1  0.690733  0.170827  0.500000  1
  P  P29  1  0.825123  0.520013  0.500000  1
  P  P30  1  0.517229  0.829395  0.500000  1
  P  P31  1  0.174464  0.694669  0.500000  1
  P  P32  1  0.825062  0.000549  0.000000  1
  P  P33  1  0.000634  0.823268  0.000000  1
  P  P34  1  0.310186  0.480910  0.500000  1
  P  P35  1  0.177222  0.175084  0.000000  1
