# generated using pymatgen
data_Yb4CeSn2Bi
_symmetry_space_group_name_H-M   'P 1'
_cell_length_a   9.40428526
_cell_length_b   9.40428909
_cell_length_c   9.37301904
_cell_angle_alpha   96.51795880
_cell_angle_beta   96.51163974
_cell_angle_gamma   140.69936319
_symmetry_Int_Tables_number   1
_chemical_formula_structural   Yb4CeSn2Bi
_chemical_formula_sum   'Yb8 Ce2 Sn4 Bi2'
_cell_volume   494.26377503
_cell_formula_units_Z   2
loop_
 _symmetry_equiv_pos_site_id
 _symmetry_equiv_pos_as_xyz
  1  'x, y, z'
loop_
 _atom_site_type_symbol
 _atom_site_label
 _atom_site_symmetry_multiplicity
 _atom_site_fract_x
 _atom_site_fract_y
 _atom_site_fract_z
 _atom_site_occupancy
  Yb  Yb0  1  0.086105  0.211442  0.297716  1
  Yb  Yb1  1  0.913727  0.788390  0.702285  1
  Yb  Yb2  1  0.788085  0.078133  0.866259  1
  Yb  Yb3  1  0.421828  0.711883  0.133749  1
  Yb  Yb4  1  0.211875  0.921829  0.133741  1
  Yb  Yb5  1  0.578132  0.288077  0.866251  1
  Yb  Yb6  1  0.711432  0.586101  0.297705  1
  Yb  Yb7  1  0.288399  0.413729  0.702296  1
  Ce  Ce8  1  0.264561  0.764560  0.499999  1
  Ce  Ce9  1  0.735666  0.235666  0.499999  1
  Sn  Sn10  1  0.341636  0.158943  0.500011  1
  Sn  Sn11  1  0.658931  0.841625  0.499990  1
  Sn  Sn12  1  0.249968  0.249965  0.000000  1
  Sn  Sn13  1  0.749993  0.749993  0.000000  1
  Bi  Bi14  1  0.160794  0.660789  0.821922  1
  Bi  Bi15  1  0.838869  0.338872  0.178077  1
