# generated using pymatgen
data_Zr20Cd2GeSb9
_symmetry_space_group_name_H-M   'P 1'
_cell_length_a   5.53701100
_cell_length_b   8.38145631
_cell_length_c   15.82878000
_cell_angle_alpha   90.00000000
_cell_angle_beta   90.00000000
_cell_angle_gamma   109.28778181
_symmetry_Int_Tables_number   1
_chemical_formula_structural   Zr20Cd2GeSb9
_chemical_formula_sum   'Zr20 Cd2 Ge1 Sb9'
_cell_volume   693.35419428
_cell_formula_units_Z   1
loop_
 _symmetry_equiv_pos_site_id
 _symmetry_equiv_pos_as_xyz
  1  'x, y, z'
loop_
 _atom_site_type_symbol
 _atom_site_label
 _atom_site_symmetry_multiplicity
 _atom_site_fract_x
 _atom_site_fract_y
 _atom_site_fract_z
 _atom_site_occupancy
  Zr  Zr0  1  0.435316  0.858747  0.353893  1
  Zr  Zr1  1  0.927408  0.856925  0.849331  1
  Zr  Zr2  1  0.070483  0.143075  0.150669  1
  Zr  Zr3  1  0.576569  0.141253  0.646107  1
  Zr  Zr4  1  0.649214  0.299950  0.072842  1
  Zr  Zr5  1  0.141612  0.294369  0.569316  1
  Zr  Zr6  1  0.847243  0.705631  0.430684  1
  Zr  Zr7  1  0.349266  0.700050  0.927158  1
  Zr  Zr8  1  0.850786  0.700050  0.072842  1
  Zr  Zr9  1  0.358388  0.705631  0.569316  1
  Zr  Zr10  1  0.652757  0.294369  0.430684  1
  Zr  Zr11  1  0.150734  0.299950  0.927158  1
  Zr  Zr12  1  0.064684  0.141253  0.353893  1
  Zr  Zr13  1  0.572592  0.143075  0.849331  1
  Zr  Zr14  1  0.429517  0.856925  0.150669  1
  Zr  Zr15  1  0.923431  0.858747  0.646107  1
  Zr  Zr16  1  0.500973  0.500575  0.250278  1
  Zr  Zr17  1  0.000398  0.499425  0.749722  1
  Zr  Zr18  1  0.999027  0.499425  0.250278  1
  Zr  Zr19  1  0.499602  0.500575  0.749722  1
  Cd  Cd20  1  0.750000  0.000000  0.000000  1
  Cd  Cd21  1  0.250000  0.000000  0.500000  1
  Ge  Ge22  1  0.750000  0.000000  0.500000  1
  Sb  Sb23  1  0.916625  0.826866  0.251713  1
  Sb  Sb24  1  0.410240  0.826866  0.748287  1
  Sb  Sb25  1  0.583375  0.173134  0.251713  1
  Sb  Sb26  1  0.089760  0.173134  0.748287  1
  Sb  Sb27  1  0.250000  0.500000  0.086287  1
  Sb  Sb28  1  0.750000  0.500000  0.586482  1
  Sb  Sb29  1  0.250000  0.500000  0.413518  1
  Sb  Sb30  1  0.750000  0.500000  0.913713  1
  Sb  Sb31  1  0.250000  0.000000  0.000000  1
