# generated using pymatgen
data_Er5Cd13
_symmetry_space_group_name_H-M   'P 1'
_cell_length_a   16.92867540
_cell_length_b   16.92867615
_cell_length_c   6.76218000
_cell_angle_alpha   96.23094698
_cell_angle_beta   96.23094726
_cell_angle_gamma   12.94572251
_symmetry_Int_Tables_number   1
_chemical_formula_structural   Er5Cd13
_chemical_formula_sum   'Er5 Cd13'
_cell_volume   431.54719874
_cell_formula_units_Z   1
loop_
 _symmetry_equiv_pos_site_id
 _symmetry_equiv_pos_as_xyz
  1  'x, y, z'
loop_
 _atom_site_type_symbol
 _atom_site_label
 _atom_site_symmetry_multiplicity
 _atom_site_fract_x
 _atom_site_fract_y
 _atom_site_fract_z
 _atom_site_occupancy
  Er  Er0  1  0.000000  0.000000  0.000000  1
  Er  Er1  1  0.667808  0.667808  0.310575  1
  Er  Er2  1  0.889186  0.889186  0.419712  1
  Er  Er3  1  0.110814  0.110814  0.580289  1
  Er  Er4  1  0.332192  0.332192  0.689425  1
  Cd  Cd5  1  0.104606  0.104606  0.063687  1
  Cd  Cd6  1  0.226451  0.226451  0.106365  1
  Cd  Cd7  1  0.328549  0.328549  0.165321  1
  Cd  Cd8  1  0.446412  0.446412  0.213594  1
  Cd  Cd9  1  0.554090  0.554090  0.296210  1
  Cd  Cd10  1  0.777294  0.777294  0.393346  1
  Cd  Cd11  1  0.000000  0.000000  0.500000  1
  Cd  Cd12  1  0.222706  0.222706  0.606655  1
  Cd  Cd13  1  0.445910  0.445910  0.703790  1
  Cd  Cd14  1  0.553588  0.553588  0.786405  1
  Cd  Cd15  1  0.671450  0.671450  0.834679  1
  Cd  Cd16  1  0.773548  0.773548  0.893634  1
  Cd  Cd17  1  0.895395  0.895395  0.936314  1
