# generated using pymatgen
data_Tb2DyHf(Al3Rh)6
_symmetry_space_group_name_H-M   'P 1'
_cell_length_a   7.54103020
_cell_length_b   7.51961481
_cell_length_c   9.40758800
_cell_angle_alpha   90.00000000
_cell_angle_beta   90.00000000
_cell_angle_gamma   119.45798632
_symmetry_Int_Tables_number   1
_chemical_formula_structural   Tb2DyHf(Al3Rh)6
_chemical_formula_sum   'Tb2 Dy1 Hf1 Al18 Rh6'
_cell_volume   464.49533925
_cell_formula_units_Z   1
loop_
 _symmetry_equiv_pos_site_id
 _symmetry_equiv_pos_as_xyz
  1  'x, y, z'
loop_
 _atom_site_type_symbol
 _atom_site_label
 _atom_site_symmetry_multiplicity
 _atom_site_fract_x
 _atom_site_fract_y
 _atom_site_fract_z
 _atom_site_occupancy
  Tb  Tb0  1  0.006259  0.327996  0.750000  1
  Tb  Tb1  1  0.328477  0.006197  0.750000  1
  Dy  Dy2  1  0.672146  0.995492  0.250000  1
  Hf  Hf3  1  0.996244  0.672652  0.250000  1
  Al  Al4  1  0.124941  0.122282  0.250000  1
  Al  Al5  1  0.871215  0.869715  0.750000  1
  Al  Al6  1  0.000046  0.339087  0.080552  1
  Al  Al7  1  0.999367  0.664824  0.928858  1
  Al  Al8  1  0.999367  0.664824  0.571142  1
  Al  Al9  1  0.332201  0.997153  0.419509  1
  Al  Al10  1  0.000046  0.339087  0.419448  1
  Al  Al11  1  0.664416  0.998344  0.574870  1
  Al  Al12  1  0.664416  0.998344  0.925130  1
  Al  Al13  1  0.332201  0.997153  0.080491  1
  Al  Al14  1  0.333607  0.333568  0.547396  1
  Al  Al15  1  0.669719  0.667239  0.444165  1
  Al  Al16  1  0.669719  0.667239  0.055835  1
  Al  Al17  1  0.333607  0.333568  0.952604  1
  Al  Al18  1  0.335897  0.551453  0.250000  1
  Al  Al19  1  0.660873  0.451293  0.750000  1
  Al  Al20  1  0.557016  0.345357  0.250000  1
  Al  Al21  1  0.449856  0.658948  0.750000  1
  Rh  Rh22  1  0.672878  0.328505  0.001652  1
  Rh  Rh23  1  0.327526  0.672420  0.002297  1
  Rh  Rh24  1  0.327526  0.672420  0.497703  1
  Rh  Rh25  1  0.672878  0.328505  0.498348  1
  Rh  Rh26  1  0.998778  0.998167  0.001916  1
  Rh  Rh27  1  0.998778  0.998167  0.498084  1
