# generated using pymatgen
data_Er5Lu7Ru4
_symmetry_space_group_name_H-M   'P 1'
_cell_length_a   6.21200606
_cell_length_b   7.29328724
_cell_length_c   8.92308500
_cell_angle_alpha   89.98014799
_cell_angle_beta   90.12188724
_cell_angle_gamma   89.97313563
_symmetry_Int_Tables_number   1
_chemical_formula_structural   Er5Lu7Ru4
_chemical_formula_sum   'Er5 Lu7 Ru4'
_cell_volume   404.26781033
_cell_formula_units_Z   1
loop_
 _symmetry_equiv_pos_site_id
 _symmetry_equiv_pos_as_xyz
  1  'x, y, z'
loop_
 _atom_site_type_symbol
 _atom_site_label
 _atom_site_symmetry_multiplicity
 _atom_site_fract_x
 _atom_site_fract_y
 _atom_site_fract_z
 _atom_site_occupancy
  Er  Er0  1  0.333146  0.675687  0.063254  1
  Er  Er1  1  0.868882  0.540174  0.250754  1
  Er  Er2  1  0.630642  0.040802  0.250492  1
  Er  Er3  1  0.130177  0.459171  0.749271  1
  Er  Er4  1  0.370106  0.959524  0.749328  1
  Lu  Lu5  1  0.166269  0.175667  0.436402  1
  Lu  Lu6  1  0.666233  0.324257  0.563699  1
  Lu  Lu7  1  0.834332  0.824899  0.936551  1
  Lu  Lu8  1  0.666650  0.323889  0.935780  1
  Lu  Lu9  1  0.834333  0.824900  0.563213  1
  Lu  Lu10  1  0.333161  0.675664  0.436762  1
  Lu  Lu11  1  0.166035  0.175358  0.063820  1
  Ru  Ru12  1  0.039110  0.884539  0.250852  1
  Ru  Ru13  1  0.460189  0.383347  0.250663  1
  Ru  Ru14  1  0.960589  0.116208  0.750469  1
  Ru  Ru15  1  0.540149  0.615913  0.748690  1
