# generated using pymatgen
data_Nd6Dy10Cd3Hg(IrPt)2
_symmetry_space_group_name_H-M   'P 1'
_cell_length_a   9.76800646
_cell_length_b   9.76774746
_cell_length_c   9.74824600
_cell_angle_alpha   60.03239616
_cell_angle_beta   60.04044215
_cell_angle_gamma   60.34102087
_symmetry_Int_Tables_number   1
_chemical_formula_structural   Nd6Dy10Cd3Hg(IrPt)2
_chemical_formula_sum   'Nd6 Dy10 Cd3 Hg1 Ir2 Pt2'
_cell_volume   659.71860459
_cell_formula_units_Z   1
loop_
 _symmetry_equiv_pos_site_id
 _symmetry_equiv_pos_as_xyz
  1  'x, y, z'
loop_
 _atom_site_type_symbol
 _atom_site_label
 _atom_site_symmetry_multiplicity
 _atom_site_fract_x
 _atom_site_fract_y
 _atom_site_fract_z
 _atom_site_occupancy
  Nd  Nd0  1  0.940657  0.562129  0.558625  1
  Nd  Nd1  1  0.559396  0.941513  0.939897  1
  Nd  Nd2  1  0.562063  0.940671  0.558596  1
  Nd  Nd3  1  0.941564  0.559372  0.939907  1
  Nd  Nd4  1  0.559625  0.559618  0.939944  1
  Nd  Nd5  1  0.940622  0.940594  0.558450  1
  Dy  Dy6  1  0.348321  0.348395  0.346604  1
  Dy  Dy7  1  0.350389  0.350337  0.953837  1
  Dy  Dy8  1  0.355934  0.945941  0.350471  1
  Dy  Dy9  1  0.945860  0.355971  0.350549  1
  Dy  Dy10  1  0.808599  0.189721  0.186231  1
  Dy  Dy11  1  0.186727  0.808375  0.814381  1
  Dy  Dy12  1  0.189771  0.808590  0.186183  1
  Dy  Dy13  1  0.808383  0.186704  0.814370  1
  Dy  Dy14  1  0.188110  0.188058  0.812436  1
  Dy  Dy15  1  0.813264  0.813246  0.182483  1
  Cd  Cd16  1  0.579670  0.579663  0.259608  1
  Cd  Cd17  1  0.579245  0.260787  0.579627  1
  Cd  Cd18  1  0.260811  0.579224  0.579636  1
  Hg  Hg19  1  0.582713  0.582716  0.582031  1
  Ir  Ir20  1  0.140944  0.573629  0.143884  1
  Ir  Ir21  1  0.573640  0.140991  0.143878  1
  Pt  Pt22  1  0.142344  0.142391  0.145784  1
  Pt  Pt23  1  0.141347  0.141366  0.572588  1
