# generated using pymatgen
data_SmEu8HoSn6
_symmetry_space_group_name_H-M   'P 1'
_cell_length_a   9.50208113
_cell_length_b   9.50208140
_cell_length_c   9.50208100
_cell_angle_alpha   96.20764433
_cell_angle_beta   96.20765057
_cell_angle_gamma   141.60391935
_symmetry_Int_Tables_number   1
_chemical_formula_structural   SmEu8HoSn6
_chemical_formula_sum   'Sm1 Eu8 Ho1 Sn6'
_cell_volume   503.22700151
_cell_formula_units_Z   1
loop_
 _symmetry_equiv_pos_site_id
 _symmetry_equiv_pos_as_xyz
  1  'x, y, z'
loop_
 _atom_site_type_symbol
 _atom_site_label
 _atom_site_symmetry_multiplicity
 _atom_site_fract_x
 _atom_site_fract_y
 _atom_site_fract_z
 _atom_site_occupancy
  Sm  Sm0  1  0.750000  0.250000  0.500000  1
  Eu  Eu1  1  0.914677  0.217423  0.131669  1
  Eu  Eu2  1  0.216992  0.085323  0.302746  1
  Eu  Eu3  1  0.782577  0.914246  0.697254  1
  Eu  Eu4  1  0.085754  0.783008  0.868331  1
  Eu  Eu5  1  0.717423  0.414677  0.131669  1
  Eu  Eu6  1  0.283008  0.585754  0.868331  1
  Eu  Eu7  1  0.585323  0.716992  0.302746  1
  Eu  Eu8  1  0.414246  0.282577  0.697254  1
  Ho  Ho9  1  0.250000  0.750000  0.500000  1
  Sn  Sn10  1  0.750000  0.750000  0.000000  1
  Sn  Sn11  1  0.250000  0.250000  0.000000  1
  Sn  Sn12  1  0.849798  0.657597  0.500000  1
  Sn  Sn13  1  0.650202  0.150202  0.807801  1
  Sn  Sn14  1  0.342403  0.842403  0.192199  1
  Sn  Sn15  1  0.157597  0.349798  0.500000  1
