# generated using pymatgen
data_Dy4Ho3Tm(ReB6)4
_symmetry_space_group_name_H-M   'P 1'
_cell_length_a   3.67375100
_cell_length_b   9.15852901
_cell_length_c   11.54391201
_cell_angle_alpha   90.00516335
_cell_angle_beta   90.00000000
_cell_angle_gamma   90.00000000
_symmetry_Int_Tables_number   1
_chemical_formula_structural   Dy4Ho3Tm(ReB6)4
_chemical_formula_sum   'Dy4 Ho3 Tm1 Re4 B24'
_cell_volume   388.40825250
_cell_formula_units_Z   1
loop_
 _symmetry_equiv_pos_site_id
 _symmetry_equiv_pos_as_xyz
  1  'x, y, z'
loop_
 _atom_site_type_symbol
 _atom_site_label
 _atom_site_symmetry_multiplicity
 _atom_site_fract_x
 _atom_site_fract_y
 _atom_site_fract_z
 _atom_site_occupancy
  Dy  Dy0  1  0.000000  0.323516  0.414004  1
  Dy  Dy1  1  0.000000  0.676478  0.586213  1
  Dy  Dy2  1  0.000000  0.823321  0.085932  1
  Dy  Dy3  1  0.000000  0.176620  0.913917  1
  Ho  Ho4  1  0.000000  0.943183  0.370053  1
  Ho  Ho5  1  0.000000  0.056825  0.630122  1
  Ho  Ho6  1  0.000000  0.443316  0.129556  1
  Tm  Tm7  1  0.000000  0.556983  0.869778  1
  Re  Re8  1  0.000000  0.638739  0.320519  1
  Re  Re9  1  0.000000  0.361660  0.679836  1
  Re  Re10  1  0.000000  0.138866  0.179241  1
  Re  Re11  1  0.000000  0.860472  0.820688  1
  B  B12  1  0.500000  0.553343  0.432846  1
  B  B13  1  0.500000  0.446745  0.567419  1
  B  B14  1  0.500000  0.053292  0.067136  1
  B  B15  1  0.500000  0.946315  0.932746  1
  B  B16  1  0.500000  0.749278  0.418390  1
  B  B17  1  0.500000  0.250848  0.581737  1
  B  B18  1  0.500000  0.249372  0.081552  1
  B  B19  1  0.500000  0.749878  0.918352  1
  B  B20  1  0.500000  0.792193  0.265370  1
  B  B21  1  0.500000  0.208088  0.734734  1
  B  B22  1  0.500000  0.292277  0.234554  1
  B  B23  1  0.500000  0.707168  0.765604  1
  B  B24  1  0.500000  0.630690  0.185348  1
  B  B25  1  0.500000  0.369905  0.814893  1
  B  B26  1  0.500000  0.130768  0.314515  1
  B  B27  1  0.500000  0.869012  0.685644  1
  B  B28  1  0.500000  0.982321  0.212014  1
  B  B29  1  0.500000  0.017502  0.788074  1
  B  B30  1  0.500000  0.482276  0.287925  1
  B  B31  1  0.500000  0.518057  0.712496  1
  B  B32  1  0.500000  0.599330  0.026972  1
  B  B33  1  0.500000  0.401349  0.971704  1
  B  B34  1  0.500000  0.099674  0.472277  1
  B  B35  1  0.500000  0.900342  0.527839  1
