# generated using pymatgen
data_Ca6CePrSb6
_symmetry_space_group_name_H-M   'P 1'
_cell_length_a   8.23915502
_cell_length_b   8.21715403
_cell_length_c   8.26573500
_cell_angle_alpha   70.60400061
_cell_angle_beta   70.39582543
_cell_angle_gamma   109.24982382
_symmetry_Int_Tables_number   1
_chemical_formula_structural   Ca6CePrSb6
_chemical_formula_sum   'Ca6 Ce1 Pr1 Sb6'
_cell_volume   431.65288925
_cell_formula_units_Z   1
loop_
 _symmetry_equiv_pos_site_id
 _symmetry_equiv_pos_as_xyz
  1  'x, y, z'
loop_
 _atom_site_type_symbol
 _atom_site_label
 _atom_site_symmetry_multiplicity
 _atom_site_fract_x
 _atom_site_fract_y
 _atom_site_fract_z
 _atom_site_occupancy
  Ca  Ca0  1  0.001419  0.359807  0.495403  1
  Ca  Ca1  1  0.496858  0.495640  0.146486  1
  Ca  Ca2  1  0.643676  0.147068  0.357776  1
  Ca  Ca3  1  0.360974  0.002196  0.995478  1
  Ca  Ca4  1  0.494901  0.497421  0.646094  1
  Ca  Ca5  1  0.146021  0.643408  0.858732  1
  Ce  Ce6  1  0.999703  0.853395  0.500218  1
  Pr  Pr7  1  0.855854  0.999866  0.000153  1
  Sb  Sb8  1  0.626259  0.873018  0.750845  1
  Sb  Sb9  1  0.872931  0.625534  0.252647  1
  Sb  Sb10  1  0.248580  0.123697  0.624285  1
  Sb  Sb11  1  0.753274  0.377436  0.872799  1
  Sb  Sb12  1  0.375639  0.752995  0.373204  1
  Sb  Sb13  1  0.123908  0.248520  0.125879  1
