# generated using pymatgen
data_Nb2Bi4O11
_symmetry_space_group_name_H-M   'P 1'
_cell_length_a   6.68376173
_cell_length_b   7.76802431
_cell_length_c   10.07843226
_cell_angle_alpha   101.13874980
_cell_angle_beta   90.34905608
_cell_angle_gamma   89.90659468
_symmetry_Int_Tables_number   1
_chemical_formula_structural   Nb2Bi4O11
_chemical_formula_sum   'Nb4 Bi8 O22'
_cell_volume   513.40161967
_cell_formula_units_Z   2
loop_
 _symmetry_equiv_pos_site_id
 _symmetry_equiv_pos_as_xyz
  1  'x, y, z'
loop_
 _atom_site_type_symbol
 _atom_site_label
 _atom_site_symmetry_multiplicity
 _atom_site_fract_x
 _atom_site_fract_y
 _atom_site_fract_z
 _atom_site_occupancy
  Nb  Nb0  1  0.910373  0.704328  0.816272  1
  Nb  Nb1  1  0.089627  0.295672  0.183728  1
  Nb  Nb2  1  0.905493  0.202845  0.807261  1
  Nb  Nb3  1  0.094507  0.797155  0.192739  1
  Bi  Bi4  1  0.764040  0.374478  0.477592  1
  Bi  Bi5  1  0.235960  0.625522  0.522408  1
  Bi  Bi6  1  0.751527  0.870760  0.478238  1
  Bi  Bi7  1  0.248473  0.129240  0.521762  1
  Bi  Bi8  1  0.434413  0.951739  0.813553  1
  Bi  Bi9  1  0.565587  0.048261  0.186447  1
  Bi  Bi10  1  0.376692  0.454429  0.828774  1
  Bi  Bi11  1  0.623308  0.545571  0.171226  1
  O  O12  1  0.222102  0.726997  0.762322  1
  O  O13  1  0.777898  0.273003  0.237678  1
  O  O14  1  0.632228  0.655885  0.834578  1
  O  O15  1  0.367772  0.344115  0.165422  1
  O  O16  1  0.631838  0.260965  0.848409  1
  O  O17  1  0.368162  0.739035  0.151591  1
  O  O18  1  0.890543  0.167552  0.603410  1
  O  O19  1  0.109457  0.832448  0.396590  1
  O  O20  1  0.220456  0.150816  0.763057  1
  O  O21  1  0.779544  0.849184  0.236943  1
  O  O22  1  0.909288  0.637914  0.597791  1
  O  O23  1  0.090712  0.362086  0.402209  1
  O  O24  1  0.013837  0.547272  0.188139  1
  O  O25  1  0.986163  0.452728  0.811861  1
  O  O26  1  0.995549  0.782375  0.000317  1
  O  O27  1  0.004451  0.217625  0.999683  1
  O  O28  1  0.593172  0.606734  0.385726  1
  O  O29  1  0.406828  0.393266  0.614274  1
  O  O30  1  0.161582  0.053502  0.212350  1
  O  O31  1  0.838418  0.946498  0.787650  1
  O  O32  1  0.542931  0.093419  0.399046  1
  O  O33  1  0.457069  0.906581  0.600954  1
