# generated using pymatgen
data_Ho12InFe2AgRu
_symmetry_space_group_name_H-M   'P 1'
_cell_length_a   8.30358440
_cell_length_b   8.30358188
_cell_length_c   8.30358338
_cell_angle_alpha   107.07712883
_cell_angle_beta   110.35065320
_cell_angle_gamma   111.01282218
_symmetry_Int_Tables_number   1
_chemical_formula_structural   Ho12InFe2AgRu
_chemical_formula_sum   'Ho12 In1 Fe2 Ag1 Ru1'
_cell_volume   440.14256842
_cell_formula_units_Z   1
loop_
 _symmetry_equiv_pos_site_id
 _symmetry_equiv_pos_as_xyz
  1  'x, y, z'
loop_
 _atom_site_type_symbol
 _atom_site_label
 _atom_site_symmetry_multiplicity
 _atom_site_fract_x
 _atom_site_fract_y
 _atom_site_fract_z
 _atom_site_occupancy
  Ho  Ho0  1  0.445731  0.194386  0.251345  1
  Ho  Ho1  1  0.554269  0.805614  0.748655  1
  Ho  Ho2  1  0.943043  0.194386  0.748655  1
  Ho  Ho3  1  0.191246  0.960945  0.769697  1
  Ho  Ho4  1  0.056957  0.805614  0.251345  1
  Ho  Ho5  1  0.808754  0.039055  0.230303  1
  Ho  Ho6  1  0.191246  0.421547  0.230301  1
  Ho  Ho7  1  0.808754  0.578453  0.769699  1
  Ho  Ho8  1  0.308473  0.309041  0.617512  1
  Ho  Ho9  1  0.691527  0.690959  0.382488  1
  Ho  Ho10  1  0.308472  0.690959  0.999433  1
  Ho  Ho11  1  0.691528  0.309041  0.000567  1
  In  In12  1  0.000000  0.500000  0.500000  1
  Fe  Fe13  1  0.383405  0.383404  0.999999  1
  Fe  Fe14  1  0.616595  0.616596  0.000001  1
  Ag  Ag15  1  0.500000  0.000000  0.500000  1
  Ru  Ru16  1  0.000000  0.000000  0.000000  1
