# generated using pymatgen
data_Mg2InSnRh4
_symmetry_space_group_name_H-M   'P 1'
_cell_length_a   7.80966912
_cell_length_b   7.80966905
_cell_length_c   7.80967011
_cell_angle_alpha   33.39967492
_cell_angle_beta   33.39967561
_cell_angle_gamma   33.39967036
_symmetry_Int_Tables_number   1
_chemical_formula_structural   Mg2InSnRh4
_chemical_formula_sum   'Mg2 In1 Sn1 Rh4'
_cell_volume   128.53023379
_cell_formula_units_Z   1
loop_
 _symmetry_equiv_pos_site_id
 _symmetry_equiv_pos_as_xyz
  1  'x, y, z'
loop_
 _atom_site_type_symbol
 _atom_site_label
 _atom_site_symmetry_multiplicity
 _atom_site_fract_x
 _atom_site_fract_y
 _atom_site_fract_z
 _atom_site_occupancy
  Mg  Mg0  1  0.251506  0.251506  0.251506  1
  Mg  Mg1  1  0.748494  0.748494  0.748494  1
  In  In2  1  0.000000  0.000000  0.000000  1
  Sn  Sn3  1  0.500000  0.500000  0.500000  1
  Rh  Rh4  1  0.623246  0.623246  0.623246  1
  Rh  Rh5  1  0.126576  0.126576  0.126576  1
  Rh  Rh6  1  0.873424  0.873424  0.873424  1
  Rh  Rh7  1  0.376754  0.376754  0.376754  1
