# generated using pymatgen
data_Pr5DyAl24Ir5Ru3
_symmetry_space_group_name_H-M   'P 1'
_cell_length_a   8.92015322
_cell_length_b   8.87159076
_cell_length_c   9.65394282
_cell_angle_alpha   90.00000223
_cell_angle_beta   90.14862886
_cell_angle_gamma   119.82007598
_symmetry_Int_Tables_number   1
_chemical_formula_structural   Pr5DyAl24Ir5Ru3
_chemical_formula_sum   'Pr5 Dy1 Al24 Ir5 Ru3'
_cell_volume   662.81414057
_cell_formula_units_Z   1
loop_
 _symmetry_equiv_pos_site_id
 _symmetry_equiv_pos_as_xyz
  1  'x, y, z'
loop_
 _atom_site_type_symbol
 _atom_site_label
 _atom_site_symmetry_multiplicity
 _atom_site_fract_x
 _atom_site_fract_y
 _atom_site_fract_z
 _atom_site_occupancy
  Pr  Pr0  1  0.188782  0.808360  0.249830  1
  Pr  Pr1  1  0.188782  0.380423  0.249830  1
  Pr  Pr2  1  0.617518  0.808759  0.250060  1
  Pr  Pr3  1  0.810763  0.190946  0.750281  1
  Pr  Pr4  1  0.810763  0.619817  0.750281  1
  Dy  Dy5  1  0.387865  0.193933  0.750042  1
  Al  Al6  1  0.561821  0.434806  0.250199  1
  Al  Al7  1  0.561821  0.127015  0.250199  1
  Al  Al8  1  0.872417  0.436208  0.248799  1
  Al  Al9  1  0.437110  0.562029  0.749744  1
  Al  Al10  1  0.437110  0.875081  0.749744  1
  Al  Al11  1  0.126966  0.563483  0.751007  1
  Al  Al12  1  0.326089  0.163044  0.427592  1
  Al  Al13  1  0.835306  0.163121  0.425408  1
  Al  Al14  1  0.835306  0.672184  0.425408  1
  Al  Al15  1  0.673493  0.836747  0.575592  1
  Al  Al16  1  0.165404  0.839322  0.576674  1
  Al  Al17  1  0.165404  0.326083  0.576674  1
  Al  Al18  1  0.672237  0.836118  0.925551  1
  Al  Al19  1  0.163896  0.837530  0.923221  1
  Al  Al20  1  0.163896  0.326366  0.923221  1
  Al  Al21  1  0.327083  0.163541  0.071245  1
  Al  Al22  1  0.836872  0.164857  0.074777  1
  Al  Al23  1  0.836872  0.672014  0.074777  1
  Al  Al24  1  0.666279  0.333139  0.524123  1
  Al  Al25  1  0.332029  0.666016  0.479606  1
  Al  Al26  1  0.330359  0.665180  0.019978  1
  Al  Al27  1  0.667922  0.333960  0.976442  1
  Al  Al28  1  0.997404  0.998701  0.250058  1
  Al  Al29  1  0.008925  0.004463  0.749943  1
  Ir  Ir30  1  0.498996  0.498099  0.501473  1
  Ir  Ir31  1  0.498996  0.000897  0.501473  1
  Ir  Ir32  1  0.999195  0.499597  0.500525  1
  Ir  Ir33  1  0.498859  0.497990  0.998478  1
  Ir  Ir34  1  0.498859  0.000869  0.998478  1
  Ru  Ru35  1  0.999772  0.999886  0.500580  1
  Ru  Ru36  1  0.999675  0.999838  0.999412  1
  Ru  Ru37  1  0.999154  0.499577  0.999275  1
