# generated using pymatgen
data_Y2Ho8In8CuPd3
_symmetry_space_group_name_H-M   'P 1'
_cell_length_a   3.62340600
_cell_length_b   8.11441215
_cell_length_c   18.18776534
_cell_angle_alpha   90.02205586
_cell_angle_beta   90.00000000
_cell_angle_gamma   90.00000000
_symmetry_Int_Tables_number   1
_chemical_formula_structural   Y2Ho8In8CuPd3
_chemical_formula_sum   'Y2 Ho8 In8 Cu1 Pd3'
_cell_volume   534.75317517
_cell_formula_units_Z   1
loop_
 _symmetry_equiv_pos_site_id
 _symmetry_equiv_pos_as_xyz
  1  'x, y, z'
loop_
 _atom_site_type_symbol
 _atom_site_label
 _atom_site_symmetry_multiplicity
 _atom_site_fract_x
 _atom_site_fract_y
 _atom_site_fract_z
 _atom_site_occupancy
  Y  Y0  1  0.000000  0.499093  0.500216  1
  Y  Y1  1  0.000000  0.998145  0.000370  1
  Ho  Ho2  1  0.000000  0.739284  0.280241  1
  Ho  Ho3  1  0.000000  0.260611  0.719005  1
  Ho  Ho4  1  0.000000  0.760433  0.780788  1
  Ho  Ho5  1  0.000000  0.239003  0.219423  1
  Ho  Ho6  1  0.000000  0.618363  0.084447  1
  Ho  Ho7  1  0.000000  0.383211  0.916860  1
  Ho  Ho8  1  0.000000  0.882926  0.583274  1
  Ho  Ho9  1  0.000000  0.117079  0.416387  1
  In  In10  1  0.500000  0.707974  0.932314  1
  In  In11  1  0.500000  0.293117  0.068562  1
  In  In12  1  0.500000  0.792307  0.432101  1
  In  In13  1  0.500000  0.208022  0.567733  1
  In  In14  1  0.500000  0.580584  0.650234  1
  In  In15  1  0.500000  0.419905  0.348365  1
  In  In16  1  0.500000  0.919504  0.150123  1
  In  In17  1  0.500000  0.080772  0.849848  1
  Cu  Cu18  1  0.500000  0.522820  0.196183  1
  Pd  Pd19  1  0.500000  0.476517  0.804243  1
  Pd  Pd20  1  0.500000  0.976696  0.695960  1
  Pd  Pd21  1  0.500000  0.023632  0.303324  1
