# generated using pymatgen
data_UHgP2O9
_symmetry_space_group_name_H-M   'P 1'
_cell_length_a   5.65425264
_cell_length_b   5.65425159
_cell_length_c   12.93155100
_cell_angle_alpha   90.00000000
_cell_angle_beta   90.00000000
_cell_angle_gamma   104.89677248
_symmetry_Int_Tables_number   1
_chemical_formula_structural   UHgP2O9
_chemical_formula_sum   'U2 Hg2 P4 O18'
_cell_volume   399.53390006
_cell_formula_units_Z   2
loop_
 _symmetry_equiv_pos_site_id
 _symmetry_equiv_pos_as_xyz
  1  'x, y, z'
loop_
 _atom_site_type_symbol
 _atom_site_label
 _atom_site_symmetry_multiplicity
 _atom_site_fract_x
 _atom_site_fract_y
 _atom_site_fract_z
 _atom_site_occupancy
  U  U0  1  0.793829  0.206171  0.571276  1
  U  U1  1  0.706171  0.293829  0.071276  1
  Hg  Hg2  1  0.217007  0.782993  0.404953  1
  Hg  Hg3  1  0.282993  0.717007  0.904953  1
  P  P4  1  0.095416  0.904584  0.145884  1
  P  P5  1  0.404584  0.595416  0.645884  1
  P  P6  1  0.869638  0.130362  0.854726  1
  P  P7  1  0.630362  0.369638  0.354726  1
  O  O8  1  0.930275  0.069725  0.097561  1
  O  O9  1  0.569725  0.430275  0.597561  1
  O  O10  1  0.036766  0.963234  0.857372  1
  O  O11  1  0.463234  0.536766  0.357372  1
  O  O12  1  0.509981  0.490019  0.029811  1
  O  O13  1  0.990019  0.009981  0.529811  1
  O  O14  1  0.684703  0.315297  0.240028  1
  O  O15  1  0.815297  0.184703  0.740028  1
  O  O16  1  0.876941  0.462207  0.417887  1
  O  O17  1  0.623059  0.037793  0.917887  1
  O  O18  1  0.504939  0.855991  0.600909  1
  O  O19  1  0.995061  0.644009  0.100909  1
  O  O20  1  0.144009  0.495061  0.600909  1
  O  O21  1  0.355991  0.004939  0.100909  1
  O  O22  1  0.537793  0.123059  0.417887  1
  O  O23  1  0.962207  0.376941  0.917887  1
  O  O24  1  0.073091  0.926909  0.260800  1
  O  O25  1  0.426909  0.573091  0.760800  1
