# generated using pymatgen
data_La2Nd2HoIr2
_symmetry_space_group_name_H-M   'P 1'
_cell_length_a   6.70621629
_cell_length_b   7.25843122
_cell_length_c   9.03416972
_cell_angle_alpha   96.19565055
_cell_angle_beta   111.78707264
_cell_angle_gamma   89.99999480
_symmetry_Int_Tables_number   1
_chemical_formula_structural   La2Nd2HoIr2
_chemical_formula_sum   'La4 Nd4 Ho2 Ir4'
_cell_volume   405.57362773
_cell_formula_units_Z   2
loop_
 _symmetry_equiv_pos_site_id
 _symmetry_equiv_pos_as_xyz
  1  'x, y, z'
loop_
 _atom_site_type_symbol
 _atom_site_label
 _atom_site_symmetry_multiplicity
 _atom_site_fract_x
 _atom_site_fract_y
 _atom_site_fract_z
 _atom_site_occupancy
  La  La0  1  0.977268  0.917887  0.185451  1
  La  La1  1  0.791817  0.582113  0.814549  1
  La  La2  1  0.022732  0.082113  0.814549  1
  La  La3  1  0.208183  0.417887  0.185451  1
  Nd  Nd4  1  0.643291  0.815014  0.429352  1
  Nd  Nd5  1  0.213939  0.684986  0.570648  1
  Nd  Nd6  1  0.356709  0.184986  0.570648  1
  Nd  Nd7  1  0.786061  0.315014  0.429352  1
  Ho  Ho8  1  0.436527  0.750000  0.000000  1
  Ho  Ho9  1  0.563473  0.250000  0.000000  1
  Ir  Ir10  1  0.811651  0.574379  0.211350  1
  Ir  Ir11  1  0.600303  0.925621  0.788650  1
  Ir  Ir12  1  0.188349  0.425621  0.788650  1
  Ir  Ir13  1  0.399697  0.074379  0.211350  1
