# generated using pymatgen
data_Gd7RhCl12
_symmetry_space_group_name_H-M   'P 1'
_cell_length_a   9.09655671
_cell_length_b   9.09655615
_cell_length_c   9.09655500
_cell_angle_alpha   106.90192335
_cell_angle_beta   106.90192887
_cell_angle_gamma   106.90192032
_symmetry_Int_Tables_number   1
_chemical_formula_structural   Gd7RhCl12
_chemical_formula_sum   'Gd7 Rh1 Cl12'
_cell_volume   628.53843755
_cell_formula_units_Z   1
loop_
 _symmetry_equiv_pos_site_id
 _symmetry_equiv_pos_as_xyz
  1  'x, y, z'
loop_
 _atom_site_type_symbol
 _atom_site_label
 _atom_site_symmetry_multiplicity
 _atom_site_fract_x
 _atom_site_fract_y
 _atom_site_fract_z
 _atom_site_occupancy
  Gd  Gd0  1  0.500000  0.500000  0.500000  1
  Gd  Gd1  1  0.317890  0.109439  0.017714  1
  Gd  Gd2  1  0.017714  0.317890  0.109439  1
  Gd  Gd3  1  0.109439  0.017714  0.317890  1
  Gd  Gd4  1  0.682110  0.890561  0.982286  1
  Gd  Gd5  1  0.982286  0.682110  0.890561  1
  Gd  Gd6  1  0.890561  0.982286  0.682110  1
  Rh  Rh7  1  0.000000  0.000000  0.000000  1
  Cl  Cl8  1  0.677969  0.210546  0.070662  1
  Cl  Cl9  1  0.070662  0.677969  0.210546  1
  Cl  Cl10  1  0.210546  0.070662  0.677969  1
  Cl  Cl11  1  0.322031  0.789454  0.929338  1
  Cl  Cl12  1  0.929338  0.322031  0.789454  1
  Cl  Cl13  1  0.789454  0.929338  0.322031  1
  Cl  Cl14  1  0.456175  0.169135  0.373765  1
  Cl  Cl15  1  0.373765  0.456175  0.169135  1
  Cl  Cl16  1  0.169135  0.373765  0.456175  1
  Cl  Cl17  1  0.543825  0.830865  0.626235  1
  Cl  Cl18  1  0.626235  0.543825  0.830865  1
  Cl  Cl19  1  0.830865  0.626235  0.543825  1
