# generated using pymatgen
data_Pr2UFe2Si7
_symmetry_space_group_name_H-M   'P 1'
_cell_length_a   12.38047917
_cell_length_b   12.38047966
_cell_length_c   4.12583000
_cell_angle_alpha   90.00000000
_cell_angle_beta   90.00000000
_cell_angle_gamma   160.88310760
_symmetry_Int_Tables_number   1
_chemical_formula_structural   Pr2UFe2Si7
_chemical_formula_sum   'Pr2 U1 Fe2 Si7'
_cell_volume   207.10610138
_cell_formula_units_Z   1
loop_
 _symmetry_equiv_pos_site_id
 _symmetry_equiv_pos_as_xyz
  1  'x, y, z'
loop_
 _atom_site_type_symbol
 _atom_site_label
 _atom_site_symmetry_multiplicity
 _atom_site_fract_x
 _atom_site_fract_y
 _atom_site_fract_z
 _atom_site_occupancy
  Pr  Pr0  1  0.317050  0.682950  0.000000  1
  Pr  Pr1  1  0.682950  0.317050  0.000000  1
  U  U2  1  0.000000  0.000000  0.500000  1
  Fe  Fe3  1  0.122117  0.877883  0.500000  1
  Fe  Fe4  1  0.877883  0.122117  0.500000  1
  Si  Si5  1  0.220142  0.779858  0.500000  1
  Si  Si6  1  0.779858  0.220142  0.500000  1
  Si  Si7  1  0.083790  0.916210  0.000000  1
  Si  Si8  1  0.916210  0.083790  0.000000  1
  Si  Si9  1  0.415927  0.584073  0.500000  1
  Si  Si10  1  0.500000  0.500000  0.000000  1
  Si  Si11  1  0.584073  0.415927  0.500000  1
