# generated using pymatgen
data_ErTm7(Sc3Ga4)4
_symmetry_space_group_name_H-M   'P 1'
_cell_length_a   7.22694366
_cell_length_b   7.54173283
_cell_length_c   14.39295603
_cell_angle_alpha   90.00542387
_cell_angle_beta   89.99946541
_cell_angle_gamma   89.93568978
_symmetry_Int_Tables_number   1
_chemical_formula_structural   ErTm7(Sc3Ga4)4
_chemical_formula_sum   'Er1 Tm7 Sc12 Ga16'
_cell_volume   784.46854634
_cell_formula_units_Z   1
loop_
 _symmetry_equiv_pos_site_id
 _symmetry_equiv_pos_as_xyz
  1  'x, y, z'
loop_
 _atom_site_type_symbol
 _atom_site_label
 _atom_site_symmetry_multiplicity
 _atom_site_fract_x
 _atom_site_fract_y
 _atom_site_fract_z
 _atom_site_occupancy
  Er  Er0  1  0.010269  0.179693  0.094134  1
  Tm  Tm1  1  0.989939  0.819790  0.905528  1
  Tm  Tm2  1  0.489935  0.680227  0.905688  1
  Tm  Tm3  1  0.989826  0.819869  0.594271  1
  Tm  Tm4  1  0.510220  0.320027  0.094257  1
  Tm  Tm5  1  0.010100  0.180105  0.405629  1
  Tm  Tm6  1  0.510094  0.319833  0.405837  1
  Tm  Tm7  1  0.489871  0.680094  0.594285  1
  Sc  Sc8  1  0.162416  0.504006  0.749973  1
  Sc  Sc9  1  0.837524  0.496252  0.250174  1
  Sc  Sc10  1  0.337767  0.003803  0.250142  1
  Sc  Sc11  1  0.662339  0.996108  0.749977  1
  Sc  Sc12  1  0.330022  0.173721  0.624578  1
  Sc  Sc13  1  0.669880  0.826186  0.375531  1
  Sc  Sc14  1  0.169882  0.673752  0.375567  1
  Sc  Sc15  1  0.669659  0.826223  0.124550  1
  Sc  Sc16  1  0.830119  0.326170  0.624523  1
  Sc  Sc17  1  0.330224  0.173689  0.875492  1
  Sc  Sc18  1  0.829972  0.326422  0.875343  1
  Sc  Sc19  1  0.169993  0.673639  0.124475  1
  Ga  Ga20  1  0.030776  0.115632  0.749971  1
  Ga  Ga21  1  0.969125  0.884200  0.250084  1
  Ga  Ga22  1  0.469123  0.615660  0.250077  1
  Ga  Ga23  1  0.530721  0.384462  0.749949  1
  Ga  Ga24  1  0.283251  0.869748  0.749983  1
  Ga  Ga25  1  0.716625  0.130279  0.250180  1
  Ga  Ga26  1  0.217103  0.369780  0.250153  1
  Ga  Ga27  1  0.783250  0.630397  0.750018  1
  Ga  Ga28  1  0.162975  0.465786  0.540380  1
  Ga  Ga29  1  0.836877  0.534134  0.459686  1
  Ga  Ga30  1  0.336785  0.965720  0.459701  1
  Ga  Ga31  1  0.836899  0.534663  0.040239  1
  Ga  Ga32  1  0.662906  0.034146  0.540382  1
  Ga  Ga33  1  0.162981  0.465850  0.959435  1
  Ga  Ga34  1  0.662996  0.034539  0.959562  1
  Ga  Ga35  1  0.337554  0.965394  0.040248  1
