# generated using pymatgen
data_Ca12Ti5Ge7(MoO6)8
_symmetry_space_group_name_H-M   'P 1'
_cell_length_a   11.06995011
_cell_length_b   11.06832833
_cell_length_c   11.06853507
_cell_angle_alpha   109.47789099
_cell_angle_beta   109.47474650
_cell_angle_gamma   109.47060277
_symmetry_Int_Tables_number   1
_chemical_formula_structural   Ca12Ti5Ge7(MoO6)8
_chemical_formula_sum   'Ca12 Ti5 Ge7 Mo8 O48'
_cell_volume   1043.86563757
_cell_formula_units_Z   1
loop_
 _symmetry_equiv_pos_site_id
 _symmetry_equiv_pos_as_xyz
  1  'x, y, z'
loop_
 _atom_site_type_symbol
 _atom_site_label
 _atom_site_symmetry_multiplicity
 _atom_site_fract_x
 _atom_site_fract_y
 _atom_site_fract_z
 _atom_site_occupancy
  Ca  Ca0  1  0.249427  0.874725  0.624147  1
  Ca  Ca1  1  0.749342  0.624400  0.873983  1
  Ca  Ca2  1  0.623685  0.873970  0.748907  1
  Ca  Ca3  1  0.875153  0.625089  0.248984  1
  Ca  Ca4  1  0.623791  0.249855  0.873706  1
  Ca  Ca5  1  0.874815  0.749937  0.624563  1
  Ca  Ca6  1  0.750688  0.125548  0.376051  1
  Ca  Ca7  1  0.250575  0.375277  0.125873  1
  Ca  Ca8  1  0.375200  0.124973  0.250703  1
  Ca  Ca9  1  0.125904  0.375294  0.750671  1
  Ca  Ca10  1  0.375525  0.750315  0.126114  1
  Ca  Ca11  1  0.125815  0.250463  0.376269  1
  Ti  Ti12  1  0.125012  0.749383  0.874797  1
  Ti  Ti13  1  0.875203  0.250028  0.124991  1
  Ti  Ti14  1  0.624716  0.375647  0.250566  1
  Ti  Ti15  1  0.750025  0.874395  0.125004  1
  Ti  Ti16  1  0.874531  0.125199  0.749612  1
  Ge  Ge17  1  0.250437  0.625590  0.375565  1
  Ge  Ge18  1  0.749559  0.375172  0.625175  1
  Ge  Ge19  1  0.250017  0.124870  0.874441  1
  Ge  Ge20  1  0.125558  0.875609  0.250632  1
  Ge  Ge21  1  0.374897  0.624634  0.750018  1
  Ge  Ge22  1  0.624771  0.749790  0.374805  1
  Ge  Ge23  1  0.374875  0.249810  0.624409  1
  Mo  Mo24  1  0.498238  0.499838  0.500319  1
  Mo  Mo25  1  0.498099  0.999508  0.499737  1
  Mo  Mo26  1  0.001956  0.501608  0.501385  1
  Mo  Mo27  1  0.499857  0.498317  0.997872  1
  Mo  Mo28  1  0.001942  0.001923  0.500492  1
  Mo  Mo29  1  0.001775  0.502057  0.001626  1
  Mo  Mo30  1  0.498089  0.998651  0.999975  1
  Mo  Mo31  1  0.000135  0.998082  0.998585  1
  O  O32  1  0.409970  0.807242  0.788473  1
  O  O33  1  0.876610  0.399797  0.086620  1
  O  O34  1  0.103001  0.980665  0.691366  1
  O  O35  1  0.519817  0.623357  0.711974  1
  O  O36  1  0.686082  0.086129  0.709165  1
  O  O37  1  0.622054  0.710021  0.518399  1
  O  O38  1  0.622098  0.411901  0.099785  1
  O  O39  1  0.709371  0.518321  0.621440  1
  O  O40  1  0.813530  0.522665  0.399235  1
  O  O41  1  0.976161  0.787646  0.875776  1
  O  O42  1  0.790330  0.877874  0.978043  1
  O  O43  1  0.709470  0.685978  0.085487  1
  O  O44  1  0.410327  0.102831  0.621732  1
  O  O45  1  0.396319  0.808643  0.519534  1
  O  O46  1  0.088412  0.711706  0.687705  1
  O  O47  1  0.103174  0.621783  0.410797  1
  O  O48  1  0.519115  0.396321  0.806869  1
  O  O49  1  0.088550  0.877112  0.396799  1
  O  O50  1  0.981132  0.693150  0.103045  1
  O  O51  1  0.192023  0.480220  0.603850  1
  O  O52  1  0.686809  0.100065  0.977657  1
  O  O53  1  0.790333  0.412354  0.808680  1
  O  O54  1  0.396423  0.088097  0.877071  1
  O  O55  1  0.877427  0.978018  0.789813  1
  O  O56  1  0.587628  0.188223  0.209878  1
  O  O57  1  0.124785  0.600394  0.913853  1
  O  O58  1  0.900482  0.022776  0.312407  1
  O  O59  1  0.476588  0.376775  0.290972  1
  O  O60  1  0.308225  0.911579  0.288529  1
  O  O61  1  0.376939  0.289129  0.480571  1
  O  O62  1  0.377839  0.588486  0.897034  1
  O  O63  1  0.288477  0.481189  0.378197  1
  O  O64  1  0.122783  0.019296  0.211001  1
  O  O65  1  0.600301  0.912393  0.122735  1
  O  O66  1  0.211822  0.589417  0.192946  1
  O  O67  1  0.192771  0.211765  0.589273  1
  O  O68  1  0.311743  0.899808  0.023736  1
  O  O69  1  0.021839  0.312588  0.900503  1
  O  O70  1  0.914418  0.124081  0.600911  1
  O  O71  1  0.481897  0.603147  0.191077  1
  O  O72  1  0.897029  0.379366  0.589638  1
  O  O73  1  0.913404  0.290298  0.313166  1
  O  O74  1  0.603486  0.191564  0.481358  1
  O  O75  1  0.588021  0.896547  0.378323  1
  O  O76  1  0.288462  0.308027  0.911397  1
  O  O77  1  0.211585  0.121497  0.018635  1
  O  O78  1  0.022699  0.209086  0.122678  1
  O  O79  1  0.808624  0.790726  0.411891  1
