# generated using pymatgen
data_Y2CuAs3O
_symmetry_space_group_name_H-M   'P 1'
_cell_length_a   34.18879607
_cell_length_b   3.93566100
_cell_length_c   3.92983101
_cell_angle_alpha   90.00000000
_cell_angle_beta   89.99940551
_cell_angle_gamma   90.00000000
_symmetry_Int_Tables_number   1
_chemical_formula_structural   Y2CuAs3O
_chemical_formula_sum   'Y8 Cu4 As12 O4'
_cell_volume   528.78042035
_cell_formula_units_Z   4
loop_
 _symmetry_equiv_pos_site_id
 _symmetry_equiv_pos_as_xyz
  1  'x, y, z'
loop_
 _atom_site_type_symbol
 _atom_site_label
 _atom_site_symmetry_multiplicity
 _atom_site_fract_x
 _atom_site_fract_y
 _atom_site_fract_z
 _atom_site_occupancy
  Y  Y0  1  0.467675  0.750002  0.251151  1
  Y  Y1  1  0.032322  0.250002  0.751162  1
  Y  Y2  1  0.967686  0.750002  0.248832  1
  Y  Y3  1  0.532313  0.250002  0.748837  1
  Y  Y4  1  0.325909  0.250002  0.805170  1
  Y  Y5  1  0.174095  0.750002  0.305122  1
  Y  Y6  1  0.825916  0.250002  0.694881  1
  Y  Y7  1  0.674082  0.750002  0.194829  1
  Cu  Cu8  1  0.249977  0.250002  0.308371  1
  Cu  Cu9  1  0.250026  0.750002  0.808432  1
  Cu  Cu10  1  0.749976  0.250002  0.191564  1
  Cu  Cu11  1  0.750024  0.750002  0.691601  1
  As  As12  1  0.394530  0.250002  0.310717  1
  As  As13  1  0.105475  0.750002  0.810703  1
  As  As14  1  0.894534  0.250002  0.189354  1
  As  As15  1  0.605459  0.750002  0.689338  1
  As  As16  1  0.394566  0.750002  0.770840  1
  As  As17  1  0.105437  0.250002  0.270764  1
  As  As18  1  0.894571  0.750002  0.729239  1
  As  As19  1  0.605425  0.250002  0.229142  1
  As  As20  1  0.203953  0.250002  0.806607  1
  As  As21  1  0.296062  0.750002  0.306668  1
  As  As22  1  0.703936  0.250002  0.693324  1
  As  As23  1  0.796053  0.750002  0.193373  1
  O  O24  1  0.500021  0.750002  0.751429  1
  O  O25  1  0.999979  0.250002  0.251438  1
  O  O26  1  0.000029  0.750002  0.748555  1
  O  O27  1  0.499969  0.250002  0.248557  1
