# generated using pymatgen
data_Tb3Sn2SbRh3
_symmetry_space_group_name_H-M   'P 1'
_cell_length_a   7.50014200
_cell_length_b   7.47648471
_cell_length_c   3.98257100
_cell_angle_alpha   90.00000000
_cell_angle_beta   90.00000000
_cell_angle_gamma   120.10472707
_symmetry_Int_Tables_number   1
_chemical_formula_structural   Tb3Sn2SbRh3
_chemical_formula_sum   'Tb3 Sn2 Sb1 Rh3'
_cell_volume   193.19763937
_cell_formula_units_Z   1
loop_
 _symmetry_equiv_pos_site_id
 _symmetry_equiv_pos_as_xyz
  1  'x, y, z'
loop_
 _atom_site_type_symbol
 _atom_site_label
 _atom_site_symmetry_multiplicity
 _atom_site_fract_x
 _atom_site_fract_y
 _atom_site_fract_z
 _atom_site_occupancy
  Tb  Tb0  1  0.404043  0.000000  0.500000  1
  Tb  Tb1  1  0.001771  0.406887  0.500000  1
  Tb  Tb2  1  0.594884  0.593113  0.500000  1
  Sn  Sn3  1  0.001713  0.741407  0.000000  1
  Sn  Sn4  1  0.260305  0.258593  0.000000  1
  Sb  Sb5  1  0.740087  0.000000  0.000000  1
  Rh  Rh6  1  0.334385  0.668163  0.000000  1
  Rh  Rh7  1  0.666222  0.331837  0.000000  1
  Rh  Rh8  1  0.996589  0.000000  0.500000  1
