# generated using pymatgen
data_DyTm(ReN3)2
_symmetry_space_group_name_H-M   'P 1'
_cell_length_a   7.36224572
_cell_length_b   7.36215697
_cell_length_c   6.27235200
_cell_angle_alpha   72.65421253
_cell_angle_beta   72.65282235
_cell_angle_gamma   81.69445854
_symmetry_Int_Tables_number   1
_chemical_formula_structural   DyTm(ReN3)2
_chemical_formula_sum   'Dy2 Tm2 Re4 N12'
_cell_volume   309.17630556
_cell_formula_units_Z   2
loop_
 _symmetry_equiv_pos_site_id
 _symmetry_equiv_pos_as_xyz
  1  'x, y, z'
loop_
 _atom_site_type_symbol
 _atom_site_label
 _atom_site_symmetry_multiplicity
 _atom_site_fract_x
 _atom_site_fract_y
 _atom_site_fract_z
 _atom_site_occupancy
  Dy  Dy0  1  0.712459  0.287549  0.249999  1
  Dy  Dy1  1  0.287541  0.712451  0.750001  1
  Tm  Tm2  1  0.907262  0.092739  0.749998  1
  Tm  Tm3  1  0.092738  0.907261  0.250002  1
  Re  Re4  1  0.623100  0.795759  0.281455  1
  Re  Re5  1  0.204239  0.376910  0.218539  1
  Re  Re6  1  0.376900  0.204241  0.718545  1
  Re  Re7  1  0.795761  0.623090  0.781461  1
  N  N8  1  0.667789  0.634349  0.085955  1
  N  N9  1  0.372052  0.872315  0.336959  1
  N  N10  1  0.365651  0.332210  0.414053  1
  N  N11  1  0.127678  0.627944  0.163051  1
  N  N12  1  0.006772  0.215092  0.341387  1
  N  N13  1  0.784904  0.993235  0.158608  1
  N  N14  1  0.215096  0.006765  0.841392  1
  N  N15  1  0.627948  0.127685  0.663041  1
  N  N16  1  0.332211  0.365651  0.914045  1
  N  N17  1  0.872322  0.372056  0.836949  1
  N  N18  1  0.634349  0.667790  0.585947  1
  N  N19  1  0.993228  0.784908  0.658613  1
