# generated using pymatgen
data_TbY2Ho(Ga3Ir)6
_symmetry_space_group_name_H-M   'P 1'
_cell_length_a   7.59367700
_cell_length_b   7.59488277
_cell_length_c   9.50203000
_cell_angle_alpha   90.00000000
_cell_angle_beta   90.00000000
_cell_angle_gamma   119.95211248
_symmetry_Int_Tables_number   1
_chemical_formula_structural   TbY2Ho(Ga3Ir)6
_chemical_formula_sum   'Tb1 Y2 Ho1 Ga18 Ir6'
_cell_volume   474.82063994
_cell_formula_units_Z   1
loop_
 _symmetry_equiv_pos_site_id
 _symmetry_equiv_pos_as_xyz
  1  'x, y, z'
loop_
 _atom_site_type_symbol
 _atom_site_label
 _atom_site_symmetry_multiplicity
 _atom_site_fract_x
 _atom_site_fract_y
 _atom_site_fract_z
 _atom_site_occupancy
  Tb  Tb0  1  0.997152  0.668071  0.250000  1
  Y  Y1  1  0.002926  0.331989  0.750000  1
  Y  Y2  1  0.668097  0.997173  0.250000  1
  Ho  Ho3  1  0.331954  0.002776  0.750000  1
  Ga  Ga4  1  0.127070  0.127060  0.250000  1
  Ga  Ga5  1  0.873337  0.872972  0.750000  1
  Ga  Ga6  1  0.999389  0.333973  0.080179  1
  Ga  Ga7  1  0.001055  0.666476  0.919521  1
  Ga  Ga8  1  0.001055  0.666476  0.580479  1
  Ga  Ga9  1  0.333969  0.999385  0.420187  1
  Ga  Ga10  1  0.999389  0.333973  0.419821  1
  Ga  Ga11  1  0.665560  0.000603  0.580473  1
  Ga  Ga12  1  0.665560  0.000603  0.919527  1
  Ga  Ga13  1  0.333969  0.999385  0.079813  1
  Ga  Ga14  1  0.332681  0.332271  0.564079  1
  Ga  Ga15  1  0.667321  0.667339  0.436307  1
  Ga  Ga16  1  0.667321  0.667339  0.063693  1
  Ga  Ga17  1  0.332681  0.332271  0.935921  1
  Ga  Ga18  1  0.339285  0.546317  0.250000  1
  Ga  Ga19  1  0.660232  0.453189  0.750000  1
  Ga  Ga20  1  0.546280  0.339235  0.250000  1
  Ga  Ga21  1  0.453719  0.661107  0.750000  1
  Ir  Ir22  1  0.671170  0.328501  0.999794  1
  Ir  Ir23  1  0.328595  0.671426  0.999786  1
  Ir  Ir24  1  0.328595  0.671426  0.500214  1
  Ir  Ir25  1  0.671170  0.328501  0.500206  1
  Ir  Ir26  1  0.000234  0.000082  0.999749  1
  Ir  Ir27  1  0.000234  0.000082  0.500251  1
