# generated using pymatgen
data_LiY12InCo4
_symmetry_space_group_name_H-M   'P 1'
_cell_length_a   8.44436503
_cell_length_b   8.44436696
_cell_length_c   8.44436672
_cell_angle_alpha   111.03595486
_cell_angle_beta   110.62854858
_cell_angle_gamma   106.78243048
_symmetry_Int_Tables_number   1
_chemical_formula_structural   LiY12InCo4
_chemical_formula_sum   'Li1 Y12 In1 Co4'
_cell_volume   462.76431881
_cell_formula_units_Z   1
loop_
 _symmetry_equiv_pos_site_id
 _symmetry_equiv_pos_as_xyz
  1  'x, y, z'
loop_
 _atom_site_type_symbol
 _atom_site_label
 _atom_site_symmetry_multiplicity
 _atom_site_fract_x
 _atom_site_fract_y
 _atom_site_fract_z
 _atom_site_occupancy
  Li  Li0  1  0.000000  0.000000  0.000000  1
  Y  Y1  1  0.424179  0.220736  0.203442  1
  Y  Y2  1  0.575821  0.779264  0.796558  1
  Y  Y3  1  0.017295  0.220736  0.796558  1
  Y  Y4  1  0.982705  0.779264  0.203442  1
  Y  Y5  1  0.188182  0.294207  0.482389  1
  Y  Y6  1  0.811818  0.705793  0.517611  1
  Y  Y7  1  0.188182  0.705793  0.893974  1
  Y  Y8  1  0.811818  0.294207  0.106026  1
  Y  Y9  1  0.313172  0.617163  0.303991  1
  Y  Y10  1  0.686828  0.382837  0.696009  1
  Y  Y11  1  0.313172  0.009180  0.696009  1
  Y  Y12  1  0.686828  0.990820  0.303991  1
  In  In13  1  0.500000  0.500000  0.000000  1
  Co  Co14  1  0.381535  0.000000  0.381535  1
  Co  Co15  1  0.618465  0.000000  0.618465  1
  Co  Co16  1  0.110698  0.610698  0.500000  1
  Co  Co17  1  0.889302  0.389302  0.500000  1
