# generated using pymatgen
data_Er5BS4
_symmetry_space_group_name_H-M   'P 1'
_cell_length_a   6.68587548
_cell_length_b   6.68593882
_cell_length_c   6.68585700
_cell_angle_alpha   99.67772106
_cell_angle_beta   99.67564028
_cell_angle_gamma   131.59135280
_symmetry_Int_Tables_number   1
_chemical_formula_structural   Er5BS4
_chemical_formula_sum   'Er5 B1 S4'
_cell_volume   203.87327060
_cell_formula_units_Z   1
loop_
 _symmetry_equiv_pos_site_id
 _symmetry_equiv_pos_as_xyz
  1  'x, y, z'
loop_
 _atom_site_type_symbol
 _atom_site_label
 _atom_site_symmetry_multiplicity
 _atom_site_fract_x
 _atom_site_fract_y
 _atom_site_fract_z
 _atom_site_occupancy
  Er  Er0  1  0.406696  0.779211  0.185900  1
  Er  Er1  1  0.000000  0.000000  0.000000  1
  Er  Er2  1  0.593304  0.220789  0.814100  1
  Er  Er3  1  0.220801  0.406685  0.627485  1
  Er  Er4  1  0.779199  0.593315  0.372515  1
  B  B5  1  0.500000  0.500000  0.000000  1
  S  S6  1  0.095943  0.696699  0.792648  1
  S  S7  1  0.696707  0.904060  0.600769  1
  S  S8  1  0.303293  0.095940  0.399231  1
  S  S9  1  0.904057  0.303301  0.207352  1
