# generated using pymatgen
data_Cr20NiMoIrC6
_symmetry_space_group_name_H-M   'P 1'
_cell_length_a   7.51150900
_cell_length_b   7.51160070
_cell_length_c   7.51153600
_cell_angle_alpha   59.99946929
_cell_angle_beta   60.00082964
_cell_angle_gamma   59.99970075
_symmetry_Int_Tables_number   1
_chemical_formula_structural   Cr20NiMoIrC6
_chemical_formula_sum   'Cr20 Ni1 Mo1 Ir1 C6'
_cell_volume   299.69081983
_cell_formula_units_Z   1
loop_
 _symmetry_equiv_pos_site_id
 _symmetry_equiv_pos_as_xyz
  1  'x, y, z'
loop_
 _atom_site_type_symbol
 _atom_site_label
 _atom_site_symmetry_multiplicity
 _atom_site_fract_x
 _atom_site_fract_y
 _atom_site_fract_z
 _atom_site_occupancy
  Cr  Cr0  1  0.615630  0.615645  0.153176  1
  Cr  Cr1  1  0.615644  0.153143  0.615636  1
  Cr  Cr2  1  0.153191  0.615644  0.615621  1
  Cr  Cr3  1  0.615594  0.615632  0.615593  1
  Cr  Cr4  1  0.384300  0.384225  0.847100  1
  Cr  Cr5  1  0.384247  0.847166  0.384282  1
  Cr  Cr6  1  0.847120  0.384210  0.384309  1
  Cr  Cr7  1  0.384326  0.384247  0.384361  1
  Cr  Cr8  1  0.000350  0.000393  0.333090  1
  Cr  Cr9  1  0.666179  0.000424  0.332997  1
  Cr  Cr10  1  0.000355  0.666266  0.333041  1
  Cr  Cr11  1  0.666205  0.332880  0.000448  1
  Cr  Cr12  1  0.000414  0.332977  0.000418  1
  Cr  Cr13  1  0.000458  0.332905  0.666211  1
  Cr  Cr14  1  0.333029  0.666265  0.000335  1
  Cr  Cr15  1  0.333019  0.000409  0.666185  1
  Cr  Cr16  1  0.333076  0.000413  0.000346  1
  Cr  Cr17  1  0.000379  0.000404  0.666183  1
  Cr  Cr18  1  0.000342  0.666263  0.000344  1
  Cr  Cr19  1  0.666184  0.000433  0.000381  1
  Ni  Ni20  1  0.999978  0.000031  0.999977  1
  Mo  Mo21  1  0.249991  0.250002  0.249974  1
  Ir  Ir22  1  0.749994  0.750022  0.749993  1
  C  C23  1  0.723174  0.723174  0.276820  1
  C  C24  1  0.276825  0.723169  0.276837  1
  C  C25  1  0.723173  0.276831  0.276829  1
  C  C26  1  0.276831  0.276836  0.723168  1
  C  C27  1  0.723169  0.276819  0.723178  1
  C  C28  1  0.276824  0.723170  0.723170  1
