# generated using pymatgen
data_La2Pr6Nd4Ir3AuI12
_symmetry_space_group_name_H-M   'P 1'
_cell_length_a   11.03423456
_cell_length_b   11.03060711
_cell_length_c   11.02390173
_cell_angle_alpha   109.41469789
_cell_angle_beta   110.30414366
_cell_angle_gamma   109.80862519
_symmetry_Int_Tables_number   1
_chemical_formula_structural   La2Pr6Nd4Ir3AuI12
_chemical_formula_sum   'La2 Pr6 Nd4 Ir3 Au1 I12'
_cell_volume   1018.40106059
_cell_formula_units_Z   1
loop_
 _symmetry_equiv_pos_site_id
 _symmetry_equiv_pos_as_xyz
  1  'x, y, z'
loop_
 _atom_site_type_symbol
 _atom_site_label
 _atom_site_symmetry_multiplicity
 _atom_site_fract_x
 _atom_site_fract_y
 _atom_site_fract_z
 _atom_site_occupancy
  La  La0  1  0.456253  0.489431  0.218906  1
  La  La1  1  0.752378  0.227845  0.274893  1
  Pr  Pr2  1  0.013327  0.040314  0.275704  1
  Pr  Pr3  1  0.481609  0.752772  0.021808  1
  Pr  Pr4  1  0.488463  0.222571  0.459471  1
  Pr  Pr5  1  0.024438  0.482322  0.757248  1
  Pr  Pr6  1  0.274549  0.011699  0.038798  1
  Pr  Pr7  1  0.223691  0.269061  0.743777  1
  Nd  Nd8  1  0.751015  0.020890  0.481280  1
  Nd  Nd9  1  0.221915  0.457367  0.486269  1
  Nd  Nd10  1  0.275107  0.753970  0.229005  1
  Nd  Nd11  1  0.038606  0.275260  0.011987  1
  Ir  Ir12  1  0.503033  0.999165  0.250835  1
  Ir  Ir13  1  0.996858  0.250071  0.500892  1
  Ir  Ir14  1  0.251470  0.501048  0.001204  1
  Au  Au15  1  0.248041  0.249207  0.248960  1
  I  I16  1  0.249523  0.758322  0.738610  1
  I  I17  1  0.513308  0.505768  0.754548  1
  I  I18  1  0.985438  0.744070  0.995504  1
  I  I19  1  0.740947  0.247952  0.760582  1
  I  I20  1  0.992059  0.986094  0.744260  1
  I  I21  1  0.250949  0.992560  0.505723  1
  I  I22  1  0.756646  0.515111  0.508431  1
  I  I23  1  0.503699  0.248147  0.991379  1
  I  I24  1  0.762168  0.742549  0.252567  1
  I  I25  1  0.744210  0.993314  0.983309  1
  I  I26  1  0.996600  0.506420  0.249399  1
  I  I27  1  0.503698  0.756702  0.514650  1
