# generated using pymatgen
data_Hf16GaSi15W4
_symmetry_space_group_name_H-M   'P 1'
_cell_length_a   6.98237030
_cell_length_b   6.94787576
_cell_length_c   12.71562849
_cell_angle_alpha   89.93278284
_cell_angle_beta   89.91736645
_cell_angle_gamma   89.67198299
_symmetry_Int_Tables_number   1
_chemical_formula_structural   Hf16GaSi15W4
_chemical_formula_sum   'Hf16 Ga1 Si15 W4'
_cell_volume   616.85755527
_cell_formula_units_Z   1
loop_
 _symmetry_equiv_pos_site_id
 _symmetry_equiv_pos_as_xyz
  1  'x, y, z'
loop_
 _atom_site_type_symbol
 _atom_site_label
 _atom_site_symmetry_multiplicity
 _atom_site_fract_x
 _atom_site_fract_y
 _atom_site_fract_z
 _atom_site_occupancy
  Hf  Hf0  1  0.495153  0.155776  0.529177  1
  Hf  Hf1  1  0.498828  0.840643  0.028578  1
  Hf  Hf2  1  0.652027  0.001426  0.283897  1
  Hf  Hf3  1  0.345269  0.996716  0.781365  1
  Hf  Hf4  1  0.844065  0.507779  0.969480  1
  Hf  Hf5  1  0.156288  0.496930  0.470859  1
  Hf  Hf6  1  0.003788  0.654875  0.717945  1
  Hf  Hf7  1  0.998307  0.346962  0.220796  1
  Hf  Hf8  1  0.494894  0.358190  0.125072  1
  Hf  Hf9  1  0.502163  0.644057  0.624910  1
  Hf  Hf10  1  0.855411  0.001305  0.873513  1
  Hf  Hf11  1  0.145008  0.998000  0.375189  1
  Hf  Hf12  1  0.644065  0.503645  0.375243  1
  Hf  Hf13  1  0.355645  0.497154  0.874672  1
  Hf  Hf14  1  0.005911  0.852623  0.125940  1
  Hf  Hf15  1  0.997741  0.145292  0.625099  1
  Ga  Ga16  1  0.798217  0.147167  0.073010  1
  Si  Si17  1  0.203711  0.854265  0.571471  1
  Si  Si18  1  0.644813  0.703850  0.821313  1
  Si  Si19  1  0.354326  0.297329  0.322276  1
  Si  Si20  1  0.854324  0.203904  0.428345  1
  Si  Si21  1  0.145447  0.797177  0.928663  1
  Si  Si22  1  0.704366  0.645912  0.177259  1
  Si  Si23  1  0.296965  0.353459  0.678099  1
  Si  Si24  1  0.546971  0.196083  0.933556  1
  Si  Si25  1  0.451681  0.802112  0.434027  1
  Si  Si26  1  0.696369  0.954440  0.682289  1
  Si  Si27  1  0.304120  0.046362  0.182621  1
  Si  Si28  1  0.803448  0.454025  0.566440  1
  Si  Si29  1  0.195499  0.544038  0.065492  1
  Si  Si30  1  0.953565  0.697024  0.317510  1
  Si  Si31  1  0.046048  0.303305  0.817740  1
  W  W32  1  0.674267  0.326144  0.749661  1
  W  W33  1  0.326746  0.673896  0.249756  1
  W  W34  1  0.826829  0.826719  0.500088  1
  W  W35  1  0.177728  0.171415  0.998646  1
