# generated using pymatgen
data_Er7Lu3(GePb3)2
_symmetry_space_group_name_H-M   'P 1'
_cell_length_a   9.24000800
_cell_length_b   9.24000793
_cell_length_c   6.48770000
_cell_angle_alpha   90.00000000
_cell_angle_beta   90.00000000
_cell_angle_gamma   120.00000741
_symmetry_Int_Tables_number   1
_chemical_formula_structural   Er7Lu3(GePb3)2
_chemical_formula_sum   'Er7 Lu3 Ge2 Pb6'
_cell_volume   479.69594767
_cell_formula_units_Z   1
loop_
 _symmetry_equiv_pos_site_id
 _symmetry_equiv_pos_as_xyz
  1  'x, y, z'
loop_
 _atom_site_type_symbol
 _atom_site_label
 _atom_site_symmetry_multiplicity
 _atom_site_fract_x
 _atom_site_fract_y
 _atom_site_fract_z
 _atom_site_occupancy
  Er  Er0  1  0.252083  0.000128  0.749831  1
  Er  Er1  1  0.748045  0.000128  0.250169  1
  Er  Er2  1  0.999872  0.251955  0.749831  1
  Er  Er3  1  0.999872  0.747917  0.250169  1
  Er  Er4  1  0.748045  0.747917  0.749831  1
  Er  Er5  1  0.252083  0.251955  0.250169  1
  Er  Er6  1  0.333333  0.666667  0.500000  1
  Lu  Lu7  1  0.666667  0.333333  0.500000  1
  Lu  Lu8  1  0.666667  0.333333  0.000000  1
  Lu  Lu9  1  0.333333  0.666667  0.000000  1
  Ge  Ge10  1  0.000000  0.000000  0.500000  1
  Ge  Ge11  1  0.000000  0.000000  0.000000  1
  Pb  Pb12  1  0.606384  0.000665  0.750183  1
  Pb  Pb13  1  0.394280  0.000665  0.249817  1
  Pb  Pb14  1  0.999335  0.605720  0.750183  1
  Pb  Pb15  1  0.999335  0.393616  0.249817  1
  Pb  Pb16  1  0.394280  0.393616  0.750183  1
  Pb  Pb17  1  0.606384  0.605720  0.249817  1
