# generated using pymatgen
data_NdDyTa2Bi2O11
_symmetry_space_group_name_H-M   'P 1'
_cell_length_a   6.60771077
_cell_length_b   7.72915823
_cell_length_c   9.83719761
_cell_angle_alpha   101.37043381
_cell_angle_beta   90.05382914
_cell_angle_gamma   90.07900610
_symmetry_Int_Tables_number   1
_chemical_formula_structural   NdDyTa2Bi2O11
_chemical_formula_sum   'Nd2 Dy2 Ta4 Bi4 O22'
_cell_volume   492.54422839
_cell_formula_units_Z   2
loop_
 _symmetry_equiv_pos_site_id
 _symmetry_equiv_pos_as_xyz
  1  'x, y, z'
loop_
 _atom_site_type_symbol
 _atom_site_label
 _atom_site_symmetry_multiplicity
 _atom_site_fract_x
 _atom_site_fract_y
 _atom_site_fract_z
 _atom_site_occupancy
  Nd  Nd0  1  0.750778  0.368402  0.488193  1
  Nd  Nd1  1  0.249222  0.631598  0.511807  1
  Dy  Dy2  1  0.758248  0.872486  0.480922  1
  Dy  Dy3  1  0.241752  0.127514  0.519078  1
  Ta  Ta4  1  0.913521  0.702014  0.804795  1
  Ta  Ta5  1  0.086479  0.297986  0.195205  1
  Ta  Ta6  1  0.913579  0.200876  0.806680  1
  Ta  Ta7  1  0.086421  0.799124  0.193320  1
  Bi  Bi8  1  0.438734  0.955441  0.814646  1
  Bi  Bi9  1  0.561266  0.044559  0.185354  1
  Bi  Bi10  1  0.386996  0.457183  0.827405  1
  Bi  Bi11  1  0.613004  0.542817  0.172595  1
  O  O12  1  0.216623  0.727670  0.759455  1
  O  O13  1  0.783377  0.272330  0.240545  1
  O  O14  1  0.629847  0.661794  0.839362  1
  O  O15  1  0.370153  0.338206  0.160638  1
  O  O16  1  0.629171  0.255804  0.840559  1
  O  O17  1  0.370829  0.744196  0.159441  1
  O  O18  1  0.891413  0.139480  0.591596  1
  O  O19  1  0.108587  0.860520  0.408404  1
  O  O20  1  0.215550  0.149118  0.755888  1
  O  O21  1  0.784450  0.850882  0.244112  1
  O  O22  1  0.891947  0.656433  0.591234  1
  O  O23  1  0.108053  0.343567  0.408766  1
  O  O24  1  0.030103  0.554637  0.217172  1
  O  O25  1  0.969897  0.445363  0.782828  1
  O  O26  1  0.998125  0.759581  0.000462  1
  O  O27  1  0.001875  0.240419  0.999538  1
  O  O28  1  0.577215  0.601411  0.390686  1
  O  O29  1  0.422785  0.398589  0.609314  1
  O  O30  1  0.162506  0.050833  0.201838  1
  O  O31  1  0.837494  0.949167  0.798162  1
  O  O32  1  0.536779  0.099164  0.401894  1
  O  O33  1  0.463221  0.900836  0.598106  1
