# generated using pymatgen
data_Hf6Ti4Ga5Bi
_symmetry_space_group_name_H-M   'P 1'
_cell_length_a   7.99036000
_cell_length_b   7.98099945
_cell_length_c   5.49135600
_cell_angle_alpha   90.00000000
_cell_angle_beta   90.00000000
_cell_angle_gamma   120.03880530
_symmetry_Int_Tables_number   1
_chemical_formula_structural   Hf6Ti4Ga5Bi
_chemical_formula_sum   'Hf6 Ti4 Ga5 Bi1'
_cell_volume   303.15441999
_cell_formula_units_Z   1
loop_
 _symmetry_equiv_pos_site_id
 _symmetry_equiv_pos_as_xyz
  1  'x, y, z'
loop_
 _atom_site_type_symbol
 _atom_site_label
 _atom_site_symmetry_multiplicity
 _atom_site_fract_x
 _atom_site_fract_y
 _atom_site_fract_z
 _atom_site_occupancy
  Hf  Hf0  1  0.227360  0.000000  0.250000  1
  Hf  Hf1  1  0.764728  0.000000  0.750000  1
  Hf  Hf2  1  0.015467  0.255096  0.250000  1
  Hf  Hf3  1  0.998126  0.753200  0.750000  1
  Hf  Hf4  1  0.760371  0.744904  0.250000  1
  Hf  Hf5  1  0.244926  0.246800  0.750000  1
  Ti  Ti6  1  0.324908  0.654191  0.993931  1
  Ti  Ti7  1  0.670718  0.345809  0.993931  1
  Ti  Ti8  1  0.670718  0.345809  0.506069  1
  Ti  Ti9  1  0.324908  0.654191  0.506069  1
  Ga  Ga10  1  0.395473  0.000000  0.750000  1
  Ga  Ga11  1  0.003575  0.600565  0.250000  1
  Ga  Ga12  1  0.996618  0.395814  0.750000  1
  Ga  Ga13  1  0.403010  0.399435  0.250000  1
  Ga  Ga14  1  0.600804  0.604186  0.750000  1
  Bi  Bi15  1  0.598289  0.000000  0.250000  1
