# generated using pymatgen
data_Nb10Ga3Ir2
_symmetry_space_group_name_H-M   'P 1'
_cell_length_a   9.92581300
_cell_length_b   9.92581300
_cell_length_c   5.19095900
_cell_angle_alpha   90.00000000
_cell_angle_beta   90.00000000
_cell_angle_gamma   90.00000000
_symmetry_Int_Tables_number   1
_chemical_formula_structural   Nb10Ga3Ir2
_chemical_formula_sum   'Nb20 Ga6 Ir4'
_cell_volume   511.42243603
_cell_formula_units_Z   2
loop_
 _symmetry_equiv_pos_site_id
 _symmetry_equiv_pos_as_xyz
  1  'x, y, z'
loop_
 _atom_site_type_symbol
 _atom_site_label
 _atom_site_symmetry_multiplicity
 _atom_site_fract_x
 _atom_site_fract_y
 _atom_site_fract_z
 _atom_site_occupancy
  Nb  Nb0  1  0.391620  0.398037  0.000000  1
  Nb  Nb1  1  0.898037  0.108380  0.500000  1
  Nb  Nb2  1  0.101963  0.891620  0.500000  1
  Nb  Nb3  1  0.608380  0.601963  0.000000  1
  Nb  Nb4  1  0.126369  0.464339  0.000000  1
  Nb  Nb5  1  0.964339  0.373631  0.500000  1
  Nb  Nb6  1  0.035661  0.626369  0.500000  1
  Nb  Nb7  1  0.873631  0.535661  0.000000  1
  Nb  Nb8  1  0.370459  0.962491  0.500000  1
  Nb  Nb9  1  0.629541  0.037509  0.500000  1
  Nb  Nb10  1  0.462491  0.129541  0.000000  1
  Nb  Nb11  1  0.537509  0.870459  0.000000  1
  Nb  Nb12  1  0.183132  0.181116  0.249679  1
  Nb  Nb13  1  0.681116  0.316868  0.749679  1
  Nb  Nb14  1  0.318884  0.683132  0.749679  1
  Nb  Nb15  1  0.816868  0.818884  0.249679  1
  Nb  Nb16  1  0.318884  0.683132  0.250321  1
  Nb  Nb17  1  0.681116  0.316868  0.250321  1
  Nb  Nb18  1  0.183132  0.181116  0.750321  1
  Nb  Nb19  1  0.816868  0.818884  0.750321  1
  Ga  Ga20  1  0.000000  0.000000  0.000000  1
  Ga  Ga21  1  0.500000  0.500000  0.500000  1
  Ga  Ga22  1  0.261136  0.932431  0.000000  1
  Ga  Ga23  1  0.432431  0.238864  0.500000  1
  Ga  Ga24  1  0.567569  0.761136  0.500000  1
  Ga  Ga25  1  0.738864  0.067569  0.000000  1
  Ir  Ir26  1  0.238519  0.432607  0.500000  1
  Ir  Ir27  1  0.761481  0.567393  0.500000  1
  Ir  Ir28  1  0.932607  0.261481  0.000000  1
  Ir  Ir29  1  0.067393  0.738519  0.000000  1
