# generated using pymatgen
data_LiTc3Mo3P4
_symmetry_space_group_name_H-M   'P 1'
_cell_length_a   7.57789600
_cell_length_b   7.57789462
_cell_length_c   3.13491400
_cell_angle_alpha   90.00000000
_cell_angle_beta   90.00000000
_cell_angle_gamma   119.99998858
_symmetry_Int_Tables_number   1
_chemical_formula_structural   LiTc3Mo3P4
_chemical_formula_sum   'Li1 Tc3 Mo3 P4'
_cell_volume   155.90265637
_cell_formula_units_Z   1
loop_
 _symmetry_equiv_pos_site_id
 _symmetry_equiv_pos_as_xyz
  1  'x, y, z'
loop_
 _atom_site_type_symbol
 _atom_site_label
 _atom_site_symmetry_multiplicity
 _atom_site_fract_x
 _atom_site_fract_y
 _atom_site_fract_z
 _atom_site_occupancy
  Li  Li0  1  0.000000  0.000000  0.000000  1
  Tc  Tc1  1  0.196017  0.803983  0.500000  1
  Tc  Tc2  1  0.196017  0.392035  0.500000  1
  Tc  Tc3  1  0.607965  0.803983  0.500000  1
  Mo  Mo4  1  0.542695  0.085391  0.000000  1
  Mo  Mo5  1  0.914609  0.457305  0.000000  1
  Mo  Mo6  1  0.542695  0.457305  0.000000  1
  P  P7  1  0.832163  0.167837  0.500000  1
  P  P8  1  0.335674  0.167837  0.500000  1
  P  P9  1  0.333333  0.666667  0.000000  1
  P  P10  1  0.832163  0.664326  0.500000  1
