# generated using pymatgen
data_K2Rb2Hf6FeI18
_symmetry_space_group_name_H-M   'P 1'
_cell_length_a   11.34868287
_cell_length_b   11.47838586
_cell_length_c   11.60441346
_cell_angle_alpha   118.54346701
_cell_angle_beta   100.19994901
_cell_angle_gamma   103.70585652
_symmetry_Int_Tables_number   1
_chemical_formula_structural   K2Rb2Hf6FeI18
_chemical_formula_sum   'K2 Rb2 Hf6 Fe1 I18'
_cell_volume   1213.17107104
_cell_formula_units_Z   1
loop_
 _symmetry_equiv_pos_site_id
 _symmetry_equiv_pos_as_xyz
  1  'x, y, z'
loop_
 _atom_site_type_symbol
 _atom_site_label
 _atom_site_symmetry_multiplicity
 _atom_site_fract_x
 _atom_site_fract_y
 _atom_site_fract_z
 _atom_site_occupancy
  K  K0  1  0.679863  0.223183  0.562407  1
  K  K1  1  0.320137  0.776817  0.437593  1
  Rb  Rb2  1  0.651791  0.537193  0.227712  1
  Rb  Rb3  1  0.348209  0.462807  0.772288  1
  Hf  Hf4  1  0.143680  0.051540  0.218025  1
  Hf  Hf5  1  0.856320  0.948460  0.781975  1
  Hf  Hf6  1  0.869088  0.120323  0.127878  1
  Hf  Hf7  1  0.130912  0.879677  0.872122  1
  Hf  Hf8  1  0.138389  0.227823  0.043988  1
  Hf  Hf9  1  0.861611  0.772177  0.956012  1
  Fe  Fe10  1  0.000000  0.000000  0.000000  1
  I  I11  1  0.007518  0.407485  0.197567  1
  I  I12  1  0.992482  0.592515  0.802433  1
  I  I13  1  0.328267  0.330430  0.310378  1
  I  I14  1  0.671733  0.669570  0.689622  1
  I  I15  1  0.315108  0.519495  0.103931  1
  I  I16  1  0.684892  0.480505  0.896069  1
  I  I17  1  0.003857  0.795340  0.207048  1
  I  I18  1  0.996143  0.204660  0.792952  1
  I  I19  1  0.707581  0.269614  0.289873  1
  I  I20  1  0.292419  0.730386  0.710127  1
  I  I21  1  0.314897  0.127926  0.903497  1
  I  I22  1  0.685103  0.872074  0.096503  1
  I  I23  1  0.017320  0.202836  0.406801  1
  I  I24  1  0.982680  0.797164  0.593199  1
  I  I25  1  0.319091  0.921190  0.106062  1
  I  I26  1  0.680909  0.078810  0.893938  1
  I  I27  1  0.331072  0.113021  0.492702  1
  I  I28  1  0.668928  0.886979  0.507298  1
