# generated using pymatgen
data_Nb3Cu2SeS5
_symmetry_space_group_name_H-M   'P 1'
_cell_length_a   3.40753086
_cell_length_b   8.97999686
_cell_length_c   13.26950541
_cell_angle_alpha   90.11384826
_cell_angle_beta   89.98058432
_cell_angle_gamma   79.07869014
_symmetry_Int_Tables_number   1
_chemical_formula_structural   Nb3Cu2SeS5
_chemical_formula_sum   'Nb6 Cu4 Se2 S10'
_cell_volume   398.68678202
_cell_formula_units_Z   2
loop_
 _symmetry_equiv_pos_site_id
 _symmetry_equiv_pos_as_xyz
  1  'x, y, z'
loop_
 _atom_site_type_symbol
 _atom_site_label
 _atom_site_symmetry_multiplicity
 _atom_site_fract_x
 _atom_site_fract_y
 _atom_site_fract_z
 _atom_site_occupancy
  Nb  Nb0  1  0.445003  0.110352  0.250251  1
  Nb  Nb1  1  0.776198  0.447299  0.251313  1
  Nb  Nb2  1  0.109631  0.781285  0.251100  1
  Nb  Nb3  1  0.890882  0.216821  0.745521  1
  Nb  Nb4  1  0.222693  0.554288  0.748352  1
  Nb  Nb5  1  0.555661  0.888485  0.744319  1
  Cu  Cu6  1  0.449719  0.106729  0.034079  1
  Cu  Cu7  1  0.217139  0.562350  0.971790  1
  Cu  Cu8  1  0.885058  0.227269  0.533765  1
  Cu  Cu9  1  0.112436  0.774405  0.462542  1
  Se  Se10  1  0.783468  0.430442  0.877800  1
  Se  Se11  1  0.103531  0.790525  0.876441  1
  S  S12  1  0.446144  0.105295  0.623525  1
  S  S13  1  0.775282  0.447166  0.631042  1
  S  S14  1  0.112129  0.773944  0.629651  1
  S  S15  1  0.889063  0.223368  0.366379  1
  S  S16  1  0.224976  0.553167  0.369368  1
  S  S17  1  0.552731  0.895880  0.371626  1
  S  S18  1  0.888731  0.226241  0.129886  1
  S  S19  1  0.222320  0.557629  0.136031  1
  S  S20  1  0.558921  0.885214  0.131854  1
  S  S21  1  0.444951  0.108513  0.863365  1
