# generated using pymatgen
data_Yb7UAs6
_symmetry_space_group_name_H-M   'P 1'
_cell_length_a   7.62984081
_cell_length_b   7.69971265
_cell_length_c   7.69971259
_cell_angle_alpha   109.65432015
_cell_angle_beta   109.28749276
_cell_angle_gamma   109.28749725
_symmetry_Int_Tables_number   1
_chemical_formula_structural   Yb7UAs6
_chemical_formula_sum   'Yb7 U1 As6'
_cell_volume   348.99750683
_cell_formula_units_Z   1
loop_
 _symmetry_equiv_pos_site_id
 _symmetry_equiv_pos_as_xyz
  1  'x, y, z'
loop_
 _atom_site_type_symbol
 _atom_site_label
 _atom_site_symmetry_multiplicity
 _atom_site_fract_x
 _atom_site_fract_y
 _atom_site_fract_z
 _atom_site_occupancy
  Yb  Yb0  1  0.499601  0.000084  0.642748  1
  Yb  Yb1  1  0.364400  0.361517  0.368166  1
  Yb  Yb2  1  0.996234  0.131834  0.493350  1
  Yb  Yb3  1  0.856853  0.857252  0.857336  1
  Yb  Yb4  1  0.999517  0.642664  0.499916  1
  Yb  Yb5  1  0.639556  0.500000  0.000000  1
  Yb  Yb6  1  0.502883  0.006650  0.138483  1
  U  U7  1  0.144371  0.500000  0.000000  1
  As  As8  1  0.882901  0.256468  0.121600  1
  As  As9  1  0.126433  0.865132  0.243532  1
  As  As10  1  0.368304  0.622594  0.756367  1
  As  As11  1  0.245710  0.133773  0.877406  1
  As  As12  1  0.761301  0.378400  0.634868  1
  As  As13  1  0.611937  0.743633  0.366227  1
