# generated using pymatgen
data_Zr6Ti4Al12FePd6
_symmetry_space_group_name_H-M   'P 1'
_cell_length_a   8.79771639
_cell_length_b   8.79771602
_cell_length_c   8.79771600
_cell_angle_alpha   60.00000006
_cell_angle_beta   60.00000146
_cell_angle_gamma   59.99999957
_symmetry_Int_Tables_number   1
_chemical_formula_structural   Zr6Ti4Al12FePd6
_chemical_formula_sum   'Zr6 Ti4 Al12 Fe1 Pd6'
_cell_volume   481.49839163
_cell_formula_units_Z   1
loop_
 _symmetry_equiv_pos_site_id
 _symmetry_equiv_pos_as_xyz
  1  'x, y, z'
loop_
 _atom_site_type_symbol
 _atom_site_label
 _atom_site_symmetry_multiplicity
 _atom_site_fract_x
 _atom_site_fract_y
 _atom_site_fract_z
 _atom_site_occupancy
  Zr  Zr0  1  0.690553  0.690553  0.309447  1
  Zr  Zr1  1  0.309447  0.690553  0.309447  1
  Zr  Zr2  1  0.690553  0.309447  0.309447  1
  Zr  Zr3  1  0.309447  0.309447  0.690553  1
  Zr  Zr4  1  0.690553  0.309447  0.690553  1
  Zr  Zr5  1  0.309447  0.690553  0.690553  1
  Ti  Ti6  1  0.885404  0.885404  0.343788  1
  Ti  Ti7  1  0.885404  0.343788  0.885404  1
  Ti  Ti8  1  0.343788  0.885404  0.885404  1
  Ti  Ti9  1  0.885404  0.885404  0.885404  1
  Al  Al10  1  0.117315  0.117315  0.648053  1
  Al  Al11  1  0.117315  0.648053  0.117315  1
  Al  Al12  1  0.648053  0.117315  0.117315  1
  Al  Al13  1  0.117315  0.117315  0.117315  1
  Al  Al14  1  0.666512  0.666512  0.000464  1
  Al  Al15  1  0.666512  0.000464  0.666512  1
  Al  Al16  1  0.000464  0.666512  0.666512  1
  Al  Al17  1  0.666512  0.666512  0.666512  1
  Al  Al18  1  0.333769  0.333769  0.998691  1
  Al  Al19  1  0.333769  0.998691  0.333769  1
  Al  Al20  1  0.998691  0.333769  0.333769  1
  Al  Al21  1  0.333769  0.333769  0.333769  1
  Fe  Fe22  1  0.000000  0.000000  0.000000  1
  Pd  Pd23  1  0.999837  0.999837  0.500163  1
  Pd  Pd24  1  0.500163  0.999837  0.500163  1
  Pd  Pd25  1  0.999837  0.500163  0.500163  1
  Pd  Pd26  1  0.500163  0.500163  0.999837  1
  Pd  Pd27  1  0.999837  0.500163  0.999837  1
  Pd  Pd28  1  0.500163  0.999837  0.999837  1
