# generated using pymatgen
data_Sc4InTc24
_symmetry_space_group_name_H-M   'P 1'
_cell_length_a   8.31521627
_cell_length_b   8.31521732
_cell_length_c   8.31521600
_cell_angle_alpha   109.47121985
_cell_angle_beta   109.47122240
_cell_angle_gamma   109.47122665
_symmetry_Int_Tables_number   1
_chemical_formula_structural   Sc4InTc24
_chemical_formula_sum   'Sc4 In1 Tc24'
_cell_volume   442.58710915
_cell_formula_units_Z   1
loop_
 _symmetry_equiv_pos_site_id
 _symmetry_equiv_pos_as_xyz
  1  'x, y, z'
loop_
 _atom_site_type_symbol
 _atom_site_label
 _atom_site_symmetry_multiplicity
 _atom_site_fract_x
 _atom_site_fract_y
 _atom_site_fract_z
 _atom_site_occupancy
  Sc  Sc0  1  0.630670  0.000000  0.000000  1
  Sc  Sc1  1  0.000000  0.630670  0.000000  1
  Sc  Sc2  1  0.000000  0.000000  0.630670  1
  Sc  Sc3  1  0.369330  0.369330  0.369330  1
  In  In4  1  0.000000  0.000000  0.000000  1
  Tc  Tc5  1  0.394503  0.674765  0.000000  1
  Tc  Tc6  1  0.719737  0.325235  0.325235  1
  Tc  Tc7  1  0.394503  0.000000  0.674765  1
  Tc  Tc8  1  0.674765  0.394503  0.000000  1
  Tc  Tc9  1  0.000000  0.394503  0.674765  1
  Tc  Tc10  1  0.325235  0.719737  0.325235  1
  Tc  Tc11  1  0.325235  0.325235  0.719737  1
  Tc  Tc12  1  0.000000  0.674765  0.394503  1
  Tc  Tc13  1  0.674765  0.000000  0.394503  1
  Tc  Tc14  1  0.605497  0.605497  0.280263  1
  Tc  Tc15  1  0.280263  0.605497  0.605497  1
  Tc  Tc16  1  0.605497  0.280263  0.605497  1
  Tc  Tc17  1  0.375747  0.193113  0.000000  1
  Tc  Tc18  1  0.182634  0.806887  0.806887  1
  Tc  Tc19  1  0.375747  0.000000  0.193113  1
  Tc  Tc20  1  0.193113  0.375747  0.000000  1
  Tc  Tc21  1  0.000000  0.375747  0.193113  1
  Tc  Tc22  1  0.806887  0.182634  0.806887  1
  Tc  Tc23  1  0.806887  0.806887  0.182634  1
  Tc  Tc24  1  0.000000  0.193113  0.375747  1
  Tc  Tc25  1  0.193113  0.000000  0.375747  1
  Tc  Tc26  1  0.624253  0.624253  0.817366  1
  Tc  Tc27  1  0.817366  0.624253  0.624253  1
  Tc  Tc28  1  0.624253  0.817366  0.624253  1
