# generated using pymatgen
data_Hf9Ta3WS
_symmetry_space_group_name_H-M   'P 1'
_cell_length_a   8.77868600
_cell_length_b   8.77868592
_cell_length_c   8.67777500
_cell_angle_alpha   90.00000000
_cell_angle_beta   90.00000000
_cell_angle_gamma   120.00000029
_symmetry_Int_Tables_number   1
_chemical_formula_structural   Hf9Ta3WS
_chemical_formula_sum   'Hf18 Ta6 W2 S2'
_cell_volume   579.15931079
_cell_formula_units_Z   2
loop_
 _symmetry_equiv_pos_site_id
 _symmetry_equiv_pos_as_xyz
  1  'x, y, z'
loop_
 _atom_site_type_symbol
 _atom_site_label
 _atom_site_symmetry_multiplicity
 _atom_site_fract_x
 _atom_site_fract_y
 _atom_site_fract_z
 _atom_site_occupancy
  Hf  Hf0  1  0.198083  0.801917  0.447173  1
  Hf  Hf1  1  0.198083  0.396167  0.447173  1
  Hf  Hf2  1  0.603833  0.801917  0.447173  1
  Hf  Hf3  1  0.801917  0.198083  0.552827  1
  Hf  Hf4  1  0.801917  0.603833  0.552827  1
  Hf  Hf5  1  0.396167  0.198083  0.552827  1
  Hf  Hf6  1  0.801917  0.198083  0.947173  1
  Hf  Hf7  1  0.801917  0.603833  0.947173  1
  Hf  Hf8  1  0.396167  0.198083  0.947173  1
  Hf  Hf9  1  0.198083  0.801917  0.052827  1
  Hf  Hf10  1  0.198083  0.396167  0.052827  1
  Hf  Hf11  1  0.603833  0.801917  0.052827  1
  Hf  Hf12  1  0.545205  0.454795  0.250000  1
  Hf  Hf13  1  0.545205  0.090412  0.250000  1
  Hf  Hf14  1  0.909588  0.454795  0.250000  1
  Hf  Hf15  1  0.454795  0.545205  0.750000  1
  Hf  Hf16  1  0.454795  0.909588  0.750000  1
  Hf  Hf17  1  0.090412  0.545205  0.750000  1
  Ta  Ta18  1  0.888138  0.111862  0.250000  1
  Ta  Ta19  1  0.888138  0.776275  0.250000  1
  Ta  Ta20  1  0.223725  0.111862  0.250000  1
  Ta  Ta21  1  0.111862  0.888138  0.750000  1
  Ta  Ta22  1  0.111862  0.223725  0.750000  1
  Ta  Ta23  1  0.776275  0.888138  0.750000  1
  W  W24  1  0.000000  0.000000  0.500000  1
  W  W25  1  0.000000  0.000000  0.000000  1
  S  S26  1  0.333333  0.666667  0.250000  1
  S  S27  1  0.666667  0.333333  0.750000  1
