# generated using pymatgen
data_Sm3(FeH6)2
_symmetry_space_group_name_H-M   'P 1'
_cell_length_a   4.80339200
_cell_length_b   4.80339244
_cell_length_c   8.17130300
_cell_angle_alpha   90.00000000
_cell_angle_beta   90.00000000
_cell_angle_gamma   119.99999700
_symmetry_Int_Tables_number   1
_chemical_formula_structural   Sm3(FeH6)2
_chemical_formula_sum   'Sm3 Fe2 H12'
_cell_volume   163.27438628
_cell_formula_units_Z   1
loop_
 _symmetry_equiv_pos_site_id
 _symmetry_equiv_pos_as_xyz
  1  'x, y, z'
loop_
 _atom_site_type_symbol
 _atom_site_label
 _atom_site_symmetry_multiplicity
 _atom_site_fract_x
 _atom_site_fract_y
 _atom_site_fract_z
 _atom_site_occupancy
  Sm  Sm0  1  0.000000  0.000000  0.000000  1
  Sm  Sm1  1  0.666667  0.333333  0.357564  1
  Sm  Sm2  1  0.333333  0.666667  0.642436  1
  Fe  Fe3  1  0.666667  0.333333  0.745611  1
  Fe  Fe4  1  0.333333  0.666667  0.254389  1
  H  H5  1  0.178312  0.821688  0.372793  1
  H  H6  1  0.643377  0.821688  0.372793  1
  H  H7  1  0.178312  0.356623  0.372793  1
  H  H8  1  0.821688  0.178312  0.627207  1
  H  H9  1  0.356623  0.178312  0.627207  1
  H  H10  1  0.821688  0.643377  0.627207  1
  H  H11  1  0.510692  0.021384  0.864751  1
  H  H12  1  0.510692  0.489308  0.864751  1
  H  H13  1  0.978616  0.489308  0.864751  1
  H  H14  1  0.489308  0.978616  0.135249  1
  H  H15  1  0.489308  0.510692  0.135249  1
  H  H16  1  0.021384  0.510692  0.135249  1
