# generated using pymatgen
data_Sc2TcGe2Mo
_symmetry_space_group_name_H-M   'P 1'
_cell_length_a   7.10992300
_cell_length_b   3.50418700
_cell_length_c   8.28881400
_cell_angle_alpha   90.00000000
_cell_angle_beta   90.00000000
_cell_angle_gamma   90.00000000
_symmetry_Int_Tables_number   1
_chemical_formula_structural   Sc2TcGe2Mo
_chemical_formula_sum   'Sc4 Tc2 Ge4 Mo2'
_cell_volume   206.51165431
_cell_formula_units_Z   2
loop_
 _symmetry_equiv_pos_site_id
 _symmetry_equiv_pos_as_xyz
  1  'x, y, z'
loop_
 _atom_site_type_symbol
 _atom_site_label
 _atom_site_symmetry_multiplicity
 _atom_site_fract_x
 _atom_site_fract_y
 _atom_site_fract_z
 _atom_site_occupancy
  Sc  Sc0  1  0.950947  0.250000  0.165437  1
  Sc  Sc1  1  0.450947  0.250000  0.334563  1
  Sc  Sc2  1  0.547424  0.750001  0.666911  1
  Sc  Sc3  1  0.047424  0.750001  0.833089  1
  Tc  Tc4  1  0.627122  0.750001  0.063414  1
  Tc  Tc5  1  0.127122  0.750001  0.436585  1
  Ge  Ge6  1  0.254154  0.750001  0.138177  1
  Ge  Ge7  1  0.754154  0.750001  0.361822  1
  Ge  Ge8  1  0.245650  0.250000  0.635848  1
  Ge  Ge9  1  0.745650  0.250000  0.864153  1
  Mo  Mo10  1  0.874703  0.250000  0.561400  1
  Mo  Mo11  1  0.374703  0.250000  0.938601  1
