# generated using pymatgen
data_CeNdPa(SnIr)3
_symmetry_space_group_name_H-M   'P 1'
_cell_length_a   7.49855201
_cell_length_b   7.52157139
_cell_length_c   4.05795400
_cell_angle_alpha   90.00000000
_cell_angle_beta   90.00000000
_cell_angle_gamma   119.07234064
_symmetry_Int_Tables_number   1
_chemical_formula_structural   CeNdPa(SnIr)3
_chemical_formula_sum   'Ce1 Nd1 Pa1 Sn3 Ir3'
_cell_volume   200.03591188
_cell_formula_units_Z   1
loop_
 _symmetry_equiv_pos_site_id
 _symmetry_equiv_pos_as_xyz
  1  'x, y, z'
loop_
 _atom_site_type_symbol
 _atom_site_label
 _atom_site_symmetry_multiplicity
 _atom_site_fract_x
 _atom_site_fract_y
 _atom_site_fract_z
 _atom_site_occupancy
  Ce  Ce0  1  0.001112  0.589223  0.000000  1
  Nd  Nd1  1  0.591108  0.000191  0.000000  1
  Pa  Pa2  1  0.413519  0.413821  0.000000  1
  Sn  Sn3  1  0.990612  0.252024  0.500000  1
  Sn  Sn4  1  0.755716  0.757099  0.500000  1
  Sn  Sn5  1  0.255210  0.992584  0.500000  1
  Ir  Ir6  1  0.019129  0.015246  0.000000  1
  Ir  Ir7  1  0.645346  0.344118  0.500000  1
  Ir  Ir8  1  0.328247  0.635694  0.500000  1
