# generated using pymatgen
data_Ho2Er2Co3Si4Ru
_symmetry_space_group_name_H-M   'P 1'
_cell_length_a   4.21594500
_cell_length_b   6.86778223
_cell_length_c   7.00831802
_cell_angle_alpha   90.21474057
_cell_angle_beta   90.00000000
_cell_angle_gamma   90.00000000
_symmetry_Int_Tables_number   1
_chemical_formula_structural   Ho2Er2Co3Si4Ru
_chemical_formula_sum   'Ho2 Er2 Co3 Si4 Ru1'
_cell_volume   202.91876136
_cell_formula_units_Z   1
loop_
 _symmetry_equiv_pos_site_id
 _symmetry_equiv_pos_as_xyz
  1  'x, y, z'
loop_
 _atom_site_type_symbol
 _atom_site_label
 _atom_site_symmetry_multiplicity
 _atom_site_fract_x
 _atom_site_fract_y
 _atom_site_fract_z
 _atom_site_occupancy
  Ho  Ho0  1  0.750000  0.012815  0.192552  1
  Ho  Ho1  1  0.750000  0.511804  0.315499  1
  Er  Er2  1  0.250000  0.985124  0.804913  1
  Er  Er3  1  0.250000  0.481335  0.687139  1
  Co  Co4  1  0.750000  0.853424  0.568870  1
  Co  Co5  1  0.250000  0.154114  0.436642  1
  Co  Co6  1  0.750000  0.350405  0.932021  1
  Si  Si7  1  0.250000  0.299288  0.101990  1
  Si  Si8  1  0.750000  0.696156  0.888049  1
  Si  Si9  1  0.250000  0.805848  0.399651  1
  Si  Si10  1  0.750000  0.195145  0.607134  1
  Ru  Ru11  1  0.250000  0.654542  0.065539  1
