# generated using pymatgen
data_Eu4Si10NiPt5
_symmetry_space_group_name_H-M   'P 1'
_cell_length_a   8.27923491
_cell_length_b   8.27923554
_cell_length_c   8.27923526
_cell_angle_alpha   138.00566550
_cell_angle_beta   104.98539102
_cell_angle_gamma   89.89779598
_symmetry_Int_Tables_number   1
_chemical_formula_structural   Eu4Si10NiPt5
_chemical_formula_sum   'Eu4 Si10 Ni1 Pt5'
_cell_volume   350.50575845
_cell_formula_units_Z   1
loop_
 _symmetry_equiv_pos_site_id
 _symmetry_equiv_pos_as_xyz
  1  'x, y, z'
loop_
 _atom_site_type_symbol
 _atom_site_label
 _atom_site_symmetry_multiplicity
 _atom_site_fract_x
 _atom_site_fract_y
 _atom_site_fract_z
 _atom_site_occupancy
  Eu  Eu0  1  0.104890  0.872352  0.236258  1
  Eu  Eu1  1  0.895110  0.131368  0.767462  1
  Eu  Eu2  1  0.636094  0.368632  0.263742  1
  Eu  Eu3  1  0.363906  0.627648  0.732538  1
  Si  Si4  1  0.000000  0.750000  0.750000  1
  Si  Si5  1  0.000000  0.250000  0.250000  1
  Si  Si6  1  0.273173  0.023173  0.750000  1
  Si  Si7  1  0.726827  0.476827  0.750000  1
  Si  Si8  1  0.726441  0.976441  0.250000  1
  Si  Si9  1  0.273559  0.523559  0.250000  1
  Si  Si10  1  0.754623  0.618825  0.157794  1
  Si  Si11  1  0.245377  0.403171  0.864202  1
  Si  Si12  1  0.461031  0.096829  0.342206  1
  Si  Si13  1  0.538969  0.881175  0.635798  1
  Ni  Ni14  1  0.500000  0.750000  0.250000  1
  Pt  Pt15  1  0.500000  0.250000  0.750000  1
  Pt  Pt16  1  0.023099  0.636764  0.387415  1
  Pt  Pt17  1  0.976901  0.364317  0.613666  1
  Pt  Pt18  1  0.249349  0.135683  0.112585  1
  Pt  Pt19  1  0.750651  0.863236  0.886334  1
