# generated using pymatgen
data_Gd6Ti2MnCrC12
_symmetry_space_group_name_H-M   'P 1'
_cell_length_a   8.29611200
_cell_length_b   8.29611122
_cell_length_c   5.08926900
_cell_angle_alpha   90.00000000
_cell_angle_beta   90.00000000
_cell_angle_gamma   119.99998716
_symmetry_Int_Tables_number   1
_chemical_formula_structural   Gd6Ti2MnCrC12
_chemical_formula_sum   'Gd6 Ti2 Mn1 Cr1 C12'
_cell_volume   303.34390057
_cell_formula_units_Z   1
loop_
 _symmetry_equiv_pos_site_id
 _symmetry_equiv_pos_as_xyz
  1  'x, y, z'
loop_
 _atom_site_type_symbol
 _atom_site_label
 _atom_site_symmetry_multiplicity
 _atom_site_fract_x
 _atom_site_fract_y
 _atom_site_fract_z
 _atom_site_occupancy
  Gd  Gd0  1  0.618435  0.681614  0.750000  1
  Gd  Gd1  1  0.934089  0.615542  0.250000  1
  Gd  Gd2  1  0.681454  0.065911  0.250000  1
  Gd  Gd3  1  0.318386  0.936823  0.750000  1
  Gd  Gd4  1  0.063177  0.381565  0.750000  1
  Gd  Gd5  1  0.384458  0.318546  0.250000  1
  Ti  Ti6  1  0.000000  0.000000  0.501896  1
  Ti  Ti7  1  0.000000  0.000000  0.998104  1
  Mn  Mn8  1  0.333333  0.666667  0.250000  1
  Cr  Cr9  1  0.666667  0.333333  0.750000  1
  C  C10  1  0.961495  0.764603  0.750000  1
  C  C11  1  0.200289  0.960294  0.250000  1
  C  C12  1  0.760005  0.799711  0.250000  1
  C  C13  1  0.235397  0.196892  0.750000  1
  C  C14  1  0.803108  0.038505  0.750000  1
  C  C15  1  0.039706  0.239995  0.250000  1
  C  C16  1  0.861772  0.573189  0.750000  1
  C  C17  1  0.288256  0.858399  0.250000  1
  C  C18  1  0.570142  0.711744  0.250000  1
  C  C19  1  0.426811  0.288582  0.750000  1
  C  C20  1  0.141601  0.429858  0.250000  1
  C  C21  1  0.711418  0.138228  0.750000  1
