# generated using pymatgen
data_Th2GaSi3Ni4
_symmetry_space_group_name_H-M   'P 1'
_cell_length_a   4.10275700
_cell_length_b   4.10275700
_cell_length_c   9.59833500
_cell_angle_alpha   90.00000000
_cell_angle_beta   90.00000000
_cell_angle_gamma   90.00000000
_symmetry_Int_Tables_number   1
_chemical_formula_structural   Th2GaSi3Ni4
_chemical_formula_sum   'Th2 Ga1 Si3 Ni4'
_cell_volume   161.56507771
_cell_formula_units_Z   1
loop_
 _symmetry_equiv_pos_site_id
 _symmetry_equiv_pos_as_xyz
  1  'x, y, z'
loop_
 _atom_site_type_symbol
 _atom_site_label
 _atom_site_symmetry_multiplicity
 _atom_site_fract_x
 _atom_site_fract_y
 _atom_site_fract_z
 _atom_site_occupancy
  Th  Th0  1  0.000000  0.500000  0.242234  1
  Th  Th1  1  0.500000  0.000000  0.757766  1
  Ga  Ga2  1  0.500000  0.500000  0.500000  1
  Si  Si3  1  0.500000  0.000000  0.125021  1
  Si  Si4  1  0.000000  0.000000  0.500000  1
  Si  Si5  1  0.000000  0.500000  0.874979  1
  Ni  Ni6  1  0.000000  0.000000  0.000000  1
  Ni  Ni7  1  0.500000  0.500000  0.000000  1
  Ni  Ni8  1  0.500000  0.000000  0.368928  1
  Ni  Ni9  1  0.000000  0.500000  0.631072  1
