# generated using pymatgen
data_NpUBiN2
_symmetry_space_group_name_H-M   'P 1'
_cell_length_a   7.07847637
_cell_length_b   7.07847606
_cell_length_c   7.07847653
_cell_angle_alpha   148.18663874
_cell_angle_beta   148.18663262
_cell_angle_gamma   45.60992948
_symmetry_Int_Tables_number   1
_chemical_formula_structural   NpUBiN2
_chemical_formula_sum   'Np1 U1 Bi1 N2'
_cell_volume   98.23298736
_cell_formula_units_Z   1
loop_
 _symmetry_equiv_pos_site_id
 _symmetry_equiv_pos_as_xyz
  1  'x, y, z'
loop_
 _atom_site_type_symbol
 _atom_site_label
 _atom_site_symmetry_multiplicity
 _atom_site_fract_x
 _atom_site_fract_y
 _atom_site_fract_z
 _atom_site_occupancy
  Np  Np0  1  0.337572  0.337572  0.000000  1
  U  U1  1  0.665791  0.665791  0.000000  1
  Bi  Bi2  1  0.002295  0.002295  0.000000  1
  N  N3  1  0.247172  0.747172  0.500000  1
  N  N4  1  0.747172  0.247172  0.500000  1
