# generated using pymatgen
data_Nd5Sn2Rh
_symmetry_space_group_name_H-M   'P 1'
_cell_length_a   8.20110800
_cell_length_b   9.19865900
_cell_length_c   12.74769400
_cell_angle_alpha   90.00000000
_cell_angle_beta   90.00000000
_cell_angle_gamma   90.00000000
_symmetry_Int_Tables_number   1
_chemical_formula_structural   Nd5Sn2Rh
_chemical_formula_sum   'Nd20 Sn8 Rh4'
_cell_volume   961.67578512
_cell_formula_units_Z   4
loop_
 _symmetry_equiv_pos_site_id
 _symmetry_equiv_pos_as_xyz
  1  'x, y, z'
loop_
 _atom_site_type_symbol
 _atom_site_label
 _atom_site_symmetry_multiplicity
 _atom_site_fract_x
 _atom_site_fract_y
 _atom_site_fract_z
 _atom_site_occupancy
  Nd  Nd0  1  0.659293  0.750000  0.714084  1
  Nd  Nd1  1  0.340707  0.250000  0.285916  1
  Nd  Nd2  1  0.159293  0.250000  0.785916  1
  Nd  Nd3  1  0.840707  0.750000  0.214084  1
  Nd  Nd4  1  0.126546  0.750000  0.802286  1
  Nd  Nd5  1  0.873454  0.250000  0.197714  1
  Nd  Nd6  1  0.626546  0.250000  0.697714  1
  Nd  Nd7  1  0.373454  0.750000  0.302286  1
  Nd  Nd8  1  0.550940  0.750000  0.999262  1
  Nd  Nd9  1  0.449060  0.250000  0.000738  1
  Nd  Nd10  1  0.050940  0.250000  0.500738  1
  Nd  Nd11  1  0.949060  0.750000  0.499262  1
  Nd  Nd12  1  0.821130  0.463671  0.926957  1
  Nd  Nd13  1  0.178870  0.536329  0.073043  1
  Nd  Nd14  1  0.321130  0.536329  0.573043  1
  Nd  Nd15  1  0.178870  0.963671  0.073043  1
  Nd  Nd16  1  0.678870  0.463671  0.426957  1
  Nd  Nd17  1  0.821130  0.036329  0.926957  1
  Nd  Nd18  1  0.678870  0.036329  0.426957  1
  Nd  Nd19  1  0.321130  0.963671  0.573043  1
  Sn  Sn20  1  0.929533  0.005564  0.670703  1
  Sn  Sn21  1  0.070467  0.994436  0.329297  1
  Sn  Sn22  1  0.429533  0.994436  0.829297  1
  Sn  Sn23  1  0.070467  0.505564  0.329297  1
  Sn  Sn24  1  0.570467  0.005564  0.170703  1
  Sn  Sn25  1  0.929533  0.494436  0.670703  1
  Sn  Sn26  1  0.570467  0.494436  0.170703  1
  Sn  Sn27  1  0.429533  0.505564  0.829297  1
  Rh  Rh28  1  0.920689  0.750000  0.990916  1
  Rh  Rh29  1  0.079311  0.250000  0.009084  1
  Rh  Rh30  1  0.420689  0.250000  0.509084  1
  Rh  Rh31  1  0.579311  0.750000  0.490916  1
