# generated using pymatgen
data_Rb3In2Bi3
_symmetry_space_group_name_H-M   'P 1'
_cell_length_a   11.80638084
_cell_length_b   11.80638173
_cell_length_c   16.56458200
_cell_angle_alpha   90.00000000
_cell_angle_beta   90.00000000
_cell_angle_gamma   142.20071401
_symmetry_Int_Tables_number   1
_chemical_formula_structural   Rb3In2Bi3
_chemical_formula_sum   'Rb12 In8 Bi12'
_cell_volume   1415.14757723
_cell_formula_units_Z   4
loop_
 _symmetry_equiv_pos_site_id
 _symmetry_equiv_pos_as_xyz
  1  'x, y, z'
loop_
 _atom_site_type_symbol
 _atom_site_label
 _atom_site_symmetry_multiplicity
 _atom_site_fract_x
 _atom_site_fract_y
 _atom_site_fract_z
 _atom_site_occupancy
  Rb  Rb0  1  0.611213  0.929612  0.667853  1
  Rb  Rb1  1  0.570388  0.888787  0.167853  1
  Rb  Rb2  1  0.070388  0.388787  0.332147  1
  Rb  Rb3  1  0.111213  0.429612  0.832147  1
  Rb  Rb4  1  0.660736  0.660736  0.865388  1
  Rb  Rb5  1  0.429612  0.111213  0.832147  1
  Rb  Rb6  1  0.339264  0.339264  0.134612  1
  Rb  Rb7  1  0.929612  0.611213  0.667853  1
  Rb  Rb8  1  0.160736  0.160736  0.634612  1
  Rb  Rb9  1  0.888787  0.570388  0.167853  1
  Rb  Rb10  1  0.839264  0.839264  0.365388  1
  Rb  Rb11  1  0.388787  0.070388  0.332147  1
  In  In12  1  0.240264  0.759736  0.500000  1
  In  In13  1  0.259736  0.740264  0.000000  1
  In  In14  1  0.740264  0.259736  0.000000  1
  In  In15  1  0.916925  0.083075  0.000000  1
  In  In16  1  0.759736  0.240264  0.500000  1
  In  In17  1  0.083075  0.916925  0.000000  1
  In  In18  1  0.416925  0.583075  0.500000  1
  In  In19  1  0.583075  0.416925  0.500000  1
  Bi  Bi20  1  0.052387  0.398468  0.097046  1
  Bi  Bi21  1  0.665418  0.665418  0.618340  1
  Bi  Bi22  1  0.398468  0.052387  0.097046  1
  Bi  Bi23  1  0.601532  0.947613  0.902954  1
  Bi  Bi24  1  0.947613  0.601532  0.902954  1
  Bi  Bi25  1  0.447613  0.101532  0.597046  1
  Bi  Bi26  1  0.552387  0.898468  0.402954  1
  Bi  Bi27  1  0.165418  0.165418  0.881660  1
  Bi  Bi28  1  0.101532  0.447613  0.597046  1
  Bi  Bi29  1  0.834582  0.834582  0.118340  1
  Bi  Bi30  1  0.334582  0.334582  0.381660  1
  Bi  Bi31  1  0.898468  0.552387  0.402954  1
