# generated using pymatgen
data_Er18Tm2(IrRh3)3
_symmetry_space_group_name_H-M   'P 1'
_cell_length_a   10.79832168
_cell_length_b   10.79832047
_cell_length_c   6.31901915
_cell_angle_alpha   90.00108808
_cell_angle_beta   90.00108729
_cell_angle_gamma   89.86317785
_symmetry_Int_Tables_number   1
_chemical_formula_structural   Er18Tm2(IrRh3)3
_chemical_formula_sum   'Er18 Tm2 Ir3 Rh9'
_cell_volume   736.81915198
_cell_formula_units_Z   1
loop_
 _symmetry_equiv_pos_site_id
 _symmetry_equiv_pos_as_xyz
  1  'x, y, z'
loop_
 _atom_site_type_symbol
 _atom_site_label
 _atom_site_symmetry_multiplicity
 _atom_site_fract_x
 _atom_site_fract_y
 _atom_site_fract_z
 _atom_site_occupancy
  Er  Er0  1  0.290855  0.089269  0.377510  1
  Er  Er1  1  0.291233  0.910524  0.877313  1
  Er  Er2  1  0.708926  0.087802  0.877198  1
  Er  Er3  1  0.708858  0.910501  0.377029  1
  Er  Er4  1  0.586883  0.789532  0.878304  1
  Er  Er5  1  0.586418  0.209461  0.376903  1
  Er  Er6  1  0.413286  0.790016  0.377521  1
  Er  Er7  1  0.411112  0.209617  0.878232  1
  Er  Er8  1  0.210468  0.413117  0.621696  1
  Er  Er9  1  0.209984  0.586714  0.122479  1
  Er  Er10  1  0.790539  0.413582  0.123097  1
  Er  Er11  1  0.790383  0.588888  0.621768  1
  Er  Er12  1  0.910731  0.709145  0.122490  1
  Er  Er13  1  0.912198  0.291074  0.622802  1
  Er  Er14  1  0.089476  0.708767  0.622687  1
  Er  Er15  1  0.089499  0.291142  0.122971  1
  Er  Er16  1  0.999819  0.999962  0.499701  1
  Er  Er17  1  0.000038  0.000181  0.000299  1
  Tm  Tm18  1  0.499903  0.499846  0.999818  1
  Tm  Tm19  1  0.500154  0.500097  0.500182  1
  Ir  Ir20  1  0.654219  0.653298  0.249943  1
  Ir  Ir21  1  0.346702  0.345781  0.250057  1
  Ir  Ir22  1  0.345764  0.654236  0.750000  1
  Rh  Rh23  1  0.845474  0.154526  0.250000  1
  Rh  Rh24  1  0.846210  0.846910  0.750267  1
  Rh  Rh25  1  0.153090  0.153790  0.749733  1
  Rh  Rh26  1  0.153697  0.846303  0.250000  1
  Rh  Rh27  1  0.654803  0.345197  0.750000  1
  Rh  Rh28  1  0.500153  0.000503  0.123026  1
  Rh  Rh29  1  0.500280  0.000655  0.623741  1
  Rh  Rh30  1  0.999345  0.499720  0.876259  1
  Rh  Rh31  1  0.999497  0.499847  0.376974  1
