# generated using pymatgen
data_Pr4YIr2
_symmetry_space_group_name_H-M   'P 1'
_cell_length_a   6.70534879
_cell_length_b   7.30832372
_cell_length_c   8.97297887
_cell_angle_alpha   96.23616444
_cell_angle_beta   111.94035609
_cell_angle_gamma   89.99999684
_symmetry_Int_Tables_number   1
_chemical_formula_structural   Pr4YIr2
_chemical_formula_sum   'Pr8 Y2 Ir4'
_cell_volume   405.06561597
_cell_formula_units_Z   2
loop_
 _symmetry_equiv_pos_site_id
 _symmetry_equiv_pos_as_xyz
  1  'x, y, z'
loop_
 _atom_site_type_symbol
 _atom_site_label
 _atom_site_symmetry_multiplicity
 _atom_site_fract_x
 _atom_site_fract_y
 _atom_site_fract_z
 _atom_site_occupancy
  Pr  Pr0  1  0.976530  0.922192  0.181565  1
  Pr  Pr1  1  0.794964  0.577808  0.818435  1
  Pr  Pr2  1  0.023470  0.077808  0.818435  1
  Pr  Pr3  1  0.205036  0.422192  0.181565  1
  Pr  Pr4  1  0.647657  0.813096  0.431309  1
  Pr  Pr5  1  0.216347  0.686904  0.568691  1
  Pr  Pr6  1  0.352343  0.186904  0.568691  1
  Pr  Pr7  1  0.783653  0.313096  0.431309  1
  Y  Y8  1  0.437085  0.750000  0.000000  1
  Y  Y9  1  0.562915  0.250000  0.000000  1
  Ir  Ir10  1  0.811381  0.570665  0.211732  1
  Ir  Ir11  1  0.599648  0.929335  0.788268  1
  Ir  Ir12  1  0.188619  0.429335  0.788268  1
  Ir  Ir13  1  0.400352  0.070665  0.211732  1
