# generated using pymatgen
data_SrNdInI6
_symmetry_space_group_name_H-M   'P 1'
_cell_length_a   8.86628192
_cell_length_b   8.86622005
_cell_length_c   8.86634600
_cell_angle_alpha   55.31617894
_cell_angle_beta   55.31712359
_cell_angle_gamma   55.31689142
_symmetry_Int_Tables_number   1
_chemical_formula_structural   SrNdInI6
_chemical_formula_sum   'Sr1 Nd1 In1 I6'
_cell_volume   439.21192442
_cell_formula_units_Z   1
loop_
 _symmetry_equiv_pos_site_id
 _symmetry_equiv_pos_as_xyz
  1  'x, y, z'
loop_
 _atom_site_type_symbol
 _atom_site_label
 _atom_site_symmetry_multiplicity
 _atom_site_fract_x
 _atom_site_fract_y
 _atom_site_fract_z
 _atom_site_occupancy
  Sr  Sr0  1  0.330173  0.330172  0.330177  1
  Nd  Nd1  1  0.000023  0.000029  0.000027  1
  In  In2  1  0.670426  0.670428  0.670424  1
  I  I3  1  0.220365  0.601908  0.931271  1
  I  I4  1  0.601916  0.931266  0.220358  1
  I  I5  1  0.931268  0.220357  0.601913  1
  I  I6  1  0.761407  0.375155  0.109274  1
  I  I7  1  0.375147  0.109275  0.761408  1
  I  I8  1  0.109277  0.761412  0.375147  1
