# generated using pymatgen
data_Ho6Er2Tc3B24Ru
_symmetry_space_group_name_H-M   'P 1'
_cell_length_a   3.66199300
_cell_length_b   9.12755203
_cell_length_c   11.51018004
_cell_angle_alpha   89.92872785
_cell_angle_beta   90.00000000
_cell_angle_gamma   90.00000000
_symmetry_Int_Tables_number   1
_chemical_formula_structural   Ho6Er2Tc3B24Ru
_chemical_formula_sum   'Ho6 Er2 Tc3 B24 Ru1'
_cell_volume   384.72783444
_cell_formula_units_Z   1
loop_
 _symmetry_equiv_pos_site_id
 _symmetry_equiv_pos_as_xyz
  1  'x, y, z'
loop_
 _atom_site_type_symbol
 _atom_site_label
 _atom_site_symmetry_multiplicity
 _atom_site_fract_x
 _atom_site_fract_y
 _atom_site_fract_z
 _atom_site_occupancy
  Ho  Ho0  1  0.000000  0.323810  0.413852  1
  Ho  Ho1  1  0.000000  0.674947  0.584113  1
  Ho  Ho2  1  0.000000  0.823017  0.087318  1
  Ho  Ho3  1  0.000000  0.177934  0.914490  1
  Ho  Ho4  1  0.000000  0.942752  0.370261  1
  Ho  Ho5  1  0.000000  0.057603  0.630590  1
  Er  Er6  1  0.000000  0.443312  0.129773  1
  Er  Er7  1  0.000000  0.557546  0.869472  1
  Tc  Tc8  1  0.000000  0.638244  0.320436  1
  Tc  Tc9  1  0.000000  0.361767  0.680197  1
  Tc  Tc10  1  0.000000  0.138363  0.178231  1
  B  B11  1  0.500000  0.553051  0.432904  1
  B  B12  1  0.500000  0.446639  0.566843  1
  B  B13  1  0.500000  0.053135  0.066720  1
  B  B14  1  0.500000  0.945996  0.932811  1
  B  B15  1  0.500000  0.748641  0.418941  1
  B  B16  1  0.500000  0.250813  0.581260  1
  B  B17  1  0.500000  0.249599  0.081006  1
  B  B18  1  0.500000  0.751162  0.918614  1
  B  B19  1  0.500000  0.791911  0.265541  1
  B  B20  1  0.500000  0.208288  0.735240  1
  B  B21  1  0.500000  0.292217  0.234493  1
  B  B22  1  0.500000  0.708762  0.765296  1
  B  B23  1  0.500000  0.631147  0.185358  1
  B  B24  1  0.500000  0.369018  0.815198  1
  B  B25  1  0.500000  0.130841  0.314133  1
  B  B26  1  0.500000  0.868500  0.685639  1
  B  B27  1  0.500000  0.981905  0.211806  1
  B  B28  1  0.500000  0.016589  0.788328  1
  B  B29  1  0.500000  0.482067  0.287741  1
  B  B30  1  0.500000  0.517809  0.711916  1
  B  B31  1  0.500000  0.602203  0.028059  1
  B  B32  1  0.500000  0.399524  0.971671  1
  B  B33  1  0.500000  0.101873  0.471985  1
  B  B34  1  0.500000  0.897842  0.528784  1
  Ru  Ru35  1  0.000000  0.861171  0.820979  1
