# generated using pymatgen
data_HoZr(ReO4)6
_symmetry_space_group_name_H-M   'P 1'
_cell_length_a   10.27192000
_cell_length_b   10.27191979
_cell_length_c   5.94933400
_cell_angle_alpha   90.00000000
_cell_angle_beta   90.00000000
_cell_angle_gamma   119.99999424
_symmetry_Int_Tables_number   1
_chemical_formula_structural   HoZr(ReO4)6
_chemical_formula_sum   'Ho1 Zr1 Re6 O24'
_cell_volume   543.62854905
_cell_formula_units_Z   1
loop_
 _symmetry_equiv_pos_site_id
 _symmetry_equiv_pos_as_xyz
  1  'x, y, z'
loop_
 _atom_site_type_symbol
 _atom_site_label
 _atom_site_symmetry_multiplicity
 _atom_site_fract_x
 _atom_site_fract_y
 _atom_site_fract_z
 _atom_site_occupancy
  Ho  Ho0  1  0.666667  0.333333  0.750000  1
  Zr  Zr1  1  0.333333  0.666667  0.250000  1
  Re  Re2  1  0.099699  0.401544  0.750000  1
  Re  Re3  1  0.391434  0.303679  0.250000  1
  Re  Re4  1  0.598456  0.698154  0.750000  1
  Re  Re5  1  0.912244  0.608566  0.250000  1
  Re  Re6  1  0.301846  0.900301  0.750000  1
  Re  Re7  1  0.696321  0.087756  0.250000  1
  O  O8  1  0.480735  0.651187  0.506871  1
  O  O9  1  0.348813  0.829549  0.506871  1
  O  O10  1  0.848407  0.735276  0.250000  1
  O  O11  1  0.111405  0.835850  0.750000  1
  O  O12  1  0.264724  0.113131  0.250000  1
  O  O13  1  0.164150  0.275555  0.750000  1
  O  O14  1  0.508774  0.350341  0.012417  1
  O  O15  1  0.886869  0.151593  0.250000  1
  O  O16  1  0.109536  0.701294  0.250000  1
  O  O17  1  0.170451  0.519265  0.993129  1
  O  O18  1  0.170451  0.519265  0.506871  1
  O  O19  1  0.902784  0.308475  0.750000  1
  O  O20  1  0.298706  0.408243  0.250000  1
  O  O21  1  0.691525  0.594309  0.750000  1
  O  O22  1  0.841567  0.491226  0.487583  1
  O  O23  1  0.405691  0.097216  0.750000  1
  O  O24  1  0.649659  0.158433  0.012417  1
  O  O25  1  0.480735  0.651187  0.993129  1
  O  O26  1  0.348813  0.829549  0.993129  1
  O  O27  1  0.649659  0.158433  0.487583  1
  O  O28  1  0.508774  0.350341  0.487583  1
  O  O29  1  0.841567  0.491226  0.012417  1
  O  O30  1  0.724445  0.888595  0.750000  1
  O  O31  1  0.591757  0.890464  0.250000  1
