# generated using pymatgen
data_TbZrPRh6
_symmetry_space_group_name_H-M   'P 1'
_cell_length_a   5.90592778
_cell_length_b   5.90592651
_cell_length_c   5.90592700
_cell_angle_alpha   60.00000283
_cell_angle_beta   60.00000995
_cell_angle_gamma   60.00000599
_symmetry_Int_Tables_number   1
_chemical_formula_structural   TbZrPRh6
_chemical_formula_sum   'Tb1 Zr1 P1 Rh6'
_cell_volume   145.66301948
_cell_formula_units_Z   1
loop_
 _symmetry_equiv_pos_site_id
 _symmetry_equiv_pos_as_xyz
  1  'x, y, z'
loop_
 _atom_site_type_symbol
 _atom_site_label
 _atom_site_symmetry_multiplicity
 _atom_site_fract_x
 _atom_site_fract_y
 _atom_site_fract_z
 _atom_site_occupancy
  Tb  Tb0  1  0.750000  0.750000  0.750000  1
  Zr  Zr1  1  0.250000  0.250000  0.250000  1
  P  P2  1  0.000000  0.000000  0.000000  1
  Rh  Rh3  1  0.734355  0.265646  0.265646  1
  Rh  Rh4  1  0.265646  0.734355  0.265646  1
  Rh  Rh5  1  0.734354  0.734354  0.265647  1
  Rh  Rh6  1  0.265646  0.265646  0.734355  1
  Rh  Rh7  1  0.734354  0.265647  0.734354  1
  Rh  Rh8  1  0.265647  0.734354  0.734354  1
