# generated using pymatgen
data_TbCePa(SnRh)3
_symmetry_space_group_name_H-M   'P 1'
_cell_length_a   7.44285568
_cell_length_b   7.57231380
_cell_length_c   4.00944600
_cell_angle_alpha   90.00000000
_cell_angle_beta   90.00000000
_cell_angle_gamma   120.58386174
_symmetry_Int_Tables_number   1
_chemical_formula_structural   TbCePa(SnRh)3
_chemical_formula_sum   'Tb1 Ce1 Pa1 Sn3 Rh3'
_cell_volume   194.53506665
_cell_formula_units_Z   1
loop_
 _symmetry_equiv_pos_site_id
 _symmetry_equiv_pos_as_xyz
  1  'x, y, z'
loop_
 _atom_site_type_symbol
 _atom_site_label
 _atom_site_symmetry_multiplicity
 _atom_site_fract_x
 _atom_site_fract_y
 _atom_site_fract_z
 _atom_site_occupancy
  Tb  Tb0  1  0.590942  0.591311  0.000000  1
  Ce  Ce1  1  0.412763  0.000668  0.000000  1
  Pa  Pa2  1  0.000002  0.415218  0.000000  1
  Sn  Sn3  1  0.266236  0.257432  0.500000  1
  Sn  Sn4  1  0.996030  0.754879  0.500000  1
  Sn  Sn5  1  0.736060  0.987344  0.500000  1
  Rh  Rh6  1  0.693529  0.331205  0.500000  1
  Rh  Rh7  1  0.303695  0.644195  0.500000  1
  Rh  Rh8  1  0.000744  0.017747  0.000000  1
