# generated using pymatgen
data_Yb4Ga18Ir5Au
_symmetry_space_group_name_H-M   'P 1'
_cell_length_a   7.58168753
_cell_length_b   7.58168825
_cell_length_c   9.65169849
_cell_angle_alpha   89.95766667
_cell_angle_beta   89.95766690
_cell_angle_gamma   119.23869639
_symmetry_Int_Tables_number   1
_chemical_formula_structural   Yb4Ga18Ir5Au
_chemical_formula_sum   'Yb4 Ga18 Ir5 Au1'
_cell_volume   484.11273559
_cell_formula_units_Z   1
loop_
 _symmetry_equiv_pos_site_id
 _symmetry_equiv_pos_as_xyz
  1  'x, y, z'
loop_
 _atom_site_type_symbol
 _atom_site_label
 _atom_site_symmetry_multiplicity
 _atom_site_fract_x
 _atom_site_fract_y
 _atom_site_fract_z
 _atom_site_occupancy
  Yb  Yb0  1  0.998724  0.673771  0.251791  1
  Yb  Yb1  1  0.001276  0.326229  0.748209  1
  Yb  Yb2  1  0.673771  0.998724  0.251791  1
  Yb  Yb3  1  0.326229  0.001276  0.748209  1
  Ga  Ga4  1  0.134861  0.134861  0.255714  1
  Ga  Ga5  1  0.865139  0.865139  0.744286  1
  Ga  Ga6  1  0.000088  0.344690  0.082448  1
  Ga  Ga7  1  0.999912  0.655310  0.917552  1
  Ga  Ga8  1  0.001276  0.664438  0.576188  1
  Ga  Ga9  1  0.335562  0.998724  0.423812  1
  Ga  Ga10  1  0.998724  0.335562  0.423812  1
  Ga  Ga11  1  0.664438  0.001276  0.576188  1
  Ga  Ga12  1  0.655310  0.999912  0.917552  1
  Ga  Ga13  1  0.344690  0.000088  0.082448  1
  Ga  Ga14  1  0.332182  0.332182  0.563681  1
  Ga  Ga15  1  0.667818  0.667818  0.436319  1
  Ga  Ga16  1  0.657156  0.657156  0.068802  1
  Ga  Ga17  1  0.342844  0.342844  0.931198  1
  Ga  Ga18  1  0.336174  0.548536  0.250766  1
  Ga  Ga19  1  0.663826  0.451464  0.749234  1
  Ga  Ga20  1  0.548536  0.336174  0.250766  1
  Ga  Ga21  1  0.451464  0.663826  0.749234  1
  Ir  Ir22  1  0.671376  0.328624  0.000000  1
  Ir  Ir23  1  0.328624  0.671376  0.000000  1
  Ir  Ir24  1  0.329331  0.670669  0.500000  1
  Ir  Ir25  1  0.670669  0.329331  0.500000  1
  Ir  Ir26  1  0.000000  0.000000  0.500000  1
  Au  Au27  1  0.000000  0.000000  0.000000  1
