# generated using pymatgen
data_Nd5RuRh
_symmetry_space_group_name_H-M   'P 1'
_cell_length_a   9.02036102
_cell_length_b   9.02036074
_cell_length_c   7.34819066
_cell_angle_alpha   83.66886321
_cell_angle_beta   83.66886579
_cell_angle_gamma   42.85557379
_symmetry_Int_Tables_number   1
_chemical_formula_structural   Nd5RuRh
_chemical_formula_sum   'Nd10 Ru2 Rh2'
_cell_volume   403.79946788
_cell_formula_units_Z   2
loop_
 _symmetry_equiv_pos_site_id
 _symmetry_equiv_pos_as_xyz
  1  'x, y, z'
loop_
 _atom_site_type_symbol
 _atom_site_label
 _atom_site_symmetry_multiplicity
 _atom_site_fract_x
 _atom_site_fract_y
 _atom_site_fract_z
 _atom_site_occupancy
  Nd  Nd0  1  0.010681  0.801324  0.918033  1
  Nd  Nd1  1  0.198676  0.989319  0.581967  1
  Nd  Nd2  1  0.982893  0.202593  0.086547  1
  Nd  Nd3  1  0.797407  0.017107  0.413453  1
  Nd  Nd4  1  0.361006  0.209346  0.814816  1
  Nd  Nd5  1  0.790654  0.638994  0.685184  1
  Nd  Nd6  1  0.645519  0.788860  0.187653  1
  Nd  Nd7  1  0.211140  0.354481  0.312347  1
  Nd  Nd8  1  0.571561  0.428439  0.750000  1
  Nd  Nd9  1  0.427027  0.572973  0.250000  1
  Ru  Ru10  1  0.820557  0.402506  0.427202  1
  Ru  Ru11  1  0.597494  0.179443  0.072798  1
  Rh  Rh12  1  0.180601  0.595217  0.575351  1
  Rh  Rh13  1  0.404783  0.819399  0.924649  1
