# generated using pymatgen
data_Lu4NbReOs6
_symmetry_space_group_name_H-M   'P 1'
_cell_length_a   5.36436855
_cell_length_b   5.38500954
_cell_length_c   8.88291500
_cell_angle_alpha   90.00000000
_cell_angle_beta   90.00000000
_cell_angle_gamma   121.80394808
_symmetry_Int_Tables_number   1
_chemical_formula_structural   Lu4NbReOs6
_chemical_formula_sum   'Lu4 Nb1 Re1 Os6'
_cell_volume   218.07512519
_cell_formula_units_Z   1
loop_
 _symmetry_equiv_pos_site_id
 _symmetry_equiv_pos_as_xyz
  1  'x, y, z'
loop_
 _atom_site_type_symbol
 _atom_site_label
 _atom_site_symmetry_multiplicity
 _atom_site_fract_x
 _atom_site_fract_y
 _atom_site_fract_z
 _atom_site_occupancy
  Lu  Lu0  1  0.338052  0.667325  0.439477  1
  Lu  Lu1  1  0.668643  0.338847  0.567512  1
  Lu  Lu2  1  0.668643  0.338847  0.932488  1
  Lu  Lu3  1  0.338052  0.667325  0.060523  1
  Nb  Nb4  1  0.333389  0.161430  0.250000  1
  Re  Re5  1  0.169471  0.337540  0.750000  1
  Os  Os6  1  0.171090  0.821522  0.750000  1
  Os  Os7  1  0.828761  0.649518  0.250000  1
  Os  Os8  1  0.650172  0.820763  0.750000  1
  Os  Os9  1  0.001920  0.012512  0.995357  1
  Os  Os10  1  0.829886  0.171863  0.250000  1
  Os  Os11  1  0.001920  0.012512  0.504643  1
