# generated using pymatgen
data_Sr8Be3Si13
_symmetry_space_group_name_H-M   'P 1'
_cell_length_a   8.06386400
_cell_length_b   8.06386480
_cell_length_c   9.45528100
_cell_angle_alpha   90.00000000
_cell_angle_beta   90.00000000
_cell_angle_gamma   119.99999672
_symmetry_Int_Tables_number   1
_chemical_formula_structural   Sr8Be3Si13
_chemical_formula_sum   'Sr8 Be3 Si13'
_cell_volume   532.46555476
_cell_formula_units_Z   1
loop_
 _symmetry_equiv_pos_site_id
 _symmetry_equiv_pos_as_xyz
  1  'x, y, z'
loop_
 _atom_site_type_symbol
 _atom_site_label
 _atom_site_symmetry_multiplicity
 _atom_site_fract_x
 _atom_site_fract_y
 _atom_site_fract_z
 _atom_site_occupancy
  Sr  Sr0  1  0.000000  0.000000  0.253050  1
  Sr  Sr1  1  0.000000  0.000000  0.746912  1
  Sr  Sr2  1  0.498928  0.501072  0.249297  1
  Sr  Sr3  1  0.498928  0.997855  0.249297  1
  Sr  Sr4  1  0.002145  0.501072  0.249297  1
  Sr  Sr5  1  0.498875  0.501125  0.750735  1
  Sr  Sr6  1  0.498875  0.997751  0.750735  1
  Sr  Sr7  1  0.002249  0.501125  0.750735  1
  Be  Be8  1  0.333333  0.666667  0.499442  1
  Be  Be9  1  0.666667  0.333333  0.500132  1
  Be  Be10  1  0.666667  0.333333  0.000069  1
  Si  Si11  1  0.171798  0.828202  0.499979  1
  Si  Si12  1  0.171798  0.343596  0.499979  1
  Si  Si13  1  0.656404  0.828202  0.499979  1
  Si  Si14  1  0.827910  0.172090  0.500059  1
  Si  Si15  1  0.827910  0.655818  0.500059  1
  Si  Si16  1  0.344182  0.172090  0.500059  1
  Si  Si17  1  0.826050  0.173950  0.000084  1
  Si  Si18  1  0.826050  0.652099  0.000084  1
  Si  Si19  1  0.347901  0.173950  0.000084  1
  Si  Si20  1  0.163692  0.836308  0.999870  1
  Si  Si21  1  0.163692  0.327385  0.999870  1
  Si  Si22  1  0.672615  0.836308  0.999870  1
  Si  Si23  1  0.333333  0.666667  0.000328  1
