# generated using pymatgen
data_Sr2NdY(Ir2O7)2
_symmetry_space_group_name_H-M   'P 1'
_cell_length_a   7.39039457
_cell_length_b   7.37919409
_cell_length_c   7.40560059
_cell_angle_alpha   60.11788292
_cell_angle_beta   59.98447319
_cell_angle_gamma   60.05011575
_symmetry_Int_Tables_number   1
_chemical_formula_structural   Sr2NdY(Ir2O7)2
_chemical_formula_sum   'Sr2 Nd1 Y1 Ir4 O14'
_cell_volume   285.90428351
_cell_formula_units_Z   1
loop_
 _symmetry_equiv_pos_site_id
 _symmetry_equiv_pos_as_xyz
  1  'x, y, z'
loop_
 _atom_site_type_symbol
 _atom_site_label
 _atom_site_symmetry_multiplicity
 _atom_site_fract_x
 _atom_site_fract_y
 _atom_site_fract_z
 _atom_site_occupancy
  Sr  Sr0  1  0.125000  0.625000  0.125000  1
  Sr  Sr1  1  0.125000  0.125000  0.125000  1
  Nd  Nd2  1  0.125000  0.125000  0.625000  1
  Y  Y3  1  0.625000  0.125000  0.125000  1
  Ir  Ir4  1  0.125000  0.625000  0.625000  1
  Ir  Ir5  1  0.625000  0.125000  0.625000  1
  Ir  Ir6  1  0.625000  0.625000  0.125000  1
  Ir  Ir7  1  0.625000  0.625000  0.625000  1
  O  O8  1  0.688393  0.713972  0.299774  1
  O  O9  1  0.300653  0.297981  0.693084  1
  O  O10  1  0.698328  0.297887  0.705898  1
  O  O11  1  0.303178  0.697291  0.302241  1
  O  O12  1  0.300653  0.708283  0.693084  1
  O  O13  1  0.688393  0.297861  0.299774  1
  O  O14  1  0.561607  0.536028  0.950226  1
  O  O15  1  0.949347  0.952019  0.556916  1
  O  O16  1  0.551672  0.952113  0.544102  1
  O  O17  1  0.946822  0.552709  0.947759  1
  O  O18  1  0.949347  0.541717  0.556916  1
  O  O19  1  0.561607  0.952139  0.950226  1
  O  O20  1  0.269997  0.237748  0.254507  1
  O  O21  1  0.980003  0.012252  0.995493  1
