# generated using pymatgen
data_Dy20Si15Pd
_symmetry_space_group_name_H-M   'P 1'
_cell_length_a   7.46142997
_cell_length_b   7.68871784
_cell_length_c   14.61528451
_cell_angle_alpha   89.74506294
_cell_angle_beta   89.60812512
_cell_angle_gamma   90.18987466
_symmetry_Int_Tables_number   1
_chemical_formula_structural   Dy20Si15Pd
_chemical_formula_sum   'Dy20 Si15 Pd1'
_cell_volume   838.42916826
_cell_formula_units_Z   1
loop_
 _symmetry_equiv_pos_site_id
 _symmetry_equiv_pos_as_xyz
  1  'x, y, z'
loop_
 _atom_site_type_symbol
 _atom_site_label
 _atom_site_symmetry_multiplicity
 _atom_site_fract_x
 _atom_site_fract_y
 _atom_site_fract_z
 _atom_site_occupancy
  Dy  Dy0  1  0.648268  0.991285  0.249286  1
  Dy  Dy1  1  0.148906  0.510992  0.247975  1
  Dy  Dy2  1  0.847550  0.488911  0.754434  1
  Dy  Dy3  1  0.350861  0.011177  0.750873  1
  Dy  Dy4  1  0.974326  0.819475  0.099324  1
  Dy  Dy5  1  0.471214  0.682811  0.401583  1
  Dy  Dy6  1  0.526024  0.319117  0.899381  1
  Dy  Dy7  1  0.029357  0.183267  0.599246  1
  Dy  Dy8  1  0.029339  0.180844  0.900512  1
  Dy  Dy9  1  0.529811  0.317233  0.598799  1
  Dy  Dy10  1  0.472628  0.682573  0.099808  1
  Dy  Dy11  1  0.969585  0.816960  0.400615  1
  Dy  Dy12  1  0.679252  0.818095  0.879588  1
  Dy  Dy13  1  0.180239  0.680684  0.621912  1
  Dy  Dy14  1  0.819055  0.329330  0.120330  1
  Dy  Dy15  1  0.317541  0.178383  0.376786  1
  Dy  Dy16  1  0.321654  0.178914  0.123235  1
  Dy  Dy17  1  0.819495  0.319623  0.377457  1
  Dy  Dy18  1  0.179044  0.675795  0.878023  1
  Dy  Dy19  1  0.682051  0.819832  0.622695  1
  Si  Si20  1  0.764867  0.628107  0.251672  1
  Si  Si21  1  0.265858  0.872976  0.251041  1
  Si  Si22  1  0.733224  0.125165  0.748829  1
  Si  Si23  1  0.232741  0.373331  0.747023  1
  Si  Si24  1  0.021237  0.105323  0.249708  1
  Si  Si25  1  0.523792  0.396203  0.251654  1
  Si  Si26  1  0.473627  0.604711  0.747478  1
  Si  Si27  1  0.976790  0.895102  0.748428  1
  Si  Si28  1  0.354521  0.971571  0.540128  1
  Si  Si29  1  0.647669  0.027878  0.041672  1
  Si  Si30  1  0.147063  0.470277  0.460079  1
  Si  Si31  1  0.156744  0.471829  0.041870  1
  Si  Si32  1  0.644920  0.028496  0.459551  1
  Si  Si33  1  0.352686  0.969955  0.960437  1
  Si  Si34  1  0.855052  0.529090  0.539116  1
  Pd  Pd35  1  0.853006  0.524688  0.959453  1
