# generated using pymatgen
data_TbDy5YFeI12
_symmetry_space_group_name_H-M   'P 1'
_cell_length_a   9.77064589
_cell_length_b   9.77917630
_cell_length_c   9.71907169
_cell_angle_alpha   107.00876779
_cell_angle_beta   106.81485598
_cell_angle_gamma   107.01175590
_symmetry_Int_Tables_number   1
_chemical_formula_structural   TbDy5YFeI12
_chemical_formula_sum   'Tb1 Dy5 Y1 Fe1 I12'
_cell_volume   774.53796103
_cell_formula_units_Z   1
loop_
 _symmetry_equiv_pos_site_id
 _symmetry_equiv_pos_as_xyz
  1  'x, y, z'
loop_
 _atom_site_type_symbol
 _atom_site_label
 _atom_site_symmetry_multiplicity
 _atom_site_fract_x
 _atom_site_fract_y
 _atom_site_fract_z
 _atom_site_occupancy
  Tb  Tb0  1  0.020611  0.088702  0.280619  1
  Dy  Dy1  1  0.708533  0.977859  0.907641  1
  Dy  Dy2  1  0.979482  0.911794  0.720908  1
  Dy  Dy3  1  0.092969  0.291567  0.021191  1
  Dy  Dy4  1  0.291206  0.021907  0.091876  1
  Dy  Dy5  1  0.906913  0.708246  0.978833  1
  Y  Y6  1  0.500109  0.500006  0.499870  1
  Fe  Fe7  1  0.999907  0.000105  0.000508  1
  I  I8  1  0.071293  0.223983  0.679959  1
  I  I9  1  0.384213  0.159917  0.461513  1
  I  I10  1  0.617089  0.840250  0.538469  1
  I  I11  1  0.225801  0.679043  0.071950  1
  I  I12  1  0.774196  0.320930  0.927845  1
  I  I13  1  0.679909  0.072645  0.226367  1
  I  I14  1  0.537415  0.614792  0.840640  1
  I  I15  1  0.840984  0.540385  0.615278  1
  I  I16  1  0.928479  0.774811  0.320142  1
  I  I17  1  0.318703  0.927007  0.772621  1
  I  I18  1  0.462435  0.385061  0.159035  1
  I  I19  1  0.159752  0.460989  0.384736  1
