# generated using pymatgen
data_CeSm5MnBr10
_symmetry_space_group_name_H-M   'P 1'
_cell_length_a   7.52668413
_cell_length_b   9.30169787
_cell_length_c   9.47106800
_cell_angle_alpha   108.34477208
_cell_angle_beta   97.04547440
_cell_angle_gamma   105.11496520
_symmetry_Int_Tables_number   1
_chemical_formula_structural   CeSm5MnBr10
_chemical_formula_sum   'Ce1 Sm5 Mn1 Br10'
_cell_volume   592.24848082
_cell_formula_units_Z   1
loop_
 _symmetry_equiv_pos_site_id
 _symmetry_equiv_pos_as_xyz
  1  'x, y, z'
loop_
 _atom_site_type_symbol
 _atom_site_label
 _atom_site_symmetry_multiplicity
 _atom_site_fract_x
 _atom_site_fract_y
 _atom_site_fract_z
 _atom_site_occupancy
  Ce  Ce0  1  0.030313  0.742134  0.421041  1
  Sm  Sm1  1  0.965905  0.273502  0.582902  1
  Sm  Sm2  1  0.872229  0.947434  0.750375  1
  Sm  Sm3  1  0.130279  0.051552  0.250658  1
  Sm  Sm4  1  0.367339  0.137758  0.683480  1
  Sm  Sm5  1  0.632298  0.860552  0.315548  1
  Mn  Mn6  1  0.004808  0.971462  0.491808  1
  Br  Br7  1  0.453714  0.824852  0.584818  1
  Br  Br8  1  0.552189  0.180277  0.418653  1
  Br  Br9  1  0.911242  0.631370  0.674709  1
  Br  Br10  1  0.082886  0.371132  0.331716  1
  Br  Br11  1  0.251926  0.087765  0.956755  1
  Br  Br12  1  0.749850  0.919436  0.046420  1
  Br  Br13  1  0.342652  0.449729  0.769989  1
  Br  Br14  1  0.647017  0.547534  0.226235  1
  Br  Br15  1  0.793375  0.253551  0.844361  1
  Br  Br16  1  0.211979  0.749959  0.150529  1
