# generated using pymatgen
data_PrTm4Mn2O12
_symmetry_space_group_name_H-M   'P 1'
_cell_length_a   6.82057185
_cell_length_b   6.82057144
_cell_length_c   7.24988311
_cell_angle_alpha   74.64884137
_cell_angle_beta   74.64884253
_cell_angle_gamma   49.54381257
_symmetry_Int_Tables_number   1
_chemical_formula_structural   PrTm4Mn2O12
_chemical_formula_sum   'Pr1 Tm4 Mn2 O12'
_cell_volume   245.47649467
_cell_formula_units_Z   1
loop_
 _symmetry_equiv_pos_site_id
 _symmetry_equiv_pos_as_xyz
  1  'x, y, z'
loop_
 _atom_site_type_symbol
 _atom_site_label
 _atom_site_symmetry_multiplicity
 _atom_site_fract_x
 _atom_site_fract_y
 _atom_site_fract_z
 _atom_site_occupancy
  Pr  Pr0  1  0.000000  0.000000  0.500000  1
  Tm  Tm1  1  0.305802  0.305802  0.356221  1
  Tm  Tm2  1  0.694198  0.694198  0.643779  1
  Tm  Tm3  1  0.695097  0.695097  0.162423  1
  Tm  Tm4  1  0.304903  0.304903  0.837577  1
  Mn  Mn5  1  0.752266  0.247734  0.000000  1
  Mn  Mn6  1  0.247734  0.752266  0.000000  1
  O  O7  1  0.095195  0.583224  0.581560  1
  O  O8  1  0.999152  0.999152  0.173758  1
  O  O9  1  0.416776  0.904805  0.418440  1
  O  O10  1  0.500309  0.500309  0.184295  1
  O  O11  1  0.100732  0.576137  0.079210  1
  O  O12  1  0.904805  0.416776  0.418440  1
  O  O13  1  0.000848  0.000848  0.826242  1
  O  O14  1  0.583224  0.095194  0.581560  1
  O  O15  1  0.499691  0.499691  0.815705  1
  O  O16  1  0.576137  0.100732  0.079210  1
  O  O17  1  0.423863  0.899268  0.920790  1
  O  O18  1  0.899268  0.423863  0.920790  1
