# generated using pymatgen
data_La3Cu5(Ni4B)2
_symmetry_space_group_name_H-M   'P 1'
_cell_length_a   5.14864456
_cell_length_b   5.12656244
_cell_length_c   10.90621407
_cell_angle_alpha   89.99572517
_cell_angle_beta   90.00852413
_cell_angle_gamma   120.14257708
_symmetry_Int_Tables_number   1
_chemical_formula_structural   La3Cu5(Ni4B)2
_chemical_formula_sum   'La3 Cu5 Ni8 B2'
_cell_volume   248.94193531
_cell_formula_units_Z   1
loop_
 _symmetry_equiv_pos_site_id
 _symmetry_equiv_pos_as_xyz
  1  'x, y, z'
loop_
 _atom_site_type_symbol
 _atom_site_label
 _atom_site_symmetry_multiplicity
 _atom_site_fract_x
 _atom_site_fract_y
 _atom_site_fract_z
 _atom_site_occupancy
  La  La0  1  0.000003  0.000000  0.000039  1
  La  La1  1  0.999958  0.000000  0.327306  1
  La  La2  1  0.000033  0.000000  0.672707  1
  Cu  Cu3  1  0.500011  0.000000  0.499969  1
  Cu  Cu4  1  0.331978  0.664012  0.315757  1
  Cu  Cu5  1  0.667966  0.335988  0.315757  1
  Cu  Cu6  1  0.667973  0.335925  0.684223  1
  Cu  Cu7  1  0.332048  0.664075  0.684223  1
  Ni  Ni8  1  0.499962  0.499976  0.499987  1
  Ni  Ni9  1  0.999986  0.500024  0.499987  1
  Ni  Ni10  1  0.500093  0.000000  0.128669  1
  Ni  Ni11  1  0.500072  0.500011  0.128846  1
  Ni  Ni12  1  0.000061  0.499989  0.128846  1
  Ni  Ni13  1  0.499899  0.000000  0.871347  1
  Ni  Ni14  1  0.499927  0.499993  0.871160  1
  Ni  Ni15  1  0.999934  0.500007  0.871160  1
  B  B16  1  0.333087  0.666175  0.000006  1
  B  B17  1  0.666912  0.333825  0.000006  1
