# generated using pymatgen
data_Ti16Ir5Pt3O4
_symmetry_space_group_name_H-M   'P 1'
_cell_length_a   8.25442077
_cell_length_b   8.26096993
_cell_length_c   8.25739500
_cell_angle_alpha   60.01431021
_cell_angle_beta   59.98807600
_cell_angle_gamma   59.97425971
_symmetry_Int_Tables_number   1
_chemical_formula_structural   Ti16Ir5Pt3O4
_chemical_formula_sum   'Ti16 Ir5 Pt3 O4'
_cell_volume   398.07869464
_cell_formula_units_Z   1
loop_
 _symmetry_equiv_pos_site_id
 _symmetry_equiv_pos_as_xyz
  1  'x, y, z'
loop_
 _atom_site_type_symbol
 _atom_site_label
 _atom_site_symmetry_multiplicity
 _atom_site_fract_x
 _atom_site_fract_y
 _atom_site_fract_z
 _atom_site_occupancy
  Ti  Ti0  1  0.817862  0.185550  0.817034  1
  Ti  Ti1  1  0.186841  0.816898  0.178949  1
  Ti  Ti2  1  0.431507  0.071177  0.432282  1
  Ti  Ti3  1  0.431507  0.071177  0.065033  1
  Ti  Ti4  1  0.066856  0.432284  0.432333  1
  Ti  Ti5  1  0.066856  0.432284  0.068528  1
  Ti  Ti6  1  0.183972  0.182023  0.817003  1
  Ti  Ti7  1  0.431551  0.432389  0.068030  1
  Ti  Ti8  1  0.127405  0.618662  0.626967  1
  Ti  Ti9  1  0.625128  0.621172  0.124723  1
  Ti  Ti10  1  0.625128  0.621172  0.628977  1
  Ti  Ti11  1  0.620566  0.130966  0.624233  1
  Ti  Ti12  1  0.186841  0.816898  0.817310  1
  Ti  Ti13  1  0.817862  0.185550  0.179554  1
  Ti  Ti14  1  0.063764  0.071636  0.432300  1
  Ti  Ti15  1  0.817913  0.816946  0.182570  1
  Ir  Ir16  1  0.472803  0.842673  0.842263  1
  Ir  Ir17  1  0.407338  0.406990  0.406680  1
  Ir  Ir18  1  0.407338  0.406990  0.778991  1
  Ir  Ir19  1  0.842760  0.470651  0.843295  1
  Ir  Ir20  1  0.777115  0.407710  0.407588  1
  Pt  Pt21  1  0.408449  0.775359  0.408095  1
  Pt  Pt22  1  0.841372  0.842252  0.474944  1
  Pt  Pt23  1  0.841372  0.842252  0.841432  1
  O  O24  1  0.125038  0.124398  0.625154  1
  O  O25  1  0.624994  0.124638  0.125185  1
  O  O26  1  0.125038  0.124398  0.125409  1
  O  O27  1  0.124826  0.624901  0.125136  1
