# generated using pymatgen
data_Tb4Yb7In9PdPt3
_symmetry_space_group_name_H-M   'P 1'
_cell_length_a   13.32783706
_cell_length_b   13.35248816
_cell_length_c   3.71405400
_cell_angle_alpha   90.00000000
_cell_angle_beta   90.00000000
_cell_angle_gamma   112.73448420
_symmetry_Int_Tables_number   1
_chemical_formula_structural   Tb4Yb7In9PdPt3
_chemical_formula_sum   'Tb4 Yb7 In9 Pd1 Pt3'
_cell_volume   609.60000795
_cell_formula_units_Z   1
loop_
 _symmetry_equiv_pos_site_id
 _symmetry_equiv_pos_as_xyz
  1  'x, y, z'
loop_
 _atom_site_type_symbol
 _atom_site_label
 _atom_site_symmetry_multiplicity
 _atom_site_fract_x
 _atom_site_fract_y
 _atom_site_fract_z
 _atom_site_occupancy
  Tb  Tb0  1  0.378622  0.621213  0.000000  1
  Tb  Tb1  1  0.619491  0.376725  0.000000  1
  Tb  Tb2  1  0.311858  0.312057  0.000000  1
  Tb  Tb3  1  0.687094  0.689782  0.000000  1
  Yb  Yb4  1  0.412836  0.071066  0.000000  1
  Yb  Yb5  1  0.587169  0.928809  0.000000  1
  Yb  Yb6  1  0.071034  0.412848  0.000000  1
  Yb  Yb7  1  0.929691  0.587382  0.000000  1
  Yb  Yb8  1  0.158966  0.841320  0.000000  1
  Yb  Yb9  1  0.841052  0.158484  0.000000  1
  Yb  Yb10  1  0.000146  0.000267  0.000000  1
  In  In11  1  0.369517  0.836410  0.500000  1
  In  In12  1  0.630655  0.163489  0.500000  1
  In  In13  1  0.836467  0.369505  0.500000  1
  In  In14  1  0.163367  0.630381  0.500000  1
  In  In15  1  0.217872  0.078309  0.500000  1
  In  In16  1  0.782171  0.921414  0.500000  1
  In  In17  1  0.078257  0.217933  0.500000  1
  In  In18  1  0.921496  0.781825  0.500000  1
  In  In19  1  0.500463  0.500155  0.500000  1
  Pd  Pd20  1  0.753568  0.551227  0.500000  1
  Pt  Pt21  1  0.449585  0.247891  0.500000  1
  Pt  Pt22  1  0.551623  0.752841  0.500000  1
  Pt  Pt23  1  0.247001  0.448665  0.500000  1
