# generated using pymatgen
data_Na5Si4P8Ir19
_symmetry_space_group_name_H-M   'P 1'
_cell_length_a   12.67949715
_cell_length_b   12.63030973
_cell_length_c   3.95927400
_cell_angle_alpha   90.00000000
_cell_angle_beta   90.00000000
_cell_angle_gamma   120.10179160
_symmetry_Int_Tables_number   1
_chemical_formula_structural   Na5Si4P8Ir19
_chemical_formula_sum   'Na5 Si4 P8 Ir19'
_cell_volume   548.54952321
_cell_formula_units_Z   1
loop_
 _symmetry_equiv_pos_site_id
 _symmetry_equiv_pos_as_xyz
  1  'x, y, z'
loop_
 _atom_site_type_symbol
 _atom_site_label
 _atom_site_symmetry_multiplicity
 _atom_site_fract_x
 _atom_site_fract_y
 _atom_site_fract_z
 _atom_site_occupancy
  Na  Na0  1  0.332980  0.666397  0.500000  1
  Na  Na1  1  0.668522  0.333864  0.500000  1
  Na  Na2  1  0.177497  0.179004  0.000000  1
  Na  Na3  1  0.818684  0.997649  0.000000  1
  Na  Na4  1  0.002029  0.823086  0.000000  1
  Si  Si5  1  0.317381  0.834958  0.000000  1
  Si  Si6  1  0.165432  0.481153  0.000000  1
  Si  Si7  1  0.516428  0.681510  0.000000  1
  Si  Si8  1  0.829109  0.312963  0.000000  1
  P  P9  1  0.486520  0.177792  0.000000  1
  P  P10  1  0.693268  0.517201  0.000000  1
  P  P11  1  0.360933  0.365708  0.500000  1
  P  P12  1  0.633162  0.996367  0.500000  1
  P  P13  1  0.002575  0.636152  0.500000  1
  P  P14  1  0.820745  0.820638  0.500000  1
  P  P15  1  0.182121  0.004423  0.500000  1
  P  P16  1  0.995555  0.175604  0.500000  1
  Ir  Ir17  1  0.191983  0.820905  0.500000  1
  Ir  Ir18  1  0.178135  0.371627  0.500000  1
  Ir  Ir19  1  0.626389  0.806128  0.500000  1
  Ir  Ir20  1  0.811519  0.189051  0.500000  1
  Ir  Ir21  1  0.382138  0.188929  0.500000  1
  Ir  Ir22  1  0.805988  0.621987  0.500000  1
  Ir  Ir23  1  0.128058  0.644229  0.000000  1
  Ir  Ir24  1  0.354455  0.479198  0.000000  1
  Ir  Ir25  1  0.517480  0.872228  0.000000  1
  Ir  Ir26  1  0.634749  0.128829  0.000000  1
  Ir  Ir27  1  0.496681  0.365575  0.000000  1
  Ir  Ir28  1  0.874663  0.516216  0.000000  1
  Ir  Ir29  1  0.542398  0.548127  0.500000  1
  Ir  Ir30  1  0.450076  0.993966  0.500000  1
  Ir  Ir31  1  0.998675  0.451091  0.500000  1
  Ir  Ir32  1  0.717165  0.711734  0.000000  1
  Ir  Ir33  1  0.290244  0.008602  0.000000  1
  Ir  Ir34  1  0.995667  0.278202  0.000000  1
  Ir  Ir35  1  0.000590  0.998903  0.500000  1
