# generated using pymatgen
data_TbDy3(Si2Os)2
_symmetry_space_group_name_H-M   'P 1'
_cell_length_a   5.74583207
_cell_length_b   5.74583153
_cell_length_c   10.06084634
_cell_angle_alpha   116.93971588
_cell_angle_beta   116.93971404
_cell_angle_gamma   43.14492050
_symmetry_Int_Tables_number   1
_chemical_formula_structural   TbDy3(Si2Os)2
_chemical_formula_sum   'Tb1 Dy3 Si4 Os2'
_cell_volume   198.36427934
_cell_formula_units_Z   1
loop_
 _symmetry_equiv_pos_site_id
 _symmetry_equiv_pos_as_xyz
  1  'x, y, z'
loop_
 _atom_site_type_symbol
 _atom_site_label
 _atom_site_symmetry_multiplicity
 _atom_site_fract_x
 _atom_site_fract_y
 _atom_site_fract_z
 _atom_site_occupancy
  Tb  Tb0  1  0.185780  0.185780  0.110819  1
  Dy  Dy1  1  0.992119  0.992119  0.321463  1
  Dy  Dy2  1  0.007961  0.007961  0.678749  1
  Dy  Dy3  1  0.814793  0.814793  0.888351  1
  Si  Si4  1  0.497022  0.497022  0.124740  1
  Si  Si5  1  0.355124  0.355124  0.439419  1
  Si  Si6  1  0.644981  0.644981  0.561095  1
  Si  Si7  1  0.502363  0.502363  0.874894  1
  Os  Os8  1  0.728433  0.728433  0.373635  1
  Os  Os9  1  0.271424  0.271424  0.626837  1
