# generated using pymatgen
data_Tb9Tm3In20
_symmetry_space_group_name_H-M   'P 1'
_cell_length_a   6.54676764
_cell_length_b   10.41972500
_cell_length_c   12.25353705
_cell_angle_alpha   90.00000000
_cell_angle_beta   89.97975684
_cell_angle_gamma   90.00000000
_symmetry_Int_Tables_number   1
_chemical_formula_structural   Tb9Tm3In20
_chemical_formula_sum   'Tb9 Tm3 In20'
_cell_volume   835.88133055
_cell_formula_units_Z   1
loop_
 _symmetry_equiv_pos_site_id
 _symmetry_equiv_pos_as_xyz
  1  'x, y, z'
loop_
 _atom_site_type_symbol
 _atom_site_label
 _atom_site_symmetry_multiplicity
 _atom_site_fract_x
 _atom_site_fract_y
 _atom_site_fract_z
 _atom_site_occupancy
  Tb  Tb0  1  0.852211  0.750000  0.055650  1
  Tb  Tb1  1  0.889319  0.509688  0.358404  1
  Tb  Tb2  1  0.610252  0.990890  0.858068  1
  Tb  Tb3  1  0.111015  0.010101  0.641311  1
  Tb  Tb4  1  0.388859  0.490575  0.141447  1
  Tb  Tb5  1  0.111015  0.489899  0.641311  1
  Tb  Tb6  1  0.388859  0.009425  0.141447  1
  Tb  Tb7  1  0.889319  0.990312  0.358404  1
  Tb  Tb8  1  0.610252  0.509110  0.858068  1
  Tm  Tm9  1  0.648846  0.750000  0.554926  1
  Tm  Tm10  1  0.148785  0.250000  0.944678  1
  Tm  Tm11  1  0.350968  0.250000  0.444890  1
  In  In12  1  0.872589  0.044562  0.098814  1
  In  In13  1  0.627300  0.456793  0.598903  1
  In  In14  1  0.127256  0.543095  0.900791  1
  In  In15  1  0.372822  0.956793  0.401168  1
  In  In16  1  0.127256  0.956905  0.900791  1
  In  In17  1  0.372822  0.543207  0.401168  1
  In  In18  1  0.872589  0.455438  0.098814  1
  In  In19  1  0.627300  0.043207  0.598903  1
  In  In20  1  0.154895  0.750000  0.244854  1
  In  In21  1  0.347242  0.750000  0.743025  1
  In  In22  1  0.847301  0.250000  0.756428  1
  In  In23  1  0.652481  0.250000  0.256789  1
  In  In24  1  0.384585  0.750000  0.006485  1
  In  In25  1  0.113495  0.750000  0.507428  1
  In  In26  1  0.613203  0.250000  0.993304  1
  In  In27  1  0.886637  0.250000  0.493059  1
  In  In28  1  0.622271  0.750000  0.283577  1
  In  In29  1  0.877644  0.750000  0.781629  1
  In  In30  1  0.378258  0.250000  0.717702  1
  In  In31  1  0.122352  0.250000  0.217760  1
