# generated using pymatgen
data_Eu6Cr3RuC12
_symmetry_space_group_name_H-M   'P 1'
_cell_length_a   8.46803700
_cell_length_b   8.46803834
_cell_length_c   5.18383200
_cell_angle_alpha   90.00000000
_cell_angle_beta   90.00000000
_cell_angle_gamma   119.99999085
_symmetry_Int_Tables_number   1
_chemical_formula_structural   Eu6Cr3RuC12
_chemical_formula_sum   'Eu6 Cr3 Ru1 C12'
_cell_volume   321.91940230
_cell_formula_units_Z   1
loop_
 _symmetry_equiv_pos_site_id
 _symmetry_equiv_pos_as_xyz
  1  'x, y, z'
loop_
 _atom_site_type_symbol
 _atom_site_label
 _atom_site_symmetry_multiplicity
 _atom_site_fract_x
 _atom_site_fract_y
 _atom_site_fract_z
 _atom_site_occupancy
  Eu  Eu0  1  0.613200  0.695904  0.750000  1
  Eu  Eu1  1  0.919340  0.614953  0.250000  1
  Eu  Eu2  1  0.695612  0.080660  0.250000  1
  Eu  Eu3  1  0.304096  0.917296  0.750000  1
  Eu  Eu4  1  0.082704  0.386800  0.750000  1
  Eu  Eu5  1  0.385047  0.304388  0.250000  1
  Cr  Cr6  1  0.000000  0.000000  0.505068  1
  Cr  Cr7  1  0.000000  0.000000  0.994932  1
  Cr  Cr8  1  0.666667  0.333333  0.750000  1
  Ru  Ru9  1  0.333333  0.666667  0.250000  1
  C  C10  1  0.944307  0.771284  0.750000  1
  C  C11  1  0.174472  0.947976  0.250000  1
  C  C12  1  0.773505  0.825528  0.250000  1
  C  C13  1  0.228716  0.173025  0.750000  1
  C  C14  1  0.826975  0.055693  0.750000  1
  C  C15  1  0.052024  0.226495  0.250000  1
  C  C16  1  0.849858  0.583418  0.750000  1
  C  C17  1  0.268589  0.857961  0.250000  1
  C  C18  1  0.589371  0.731411  0.250000  1
  C  C19  1  0.416582  0.266440  0.750000  1
  C  C20  1  0.142039  0.410629  0.250000  1
  C  C21  1  0.733560  0.150142  0.750000  1
