# generated using pymatgen
data_Pr12FeIrBr17
_symmetry_space_group_name_H-M   'P 1'
_cell_length_a   9.66482823
_cell_length_b   11.56533528
_cell_length_c   11.64623472
_cell_angle_alpha   93.55316217
_cell_angle_beta   104.81590792
_cell_angle_gamma   114.52797078
_symmetry_Int_Tables_number   1
_chemical_formula_structural   Pr12FeIrBr17
_chemical_formula_sum   'Pr12 Fe1 Ir1 Br17'
_cell_volume   1123.81647879
_cell_formula_units_Z   1
loop_
 _symmetry_equiv_pos_site_id
 _symmetry_equiv_pos_as_xyz
  1  'x, y, z'
loop_
 _atom_site_type_symbol
 _atom_site_label
 _atom_site_symmetry_multiplicity
 _atom_site_fract_x
 _atom_site_fract_y
 _atom_site_fract_z
 _atom_site_occupancy
  Pr  Pr0  1  0.059158  0.515740  0.321402  1
  Pr  Pr1  1  0.979705  0.811210  0.570658  1
  Pr  Pr2  1  0.640742  0.238644  0.286869  1
  Pr  Pr3  1  0.018501  0.192056  0.422047  1
  Pr  Pr4  1  0.234033  0.670821  0.001055  1
  Pr  Pr5  1  0.264008  0.001193  0.895216  1
  Pr  Pr6  1  0.366766  0.762095  0.709640  1
  Pr  Pr7  1  0.934293  0.475171  0.674996  1
  Pr  Pr8  1  0.741648  0.008406  0.108406  1
  Pr  Pr9  1  0.155214  0.286702  0.147947  1
  Pr  Pr10  1  0.770463  0.327122  0.006308  1
  Pr  Pr11  1  0.836462  0.711535  0.855050  1
  Fe  Fe12  1  0.896014  0.261174  0.213984  1
  Ir  Ir13  1  0.104047  0.738843  0.785951  1
  Br  Br14  1  0.792997  0.525591  0.422790  1
  Br  Br15  1  0.648347  0.424699  0.759354  1
  Br  Br16  1  0.847086  0.901930  0.326397  1
  Br  Br17  1  0.319845  0.214125  0.364084  1
  Br  Br18  1  0.152489  0.097372  0.673995  1
  Br  Br19  1  0.583433  0.048927  0.850445  1
  Br  Br20  1  0.759768  0.183848  0.533416  1
  Br  Br21  1  0.542025  0.706519  0.947619  1
  Br  Br22  1  0.352265  0.575834  0.240974  1
  Br  Br23  1  0.207187  0.474856  0.578172  1
  Br  Br24  1  0.053937  0.374005  0.901660  1
  Br  Br25  1  0.457794  0.293157  0.051952  1
  Br  Br26  1  0.000023  0.999527  0.999543  1
  Br  Br27  1  0.240090  0.815811  0.466841  1
  Br  Br28  1  0.415379  0.950301  0.149031  1
  Br  Br29  1  0.679418  0.786088  0.635881  1
  Br  Br30  1  0.946861  0.626695  0.098319  1
