# generated using pymatgen
data_Dy5(Th3Ru2)3
_symmetry_space_group_name_H-M   'P 1'
_cell_length_a   9.77192823
_cell_length_b   9.90223281
_cell_length_c   6.35892542
_cell_angle_alpha   90.19981862
_cell_angle_beta   90.18988682
_cell_angle_gamma   120.40233338
_symmetry_Int_Tables_number   1
_chemical_formula_structural   Dy5(Th3Ru2)3
_chemical_formula_sum   'Dy5 Th9 Ru6'
_cell_volume   530.69203607
_cell_formula_units_Z   1
loop_
 _symmetry_equiv_pos_site_id
 _symmetry_equiv_pos_as_xyz
  1  'x, y, z'
loop_
 _atom_site_type_symbol
 _atom_site_label
 _atom_site_symmetry_multiplicity
 _atom_site_fract_x
 _atom_site_fract_y
 _atom_site_fract_z
 _atom_site_occupancy
  Dy  Dy0  1  0.459754  0.536267  0.299061  1
  Dy  Dy1  1  0.073749  0.535900  0.301019  1
  Dy  Dy2  1  0.922990  0.458802  0.799174  1
  Dy  Dy3  1  0.250540  0.125224  0.507657  1
  Dy  Dy4  1  0.540866  0.078687  0.796377  1
  Th  Th5  1  0.748434  0.876150  0.010322  1
  Th  Th6  1  0.665827  0.332944  0.274190  1
  Th  Th7  1  0.128075  0.873601  0.003036  1
  Th  Th8  1  0.459042  0.922347  0.302320  1
  Th  Th9  1  0.537199  0.460546  0.797889  1
  Th  Th10  1  0.879651  0.132086  0.511522  1
  Th  Th11  1  0.126261  0.251166  0.009978  1
  Th  Th12  1  0.876184  0.747401  0.505921  1
  Th  Th13  1  0.332759  0.665932  0.771632  1
  Ru  Ru14  1  0.809704  0.629546  0.046835  1
  Ru  Ru15  1  0.818405  0.180973  0.051763  1
  Ru  Ru16  1  0.632726  0.819579  0.543756  1
  Ru  Ru17  1  0.371685  0.190453  0.042730  1
  Ru  Ru18  1  0.182403  0.374581  0.559688  1
  Ru  Ru19  1  0.183747  0.807813  0.549125  1
