# generated using pymatgen
data_Th2Re8Si3P
_symmetry_space_group_name_H-M   'P 1'
_cell_length_a   4.14330700
_cell_length_b   7.30536245
_cell_length_c   15.64215605
_cell_angle_alpha   89.82581913
_cell_angle_beta   90.00000000
_cell_angle_gamma   90.00000000
_symmetry_Int_Tables_number   1
_chemical_formula_structural   Th2Re8Si3P
_chemical_formula_sum   'Th4 Re16 Si6 P2'
_cell_volume   473.46021285
_cell_formula_units_Z   2
loop_
 _symmetry_equiv_pos_site_id
 _symmetry_equiv_pos_as_xyz
  1  'x, y, z'
loop_
 _atom_site_type_symbol
 _atom_site_label
 _atom_site_symmetry_multiplicity
 _atom_site_fract_x
 _atom_site_fract_y
 _atom_site_fract_z
 _atom_site_occupancy
  Th  Th0  1  0.000000  0.586446  0.118577  1
  Th  Th1  1  0.000000  0.413554  0.881423  1
  Th  Th2  1  0.500000  0.083606  0.382857  1
  Th  Th3  1  0.500000  0.916394  0.617143  1
  Re  Re4  1  0.000000  0.142251  0.051061  1
  Re  Re5  1  0.000000  0.857749  0.948939  1
  Re  Re6  1  0.500000  0.645436  0.450225  1
  Re  Re7  1  0.500000  0.354564  0.549775  1
  Re  Re8  1  0.000000  0.739818  0.324033  1
  Re  Re9  1  0.000000  0.260182  0.675967  1
  Re  Re10  1  0.500000  0.238765  0.179035  1
  Re  Re11  1  0.500000  0.761235  0.820965  1
  Re  Re12  1  0.000000  0.422118  0.419870  1
  Re  Re13  1  0.000000  0.577882  0.580130  1
  Re  Re14  1  0.500000  0.927143  0.080813  1
  Re  Re15  1  0.500000  0.072857  0.919187  1
  Re  Re16  1  0.000000  0.998781  0.206846  1
  Re  Re17  1  0.000000  0.001219  0.793154  1
  Re  Re18  1  0.500000  0.496070  0.295294  1
  Re  Re19  1  0.500000  0.503930  0.704706  1
  Si  Si20  1  0.500000  0.329422  0.024843  1
  Si  Si21  1  0.500000  0.670578  0.975157  1
  Si  Si22  1  0.000000  0.302456  0.272640  1
  Si  Si23  1  0.000000  0.697544  0.727360  1
  Si  Si24  1  0.500000  0.802183  0.227941  1
  Si  Si25  1  0.500000  0.197817  0.772059  1
  P  P26  1  0.000000  0.818763  0.473248  1
  P  P27  1  0.000000  0.181237  0.526752  1
