# generated using pymatgen
data_TbY2Ho(Al8Pt3)3
_symmetry_space_group_name_H-M   'P 1'
_cell_length_a   7.53300073
_cell_length_b   7.55628246
_cell_length_c   13.18961872
_cell_angle_alpha   84.58332498
_cell_angle_beta   79.13314033
_cell_angle_gamma   59.97622489
_symmetry_Int_Tables_number   1
_chemical_formula_structural   TbY2Ho(Al8Pt3)3
_chemical_formula_sum   'Tb1 Y2 Ho1 Al24 Pt9'
_cell_volume   638.37591882
_cell_formula_units_Z   1
loop_
 _symmetry_equiv_pos_site_id
 _symmetry_equiv_pos_as_xyz
  1  'x, y, z'
loop_
 _atom_site_type_symbol
 _atom_site_label
 _atom_site_symmetry_multiplicity
 _atom_site_fract_x
 _atom_site_fract_y
 _atom_site_fract_z
 _atom_site_occupancy
  Tb  Tb0  1  0.393415  0.168575  0.808071  1
  Y  Y1  1  0.606606  0.831296  0.192130  1
  Y  Y2  1  0.733955  0.498615  0.807656  1
  Ho  Ho3  1  0.265891  0.501469  0.192463  1
  Al  Al4  1  0.684606  0.833657  0.944520  1
  Al  Al5  1  0.315440  0.166361  0.055799  1
  Al  Al6  1  0.146528  0.832493  0.561408  1
  Al  Al7  1  0.853525  0.167504  0.438519  1
  Al  Al8  1  0.479459  0.166757  0.558549  1
  Al  Al9  1  0.520538  0.833218  0.441392  1
  Al  Al10  1  0.217264  0.165356  0.329716  1
  Al  Al11  1  0.782893  0.834694  0.670083  1
  Al  Al12  1  0.437527  0.506419  0.670157  1
  Al  Al13  1  0.562397  0.493654  0.329620  1
  Al  Al14  1  0.109475  0.159935  0.669107  1
  Al  Al15  1  0.890698  0.839906  0.330649  1
  Al  Al16  1  0.352864  0.499711  0.944741  1
  Al  Al17  1  0.646864  0.500464  0.055583  1
  Al  Al18  1  0.015321  0.167538  0.953040  1
  Al  Al19  1  0.984591  0.832336  0.047229  1
  Al  Al20  1  0.186874  0.499178  0.441283  1
  Al  Al21  1  0.813146  0.500853  0.558566  1
  Al  Al22  1  0.734225  0.164077  0.183466  1
  Al  Al23  1  0.265614  0.835862  0.816539  1
  Al  Al24  1  0.061484  0.631757  0.815388  1
  Al  Al25  1  0.938441  0.368467  0.184615  1
  Al  Al26  1  0.855701  0.041454  0.815948  1
  Al  Al27  1  0.144533  0.958308  0.184074  1
  Pt  Pt28  1  0.119843  0.492034  0.638654  1
  Pt  Pt29  1  0.880365  0.508074  0.361152  1
  Pt  Pt30  1  0.657051  0.171449  0.999945  1
  Pt  Pt31  1  0.342865  0.828574  0.000223  1
  Pt  Pt32  1  0.537740  0.166833  0.361194  1
  Pt  Pt33  1  0.462093  0.833277  0.638624  1
  Pt  Pt34  1  0.778639  0.175155  0.637122  1
  Pt  Pt35  1  0.221503  0.824650  0.362689  1
  Pt  Pt36  1  0.000026  0.500040  0.000089  1
