# generated using pymatgen
data_Gd3Y(AsPt)4
_symmetry_space_group_name_H-M   'P 1'
_cell_length_a   4.28540400
_cell_length_b   4.28540287
_cell_length_c   15.65898800
_cell_angle_alpha   90.00000000
_cell_angle_beta   90.00000000
_cell_angle_gamma   119.99999330
_symmetry_Int_Tables_number   1
_chemical_formula_structural   Gd3Y(AsPt)4
_chemical_formula_sum   'Gd3 Y1 As4 Pt4'
_cell_volume   249.04497245
_cell_formula_units_Z   1
loop_
 _symmetry_equiv_pos_site_id
 _symmetry_equiv_pos_as_xyz
  1  'x, y, z'
loop_
 _atom_site_type_symbol
 _atom_site_label
 _atom_site_symmetry_multiplicity
 _atom_site_fract_x
 _atom_site_fract_y
 _atom_site_fract_z
 _atom_site_occupancy
  Gd  Gd0  1  0.000000  0.000000  0.000330  1
  Gd  Gd1  1  0.000000  0.000000  0.499670  1
  Gd  Gd2  1  0.000000  0.000000  0.250000  1
  Y  Y3  1  0.000000  0.000000  0.750000  1
  As  As4  1  0.333333  0.666667  0.883341  1
  As  As5  1  0.666667  0.333333  0.383139  1
  As  As6  1  0.666667  0.333333  0.116861  1
  As  As7  1  0.333333  0.666667  0.616659  1
  Pt  Pt8  1  0.333333  0.666667  0.366101  1
  Pt  Pt9  1  0.666667  0.333333  0.864566  1
  Pt  Pt10  1  0.666667  0.333333  0.635434  1
  Pt  Pt11  1  0.333333  0.666667  0.133899  1
