# generated using pymatgen
data_Na2HoTm(InBr3)4
_symmetry_space_group_name_H-M   'P 1'
_cell_length_a   8.18188803
_cell_length_b   7.63732004
_cell_length_c   13.23557322
_cell_angle_alpha   56.29802821
_cell_angle_beta   90.00764120
_cell_angle_gamma   90.00017009
_symmetry_Int_Tables_number   1
_chemical_formula_structural   Na2HoTm(InBr3)4
_chemical_formula_sum   'Na2 Ho1 Tm1 In4 Br12'
_cell_volume   688.06058617
_cell_formula_units_Z   1
loop_
 _symmetry_equiv_pos_site_id
 _symmetry_equiv_pos_as_xyz
  1  'x, y, z'
loop_
 _atom_site_type_symbol
 _atom_site_label
 _atom_site_symmetry_multiplicity
 _atom_site_fract_x
 _atom_site_fract_y
 _atom_site_fract_z
 _atom_site_occupancy
  Na  Na0  1  0.500000  0.500000  0.000000  1
  Na  Na1  1  0.000000  0.500000  0.500000  1
  Ho  Ho2  1  0.500000  0.000000  0.500000  1
  Tm  Tm3  1  0.000000  0.000000  0.000000  1
  In  In4  1  0.075743  0.713622  0.759269  1
  In  In5  1  0.924257  0.286378  0.240731  1
  In  In6  1  0.575820  0.286237  0.740809  1
  In  In7  1  0.424180  0.713763  0.259191  1
  Br  Br8  1  0.784213  0.757260  0.560166  1
  Br  Br9  1  0.215787  0.242740  0.439834  1
  Br  Br10  1  0.282647  0.241389  0.940164  1
  Br  Br11  1  0.717353  0.758611  0.059836  1
  Br  Br12  1  0.462551  0.868911  0.742703  1
  Br  Br13  1  0.537449  0.131089  0.257297  1
  Br  Br14  1  0.962720  0.130299  0.758644  1
  Br  Br15  1  0.037280  0.869701  0.241356  1
  Br  Br16  1  0.314350  0.656001  0.544665  1
  Br  Br17  1  0.685650  0.343999  0.455335  1
  Br  Br18  1  0.815405  0.342131  0.955548  1
  Br  Br19  1  0.184595  0.657869  0.044452  1
