# generated using pymatgen
data_Dy4YCr3(Ni4As3)4
_symmetry_space_group_name_H-M   'P 1'
_cell_length_a   12.61705600
_cell_length_b   12.61705425
_cell_length_c   3.87622900
_cell_angle_alpha   90.00000000
_cell_angle_beta   90.00000000
_cell_angle_gamma   120.00000458
_symmetry_Int_Tables_number   1
_chemical_formula_structural   Dy4YCr3(Ni4As3)4
_chemical_formula_sum   'Dy4 Y1 Cr3 Ni16 As12'
_cell_volume   534.38719035
_cell_formula_units_Z   1
loop_
 _symmetry_equiv_pos_site_id
 _symmetry_equiv_pos_as_xyz
  1  'x, y, z'
loop_
 _atom_site_type_symbol
 _atom_site_label
 _atom_site_symmetry_multiplicity
 _atom_site_fract_x
 _atom_site_fract_y
 _atom_site_fract_z
 _atom_site_occupancy
  Dy  Dy0  1  0.186949  0.186947  0.500000  1
  Dy  Dy1  1  0.813053  0.000002  0.500000  1
  Dy  Dy2  1  0.999998  0.813051  0.500000  1
  Dy  Dy3  1  0.333333  0.666667  0.000000  1
  Y  Y4  1  0.666667  0.333333  0.000000  1
  Cr  Cr5  1  0.561646  0.561659  0.000000  1
  Cr  Cr6  1  0.438341  0.999987  0.000000  1
  Cr  Cr7  1  0.000013  0.438354  0.000000  1
  Ni  Ni8  1  0.718057  0.718062  0.500000  1
  Ni  Ni9  1  0.281938  0.999995  0.500000  1
  Ni  Ni10  1  0.000005  0.281943  0.500000  1
  Ni  Ni11  1  0.183338  0.378898  0.000000  1
  Ni  Ni12  1  0.621102  0.804441  0.000000  1
  Ni  Ni13  1  0.195559  0.816662  0.000000  1
  Ni  Ni14  1  0.804461  0.621139  0.000000  1
  Ni  Ni15  1  0.816679  0.195539  0.000000  1
  Ni  Ni16  1  0.378861  0.183321  0.000000  1
  Ni  Ni17  1  0.359689  0.482478  0.500000  1
  Ni  Ni18  1  0.517522  0.877212  0.500000  1
  Ni  Ni19  1  0.122788  0.640311  0.500000  1
  Ni  Ni20  1  0.877252  0.517552  0.500000  1
  Ni  Ni21  1  0.640301  0.122748  0.500000  1
  Ni  Ni22  1  0.482448  0.359699  0.500000  1
  Ni  Ni23  1  0.000000  0.000000  0.000000  1
  As  As24  1  0.821381  0.821381  0.000000  1
  As  As25  1  0.178619  0.000001  0.000000  1
  As  As26  1  0.999999  0.178619  0.000000  1
  As  As27  1  0.166355  0.480217  0.500000  1
  As  As28  1  0.519783  0.686138  0.500000  1
  As  As29  1  0.313862  0.833645  0.500000  1
  As  As30  1  0.686145  0.519838  0.500000  1
  As  As31  1  0.833693  0.313855  0.500000  1
  As  As32  1  0.480162  0.166307  0.500000  1
  As  As33  1  0.364446  0.364448  0.000000  1
  As  As34  1  0.635552  0.999998  0.000000  1
  As  As35  1  0.000002  0.635554  0.000000  1
