# generated using pymatgen
data_Yb4FeOsRu6
_symmetry_space_group_name_H-M   'P 1'
_cell_length_a   5.20259155
_cell_length_b   5.25733930
_cell_length_c   8.73237600
_cell_angle_alpha   90.00000000
_cell_angle_beta   90.00000000
_cell_angle_gamma   119.40130452
_symmetry_Int_Tables_number   1
_chemical_formula_structural   Yb4FeOsRu6
_chemical_formula_sum   'Yb4 Fe1 Os1 Ru6'
_cell_volume   208.08335669
_cell_formula_units_Z   1
loop_
 _symmetry_equiv_pos_site_id
 _symmetry_equiv_pos_as_xyz
  1  'x, y, z'
loop_
 _atom_site_type_symbol
 _atom_site_label
 _atom_site_symmetry_multiplicity
 _atom_site_fract_x
 _atom_site_fract_y
 _atom_site_fract_z
 _atom_site_occupancy
  Yb  Yb0  1  0.662804  0.333764  0.566621  1
  Yb  Yb1  1  0.331751  0.667766  0.436682  1
  Yb  Yb2  1  0.331751  0.667766  0.063318  1
  Yb  Yb3  1  0.662804  0.333764  0.933379  1
  Fe  Fe4  1  0.341876  0.165164  0.250000  1
  Os  Os5  1  0.831107  0.171800  0.250000  1
  Ru  Ru6  1  0.990950  0.006676  0.490952  1
  Ru  Ru7  1  0.990950  0.006676  0.009048  1
  Ru  Ru8  1  0.172776  0.344271  0.750000  1
  Ru  Ru9  1  0.177670  0.822093  0.750000  1
  Ru  Ru10  1  0.676084  0.837655  0.750000  1
  Ru  Ru11  1  0.829476  0.642609  0.250000  1
