# generated using pymatgen
data_Ca2Th3Bi3C
_symmetry_space_group_name_H-M   'P 1'
_cell_length_a   9.42078500
_cell_length_b   9.42078600
_cell_length_c   6.57894800
_cell_angle_alpha   90.00000000
_cell_angle_beta   90.00000000
_cell_angle_gamma   120.00000000
_symmetry_Int_Tables_number   1
_chemical_formula_structural   Ca2Th3Bi3C
_chemical_formula_sum   'Ca4 Th6 Bi6 C2'
_cell_volume   505.66316257
_cell_formula_units_Z   2
loop_
 _symmetry_equiv_pos_site_id
 _symmetry_equiv_pos_as_xyz
  1  'x, y, z'
loop_
 _atom_site_type_symbol
 _atom_site_label
 _atom_site_symmetry_multiplicity
 _atom_site_fract_x
 _atom_site_fract_y
 _atom_site_fract_z
 _atom_site_occupancy
  Ca  Ca0  1  0.666667  0.333333  0.000000  1
  Ca  Ca1  1  0.333333  0.666667  0.000000  1
  Ca  Ca2  1  0.333333  0.666667  0.500000  1
  Ca  Ca3  1  0.666667  0.333333  0.500000  1
  Th  Th4  1  0.784475  0.784475  0.750000  1
  Th  Th5  1  0.215525  0.000000  0.750000  1
  Th  Th6  1  0.000000  0.215525  0.750000  1
  Th  Th7  1  0.215525  0.215525  0.250000  1
  Th  Th8  1  0.784475  0.000000  0.250000  1
  Th  Th9  1  0.000000  0.784475  0.250000  1
  Bi  Bi10  1  0.404966  0.404966  0.750000  1
  Bi  Bi11  1  0.595034  0.000000  0.750000  1
  Bi  Bi12  1  0.000000  0.595034  0.750000  1
  Bi  Bi13  1  0.595034  0.595034  0.250000  1
  Bi  Bi14  1  0.404966  0.000000  0.250000  1
  Bi  Bi15  1  0.000000  0.404966  0.250000  1
  C  C16  1  0.000000  0.000000  0.000000  1
  C  C17  1  0.000000  0.000000  0.500000  1
