# generated using pymatgen
data_Pr4Nd6Sn20Pd3Rh5
_symmetry_space_group_name_H-M   'P 1'
_cell_length_a   14.28898644
_cell_length_b   14.25568045
_cell_length_c   4.65894600
_cell_angle_alpha   90.00000000
_cell_angle_beta   90.00000000
_cell_angle_gamma   90.12275331
_symmetry_Int_Tables_number   1
_chemical_formula_structural   Pr4Nd6Sn20Pd3Rh5
_chemical_formula_sum   'Pr4 Nd6 Sn20 Pd3 Rh5'
_cell_volume   949.02150987
_cell_formula_units_Z   1
loop_
 _symmetry_equiv_pos_site_id
 _symmetry_equiv_pos_as_xyz
  1  'x, y, z'
loop_
 _atom_site_type_symbol
 _atom_site_label
 _atom_site_symmetry_multiplicity
 _atom_site_fract_x
 _atom_site_fract_y
 _atom_site_fract_z
 _atom_site_occupancy
  Pr  Pr0  1  0.891336  0.388713  0.500000  1
  Pr  Pr1  1  0.108552  0.610266  0.500000  1
  Pr  Pr2  1  0.389479  0.110068  0.500000  1
  Pr  Pr3  1  0.610018  0.890134  0.500000  1
  Nd  Nd4  1  0.500415  0.501191  0.000000  1
  Nd  Nd5  1  0.997396  0.001389  0.000000  1
  Nd  Nd6  1  0.679142  0.178954  0.500000  1
  Nd  Nd7  1  0.322778  0.820257  0.500000  1
  Nd  Nd8  1  0.176403  0.319294  0.500000  1
  Nd  Nd9  1  0.822981  0.680188  0.500000  1
  Sn  Sn10  1  0.570020  0.070980  0.000000  1
  Sn  Sn11  1  0.433717  0.929531  0.000000  1
  Sn  Sn12  1  0.067170  0.429137  0.000000  1
  Sn  Sn13  1  0.933401  0.571342  0.000000  1
  Sn  Sn14  1  0.653195  0.701811  0.000000  1
  Sn  Sn15  1  0.347263  0.298029  0.000000  1
  Sn  Sn16  1  0.152397  0.798511  0.000000  1
  Sn  Sn17  1  0.847338  0.199058  0.000000  1
  Sn  Sn18  1  0.301862  0.654092  0.000000  1
  Sn  Sn19  1  0.698751  0.345254  0.000000  1
  Sn  Sn20  1  0.197652  0.153146  0.000000  1
  Sn  Sn21  1  0.801061  0.847942  0.000000  1
  Sn  Sn22  1  0.662996  0.503054  0.500000  1
  Sn  Sn23  1  0.336722  0.496948  0.500000  1
  Sn  Sn24  1  0.162002  0.996041  0.500000  1
  Sn  Sn25  1  0.835895  0.005800  0.500000  1
  Sn  Sn26  1  0.496656  0.662988  0.500000  1
  Sn  Sn27  1  0.504034  0.336053  0.500000  1
  Sn  Sn28  1  0.002064  0.163771  0.500000  1
  Sn  Sn29  1  0.995836  0.836745  0.500000  1
  Pd  Pd30  1  0.746532  0.530087  0.000000  1
  Pd  Pd31  1  0.253850  0.469671  0.000000  1
  Pd  Pd32  1  0.246997  0.969444  0.000000  1
  Rh  Rh33  1  0.754330  0.029840  0.000000  1
  Rh  Rh34  1  0.470149  0.743682  0.000000  1
  Rh  Rh35  1  0.529997  0.256076  0.000000  1
  Rh  Rh36  1  0.030641  0.243475  0.000000  1
  Rh  Rh37  1  0.968968  0.757036  0.000000  1
