# generated using pymatgen
data_V3P3PbO12
_symmetry_space_group_name_H-M   'P 1'
_cell_length_a   9.29785583
_cell_length_b   9.29785538
_cell_length_c   9.29785582
_cell_angle_alpha   137.55187068
_cell_angle_beta   110.59641875
_cell_angle_gamma   84.85527308
_symmetry_Int_Tables_number   1
_chemical_formula_structural   V3P3PbO12
_chemical_formula_sum   'V6 P6 Pb2 O24'
_cell_volume   489.11876848
_cell_formula_units_Z   2
loop_
 _symmetry_equiv_pos_site_id
 _symmetry_equiv_pos_as_xyz
  1  'x, y, z'
loop_
 _atom_site_type_symbol
 _atom_site_label
 _atom_site_symmetry_multiplicity
 _atom_site_fract_x
 _atom_site_fract_y
 _atom_site_fract_z
 _atom_site_occupancy
  V  V0  1  0.619166  0.619166  0.500000  1
  V  V1  1  0.880834  0.380834  0.000000  1
  V  V2  1  0.119166  0.619166  0.000000  1
  V  V3  1  0.380834  0.380834  0.500000  1
  V  V4  1  0.500000  0.000000  0.500000  1
  V  V5  1  0.000000  0.500000  0.500000  1
  P  P6  1  0.750000  0.344456  0.594456  1
  P  P7  1  0.250000  0.655544  0.405544  1
  P  P8  1  0.823710  0.823710  0.500000  1
  P  P9  1  0.676290  0.176290  0.000000  1
  P  P10  1  0.323710  0.823710  0.000000  1
  P  P11  1  0.176290  0.176290  0.500000  1
  Pb  Pb12  1  0.750000  0.859546  0.109546  1
  Pb  Pb13  1  0.250000  0.140454  0.890454  1
  O  O14  1  0.657811  0.120324  0.462514  1
  O  O15  1  0.342189  0.879676  0.537486  1
  O  O16  1  0.157811  0.695297  0.537486  1
  O  O17  1  0.842189  0.304703  0.462514  1
  O  O18  1  0.632864  0.485531  0.618397  1
  O  O19  1  0.132864  0.514469  0.147333  1
  O  O20  1  0.367136  0.514469  0.381603  1
  O  O21  1  0.867136  0.485531  0.852667  1
  O  O22  1  0.925415  0.064533  0.719993  1
  O  O23  1  0.655459  0.935467  0.860881  1
  O  O24  1  0.425415  0.705422  0.860881  1
  O  O25  1  0.155459  0.294578  0.719993  1
  O  O26  1  0.074585  0.935467  0.280007  1
  O  O27  1  0.344541  0.064533  0.139119  1
  O  O28  1  0.574585  0.294578  0.139119  1
  O  O29  1  0.844541  0.705422  0.280007  1
  O  O30  1  0.638489  0.797013  0.437895  1
  O  O31  1  0.640882  0.202987  0.841476  1
  O  O32  1  0.138489  0.700594  0.841476  1
  O  O33  1  0.140882  0.299406  0.437895  1
  O  O34  1  0.361511  0.202987  0.562105  1
  O  O35  1  0.359118  0.797013  0.158524  1
  O  O36  1  0.861511  0.299406  0.158524  1
  O  O37  1  0.859118  0.700594  0.562105  1
