# generated using pymatgen
data_Yb3SmAs3
_symmetry_space_group_name_H-M   'P 1'
_cell_length_a   7.74263706
_cell_length_b   7.71332050
_cell_length_c   7.71332091
_cell_angle_alpha   109.40572837
_cell_angle_beta   109.46765736
_cell_angle_gamma   109.38665890
_symmetry_Int_Tables_number   1
_chemical_formula_structural   Yb3SmAs3
_chemical_formula_sum   'Yb6 Sm2 As6'
_cell_volume   355.27957541
_cell_formula_units_Z   2
loop_
 _symmetry_equiv_pos_site_id
 _symmetry_equiv_pos_as_xyz
  1  'x, y, z'
loop_
 _atom_site_type_symbol
 _atom_site_label
 _atom_site_symmetry_multiplicity
 _atom_site_fract_x
 _atom_site_fract_y
 _atom_site_fract_z
 _atom_site_occupancy
  Yb  Yb0  1  0.358994  0.359560  0.358781  1
  Yb  Yb1  1  0.141006  0.499787  0.000566  1
  Yb  Yb2  1  0.000580  0.136767  0.500328  1
  Yb  Yb3  1  0.867139  0.866550  0.870653  1
  Yb  Yb4  1  0.499420  0.999748  0.136187  1
  Yb  Yb5  1  0.632861  0.503513  0.999410  1
  Sm  Sm6  1  0.503802  0.004010  0.632700  1
  Sm  Sm7  1  0.996198  0.628898  0.500208  1
  As  As8  1  0.127869  0.873676  0.256773  1
  As  As9  1  0.372131  0.628904  0.745807  1
  As  As10  1  0.872399  0.252091  0.123115  1
  As  As11  1  0.627601  0.750716  0.379692  1
  As  As12  1  0.250000  0.119736  0.869736  1
  As  As13  1  0.750000  0.376044  0.626044  1
