# generated using pymatgen
data_Ta5SiB2
_symmetry_space_group_name_H-M   'P 1'
_cell_length_a   7.29612070
_cell_length_b   7.29612032
_cell_length_c   7.29612018
_cell_angle_alpha   129.32430571
_cell_angle_beta   129.32430354
_cell_angle_gamma   74.48931093
_symmetry_Int_Tables_number   1
_chemical_formula_structural   Ta5SiB2
_chemical_formula_sum   'Ta10 Si2 B4'
_cell_volume   226.50463474
_cell_formula_units_Z   2
loop_
 _symmetry_equiv_pos_site_id
 _symmetry_equiv_pos_as_xyz
  1  'x, y, z'
loop_
 _atom_site_type_symbol
 _atom_site_label
 _atom_site_symmetry_multiplicity
 _atom_site_fract_x
 _atom_site_fract_y
 _atom_site_fract_z
 _atom_site_occupancy
  Ta  Ta0  1  0.000000  0.000000  0.000000  1
  Ta  Ta1  1  0.805649  0.971607  0.500000  1
  Ta  Ta2  1  0.305649  0.805649  0.834042  1
  Ta  Ta3  1  0.194351  0.028393  0.500000  1
  Ta  Ta4  1  0.528393  0.694351  0.500000  1
  Ta  Ta5  1  0.028393  0.528393  0.834042  1
  Ta  Ta6  1  0.694351  0.194351  0.165958  1
  Ta  Ta7  1  0.971607  0.471607  0.165958  1
  Ta  Ta8  1  0.500000  0.500000  0.000000  1
  Ta  Ta9  1  0.471607  0.305649  0.500000  1
  Si  Si10  1  0.750000  0.750000  0.000000  1
  Si  Si11  1  0.250000  0.250000  0.000000  1
  B  B12  1  0.381461  0.881461  0.262923  1
  B  B13  1  0.881461  0.618539  0.500000  1
  B  B14  1  0.618539  0.118539  0.737077  1
  B  B15  1  0.118539  0.381461  0.500000  1
