# generated using pymatgen
data_Cs2SeOF4
_symmetry_space_group_name_H-M   'P 1'
_cell_length_a   8.26413916
_cell_length_b   8.26413888
_cell_length_c   7.21151400
_cell_angle_alpha   90.00000000
_cell_angle_beta   90.00000000
_cell_angle_gamma   132.87712133
_symmetry_Int_Tables_number   1
_chemical_formula_structural   Cs2SeOF4
_chemical_formula_sum   'Cs4 Se2 O2 F8'
_cell_volume   360.92405450
_cell_formula_units_Z   2
loop_
 _symmetry_equiv_pos_site_id
 _symmetry_equiv_pos_as_xyz
  1  'x, y, z'
loop_
 _atom_site_type_symbol
 _atom_site_label
 _atom_site_symmetry_multiplicity
 _atom_site_fract_x
 _atom_site_fract_y
 _atom_site_fract_z
 _atom_site_occupancy
  Cs  Cs0  1  0.444968  0.555032  0.250000  1
  Cs  Cs1  1  0.242231  0.757769  0.750000  1
  Cs  Cs2  1  0.757769  0.242231  0.250000  1
  Cs  Cs3  1  0.555032  0.444968  0.750000  1
  Se  Se4  1  0.118748  0.881252  0.250000  1
  Se  Se5  1  0.881252  0.118748  0.750000  1
  O  O6  1  0.226999  0.773001  0.250000  1
  O  O7  1  0.773001  0.226999  0.750000  1
  F  F8  1  0.329752  0.108681  0.054672  1
  F  F9  1  0.670248  0.891319  0.945328  1
  F  F10  1  0.891319  0.670248  0.445328  1
  F  F11  1  0.108681  0.329752  0.945328  1
  F  F12  1  0.670248  0.891319  0.554672  1
  F  F13  1  0.891319  0.670248  0.054672  1
  F  F14  1  0.108681  0.329752  0.554672  1
  F  F15  1  0.329752  0.108681  0.445328  1
