# generated using pymatgen
data_Li8Tb4Y4Sn7Bi
_symmetry_space_group_name_H-M   'P 1'
_cell_length_a   9.41517015
_cell_length_b   9.41577655
_cell_length_c   7.33080712
_cell_angle_alpha   90.05790505
_cell_angle_beta   89.94774955
_cell_angle_gamma   119.97559118
_symmetry_Int_Tables_number   1
_chemical_formula_structural   Li8Tb4Y4Sn7Bi
_chemical_formula_sum   'Li8 Tb4 Y4 Sn7 Bi1'
_cell_volume   562.95442518
_cell_formula_units_Z   1
loop_
 _symmetry_equiv_pos_site_id
 _symmetry_equiv_pos_as_xyz
  1  'x, y, z'
loop_
 _atom_site_type_symbol
 _atom_site_label
 _atom_site_symmetry_multiplicity
 _atom_site_fract_x
 _atom_site_fract_y
 _atom_site_fract_z
 _atom_site_occupancy
  Li  Li0  1  0.166502  0.833334  0.196325  1
  Li  Li1  1  0.335601  0.171130  0.690233  1
  Li  Li2  1  0.828922  0.664389  0.690212  1
  Li  Li3  1  0.168089  0.334486  0.193046  1
  Li  Li4  1  0.665569  0.831849  0.193046  1
  Li  Li5  1  0.833394  0.166717  0.693968  1
  Li  Li6  1  0.335371  0.664490  0.815511  1
  Li  Li7  1  0.666111  0.334000  0.313643  1
  Tb  Tb8  1  0.513187  0.486926  0.991698  1
  Tb  Tb9  1  0.022376  0.507373  0.488744  1
  Tb  Tb10  1  0.492619  0.977633  0.488730  1
  Tb  Tb11  1  0.518054  0.027676  0.994094  1
  Y  Y12  1  0.972314  0.481933  0.994094  1
  Y  Y13  1  0.486833  0.513158  0.490487  1
  Y  Y14  1  0.997309  0.002734  0.988324  1
  Y  Y15  1  0.997881  0.002095  0.483394  1
  Sn  Sn16  1  0.333223  0.166027  0.256986  1
  Sn  Sn17  1  0.834022  0.666763  0.256896  1
  Sn  Sn18  1  0.165951  0.333233  0.757125  1
  Sn  Sn19  1  0.666873  0.834020  0.757063  1
  Sn  Sn20  1  0.833672  0.166418  0.256087  1
  Sn  Sn21  1  0.332587  0.667238  0.223388  1
  Sn  Sn22  1  0.666997  0.333073  0.722886  1
  Bi  Bi23  1  0.166541  0.833307  0.754024  1
