# generated using pymatgen
data_Li3DyTmSi7Pt9
_symmetry_space_group_name_H-M   'P 1'
_cell_length_a   9.90589900
_cell_length_b   9.90589773
_cell_length_c   3.94460000
_cell_angle_alpha   90.00000000
_cell_angle_beta   90.00000000
_cell_angle_gamma   120.00000091
_symmetry_Int_Tables_number   1
_chemical_formula_structural   Li3DyTmSi7Pt9
_chemical_formula_sum   'Li3 Dy1 Tm1 Si7 Pt9'
_cell_volume   335.21337106
_cell_formula_units_Z   1
loop_
 _symmetry_equiv_pos_site_id
 _symmetry_equiv_pos_as_xyz
  1  'x, y, z'
loop_
 _atom_site_type_symbol
 _atom_site_label
 _atom_site_symmetry_multiplicity
 _atom_site_fract_x
 _atom_site_fract_y
 _atom_site_fract_z
 _atom_site_occupancy
  Li  Li0  1  0.896622  0.453615  0.500000  1
  Li  Li1  1  0.556994  0.103378  0.500000  1
  Li  Li2  1  0.546385  0.443006  0.500000  1
  Dy  Dy3  1  0.000000  0.000000  0.000000  1
  Tm  Tm4  1  0.333333  0.666667  0.500000  1
  Si  Si5  1  0.264861  0.218889  0.500000  1
  Si  Si6  1  0.781111  0.045973  0.500000  1
  Si  Si7  1  0.954027  0.735139  0.500000  1
  Si  Si8  1  0.553050  0.636586  0.000000  1
  Si  Si9  1  0.363414  0.916462  0.000000  1
  Si  Si10  1  0.083538  0.446950  0.000000  1
  Si  Si11  1  0.666667  0.333333  0.000000  1
  Pt  Pt12  1  0.222315  0.946738  0.500000  1
  Pt  Pt13  1  0.053262  0.275579  0.500000  1
  Pt  Pt14  1  0.724421  0.777685  0.500000  1
  Pt  Pt15  1  0.305600  0.407817  0.000000  1
  Pt  Pt16  1  0.592183  0.897784  0.000000  1
  Pt  Pt17  1  0.102216  0.694400  0.000000  1
  Pt  Pt18  1  0.395315  0.177561  0.000000  1
  Pt  Pt19  1  0.822439  0.217755  0.000000  1
  Pt  Pt20  1  0.782245  0.604685  0.000000  1
