# generated using pymatgen
data_UTlPtS3
_symmetry_space_group_name_H-M   'P 1'
_cell_length_a   7.70193200
_cell_length_b   7.70193208
_cell_length_c   10.24066800
_cell_angle_alpha   90.00000000
_cell_angle_beta   90.00000000
_cell_angle_gamma   151.95708191
_symmetry_Int_Tables_number   1
_chemical_formula_structural   UTlPtS3
_chemical_formula_sum   'U2 Tl2 Pt2 S6'
_cell_volume   285.59343212
_cell_formula_units_Z   2
loop_
 _symmetry_equiv_pos_site_id
 _symmetry_equiv_pos_as_xyz
  1  'x, y, z'
loop_
 _atom_site_type_symbol
 _atom_site_label
 _atom_site_symmetry_multiplicity
 _atom_site_fract_x
 _atom_site_fract_y
 _atom_site_fract_z
 _atom_site_occupancy
  U  U0  1  0.500000  0.500000  0.000000  1
  U  U1  1  0.500000  0.500000  0.500000  1
  Tl  Tl2  1  0.263885  0.736114  0.250000  1
  Tl  Tl3  1  0.736114  0.263885  0.750000  1
  Pt  Pt4  1  0.938248  0.061751  0.250000  1
  Pt  Pt5  1  0.061751  0.938248  0.750000  1
  S  S6  1  0.874698  0.125301  0.035712  1
  S  S7  1  0.546786  0.453213  0.250000  1
  S  S8  1  0.874698  0.125301  0.464287  1
  S  S9  1  0.125301  0.874698  0.535712  1
  S  S10  1  0.453213  0.546786  0.750000  1
  S  S11  1  0.125301  0.874698  0.964288  1
