# generated using pymatgen
data_Gd2Be2SiO7
_symmetry_space_group_name_H-M   'P 1'
_cell_length_a   7.41137200
_cell_length_b   7.41137200
_cell_length_c   4.84336800
_cell_angle_alpha   90.00000000
_cell_angle_beta   90.00000000
_cell_angle_gamma   90.00000000
_symmetry_Int_Tables_number   1
_chemical_formula_structural   Gd2Be2SiO7
_chemical_formula_sum   'Gd4 Be4 Si2 O14'
_cell_volume   266.03862399
_cell_formula_units_Z   2
loop_
 _symmetry_equiv_pos_site_id
 _symmetry_equiv_pos_as_xyz
  1  'x, y, z'
loop_
 _atom_site_type_symbol
 _atom_site_label
 _atom_site_symmetry_multiplicity
 _atom_site_fract_x
 _atom_site_fract_y
 _atom_site_fract_z
 _atom_site_occupancy
  Gd  Gd0  1  0.159544  0.340456  0.506647  1
  Gd  Gd1  1  0.659544  0.159544  0.493353  1
  Gd  Gd2  1  0.340456  0.840456  0.493353  1
  Gd  Gd3  1  0.840456  0.659544  0.506647  1
  Be  Be4  1  0.136372  0.636372  0.039422  1
  Be  Be5  1  0.636372  0.863628  0.960578  1
  Be  Be6  1  0.363628  0.136372  0.960578  1
  Be  Be7  1  0.863628  0.363628  0.039422  1
  Si  Si8  1  0.500000  0.500000  0.000000  1
  Si  Si9  1  0.000000  0.000000  0.000000  1
  O  O10  1  0.919609  0.163528  0.195081  1
  O  O11  1  0.836472  0.919609  0.804919  1
  O  O12  1  0.163528  0.080391  0.804919  1
  O  O13  1  0.080391  0.836472  0.195081  1
  O  O14  1  0.419609  0.336472  0.804919  1
  O  O15  1  0.580391  0.663528  0.804919  1
  O  O16  1  0.663528  0.419609  0.195081  1
  O  O17  1  0.336472  0.580391  0.195081  1
  O  O18  1  0.641368  0.858632  0.289485  1
  O  O19  1  0.141368  0.641368  0.710515  1
  O  O20  1  0.858632  0.358632  0.710515  1
  O  O21  1  0.358632  0.141368  0.289485  1
  O  O22  1  0.500000  0.000000  0.822753  1
  O  O23  1  0.000000  0.500000  0.177247  1
