# generated using pymatgen
data_Er10In8NiPd2Ru
_symmetry_space_group_name_H-M   'P 1'
_cell_length_a   3.59014900
_cell_length_b   8.04941936
_cell_length_c   18.12042996
_cell_angle_alpha   90.10609940
_cell_angle_beta   90.00000000
_cell_angle_gamma   90.00000000
_symmetry_Int_Tables_number   1
_chemical_formula_structural   Er10In8NiPd2Ru
_chemical_formula_sum   'Er10 In8 Ni1 Pd2 Ru1'
_cell_volume   523.65442874
_cell_formula_units_Z   1
loop_
 _symmetry_equiv_pos_site_id
 _symmetry_equiv_pos_as_xyz
  1  'x, y, z'
loop_
 _atom_site_type_symbol
 _atom_site_label
 _atom_site_symmetry_multiplicity
 _atom_site_fract_x
 _atom_site_fract_y
 _atom_site_fract_z
 _atom_site_occupancy
  Er  Er0  1  0.000000  0.500256  0.501051  1
  Er  Er1  1  0.000000  0.999872  0.999486  1
  Er  Er2  1  0.000000  0.728292  0.277075  1
  Er  Er3  1  0.000000  0.267151  0.723604  1
  Er  Er4  1  0.000000  0.745981  0.780178  1
  Er  Er5  1  0.000000  0.255023  0.220027  1
  Er  Er6  1  0.000000  0.616941  0.085934  1
  Er  Er7  1  0.000000  0.385160  0.910566  1
  Er  Er8  1  0.000000  0.882677  0.585697  1
  Er  Er9  1  0.000000  0.119828  0.415074  1
  In  In10  1  0.500000  0.706538  0.930663  1
  In  In11  1  0.500000  0.293929  0.066676  1
  In  In12  1  0.500000  0.792271  0.433262  1
  In  In13  1  0.500000  0.208182  0.568784  1
  In  In14  1  0.500000  0.576269  0.651229  1
  In  In15  1  0.500000  0.428401  0.350928  1
  In  In16  1  0.500000  0.924617  0.149451  1
  In  In17  1  0.500000  0.073552  0.850759  1
  Ni  Ni18  1  0.500000  0.478621  0.804301  1
  Pd  Pd19  1  0.500000  0.977658  0.696818  1
  Pd  Pd20  1  0.500000  0.018758  0.303884  1
  Ru  Ru21  1  0.500000  0.520025  0.194551  1
