# generated using pymatgen
data_Mn2Be8CoOs
_symmetry_space_group_name_H-M   'P 1'
_cell_length_a   4.24477900
_cell_length_b   4.24477973
_cell_length_c   6.94607300
_cell_angle_alpha   90.00000000
_cell_angle_beta   90.00000000
_cell_angle_gamma   120.00000212
_symmetry_Int_Tables_number   1
_chemical_formula_structural   Mn2Be8CoOs
_chemical_formula_sum   'Mn2 Be8 Co1 Os1'
_cell_volume   108.38775185
_cell_formula_units_Z   1
loop_
 _symmetry_equiv_pos_site_id
 _symmetry_equiv_pos_as_xyz
  1  'x, y, z'
loop_
 _atom_site_type_symbol
 _atom_site_label
 _atom_site_symmetry_multiplicity
 _atom_site_fract_x
 _atom_site_fract_y
 _atom_site_fract_z
 _atom_site_occupancy
  Mn  Mn0  1  0.666667  0.333333  0.942695  1
  Mn  Mn1  1  0.333333  0.666667  0.433719  1
  Be  Be2  1  0.000000  0.000000  0.003329  1
  Be  Be3  1  0.000000  0.000000  0.498051  1
  Be  Be4  1  0.829863  0.659723  0.248696  1
  Be  Be5  1  0.169344  0.830656  0.750705  1
  Be  Be6  1  0.661309  0.830656  0.750705  1
  Be  Be7  1  0.340277  0.170137  0.248696  1
  Be  Be8  1  0.829863  0.170137  0.248696  1
  Be  Be9  1  0.169344  0.338691  0.750705  1
  Co  Co10  1  0.333333  0.666667  0.062743  1
  Os  Os11  1  0.666667  0.333333  0.561261  1
