# generated using pymatgen
data_NdHoFe6(CoB4)2
_symmetry_space_group_name_H-M   'P 1'
_cell_length_a   7.00442502
_cell_length_b   7.00026495
_cell_length_c   3.80924500
_cell_angle_alpha   90.00000000
_cell_angle_beta   90.00000000
_cell_angle_gamma   90.28151984
_symmetry_Int_Tables_number   1
_chemical_formula_structural   NdHoFe6(CoB4)2
_chemical_formula_sum   'Nd1 Ho1 Fe6 Co2 B8'
_cell_volume   186.77581147
_cell_formula_units_Z   1
loop_
 _symmetry_equiv_pos_site_id
 _symmetry_equiv_pos_as_xyz
  1  'x, y, z'
loop_
 _atom_site_type_symbol
 _atom_site_label
 _atom_site_symmetry_multiplicity
 _atom_site_fract_x
 _atom_site_fract_y
 _atom_site_fract_z
 _atom_site_occupancy
  Nd  Nd0  1  0.500000  0.500000  0.504668  1
  Ho  Ho1  1  0.000000  0.000000  0.003966  1
  Fe  Fe2  1  0.385056  0.130402  0.892940  1
  Fe  Fe3  1  0.614944  0.869598  0.892940  1
  Fe  Fe4  1  0.365281  0.886804  0.392845  1
  Fe  Fe5  1  0.634719  0.113196  0.392845  1
  Fe  Fe6  1  0.113055  0.365747  0.606569  1
  Fe  Fe7  1  0.886945  0.634253  0.606569  1
  Co  Co8  1  0.134179  0.615214  0.107235  1
  Co  Co9  1  0.865821  0.384786  0.107235  1
  B  B10  1  0.800430  0.669144  0.103504  1
  B  B11  1  0.199570  0.330856  0.103504  1
  B  B12  1  0.839088  0.292201  0.604910  1
  B  B13  1  0.160912  0.707799  0.604910  1
  B  B14  1  0.705343  0.836307  0.393691  1
  B  B15  1  0.294657  0.163693  0.393691  1
  B  B16  1  0.667813  0.193215  0.893991  1
  B  B17  1  0.332187  0.806785  0.893991  1
