# generated using pymatgen
data_Ba8Si15As
_symmetry_space_group_name_H-M   'P 1'
_cell_length_a   6.77321138
_cell_length_b   9.05572079
_cell_length_c   11.54921516
_cell_angle_alpha   90.01855877
_cell_angle_beta   90.00090780
_cell_angle_gamma   90.25801907
_symmetry_Int_Tables_number   1
_chemical_formula_structural   Ba8Si15As
_chemical_formula_sum   'Ba8 Si15 As1'
_cell_volume   708.37903392
_cell_formula_units_Z   1
loop_
 _symmetry_equiv_pos_site_id
 _symmetry_equiv_pos_as_xyz
  1  'x, y, z'
loop_
 _atom_site_type_symbol
 _atom_site_label
 _atom_site_symmetry_multiplicity
 _atom_site_fract_x
 _atom_site_fract_y
 _atom_site_fract_z
 _atom_site_occupancy
  Ba  Ba0  1  0.247872  0.012791  0.308250  1
  Ba  Ba1  1  0.249040  0.515898  0.195281  1
  Ba  Ba2  1  0.747402  0.985378  0.692858  1
  Ba  Ba3  1  0.747917  0.488429  0.804513  1
  Ba  Ba4  1  0.251521  0.842837  0.904870  1
  Ba  Ba5  1  0.251819  0.344778  0.591535  1
  Ba  Ba6  1  0.752952  0.156419  0.094856  1
  Ba  Ba7  1  0.749374  0.656715  0.407381  1
  Si  Si8  1  0.255987  0.413466  0.909679  1
  Si  Si9  1  0.251655  0.914589  0.593346  1
  Si  Si10  1  0.748612  0.584679  0.089116  1
  Si  Si11  1  0.748151  0.084905  0.408337  1
  Si  Si12  1  0.253024  0.196626  0.034385  1
  Si  Si13  1  0.249949  0.698293  0.466580  1
  Si  Si14  1  0.750064  0.803143  0.964739  1
  Si  Si15  1  0.749514  0.302020  0.534008  1
  Si  Si16  1  0.429465  0.692938  0.646485  1
  Si  Si17  1  0.573118  0.805995  0.146137  1
  Si  Si18  1  0.927319  0.306436  0.353750  1
  Si  Si19  1  0.928846  0.805160  0.145671  1
  Si  Si20  1  0.571314  0.305954  0.352457  1
  Si  Si21  1  0.437099  0.194534  0.855355  1
  Si  Si22  1  0.071958  0.693039  0.646685  1
  As  As23  1  0.056031  0.194980  0.853725  1
