# generated using pymatgen
data_Tb2CeDy(ReB6)2
_symmetry_space_group_name_H-M   'P 1'
_cell_length_a   3.72031900
_cell_length_b   9.22230006
_cell_length_c   11.60947167
_cell_angle_alpha   90.16335526
_cell_angle_beta   90.00000000
_cell_angle_gamma   90.00000000
_symmetry_Int_Tables_number   1
_chemical_formula_structural   Tb2CeDy(ReB6)2
_chemical_formula_sum   'Tb4 Ce2 Dy2 Re4 B24'
_cell_volume   398.31817158
_cell_formula_units_Z   2
loop_
 _symmetry_equiv_pos_site_id
 _symmetry_equiv_pos_as_xyz
  1  'x, y, z'
loop_
 _atom_site_type_symbol
 _atom_site_label
 _atom_site_symmetry_multiplicity
 _atom_site_fract_x
 _atom_site_fract_y
 _atom_site_fract_z
 _atom_site_occupancy
  Tb  Tb0  1  0.000000  0.824074  0.085548  1
  Tb  Tb1  1  0.000000  0.175926  0.914452  1
  Tb  Tb2  1  0.000000  0.943213  0.370511  1
  Tb  Tb3  1  0.000000  0.056787  0.629489  1
  Ce  Ce4  1  0.000000  0.322614  0.413620  1
  Ce  Ce5  1  0.000000  0.677386  0.586380  1
  Dy  Dy6  1  0.000000  0.442692  0.128726  1
  Dy  Dy7  1  0.000000  0.557308  0.871274  1
  Re  Re8  1  0.000000  0.636679  0.322152  1
  Re  Re9  1  0.000000  0.363321  0.677848  1
  Re  Re10  1  0.000000  0.139341  0.179767  1
  Re  Re11  1  0.000000  0.860659  0.820233  1
  B  B12  1  0.500000  0.553696  0.431545  1
  B  B13  1  0.500000  0.446304  0.568455  1
  B  B14  1  0.500000  0.053582  0.066974  1
  B  B15  1  0.500000  0.946418  0.933026  1
  B  B16  1  0.500000  0.747961  0.417428  1
  B  B17  1  0.500000  0.252039  0.582572  1
  B  B18  1  0.500000  0.248274  0.081045  1
  B  B19  1  0.500000  0.751726  0.918955  1
  B  B20  1  0.500000  0.790831  0.265229  1
  B  B21  1  0.500000  0.209169  0.734771  1
  B  B22  1  0.500000  0.290985  0.233376  1
  B  B23  1  0.500000  0.709015  0.766624  1
  B  B24  1  0.500000  0.630659  0.185394  1
  B  B25  1  0.500000  0.369341  0.814606  1
  B  B26  1  0.500000  0.131459  0.313119  1
  B  B27  1  0.500000  0.868541  0.686881  1
  B  B28  1  0.500000  0.983136  0.211420  1
  B  B29  1  0.500000  0.016864  0.788580  1
  B  B30  1  0.500000  0.483315  0.286867  1
  B  B31  1  0.500000  0.516685  0.713133  1
  B  B32  1  0.500000  0.601471  0.028494  1
  B  B33  1  0.500000  0.398529  0.971506  1
  B  B34  1  0.500000  0.104835  0.470797  1
  B  B35  1  0.500000  0.895165  0.529203  1
