# generated using pymatgen
data_Tb4HgSb5Rh7
_symmetry_space_group_name_H-M   'P 1'
_cell_length_a   7.63047205
_cell_length_b   7.63047169
_cell_length_c   7.63047166
_cell_angle_alpha   108.53501196
_cell_angle_beta   109.94134240
_cell_angle_gamma   109.94134545
_symmetry_Int_Tables_number   1
_chemical_formula_structural   Tb4HgSb5Rh7
_chemical_formula_sum   'Tb4 Hg1 Sb5 Rh7'
_cell_volume   341.93651140
_cell_formula_units_Z   1
loop_
 _symmetry_equiv_pos_site_id
 _symmetry_equiv_pos_as_xyz
  1  'x, y, z'
loop_
 _atom_site_type_symbol
 _atom_site_label
 _atom_site_symmetry_multiplicity
 _atom_site_fract_x
 _atom_site_fract_y
 _atom_site_fract_z
 _atom_site_occupancy
  Tb  Tb0  1  0.501065  0.008296  0.008296  1
  Tb  Tb1  1  0.000000  0.507231  0.008296  1
  Tb  Tb2  1  0.000000  0.008296  0.507231  1
  Tb  Tb3  1  0.498935  0.507231  0.507231  1
  Hg  Hg4  1  0.000000  0.297200  0.297200  1
  Sb  Sb5  1  0.685078  0.004466  0.689544  1
  Sb  Sb6  1  0.685078  0.689544  0.004466  1
  Sb  Sb7  1  0.000000  0.666516  0.666516  1
  Sb  Sb8  1  0.314922  0.004466  0.319388  1
  Sb  Sb9  1  0.314922  0.319388  0.004466  1
  Rh  Rh10  1  0.000000  0.968330  0.968330  1
  Rh  Rh11  1  0.500000  0.754489  0.254489  1
  Rh  Rh12  1  0.746445  0.502514  0.248959  1
  Rh  Rh13  1  0.253555  0.756069  0.502514  1
  Rh  Rh14  1  0.253555  0.502514  0.756069  1
  Rh  Rh15  1  0.500000  0.254489  0.754489  1
  Rh  Rh16  1  0.746445  0.248959  0.502514  1
