# generated using pymatgen
data_Er2Cr3Si7Pt9
_symmetry_space_group_name_H-M   'P 1'
_cell_length_a   9.92636400
_cell_length_b   9.92636503
_cell_length_c   3.89689100
_cell_angle_alpha   90.00000000
_cell_angle_beta   90.00000000
_cell_angle_gamma   120.00000901
_symmetry_Int_Tables_number   1
_chemical_formula_structural   Er2Cr3Si7Pt9
_chemical_formula_sum   'Er2 Cr3 Si7 Pt9'
_cell_volume   332.52881829
_cell_formula_units_Z   1
loop_
 _symmetry_equiv_pos_site_id
 _symmetry_equiv_pos_as_xyz
  1  'x, y, z'
loop_
 _atom_site_type_symbol
 _atom_site_label
 _atom_site_symmetry_multiplicity
 _atom_site_fract_x
 _atom_site_fract_y
 _atom_site_fract_z
 _atom_site_occupancy
  Er  Er0  1  0.000000  0.000000  0.000000  1
  Er  Er1  1  0.333333  0.666667  0.500000  1
  Cr  Cr2  1  0.891011  0.455011  0.500000  1
  Cr  Cr3  1  0.563998  0.108989  0.500000  1
  Cr  Cr4  1  0.544989  0.436002  0.500000  1
  Si  Si5  1  0.259000  0.212174  0.500000  1
  Si  Si6  1  0.787826  0.046827  0.500000  1
  Si  Si7  1  0.953173  0.741000  0.500000  1
  Si  Si8  1  0.553875  0.634490  0.000000  1
  Si  Si9  1  0.365510  0.919385  0.000000  1
  Si  Si10  1  0.080615  0.446125  0.000000  1
  Si  Si11  1  0.666667  0.333333  0.000000  1
  Pt  Pt12  1  0.219289  0.943656  0.500000  1
  Pt  Pt13  1  0.056344  0.275634  0.500000  1
  Pt  Pt14  1  0.724366  0.780711  0.500000  1
  Pt  Pt15  1  0.305991  0.410346  0.000000  1
  Pt  Pt16  1  0.589654  0.895645  0.000000  1
  Pt  Pt17  1  0.104355  0.694009  0.000000  1
  Pt  Pt18  1  0.392051  0.177350  0.000000  1
  Pt  Pt19  1  0.822650  0.214702  0.000000  1
  Pt  Pt20  1  0.785298  0.607949  0.000000  1
