# generated using pymatgen
data_La3NdDyUSe10
_symmetry_space_group_name_H-M   'P 1'
_cell_length_a   7.91992757
_cell_length_b   8.49521459
_cell_length_c   12.57758800
_cell_angle_alpha   90.00000000
_cell_angle_beta   90.00000000
_cell_angle_gamma   90.04315548
_symmetry_Int_Tables_number   1
_chemical_formula_structural   La3NdDyUSe10
_chemical_formula_sum   'La6 Nd2 Dy2 U2 Se20'
_cell_volume   846.23854917
_cell_formula_units_Z   2
loop_
 _symmetry_equiv_pos_site_id
 _symmetry_equiv_pos_as_xyz
  1  'x, y, z'
loop_
 _atom_site_type_symbol
 _atom_site_label
 _atom_site_symmetry_multiplicity
 _atom_site_fract_x
 _atom_site_fract_y
 _atom_site_fract_z
 _atom_site_occupancy
  La  La0  1  0.528412  0.502529  0.322968  1
  La  La1  1  0.971588  0.997471  0.822968  1
  La  La2  1  0.476331  0.997951  0.676539  1
  La  La3  1  0.023669  0.502049  0.176539  1
  La  La4  1  0.476153  0.502083  0.677211  1
  La  La5  1  0.023847  0.997917  0.177211  1
  Nd  Nd6  1  0.527748  0.999268  0.321760  1
  Nd  Nd7  1  0.972252  0.500732  0.821760  1
  Dy  Dy8  1  0.074254  0.750062  0.493747  1
  Dy  Dy9  1  0.425746  0.749938  0.993747  1
  U  U10  1  0.941109  0.249457  0.506186  1
  U  U11  1  0.558891  0.250543  0.006186  1
  Se  Se12  1  0.837064  0.966168  0.594571  1
  Se  Se13  1  0.662936  0.533832  0.094571  1
  Se  Se14  1  0.163056  0.454497  0.406157  1
  Se  Se15  1  0.336944  0.045503  0.906157  1
  Se  Se16  1  0.165479  0.045652  0.406490  1
  Se  Se17  1  0.334521  0.454348  0.906490  1
  Se  Se18  1  0.836920  0.533182  0.595515  1
  Se  Se19  1  0.663080  0.966818  0.095515  1
  Se  Se20  1  0.829327  0.751533  0.315018  1
  Se  Se21  1  0.670673  0.748467  0.815018  1
  Se  Se22  1  0.166625  0.251441  0.683456  1
  Se  Se23  1  0.333375  0.248559  0.183456  1
  Se  Se24  1  0.455356  0.752556  0.496231  1
  Se  Se25  1  0.044644  0.747444  0.996231  1
  Se  Se26  1  0.551486  0.247892  0.499646  1
  Se  Se27  1  0.948514  0.252108  0.999646  1
  Se  Se28  1  0.191308  0.747498  0.713633  1
  Se  Se29  1  0.308692  0.752502  0.213633  1
  Se  Se30  1  0.808667  0.248453  0.290874  1
  Se  Se31  1  0.691333  0.251547  0.790874  1
