# generated using pymatgen
data_Eu5TaMoO12
_symmetry_space_group_name_H-M   'P 1'
_cell_length_a   7.09392444
_cell_length_b   7.09392371
_cell_length_c   7.62363104
_cell_angle_alpha   74.02527020
_cell_angle_beta   74.02527463
_cell_angle_gamma   50.94819796
_symmetry_Int_Tables_number   1
_chemical_formula_structural   Eu5TaMoO12
_chemical_formula_sum   'Eu5 Ta1 Mo1 O12'
_cell_volume   283.75184278
_cell_formula_units_Z   1
loop_
 _symmetry_equiv_pos_site_id
 _symmetry_equiv_pos_as_xyz
  1  'x, y, z'
loop_
 _atom_site_type_symbol
 _atom_site_label
 _atom_site_symmetry_multiplicity
 _atom_site_fract_x
 _atom_site_fract_y
 _atom_site_fract_z
 _atom_site_occupancy
  Eu  Eu0  1  0.304590  0.298584  0.365594  1
  Eu  Eu1  1  0.701416  0.695410  0.634406  1
  Eu  Eu2  1  0.307566  0.310501  0.825743  1
  Eu  Eu3  1  0.689499  0.692434  0.174257  1
  Eu  Eu4  1  0.001075  0.998925  0.500000  1
  Ta  Ta5  1  0.761643  0.238357  0.000000  1
  Mo  Mo6  1  0.248431  0.751569  0.000000  1
  O  O7  1  0.894780  0.427653  0.920606  1
  O  O8  1  0.414063  0.897380  0.921603  1
  O  O9  1  0.102620  0.585937  0.078397  1
  O  O10  1  0.572347  0.105220  0.079394  1
  O  O11  1  0.096664  0.597145  0.573659  1
  O  O12  1  0.596633  0.094478  0.576141  1
  O  O13  1  0.905522  0.403367  0.423859  1
  O  O14  1  0.402855  0.903336  0.426341  1
  O  O15  1  0.996807  0.005720  0.819523  1
  O  O16  1  0.994280  0.003193  0.180477  1
  O  O17  1  0.504946  0.495737  0.820591  1
  O  O18  1  0.504263  0.495054  0.179409  1
