# generated using pymatgen
data_Pr4NiAg
_symmetry_space_group_name_H-M   'P 1'
_cell_length_a   9.84219575
_cell_length_b   9.84223579
_cell_length_c   9.84222133
_cell_angle_alpha   60.22495130
_cell_angle_beta   60.22389157
_cell_angle_gamma   60.22438848
_symmetry_Int_Tables_number   1
_chemical_formula_structural   Pr4NiAg
_chemical_formula_sum   'Pr16 Ni4 Ag4'
_cell_volume   677.58662719
_cell_formula_units_Z   4
loop_
 _symmetry_equiv_pos_site_id
 _symmetry_equiv_pos_as_xyz
  1  'x, y, z'
loop_
 _atom_site_type_symbol
 _atom_site_label
 _atom_site_symmetry_multiplicity
 _atom_site_fract_x
 _atom_site_fract_y
 _atom_site_fract_z
 _atom_site_occupancy
  Pr  Pr0  1  0.810091  0.191902  0.191899  1
  Pr  Pr1  1  0.191980  0.808049  0.808051  1
  Pr  Pr2  1  0.191902  0.810102  0.191897  1
  Pr  Pr3  1  0.808044  0.191981  0.808054  1
  Pr  Pr4  1  0.191900  0.191902  0.810101  1
  Pr  Pr5  1  0.808045  0.808059  0.191978  1
  Pr  Pr6  1  0.937050  0.563172  0.563169  1
  Pr  Pr7  1  0.562294  0.936941  0.936937  1
  Pr  Pr8  1  0.563171  0.937049  0.563174  1
  Pr  Pr9  1  0.936942  0.562291  0.936942  1
  Pr  Pr10  1  0.563171  0.563173  0.937047  1
  Pr  Pr11  1  0.936943  0.936946  0.562291  1
  Pr  Pr12  1  0.347861  0.347845  0.347839  1
  Pr  Pr13  1  0.350141  0.350129  0.949065  1
  Pr  Pr14  1  0.350144  0.949060  0.350133  1
  Pr  Pr15  1  0.949055  0.350140  0.350134  1
  Ni  Ni16  1  0.142677  0.142672  0.142685  1
  Ni  Ni17  1  0.142660  0.142657  0.572203  1
  Ni  Ni18  1  0.142658  0.572202  0.142664  1
  Ni  Ni19  1  0.572201  0.142658  0.142666  1
  Ag  Ag20  1  0.580853  0.580855  0.580854  1
  Ag  Ag21  1  0.579947  0.579947  0.260319  1
  Ag  Ag22  1  0.579948  0.260318  0.579948  1
  Ag  Ag23  1  0.260320  0.579947  0.579948  1
