# generated using pymatgen
data_Ba3YLuS6
_symmetry_space_group_name_H-M   'P 1'
_cell_length_a   8.50161983
_cell_length_b   8.50161925
_cell_length_c   8.50161900
_cell_angle_alpha   92.52783068
_cell_angle_beta   92.52783725
_cell_angle_gamma   92.52783807
_symmetry_Int_Tables_number   1
_chemical_formula_structural   Ba3YLuS6
_chemical_formula_sum   'Ba6 Y2 Lu2 S12'
_cell_volume   612.62762111
_cell_formula_units_Z   2
loop_
 _symmetry_equiv_pos_site_id
 _symmetry_equiv_pos_as_xyz
  1  'x, y, z'
loop_
 _atom_site_type_symbol
 _atom_site_label
 _atom_site_symmetry_multiplicity
 _atom_site_fract_x
 _atom_site_fract_y
 _atom_site_fract_z
 _atom_site_occupancy
  Ba  Ba0  1  0.372602  0.750000  0.127398  1
  Ba  Ba1  1  0.127398  0.372602  0.750000  1
  Ba  Ba2  1  0.750000  0.127398  0.372602  1
  Ba  Ba3  1  0.627398  0.250000  0.872602  1
  Ba  Ba4  1  0.872602  0.627398  0.250000  1
  Ba  Ba5  1  0.250000  0.872602  0.627398  1
  Y  Y6  1  0.250000  0.250000  0.250000  1
  Y  Y7  1  0.750000  0.750000  0.750000  1
  Lu  Lu8  1  0.500000  0.500000  0.500000  1
  Lu  Lu9  1  0.000000  0.000000  0.000000  1
  S  S10  1  0.538079  0.407458  0.200697  1
  S  S11  1  0.200697  0.538079  0.407458  1
  S  S12  1  0.407458  0.200697  0.538079  1
  S  S13  1  0.961921  0.299303  0.092542  1
  S  S14  1  0.092542  0.961921  0.299303  1
  S  S15  1  0.299303  0.092542  0.961921  1
  S  S16  1  0.461921  0.592542  0.799303  1
  S  S17  1  0.799303  0.461921  0.592542  1
  S  S18  1  0.592542  0.799303  0.461921  1
  S  S19  1  0.038079  0.700697  0.907458  1
  S  S20  1  0.700697  0.907458  0.038079  1
  S  S21  1  0.907458  0.038079  0.700697  1
