# generated using pymatgen
data_Ca6CrAs12Rh17
_symmetry_space_group_name_H-M   'P 1'
_cell_length_a   4.02299000
_cell_length_b   11.64151400
_cell_length_c   13.26990600
_cell_angle_alpha   90.00000000
_cell_angle_beta   90.00000000
_cell_angle_gamma   90.00000000
_symmetry_Int_Tables_number   1
_chemical_formula_structural   Ca6CrAs12Rh17
_chemical_formula_sum   'Ca6 Cr1 As12 Rh17'
_cell_volume   621.47872241
_cell_formula_units_Z   1
loop_
 _symmetry_equiv_pos_site_id
 _symmetry_equiv_pos_as_xyz
  1  'x, y, z'
loop_
 _atom_site_type_symbol
 _atom_site_label
 _atom_site_symmetry_multiplicity
 _atom_site_fract_x
 _atom_site_fract_y
 _atom_site_fract_z
 _atom_site_occupancy
  Ca  Ca0  1  0.000000  0.500000  0.524382  1
  Ca  Ca1  1  0.500000  0.000000  0.475577  1
  Ca  Ca2  1  0.500000  0.822271  0.204620  1
  Ca  Ca3  1  0.500000  0.177729  0.204620  1
  Ca  Ca4  1  0.000000  0.682019  0.795755  1
  Ca  Ca5  1  0.000000  0.317981  0.795755  1
  Cr  Cr6  1  0.500000  0.000000  0.010915  1
  As  As7  1  0.500000  0.500000  0.879486  1
  As  As8  1  0.000000  0.000000  0.121389  1
  As  As9  1  0.500000  0.500000  0.345395  1
  As  As10  1  0.000000  0.000000  0.654801  1
  As  As11  1  0.500000  0.311450  0.618624  1
  As  As12  1  0.500000  0.688550  0.618624  1
  As  As13  1  0.000000  0.189029  0.381086  1
  As  As14  1  0.000000  0.810971  0.381086  1
  As  As15  1  0.500000  0.848829  0.891499  1
  As  As16  1  0.500000  0.151171  0.891499  1
  As  As17  1  0.000000  0.655165  0.108924  1
  As  As18  1  0.000000  0.344835  0.108924  1
  Rh  Rh19  1  0.500000  0.500000  0.160141  1
  Rh  Rh20  1  0.000000  0.000000  0.840612  1
  Rh  Rh21  1  0.500000  0.500000  0.697942  1
  Rh  Rh22  1  0.000000  0.000000  0.305719  1
  Rh  Rh23  1  0.000000  0.500000  0.986444  1
  Rh  Rh24  1  0.500000  0.332794  0.992906  1
  Rh  Rh25  1  0.500000  0.667206  0.992906  1
  Rh  Rh26  1  0.000000  0.166080  0.006717  1
  Rh  Rh27  1  0.000000  0.833920  0.006717  1
  Rh  Rh28  1  0.500000  0.297418  0.431539  1
  Rh  Rh29  1  0.500000  0.702582  0.431539  1
  Rh  Rh30  1  0.000000  0.203049  0.568259  1
  Rh  Rh31  1  0.000000  0.796951  0.568259  1
  Rh  Rh32  1  0.500000  0.875554  0.707639  1
  Rh  Rh33  1  0.500000  0.124446  0.707639  1
  Rh  Rh34  1  0.000000  0.624326  0.291033  1
  Rh  Rh35  1  0.000000  0.375674  0.291033  1
