# generated using pymatgen
data_LiNd3(NiSb)5
_symmetry_space_group_name_H-M   'P 1'
_cell_length_a   4.37827400
_cell_length_b   9.83378200
_cell_length_c   13.15502000
_cell_angle_alpha   90.00000000
_cell_angle_beta   90.00000000
_cell_angle_gamma   90.00000000
_symmetry_Int_Tables_number   1
_chemical_formula_structural   LiNd3(NiSb)5
_chemical_formula_sum   'Li2 Nd6 Ni10 Sb10'
_cell_volume   566.38928155
_cell_formula_units_Z   2
loop_
 _symmetry_equiv_pos_site_id
 _symmetry_equiv_pos_as_xyz
  1  'x, y, z'
loop_
 _atom_site_type_symbol
 _atom_site_label
 _atom_site_symmetry_multiplicity
 _atom_site_fract_x
 _atom_site_fract_y
 _atom_site_fract_z
 _atom_site_occupancy
  Li  Li0  1  0.500000  0.508109  0.000000  1
  Li  Li1  1  0.000000  0.491891  0.500000  1
  Nd  Nd2  1  0.000000  0.237781  0.000000  1
  Nd  Nd3  1  0.500000  0.762219  0.500000  1
  Nd  Nd4  1  0.000000  0.244153  0.321151  1
  Nd  Nd5  1  0.500000  0.755847  0.178849  1
  Nd  Nd6  1  0.000000  0.244153  0.678849  1
  Nd  Nd7  1  0.500000  0.755847  0.821151  1
  Ni  Ni8  1  0.000000  0.993956  0.161272  1
  Ni  Ni9  1  0.500000  0.006044  0.338728  1
  Ni  Ni10  1  0.000000  0.993956  0.838728  1
  Ni  Ni11  1  0.500000  0.006044  0.661272  1
  Ni  Ni12  1  0.500000  0.983757  0.000000  1
  Ni  Ni13  1  0.000000  0.016243  0.500000  1
  Ni  Ni14  1  0.000000  0.613202  0.326492  1
  Ni  Ni15  1  0.500000  0.386798  0.173508  1
  Ni  Ni16  1  0.000000  0.613202  0.673508  1
  Ni  Ni17  1  0.500000  0.386798  0.826492  1
  Sb  Sb18  1  0.000000  0.511029  0.142153  1
  Sb  Sb19  1  0.500000  0.488971  0.357847  1
  Sb  Sb20  1  0.000000  0.511029  0.857847  1
  Sb  Sb21  1  0.500000  0.488971  0.642153  1
  Sb  Sb22  1  0.000000  0.871279  0.336608  1
  Sb  Sb23  1  0.500000  0.128721  0.163392  1
  Sb  Sb24  1  0.000000  0.871279  0.663392  1
  Sb  Sb25  1  0.500000  0.128721  0.836608  1
  Sb  Sb26  1  0.000000  0.843700  0.000000  1
  Sb  Sb27  1  0.500000  0.156300  0.500000  1
