# generated using pymatgen
data_LiTm16Mg(InCo2)2
_symmetry_space_group_name_H-M   'P 1'
_cell_length_a   9.46533516
_cell_length_b   9.43125398
_cell_length_c   9.43125308
_cell_angle_alpha   59.48752007
_cell_angle_beta   59.66385616
_cell_angle_gamma   59.66385560
_symmetry_Int_Tables_number   1
_chemical_formula_structural   LiTm16Mg(InCo2)2
_chemical_formula_sum   'Li1 Tm16 Mg1 In2 Co4'
_cell_volume   589.98545015
_cell_formula_units_Z   1
loop_
 _symmetry_equiv_pos_site_id
 _symmetry_equiv_pos_as_xyz
  1  'x, y, z'
loop_
 _atom_site_type_symbol
 _atom_site_label
 _atom_site_symmetry_multiplicity
 _atom_site_fract_x
 _atom_site_fract_y
 _atom_site_fract_z
 _atom_site_occupancy
  Li  Li0  1  0.577225  0.571369  0.571369  1
  Tm  Tm1  1  0.347412  0.345205  0.345205  1
  Tm  Tm2  1  0.346093  0.344829  0.965665  1
  Tm  Tm3  1  0.346093  0.965665  0.344829  1
  Tm  Tm4  1  0.959966  0.346262  0.346262  1
  Tm  Tm5  1  0.807994  0.190257  0.190257  1
  Tm  Tm6  1  0.181320  0.816206  0.816206  1
  Tm  Tm7  1  0.188313  0.811615  0.188814  1
  Tm  Tm8  1  0.811122  0.187299  0.813377  1
  Tm  Tm9  1  0.188313  0.188814  0.811615  1
  Tm  Tm10  1  0.811122  0.813377  0.187299  1
  Tm  Tm11  1  0.939989  0.560257  0.560257  1
  Tm  Tm12  1  0.563839  0.937819  0.937819  1
  Tm  Tm13  1  0.561821  0.938235  0.561577  1
  Tm  Tm14  1  0.939889  0.561655  0.937780  1
  Tm  Tm15  1  0.561821  0.561577  0.938235  1
  Tm  Tm16  1  0.939889  0.937780  0.561655  1
  Mg  Mg17  1  0.268561  0.577136  0.577136  1
  In  In18  1  0.581538  0.582862  0.254613  1
  In  In19  1  0.581538  0.254613  0.582862  1
  Co  Co20  1  0.139664  0.142356  0.142356  1
  Co  Co21  1  0.139147  0.145006  0.577698  1
  Co  Co22  1  0.139147  0.577698  0.145006  1
  Co  Co23  1  0.578183  0.142111  0.142111  1
