# generated using pymatgen
data_Ac3Pd2PtPb3
_symmetry_space_group_name_H-M   'P 1'
_cell_length_a   8.10101400
_cell_length_b   8.10101320
_cell_length_c   4.24903100
_cell_angle_alpha   90.00000000
_cell_angle_beta   90.00000000
_cell_angle_gamma   120.00000325
_symmetry_Int_Tables_number   1
_chemical_formula_structural   Ac3Pd2PtPb3
_chemical_formula_sum   'Ac3 Pd2 Pt1 Pb3'
_cell_volume   241.49004907
_cell_formula_units_Z   1
loop_
 _symmetry_equiv_pos_site_id
 _symmetry_equiv_pos_as_xyz
  1  'x, y, z'
loop_
 _atom_site_type_symbol
 _atom_site_label
 _atom_site_symmetry_multiplicity
 _atom_site_fract_x
 _atom_site_fract_y
 _atom_site_fract_z
 _atom_site_occupancy
  Ac  Ac0  1  0.415059  0.409643  0.500000  1
  Ac  Ac1  1  0.590357  0.005416  0.500000  1
  Ac  Ac2  1  0.994584  0.584941  0.500000  1
  Pd  Pd3  1  0.333333  0.666667  0.000000  1
  Pd  Pd4  1  0.000000  0.000000  0.500000  1
  Pt  Pt5  1  0.666667  0.333333  0.000000  1
  Pb  Pb6  1  0.750574  0.755214  0.000000  1
  Pb  Pb7  1  0.244786  0.995360  0.000000  1
  Pb  Pb8  1  0.004640  0.249426  0.000000  1
