# generated using pymatgen
data_Dy16In6OsRh
_symmetry_space_group_name_H-M   'P 1'
_cell_length_a   10.43934300
_cell_length_b   10.43934218
_cell_length_c   7.05595300
_cell_angle_alpha   90.00000000
_cell_angle_beta   90.00000000
_cell_angle_gamma   120.00000577
_symmetry_Int_Tables_number   1
_chemical_formula_structural   Dy16In6OsRh
_chemical_formula_sum   'Dy16 In6 Os1 Rh1'
_cell_volume   665.93614231
_cell_formula_units_Z   1
loop_
 _symmetry_equiv_pos_site_id
 _symmetry_equiv_pos_as_xyz
  1  'x, y, z'
loop_
 _atom_site_type_symbol
 _atom_site_label
 _atom_site_symmetry_multiplicity
 _atom_site_fract_x
 _atom_site_fract_y
 _atom_site_fract_z
 _atom_site_occupancy
  Dy  Dy0  1  0.533381  0.066759  0.513761  1
  Dy  Dy1  1  0.933241  0.466619  0.513761  1
  Dy  Dy2  1  0.533381  0.466619  0.513761  1
  Dy  Dy3  1  0.467374  0.934750  0.014874  1
  Dy  Dy4  1  0.065250  0.532626  0.014874  1
  Dy  Dy5  1  0.467374  0.532626  0.014874  1
  Dy  Dy6  1  0.175832  0.351664  0.720683  1
  Dy  Dy7  1  0.648336  0.824168  0.720683  1
  Dy  Dy8  1  0.175832  0.824168  0.720683  1
  Dy  Dy9  1  0.823597  0.647194  0.221368  1
  Dy  Dy10  1  0.352806  0.176403  0.221368  1
  Dy  Dy11  1  0.823597  0.176403  0.221368  1
  Dy  Dy12  1  0.666667  0.333333  0.893465  1
  Dy  Dy13  1  0.333333  0.666667  0.393896  1
  Dy  Dy14  1  0.000000  0.000000  0.501028  1
  Dy  Dy15  1  0.000000  0.000000  0.000041  1
  In  In16  1  0.837117  0.674235  0.760669  1
  In  In17  1  0.325765  0.162883  0.760669  1
  In  In18  1  0.837117  0.162883  0.760669  1
  In  In19  1  0.163199  0.326399  0.260701  1
  In  In20  1  0.673601  0.836801  0.260701  1
  In  In21  1  0.163199  0.836801  0.260701  1
  Os  Os22  1  0.666667  0.333333  0.290545  1
  Rh  Rh23  1  0.333333  0.666667  0.789059  1
