# generated using pymatgen
data_Tb3Nd5(ErBi)12
_symmetry_space_group_name_H-M   'P 1'
_cell_length_a   8.32143424
_cell_length_b   9.50600900
_cell_length_c   12.19515200
_cell_angle_alpha   90.00000000
_cell_angle_beta   89.96872685
_cell_angle_gamma   90.00000000
_symmetry_Int_Tables_number   1
_chemical_formula_structural   Tb3Nd5(ErBi)12
_chemical_formula_sum   'Tb3 Nd5 Er12 Bi12'
_cell_volume   964.68063295
_cell_formula_units_Z   1
loop_
 _symmetry_equiv_pos_site_id
 _symmetry_equiv_pos_as_xyz
  1  'x, y, z'
loop_
 _atom_site_type_symbol
 _atom_site_label
 _atom_site_symmetry_multiplicity
 _atom_site_fract_x
 _atom_site_fract_y
 _atom_site_fract_z
 _atom_site_occupancy
  Tb  Tb0  1  0.852075  0.750000  0.283272  1
  Tb  Tb1  1  0.647443  0.250000  0.783438  1
  Tb  Tb2  1  0.146973  0.250000  0.716951  1
  Nd  Nd3  1  0.184746  0.750000  0.719950  1
  Nd  Nd4  1  0.685697  0.750000  0.779379  1
  Nd  Nd5  1  0.816033  0.250000  0.279809  1
  Nd  Nd6  1  0.315166  0.250000  0.220245  1
  Nd  Nd7  1  0.353006  0.750000  0.216395  1
  Er  Er8  1  0.024999  0.750000  0.988537  1
  Er  Er9  1  0.525464  0.750000  0.512295  1
  Er  Er10  1  0.974453  0.250000  0.010864  1
  Er  Er11  1  0.475125  0.250000  0.489268  1
  Er  Er12  1  0.306976  0.435557  0.939846  1
  Er  Er13  1  0.807047  0.064671  0.560180  1
  Er  Er14  1  0.692904  0.935355  0.059582  1
  Er  Er15  1  0.192810  0.564375  0.440567  1
  Er  Er16  1  0.692904  0.564645  0.059582  1
  Er  Er17  1  0.192810  0.935625  0.440567  1
  Er  Er18  1  0.306976  0.064443  0.939846  1
  Er  Er19  1  0.807047  0.435329  0.560180  1
  Bi  Bi20  1  0.434496  0.007936  0.671074  1
  Bi  Bi21  1  0.934404  0.492252  0.828880  1
  Bi  Bi22  1  0.567822  0.505553  0.331320  1
  Bi  Bi23  1  0.063060  0.993701  0.170613  1
  Bi  Bi24  1  0.567822  0.994447  0.331320  1
  Bi  Bi25  1  0.063060  0.506299  0.170613  1
  Bi  Bi26  1  0.434496  0.492064  0.671074  1
  Bi  Bi27  1  0.934404  0.007748  0.828880  1
  Bi  Bi28  1  0.406290  0.750000  0.957317  1
  Bi  Bi29  1  0.905963  0.750000  0.537919  1
  Bi  Bi30  1  0.593579  0.250000  0.038189  1
  Bi  Bi31  1  0.093950  0.250000  0.462050  1
