# generated using pymatgen
data_Y2ZrSc(Al3Rh)6
_symmetry_space_group_name_H-M   'P 1'
_cell_length_a   7.51430781
_cell_length_b   7.51071236
_cell_length_c   9.38385200
_cell_angle_alpha   90.00000000
_cell_angle_beta   90.00000000
_cell_angle_gamma   119.52646515
_symmetry_Int_Tables_number   1
_chemical_formula_structural   Y2ZrSc(Al3Rh)6
_chemical_formula_sum   'Y2 Zr1 Sc1 Al18 Rh6'
_cell_volume   460.82335388
_cell_formula_units_Z   1
loop_
 _symmetry_equiv_pos_site_id
 _symmetry_equiv_pos_as_xyz
  1  'x, y, z'
loop_
 _atom_site_type_symbol
 _atom_site_label
 _atom_site_symmetry_multiplicity
 _atom_site_fract_x
 _atom_site_fract_y
 _atom_site_fract_z
 _atom_site_occupancy
  Y  Y0  1  0.006072  0.327016  0.750000  1
  Y  Y1  1  0.328734  0.006965  0.750000  1
  Zr  Zr2  1  0.996188  0.672404  0.250000  1
  Sc  Sc3  1  0.672828  0.996167  0.250000  1
  Al  Al4  1  0.120343  0.119358  0.250000  1
  Al  Al5  1  0.869735  0.869379  0.750000  1
  Al  Al6  1  0.996399  0.335243  0.083396  1
  Al  Al7  1  0.998985  0.664694  0.929303  1
  Al  Al8  1  0.998985  0.664694  0.570697  1
  Al  Al9  1  0.335818  0.997237  0.416581  1
  Al  Al10  1  0.996399  0.335243  0.416604  1
  Al  Al11  1  0.664503  0.998302  0.571100  1
  Al  Al12  1  0.664503  0.998302  0.928900  1
  Al  Al13  1  0.335818  0.997237  0.083419  1
  Al  Al14  1  0.333875  0.334011  0.545255  1
  Al  Al15  1  0.670014  0.670317  0.439879  1
  Al  Al16  1  0.670014  0.670317  0.060121  1
  Al  Al17  1  0.333875  0.334011  0.954745  1
  Al  Al18  1  0.339050  0.556925  0.250000  1
  Al  Al19  1  0.660141  0.450922  0.750000  1
  Al  Al20  1  0.558778  0.342663  0.250000  1
  Al  Al21  1  0.450123  0.659346  0.750000  1
  Rh  Rh22  1  0.672872  0.328210  0.001822  1
  Rh  Rh23  1  0.327596  0.672682  0.002417  1
  Rh  Rh24  1  0.327596  0.672682  0.497583  1
  Rh  Rh25  1  0.672872  0.328210  0.498178  1
  Rh  Rh26  1  0.998942  0.998733  0.001903  1
  Rh  Rh27  1  0.998942  0.998733  0.498097  1
