# generated using pymatgen
data_Eu6Mg7Cd16P
_symmetry_space_group_name_H-M   'P 1'
_cell_length_a   10.18985363
_cell_length_b   10.18985390
_cell_length_c   10.18985400
_cell_angle_alpha   59.99999968
_cell_angle_beta   59.99999881
_cell_angle_gamma   60.00000196
_symmetry_Int_Tables_number   1
_chemical_formula_structural   Eu6Mg7Cd16P
_chemical_formula_sum   'Eu6 Mg7 Cd16 P1'
_cell_volume   748.15032387
_cell_formula_units_Z   1
loop_
 _symmetry_equiv_pos_site_id
 _symmetry_equiv_pos_as_xyz
  1  'x, y, z'
loop_
 _atom_site_type_symbol
 _atom_site_label
 _atom_site_symmetry_multiplicity
 _atom_site_fract_x
 _atom_site_fract_y
 _atom_site_fract_z
 _atom_site_occupancy
  Eu  Eu0  1  0.797539  0.797539  0.202461  1
  Eu  Eu1  1  0.202461  0.797539  0.202461  1
  Eu  Eu2  1  0.797539  0.202461  0.202461  1
  Eu  Eu3  1  0.202461  0.202461  0.797539  1
  Eu  Eu4  1  0.797539  0.202461  0.797539  1
  Eu  Eu5  1  0.202461  0.797539  0.797539  1
  Mg  Mg6  1  0.000000  0.000000  0.500000  1
  Mg  Mg7  1  0.500000  0.000000  0.500000  1
  Mg  Mg8  1  0.000000  0.500000  0.500000  1
  Mg  Mg9  1  0.500000  0.500000  0.000000  1
  Mg  Mg10  1  0.000000  0.500000  0.000000  1
  Mg  Mg11  1  0.500000  0.000000  0.000000  1
  Mg  Mg12  1  0.500000  0.500000  0.500000  1
  Cd  Cd13  1  0.829588  0.829588  0.511237  1
  Cd  Cd14  1  0.829588  0.511237  0.829588  1
  Cd  Cd15  1  0.511237  0.829588  0.829588  1
  Cd  Cd16  1  0.829588  0.829588  0.829588  1
  Cd  Cd17  1  0.170412  0.170412  0.488763  1
  Cd  Cd18  1  0.170412  0.488763  0.170412  1
  Cd  Cd19  1  0.488763  0.170412  0.170412  1
  Cd  Cd20  1  0.170412  0.170412  0.170412  1
  Cd  Cd21  1  0.620869  0.620869  0.137394  1
  Cd  Cd22  1  0.620869  0.137394  0.620869  1
  Cd  Cd23  1  0.137394  0.620869  0.620869  1
  Cd  Cd24  1  0.620869  0.620869  0.620869  1
  Cd  Cd25  1  0.379131  0.379131  0.862606  1
  Cd  Cd26  1  0.379131  0.862606  0.379131  1
  Cd  Cd27  1  0.862606  0.379131  0.379131  1
  Cd  Cd28  1  0.379131  0.379131  0.379131  1
  P  P29  1  0.000000  0.000000  0.000000  1
