# generated using pymatgen
data_ZrNpAg2F11
_symmetry_space_group_name_H-M   'P 1'
_cell_length_a   6.10830121
_cell_length_b   6.13825843
_cell_length_c   8.49165254
_cell_angle_alpha   112.97657432
_cell_angle_beta   97.08174255
_cell_angle_gamma   106.82898488
_symmetry_Int_Tables_number   1
_chemical_formula_structural   ZrNpAg2F11
_chemical_formula_sum   'Zr1 Np1 Ag2 F11'
_cell_volume   270.30039388
_cell_formula_units_Z   1
loop_
 _symmetry_equiv_pos_site_id
 _symmetry_equiv_pos_as_xyz
  1  'x, y, z'
loop_
 _atom_site_type_symbol
 _atom_site_label
 _atom_site_symmetry_multiplicity
 _atom_site_fract_x
 _atom_site_fract_y
 _atom_site_fract_z
 _atom_site_occupancy
  Zr  Zr0  1  0.501527  0.270756  0.773712  1
  Np  Np1  1  0.499593  0.740510  0.237570  1
  Ag  Ag2  1  0.985734  0.953880  0.938656  1
  Ag  Ag3  1  0.011351  0.497817  0.506950  1
  F  F4  1  0.268770  0.855361  0.123159  1
  F  F5  1  0.347135  0.331537  0.001852  1
  F  F6  1  0.660079  0.662512  0.995578  1
  F  F7  1  0.765653  0.483669  0.705710  1
  F  F8  1  0.781412  0.073645  0.289855  1
  F  F9  1  0.225132  0.935753  0.709995  1
  F  F10  1  0.731952  0.168880  0.893538  1
  F  F11  1  0.219806  0.507538  0.288784  1
  F  F12  1  0.731810  0.629718  0.353332  1
  F  F13  1  0.267651  0.383742  0.670957  1
  F  F14  1  0.502395  0.004682  0.510351  1
