# generated using pymatgen
data_HSI
_symmetry_space_group_name_H-M   'P 1'
_cell_length_a   8.54016400
_cell_length_b   4.74227345
_cell_length_c   4.74227356
_cell_angle_alpha   74.53717981
_cell_angle_beta   90.00000000
_cell_angle_gamma   90.00000000
_symmetry_Int_Tables_number   1
_chemical_formula_structural   HSI
_chemical_formula_sum   'H2 S2 I2'
_cell_volume   185.10918940
_cell_formula_units_Z   2
loop_
 _symmetry_equiv_pos_site_id
 _symmetry_equiv_pos_as_xyz
  1  'x, y, z'
loop_
 _atom_site_type_symbol
 _atom_site_label
 _atom_site_symmetry_multiplicity
 _atom_site_fract_x
 _atom_site_fract_y
 _atom_site_fract_z
 _atom_site_occupancy
  H  H0  1  0.750000  0.820972  0.218459  1
  H  H1  1  0.250000  0.218459  0.820972  1
  S  S2  1  0.250000  0.064132  0.618547  1
  S  S3  1  0.750000  0.618547  0.064132  1
  I  I4  1  0.000000  0.341947  0.341947  1
  I  I5  1  0.500000  0.341947  0.341947  1
