# generated using pymatgen
data_Zr3Sc13(CdNi)4
_symmetry_space_group_name_H-M   'P 1'
_cell_length_a   9.00319513
_cell_length_b   8.97887685
_cell_length_c   8.97919900
_cell_angle_alpha   60.00152099
_cell_angle_beta   60.08532703
_cell_angle_gamma   60.09410362
_symmetry_Int_Tables_number   1
_chemical_formula_structural   Zr3Sc13(CdNi)4
_chemical_formula_sum   'Zr3 Sc13 Cd4 Ni4'
_cell_volume   513.96538592
_cell_formula_units_Z   1
loop_
 _symmetry_equiv_pos_site_id
 _symmetry_equiv_pos_as_xyz
  1  'x, y, z'
loop_
 _atom_site_type_symbol
 _atom_site_label
 _atom_site_symmetry_multiplicity
 _atom_site_fract_x
 _atom_site_fract_y
 _atom_site_fract_z
 _atom_site_occupancy
  Zr  Zr0  1  0.348193  0.349227  0.349320  1
  Zr  Zr1  1  0.348098  0.349441  0.953139  1
  Zr  Zr2  1  0.348414  0.952973  0.349296  1
  Sc  Sc3  1  0.949042  0.350522  0.350338  1
  Sc  Sc4  1  0.813175  0.187061  0.186950  1
  Sc  Sc5  1  0.187971  0.812710  0.813027  1
  Sc  Sc6  1  0.187951  0.812698  0.186356  1
  Sc  Sc7  1  0.813252  0.187096  0.812719  1
  Sc  Sc8  1  0.187903  0.186406  0.812811  1
  Sc  Sc9  1  0.813390  0.812716  0.186982  1
  Sc  Sc10  1  0.938879  0.562228  0.562082  1
  Sc  Sc11  1  0.561464  0.938700  0.938609  1
  Sc  Sc12  1  0.561480  0.938611  0.561319  1
  Sc  Sc13  1  0.938828  0.562195  0.936875  1
  Sc  Sc14  1  0.561449  0.561304  0.938609  1
  Sc  Sc15  1  0.938951  0.937041  0.562013  1
  Cd  Cd16  1  0.583764  0.583960  0.583978  1
  Cd  Cd17  1  0.583711  0.583964  0.248312  1
  Cd  Cd18  1  0.583679  0.248420  0.583930  1
  Cd  Cd19  1  0.248946  0.583651  0.583694  1
  Ni  Ni20  1  0.144406  0.143675  0.143876  1
  Ni  Ni21  1  0.144593  0.143326  0.568172  1
  Ni  Ni22  1  0.144357  0.568107  0.143890  1
  Ni  Ni23  1  0.568097  0.143967  0.143701  1
