# generated using pymatgen
data_Sr6BiPtO12
_symmetry_space_group_name_H-M   'P 1'
_cell_length_a   7.02391132
_cell_length_b   7.02391264
_cell_length_c   7.02391228
_cell_angle_alpha   92.14605845
_cell_angle_beta   92.14605994
_cell_angle_gamma   92.14604729
_symmetry_Int_Tables_number   1
_chemical_formula_structural   Sr6BiPtO12
_chemical_formula_sum   'Sr6 Bi1 Pt1 O12'
_cell_volume   345.77920371
_cell_formula_units_Z   1
loop_
 _symmetry_equiv_pos_site_id
 _symmetry_equiv_pos_as_xyz
  1  'x, y, z'
loop_
 _atom_site_type_symbol
 _atom_site_label
 _atom_site_symmetry_multiplicity
 _atom_site_fract_x
 _atom_site_fract_y
 _atom_site_fract_z
 _atom_site_occupancy
  Sr  Sr0  1  0.066219  0.256181  0.564390  1
  Sr  Sr1  1  0.435610  0.933781  0.743819  1
  Sr  Sr2  1  0.743819  0.435610  0.933781  1
  Sr  Sr3  1  0.256181  0.564390  0.066219  1
  Sr  Sr4  1  0.564390  0.066219  0.256181  1
  Sr  Sr5  1  0.933781  0.743819  0.435610  1
  Bi  Bi6  1  0.000000  0.000000  0.000000  1
  Pt  Pt7  1  0.500000  0.500000  0.500000  1
  O  O8  1  0.067679  0.291847  0.929312  1
  O  O9  1  0.070688  0.932321  0.708153  1
  O  O10  1  0.453704  0.573230  0.768429  1
  O  O11  1  0.708153  0.070688  0.932321  1
  O  O12  1  0.231571  0.546296  0.426770  1
  O  O13  1  0.426770  0.231571  0.546296  1
  O  O14  1  0.573230  0.768429  0.453704  1
  O  O15  1  0.768429  0.453704  0.573230  1
  O  O16  1  0.291847  0.929312  0.067679  1
  O  O17  1  0.546296  0.426770  0.231571  1
  O  O18  1  0.929312  0.067679  0.291847  1
  O  O19  1  0.932321  0.708153  0.070688  1
