# generated using pymatgen
data_Ba4Zn(ReO6)2
_symmetry_space_group_name_H-M   'P 1'
_cell_length_a   9.96123020
_cell_length_b   9.96123049
_cell_length_c   9.96123080
_cell_angle_alpha   33.80258709
_cell_angle_beta   33.80258785
_cell_angle_gamma   33.80258362
_symmetry_Int_Tables_number   1
_chemical_formula_structural   Ba4Zn(ReO6)2
_chemical_formula_sum   'Ba4 Zn1 Re2 O12'
_cell_volume   272.60103192
_cell_formula_units_Z   1
loop_
 _symmetry_equiv_pos_site_id
 _symmetry_equiv_pos_as_xyz
  1  'x, y, z'
loop_
 _atom_site_type_symbol
 _atom_site_label
 _atom_site_symmetry_multiplicity
 _atom_site_fract_x
 _atom_site_fract_y
 _atom_site_fract_z
 _atom_site_occupancy
  Ba  Ba0  1  0.708060  0.708060  0.708060  1
  Ba  Ba1  1  0.291940  0.291940  0.291940  1
  Ba  Ba2  1  0.869702  0.869702  0.869702  1
  Ba  Ba3  1  0.130298  0.130298  0.130298  1
  Zn  Zn4  1  0.000000  0.000000  0.000000  1
  Re  Re5  1  0.580571  0.580571  0.580571  1
  Re  Re6  1  0.419429  0.419429  0.419429  1
  O  O7  1  0.220541  0.690788  0.220541  1
  O  O8  1  0.220541  0.220541  0.690788  1
  O  O9  1  0.690788  0.220541  0.220541  1
  O  O10  1  0.779459  0.309212  0.779459  1
  O  O11  1  0.779459  0.779459  0.309212  1
  O  O12  1  0.309212  0.779459  0.779459  1
  O  O13  1  0.389004  0.858766  0.389004  1
  O  O14  1  0.389004  0.389004  0.858766  1
  O  O15  1  0.858766  0.389004  0.389004  1
  O  O16  1  0.610996  0.141234  0.610996  1
  O  O17  1  0.610996  0.610996  0.141234  1
  O  O18  1  0.141234  0.610996  0.610996  1
