# generated using pymatgen
data_Dy5Tm3P12Ir7Rh9
_symmetry_space_group_name_H-M   'P 1'
_cell_length_a   12.97416600
_cell_length_b   12.97416706
_cell_length_c   3.97148100
_cell_angle_alpha   90.00000000
_cell_angle_beta   90.00000000
_cell_angle_gamma   120.00000239
_symmetry_Int_Tables_number   1
_chemical_formula_structural   Dy5Tm3P12Ir7Rh9
_chemical_formula_sum   'Dy5 Tm3 P12 Ir7 Rh9'
_cell_volume   578.95131753
_cell_formula_units_Z   1
loop_
 _symmetry_equiv_pos_site_id
 _symmetry_equiv_pos_as_xyz
  1  'x, y, z'
loop_
 _atom_site_type_symbol
 _atom_site_label
 _atom_site_symmetry_multiplicity
 _atom_site_fract_x
 _atom_site_fract_y
 _atom_site_fract_z
 _atom_site_occupancy
  Dy  Dy0  1  0.333333  0.666667  0.500000  1
  Dy  Dy1  1  0.666667  0.333333  0.500000  1
  Dy  Dy2  1  0.000176  0.813282  0.000000  1
  Dy  Dy3  1  0.186718  0.186894  0.000000  1
  Dy  Dy4  1  0.813106  0.999824  0.000000  1
  Tm  Tm5  1  0.000917  0.446010  0.500000  1
  Tm  Tm6  1  0.553990  0.554908  0.500000  1
  Tm  Tm7  1  0.445092  0.999083  0.500000  1
  P  P8  1  0.999728  0.651501  0.500000  1
  P  P9  1  0.348499  0.348227  0.500000  1
  P  P10  1  0.651773  0.000272  0.500000  1
  P  P11  1  0.517201  0.689539  0.000000  1
  P  P12  1  0.310461  0.827662  0.000000  1
  P  P13  1  0.172338  0.482799  0.000000  1
  P  P14  1  0.482434  0.172566  0.000000  1
  P  P15  1  0.690131  0.517566  0.000000  1
  P  P16  1  0.827434  0.309869  0.000000  1
  P  P17  1  0.999728  0.176233  0.500000  1
  P  P18  1  0.823767  0.823495  0.500000  1
  P  P19  1  0.176505  0.000272  0.500000  1
  Ir  Ir20  1  0.000480  0.274466  0.000000  1
  Ir  Ir21  1  0.725534  0.726014  0.000000  1
  Ir  Ir22  1  0.273986  0.999520  0.000000  1
  Ir  Ir23  1  0.371957  0.178790  0.500000  1
  Ir  Ir24  1  0.806833  0.628043  0.500000  1
  Ir  Ir25  1  0.821210  0.193167  0.500000  1
  Ir  Ir26  1  0.000000  0.000000  0.500000  1
  Rh  Rh27  1  0.513293  0.869150  0.000000  1
  Rh  Rh28  1  0.130850  0.644143  0.000000  1
  Rh  Rh29  1  0.355857  0.486707  0.000000  1
  Rh  Rh30  1  0.488290  0.357085  0.000000  1
  Rh  Rh31  1  0.868796  0.511710  0.000000  1
  Rh  Rh32  1  0.642915  0.131204  0.000000  1
  Rh  Rh33  1  0.628257  0.806883  0.500000  1
  Rh  Rh34  1  0.193117  0.821374  0.500000  1
  Rh  Rh35  1  0.178626  0.371743  0.500000  1
