# generated using pymatgen
data_Er20Ir6(OsPt)3
_symmetry_space_group_name_H-M   'P 1'
_cell_length_a   10.81515313
_cell_length_b   10.81348198
_cell_length_c   6.37702412
_cell_angle_alpha   89.99299262
_cell_angle_beta   89.97886874
_cell_angle_gamma   90.24116561
_symmetry_Int_Tables_number   1
_chemical_formula_structural   Er20Ir6(OsPt)3
_chemical_formula_sum   'Er20 Ir6 Os3 Pt3'
_cell_volume   745.78288611
_cell_formula_units_Z   1
loop_
 _symmetry_equiv_pos_site_id
 _symmetry_equiv_pos_as_xyz
  1  'x, y, z'
loop_
 _atom_site_type_symbol
 _atom_site_label
 _atom_site_symmetry_multiplicity
 _atom_site_fract_x
 _atom_site_fract_y
 _atom_site_fract_z
 _atom_site_occupancy
  Er  Er0  1  0.295891  0.084994  0.372090  1
  Er  Er1  1  0.295382  0.911301  0.877430  1
  Er  Er2  1  0.702925  0.087250  0.873860  1
  Er  Er3  1  0.702044  0.911597  0.373271  1
  Er  Er4  1  0.582935  0.793556  0.877726  1
  Er  Er5  1  0.583435  0.206445  0.376847  1
  Er  Er6  1  0.412802  0.793418  0.377134  1
  Er  Er7  1  0.416441  0.206271  0.877307  1
  Er  Er8  1  0.208861  0.416111  0.624631  1
  Er  Er9  1  0.207800  0.587982  0.120495  1
  Er  Er10  1  0.792225  0.416037  0.120639  1
  Er  Er11  1  0.791263  0.584674  0.625184  1
  Er  Er12  1  0.914329  0.705185  0.126454  1
  Er  Er13  1  0.911119  0.295131  0.628673  1
  Er  Er14  1  0.090412  0.706789  0.624978  1
  Er  Er15  1  0.089366  0.296979  0.124995  1
  Er  Er16  1  0.001101  0.998042  0.497497  1
  Er  Er17  1  0.001911  0.998733  0.999978  1
  Er  Er18  1  0.499828  0.499962  0.998741  1
  Er  Er19  1  0.500068  0.500134  0.497885  1
  Ir  Ir20  1  0.150114  0.848048  0.249947  1
  Ir  Ir21  1  0.653986  0.347115  0.749840  1
  Ir  Ir22  1  0.654624  0.652313  0.249972  1
  Ir  Ir23  1  0.345696  0.347431  0.250359  1
  Ir  Ir24  1  0.346856  0.652136  0.749683  1
  Ir  Ir25  1  0.999964  0.499580  0.378727  1
  Os  Os26  1  0.500217  0.999852  0.124933  1
  Os  Os27  1  0.500109  0.999778  0.625723  1
  Os  Os28  1  0.000142  0.499831  0.874792  1
  Pt  Pt29  1  0.848590  0.152904  0.250126  1
  Pt  Pt30  1  0.847343  0.846887  0.750122  1
  Pt  Pt31  1  0.152221  0.153537  0.749959  1
