# generated using pymatgen
data_Dy4Ga18Pd5Ru
_symmetry_space_group_name_H-M   'P 1'
_cell_length_a   7.58687099
_cell_length_b   7.58687079
_cell_length_c   9.53596800
_cell_angle_alpha   90.02924121
_cell_angle_beta   90.02924121
_cell_angle_gamma   119.99923380
_symmetry_Int_Tables_number   1
_chemical_formula_structural   Dy4Ga18Pd5Ru
_chemical_formula_sum   'Dy4 Ga18 Pd5 Ru1'
_cell_volume   475.36141846
_cell_formula_units_Z   1
loop_
 _symmetry_equiv_pos_site_id
 _symmetry_equiv_pos_as_xyz
  1  'x, y, z'
loop_
 _atom_site_type_symbol
 _atom_site_label
 _atom_site_symmetry_multiplicity
 _atom_site_fract_x
 _atom_site_fract_y
 _atom_site_fract_z
 _atom_site_occupancy
  Dy  Dy0  1  0.998027  0.668823  0.250090  1
  Dy  Dy1  1  0.003974  0.331916  0.750147  1
  Dy  Dy2  1  0.668098  0.996029  0.249845  1
  Dy  Dy3  1  0.331168  0.001966  0.749912  1
  Ga  Ga4  1  0.127611  0.129630  0.249178  1
  Ga  Ga5  1  0.870365  0.872396  0.750821  1
  Ga  Ga6  1  0.994425  0.333422  0.078381  1
  Ga  Ga7  1  0.997553  0.662264  0.921459  1
  Ga  Ga8  1  0.999969  0.665863  0.582019  1
  Ga  Ga9  1  0.334125  0.000028  0.417979  1
  Ga  Ga10  1  0.999941  0.334399  0.418741  1
  Ga  Ga11  1  0.665609  0.000058  0.581262  1
  Ga  Ga12  1  0.666581  0.005571  0.921618  1
  Ga  Ga13  1  0.337734  0.002449  0.078538  1
  Ga  Ga14  1  0.333160  0.333175  0.571165  1
  Ga  Ga15  1  0.666826  0.666842  0.428837  1
  Ga  Ga16  1  0.668101  0.663895  0.065876  1
  Ga  Ga17  1  0.336112  0.331896  0.934121  1
  Ga  Ga18  1  0.336684  0.543847  0.249069  1
  Ga  Ga19  1  0.661880  0.453861  0.753909  1
  Ga  Ga20  1  0.546138  0.338122  0.246083  1
  Ga  Ga21  1  0.456159  0.663318  0.750929  1
  Pd  Pd22  1  0.328791  0.671199  0.000000  1
  Pd  Pd23  1  0.329258  0.670721  0.499998  1
  Pd  Pd24  1  0.670403  0.329632  0.500004  1
  Pd  Pd25  1  0.000182  0.999807  0.999999  1
  Pd  Pd26  1  0.999970  0.000025  0.500000  1
  Ru  Ru27  1  0.671154  0.328847  0.000021  1
