# generated using pymatgen
data_Re2TcRu5
_symmetry_space_group_name_H-M   'P 1'
_cell_length_a   5.50879300
_cell_length_b   5.50356219
_cell_length_c   4.34808100
_cell_angle_alpha   90.00000000
_cell_angle_beta   90.00000000
_cell_angle_gamma   120.03143927
_symmetry_Int_Tables_number   1
_chemical_formula_structural   Re2TcRu5
_chemical_formula_sum   'Re2 Tc1 Ru5'
_cell_volume   114.12766104
_cell_formula_units_Z   1
loop_
 _symmetry_equiv_pos_site_id
 _symmetry_equiv_pos_as_xyz
  1  'x, y, z'
loop_
 _atom_site_type_symbol
 _atom_site_label
 _atom_site_symmetry_multiplicity
 _atom_site_fract_x
 _atom_site_fract_y
 _atom_site_fract_z
 _atom_site_occupancy
  Re  Re0  1  0.334312  0.668624  0.750000  1
  Re  Re1  1  0.668839  0.337676  0.250000  1
  Tc  Tc2  1  0.167550  0.335101  0.250000  1
  Ru  Ru3  1  0.665991  0.828134  0.250000  1
  Ru  Ru4  1  0.162142  0.828134  0.250000  1
  Ru  Ru5  1  0.832199  0.664398  0.750000  1
  Ru  Ru6  1  0.336971  0.168967  0.750000  1
  Ru  Ru7  1  0.831996  0.168967  0.750000  1
