# generated using pymatgen
data_YLu2Mg3Sn2Au
_symmetry_space_group_name_H-M   'P 1'
_cell_length_a   7.47236377
_cell_length_b   7.47236415
_cell_length_c   4.44206100
_cell_angle_alpha   90.00000000
_cell_angle_beta   90.00000000
_cell_angle_gamma   120.46969062
_symmetry_Int_Tables_number   1
_chemical_formula_structural   YLu2Mg3Sn2Au
_chemical_formula_sum   'Y1 Lu2 Mg3 Sn2 Au1'
_cell_volume   213.77464147
_cell_formula_units_Z   1
loop_
 _symmetry_equiv_pos_site_id
 _symmetry_equiv_pos_as_xyz
  1  'x, y, z'
loop_
 _atom_site_type_symbol
 _atom_site_label
 _atom_site_symmetry_multiplicity
 _atom_site_fract_x
 _atom_site_fract_y
 _atom_site_fract_z
 _atom_site_occupancy
  Y  Y0  1  0.409519  0.409519  0.000000  1
  Lu  Lu1  1  0.594522  0.000686  0.000000  1
  Lu  Lu2  1  0.000686  0.594522  0.000000  1
  Mg  Mg3  1  0.236280  0.998617  0.500000  1
  Mg  Mg4  1  0.998617  0.236280  0.500000  1
  Mg  Mg5  1  0.763329  0.763329  0.500000  1
  Sn  Sn6  1  0.331686  0.669254  0.500000  1
  Sn  Sn7  1  0.669254  0.331686  0.500000  1
  Au  Au8  1  0.996106  0.996106  0.000000  1
