# generated using pymatgen
data_ErSc7(FeB6)4
_symmetry_space_group_name_H-M   'P 1'
_cell_length_a   8.82698525
_cell_length_b   11.15268632
_cell_length_c   3.36585500
_cell_angle_alpha   90.00000000
_cell_angle_beta   90.00000000
_cell_angle_gamma   90.02734332
_symmetry_Int_Tables_number   1
_chemical_formula_structural   ErSc7(FeB6)4
_chemical_formula_sum   'Er1 Sc7 Fe4 B24'
_cell_volume   331.35020345
_cell_formula_units_Z   1
loop_
 _symmetry_equiv_pos_site_id
 _symmetry_equiv_pos_as_xyz
  1  'x, y, z'
loop_
 _atom_site_type_symbol
 _atom_site_label
 _atom_site_symmetry_multiplicity
 _atom_site_fract_x
 _atom_site_fract_y
 _atom_site_fract_z
 _atom_site_occupancy
  Er  Er0  1  0.677920  0.085566  0.000000  1
  Sc  Sc1  1  0.057601  0.129050  0.000000  1
  Sc  Sc2  1  0.556091  0.372462  0.000000  1
  Sc  Sc3  1  0.179521  0.415226  0.000000  1
  Sc  Sc4  1  0.820615  0.585052  0.000000  1
  Sc  Sc5  1  0.443264  0.628403  0.000000  1
  Sc  Sc6  1  0.944380  0.870266  0.000000  1
  Sc  Sc7  1  0.320108  0.914327  0.000000  1
  Fe  Fe8  1  0.359181  0.181124  0.000000  1
  Fe  Fe9  1  0.861562  0.320743  0.000000  1
  Fe  Fe10  1  0.139363  0.680208  0.000000  1
  Fe  Fe11  1  0.639295  0.817955  0.000000  1
  B  B12  1  0.900081  0.027138  0.499999  1
  B  B13  1  0.444027  0.066394  0.499999  1
  B  B14  1  0.249798  0.080301  0.499999  1
  B  B15  1  0.871416  0.185112  0.499999  1
  B  B16  1  0.515702  0.213637  0.499999  1
  B  B17  1  0.207492  0.235606  0.499999  1
  B  B18  1  0.708623  0.266809  0.499999  1
  B  B19  1  0.018865  0.288741  0.499999  1
  B  B20  1  0.368677  0.317096  0.499999  1
  B  B21  1  0.750662  0.420633  0.499999  1
  B  B22  1  0.946654  0.434164  0.499999  1
  B  B23  1  0.395874  0.472076  0.499999  1
  B  B24  1  0.603681  0.528403  0.499999  1
  B  B25  1  0.053832  0.566295  0.499999  1
  B  B26  1  0.249473  0.580243  0.499999  1
  B  B27  1  0.630333  0.683244  0.499999  1
  B  B28  1  0.982229  0.711607  0.499999  1
  B  B29  1  0.292196  0.734998  0.499999  1
  B  B30  1  0.792670  0.763515  0.499999  1
  B  B31  1  0.481468  0.787137  0.499999  1
  B  B32  1  0.130831  0.816036  0.499999  1
  B  B33  1  0.750317  0.917005  0.499999  1
  B  B34  1  0.552773  0.931664  0.499999  1
  B  B35  1  0.103436  0.971774  0.499999  1
