# generated using pymatgen
data_Y2ErIn3Pt2Rh
_symmetry_space_group_name_H-M   'P 1'
_cell_length_a   7.70410300
_cell_length_b   7.69028260
_cell_length_c   3.82376700
_cell_angle_alpha   90.00000000
_cell_angle_beta   90.00000000
_cell_angle_gamma   120.05946192
_symmetry_Int_Tables_number   1
_chemical_formula_structural   Y2ErIn3Pt2Rh
_chemical_formula_sum   'Y2 Er1 In3 Pt2 Rh1'
_cell_volume   196.07666027
_cell_formula_units_Z   1
loop_
 _symmetry_equiv_pos_site_id
 _symmetry_equiv_pos_as_xyz
  1  'x, y, z'
loop_
 _atom_site_type_symbol
 _atom_site_label
 _atom_site_symmetry_multiplicity
 _atom_site_fract_x
 _atom_site_fract_y
 _atom_site_fract_z
 _atom_site_occupancy
  Y  Y0  1  0.000006  0.595397  0.500000  1
  Y  Y1  1  0.404609  0.404603  0.500000  1
  Er  Er2  1  0.595492  0.000000  0.500000  1
  In  In3  1  0.257487  0.000000  0.000000  1
  In  In4  1  0.742841  0.743396  0.000000  1
  In  In5  1  0.999446  0.256604  0.000000  1
  Pt  Pt6  1  0.666156  0.330874  0.000000  1
  Pt  Pt7  1  0.335281  0.669126  0.000000  1
  Rh  Rh8  1  0.998682  0.000000  0.500000  1
