# generated using pymatgen
data_BaNa(PRh)4
_symmetry_space_group_name_H-M   'P 1'
_cell_length_a   6.88457943
_cell_length_b   6.88457890
_cell_length_c   5.58020800
_cell_angle_alpha   90.00000000
_cell_angle_beta   90.00000000
_cell_angle_gamma   132.26108497
_symmetry_Int_Tables_number   1
_chemical_formula_structural   BaNa(PRh)4
_chemical_formula_sum   'Ba1 Na1 P4 Rh4'
_cell_volume   195.74404762
_cell_formula_units_Z   1
loop_
 _symmetry_equiv_pos_site_id
 _symmetry_equiv_pos_as_xyz
  1  'x, y, z'
loop_
 _atom_site_type_symbol
 _atom_site_label
 _atom_site_symmetry_multiplicity
 _atom_site_fract_x
 _atom_site_fract_y
 _atom_site_fract_z
 _atom_site_occupancy
  Ba  Ba0  1  0.500000  0.500000  0.500000  1
  Na  Na1  1  0.000000  0.000000  0.000000  1
  P  P2  1  0.354804  0.645196  0.000000  1
  P  P3  1  0.850458  0.149542  0.500000  1
  P  P4  1  0.149542  0.850458  0.500000  1
  P  P5  1  0.645196  0.354804  0.000000  1
  Rh  Rh6  1  0.500000  0.000000  0.751340  1
  Rh  Rh7  1  0.000000  0.500000  0.248660  1
  Rh  Rh8  1  0.000000  0.500000  0.751340  1
  Rh  Rh9  1  0.500000  0.000000  0.248660  1
