# generated using pymatgen
data_TbScCo4(SiC)2
_symmetry_space_group_name_H-M   'P 1'
_cell_length_a   5.53165984
_cell_length_b   5.53166002
_cell_length_c   6.65347400
_cell_angle_alpha   90.00000000
_cell_angle_beta   90.00000000
_cell_angle_gamma   141.59223059
_symmetry_Int_Tables_number   1
_chemical_formula_structural   TbScCo4(SiC)2
_chemical_formula_sum   'Tb1 Sc1 Co4 Si2 C2'
_cell_volume   126.48197539
_cell_formula_units_Z   1
loop_
 _symmetry_equiv_pos_site_id
 _symmetry_equiv_pos_as_xyz
  1  'x, y, z'
loop_
 _atom_site_type_symbol
 _atom_site_label
 _atom_site_symmetry_multiplicity
 _atom_site_fract_x
 _atom_site_fract_y
 _atom_site_fract_z
 _atom_site_occupancy
  Tb  Tb0  1  0.450440  0.549560  0.750000  1
  Sc  Sc1  1  0.549166  0.450834  0.250000  1
  Co  Co2  1  0.836039  0.163961  0.058755  1
  Co  Co3  1  0.163618  0.836382  0.947803  1
  Co  Co4  1  0.163618  0.836382  0.552197  1
  Co  Co5  1  0.836039  0.163961  0.441245  1
  Si  Si6  1  0.270515  0.729485  0.250000  1
  Si  Si7  1  0.728063  0.271937  0.750000  1
  C  C8  1  0.001250  0.998750  0.013052  1
  C  C9  1  0.001250  0.998750  0.486948  1
