# generated using pymatgen
data_CeEr3Th4(ReC2)4
_symmetry_space_group_name_H-M   'P 1'
_cell_length_a   5.27763100
_cell_length_b   6.66589868
_cell_length_c   9.86007262
_cell_angle_alpha   90.08247096
_cell_angle_beta   90.00000000
_cell_angle_gamma   90.00000000
_symmetry_Int_Tables_number   1
_chemical_formula_structural   CeEr3Th4(ReC2)4
_chemical_formula_sum   'Ce1 Er3 Th4 Re4 C8'
_cell_volume   346.87850922
_cell_formula_units_Z   1
loop_
 _symmetry_equiv_pos_site_id
 _symmetry_equiv_pos_as_xyz
  1  'x, y, z'
loop_
 _atom_site_type_symbol
 _atom_site_label
 _atom_site_symmetry_multiplicity
 _atom_site_fract_x
 _atom_site_fract_y
 _atom_site_fract_z
 _atom_site_occupancy
  Ce  Ce0  1  0.750000  0.682883  0.952802  1
  Er  Er1  1  0.250000  0.323607  0.053549  1
  Er  Er2  1  0.750000  0.174288  0.551538  1
  Er  Er3  1  0.250000  0.825934  0.447822  1
  Th  Th4  1  0.250000  0.971533  0.782786  1
  Th  Th5  1  0.750000  0.527817  0.285391  1
  Th  Th6  1  0.250000  0.469618  0.714912  1
  Th  Th7  1  0.750000  0.028780  0.214310  1
  Re  Re8  1  0.250000  0.770895  0.138809  1
  Re  Re9  1  0.750000  0.728398  0.634548  1
  Re  Re10  1  0.250000  0.271189  0.363912  1
  Re  Re11  1  0.750000  0.227556  0.862379  1
  C  C12  1  0.250000  0.167318  0.551918  1
  C  C13  1  0.750000  0.331745  0.052306  1
  C  C14  1  0.250000  0.665899  0.948386  1
  C  C15  1  0.750000  0.830767  0.447106  1
  C  C16  1  0.250000  0.538850  0.262382  1
  C  C17  1  0.750000  0.963823  0.757436  1
  C  C18  1  0.250000  0.039114  0.239666  1
  C  C19  1  0.750000  0.459988  0.738042  1
