# generated using pymatgen
data_Hf10Ga2Sn4BiSb
_symmetry_space_group_name_H-M   'P 1'
_cell_length_a   8.69691622
_cell_length_b   8.68904367
_cell_length_c   5.80626900
_cell_angle_alpha   90.00000000
_cell_angle_beta   90.00000000
_cell_angle_gamma   119.92198675
_symmetry_Int_Tables_number   1
_chemical_formula_structural   Hf10Ga2Sn4BiSb
_chemical_formula_sum   'Hf10 Ga2 Sn4 Bi1 Sb1'
_cell_volume   380.28213067
_cell_formula_units_Z   1
loop_
 _symmetry_equiv_pos_site_id
 _symmetry_equiv_pos_as_xyz
  1  'x, y, z'
loop_
 _atom_site_type_symbol
 _atom_site_label
 _atom_site_symmetry_multiplicity
 _atom_site_fract_x
 _atom_site_fract_y
 _atom_site_fract_z
 _atom_site_occupancy
  Hf  Hf0  1  0.736245  0.737101  0.750000  1
  Hf  Hf1  1  0.265365  0.994037  0.750000  1
  Hf  Hf2  1  0.993234  0.263963  0.750000  1
  Hf  Hf3  1  0.268493  0.268140  0.250000  1
  Hf  Hf4  1  0.729688  0.000389  0.250000  1
  Hf  Hf5  1  0.000845  0.731019  0.250000  1
  Hf  Hf6  1  0.669213  0.331678  0.002096  1
  Hf  Hf7  1  0.333457  0.669947  0.002173  1
  Hf  Hf8  1  0.333457  0.669947  0.497827  1
  Hf  Hf9  1  0.669213  0.331678  0.497904  1
  Ga  Ga10  1  0.000662  0.000601  0.003118  1
  Ga  Ga11  1  0.000662  0.000601  0.496882  1
  Sn  Sn12  1  0.999336  0.609300  0.750000  1
  Sn  Sn13  1  0.613164  0.612365  0.250000  1
  Sn  Sn14  1  0.387565  0.001107  0.250000  1
  Sn  Sn15  1  0.001924  0.389332  0.250000  1
  Bi  Bi16  1  0.389775  0.389581  0.750000  1
  Sb  Sb17  1  0.607700  0.999217  0.750000  1
