# generated using pymatgen
data_Cs2LaReN4
_symmetry_space_group_name_H-M   'P 1'
_cell_length_a   11.12908028
_cell_length_b   10.78521386
_cell_length_c   8.25347300
_cell_angle_alpha   70.10473582
_cell_angle_beta   65.68038789
_cell_angle_gamma   44.21486691
_symmetry_Int_Tables_number   1
_chemical_formula_structural   Cs2LaReN4
_chemical_formula_sum   'Cs8 La4 Re4 N16'
_cell_volume   627.94490356
_cell_formula_units_Z   4
loop_
 _symmetry_equiv_pos_site_id
 _symmetry_equiv_pos_as_xyz
  1  'x, y, z'
loop_
 _atom_site_type_symbol
 _atom_site_label
 _atom_site_symmetry_multiplicity
 _atom_site_fract_x
 _atom_site_fract_y
 _atom_site_fract_z
 _atom_site_occupancy
  Cs  Cs0  1  0.562169  0.937831  0.937831  1
  Cs  Cs1  1  0.937831  0.562169  0.562169  1
  Cs  Cs2  1  0.312169  0.687831  0.687831  1
  Cs  Cs3  1  0.107472  0.107472  0.892528  1
  Cs  Cs4  1  0.142528  0.142528  0.357472  1
  Cs  Cs5  1  0.357472  0.357472  0.142528  1
  Cs  Cs6  1  0.687831  0.312169  0.312169  1
  Cs  Cs7  1  0.892528  0.892528  0.107472  1
  La  La8  1  0.343585  0.343585  0.656415  1
  La  La9  1  0.906415  0.906415  0.593585  1
  La  La10  1  0.656415  0.656415  0.343585  1
  La  La11  1  0.593585  0.593585  0.906415  1
  Re  Re12  1  0.502996  0.997004  0.502996  1
  Re  Re13  1  0.997004  0.502996  0.997004  1
  Re  Re14  1  0.747004  0.252996  0.747004  1
  Re  Re15  1  0.252996  0.747004  0.252996  1
  N  N16  1  0.015678  0.648981  0.815745  1
  N  N17  1  0.693122  0.301179  0.968875  1
  N  N18  1  0.648981  0.015678  0.519597  1
  N  N19  1  0.519597  0.815745  0.648981  1
  N  N20  1  0.234322  0.601019  0.434255  1
  N  N21  1  0.730403  0.434255  0.601019  1
  N  N22  1  0.968875  0.036824  0.693122  1
  N  N23  1  0.556878  0.948821  0.281125  1
  N  N24  1  0.434255  0.730403  0.234322  1
  N  N25  1  0.948821  0.556878  0.213176  1
  N  N26  1  0.301179  0.693122  0.036824  1
  N  N27  1  0.815745  0.519597  0.015678  1
  N  N28  1  0.213176  0.281125  0.948821  1
  N  N29  1  0.601019  0.234322  0.730403  1
  N  N30  1  0.281125  0.213176  0.556878  1
  N  N31  1  0.036824  0.968875  0.301179  1
