# generated using pymatgen
data_Ho9Er(Ir2Rh)2
_symmetry_space_group_name_H-M   'P 1'
_cell_length_a   10.81917900
_cell_length_b   10.81917900
_cell_length_c   6.36150900
_cell_angle_alpha   90.00000000
_cell_angle_beta   90.00000000
_cell_angle_gamma   90.00000000
_symmetry_Int_Tables_number   1
_chemical_formula_structural   Ho9Er(Ir2Rh)2
_chemical_formula_sum   'Ho18 Er2 Ir8 Rh4'
_cell_volume   744.64410917
_cell_formula_units_Z   2
loop_
 _symmetry_equiv_pos_site_id
 _symmetry_equiv_pos_as_xyz
  1  'x, y, z'
loop_
 _atom_site_type_symbol
 _atom_site_label
 _atom_site_symmetry_multiplicity
 _atom_site_fract_x
 _atom_site_fract_y
 _atom_site_fract_z
 _atom_site_occupancy
  Ho  Ho0  1  0.290462  0.088663  0.378884  1
  Ho  Ho1  1  0.290462  0.911337  0.878884  1
  Ho  Ho2  1  0.709538  0.088663  0.878884  1
  Ho  Ho3  1  0.709538  0.911337  0.378884  1
  Ho  Ho4  1  0.588628  0.790332  0.878906  1
  Ho  Ho5  1  0.588628  0.209668  0.378906  1
  Ho  Ho6  1  0.411372  0.790332  0.378906  1
  Ho  Ho7  1  0.411372  0.209668  0.878906  1
  Ho  Ho8  1  0.209668  0.411372  0.621094  1
  Ho  Ho9  1  0.209668  0.588628  0.121094  1
  Ho  Ho10  1  0.790332  0.411372  0.121094  1
  Ho  Ho11  1  0.790332  0.588628  0.621094  1
  Ho  Ho12  1  0.911337  0.709538  0.121116  1
  Ho  Ho13  1  0.911337  0.290462  0.621116  1
  Ho  Ho14  1  0.088663  0.709538  0.621116  1
  Ho  Ho15  1  0.088663  0.290462  0.121116  1
  Ho  Ho16  1  0.000000  0.000000  0.500000  1
  Ho  Ho17  1  0.000000  0.000000  0.000000  1
  Er  Er18  1  0.500000  0.500000  0.000000  1
  Er  Er19  1  0.500000  0.500000  0.500000  1
  Ir  Ir20  1  0.845932  0.154068  0.250000  1
  Ir  Ir21  1  0.845932  0.845932  0.750000  1
  Ir  Ir22  1  0.154068  0.154068  0.750000  1
  Ir  Ir23  1  0.154068  0.845932  0.250000  1
  Ir  Ir24  1  0.653779  0.346221  0.750000  1
  Ir  Ir25  1  0.653779  0.653779  0.250000  1
  Ir  Ir26  1  0.346221  0.346221  0.250000  1
  Ir  Ir27  1  0.346221  0.653779  0.750000  1
  Rh  Rh28  1  0.500000  0.000000  0.122964  1
  Rh  Rh29  1  0.500000  0.000000  0.622964  1
  Rh  Rh30  1  0.000000  0.500000  0.877036  1
  Rh  Rh31  1  0.000000  0.500000  0.377036  1
