# generated using pymatgen
data_Yb3YCuNiSn5
_symmetry_space_group_name_H-M   'P 1'
_cell_length_a   4.45320400
_cell_length_b   8.79632311
_cell_length_c   13.94532428
_cell_angle_alpha   90.23144632
_cell_angle_beta   90.00000000
_cell_angle_gamma   90.00000000
_symmetry_Int_Tables_number   1
_chemical_formula_structural   Yb3YCuNiSn5
_chemical_formula_sum   'Yb6 Y2 Cu2 Ni2 Sn10'
_cell_volume   546.25929362
_cell_formula_units_Z   2
loop_
 _symmetry_equiv_pos_site_id
 _symmetry_equiv_pos_as_xyz
  1  'x, y, z'
loop_
 _atom_site_type_symbol
 _atom_site_label
 _atom_site_symmetry_multiplicity
 _atom_site_fract_x
 _atom_site_fract_y
 _atom_site_fract_z
 _atom_site_occupancy
  Yb  Yb0  1  0.500000  0.790402  0.741102  1
  Yb  Yb1  1  0.000000  0.209598  0.758898  1
  Yb  Yb2  1  0.000000  0.208934  0.242789  1
  Yb  Yb3  1  0.500000  0.135958  0.001484  1
  Yb  Yb4  1  0.000000  0.864042  0.498516  1
  Yb  Yb5  1  0.500000  0.791066  0.257211  1
  Y  Y6  1  0.500000  0.701443  0.997612  1
  Y  Y7  1  0.000000  0.298557  0.502388  1
  Cu  Cu8  1  0.000000  0.624854  0.147678  1
  Cu  Cu9  1  0.500000  0.375146  0.352322  1
  Ni  Ni10  1  0.500000  0.380277  0.646490  1
  Ni  Ni11  1  0.000000  0.619723  0.853510  1
  Sn  Sn12  1  0.500000  0.083044  0.395303  1
  Sn  Sn13  1  0.000000  0.549016  0.669439  1
  Sn  Sn14  1  0.000000  0.408698  0.992891  1
  Sn  Sn15  1  0.500000  0.446979  0.159579  1
  Sn  Sn16  1  0.500000  0.591302  0.507109  1
  Sn  Sn17  1  0.500000  0.450984  0.830561  1
  Sn  Sn18  1  0.000000  0.910118  0.893726  1
  Sn  Sn19  1  0.000000  0.553021  0.340421  1
  Sn  Sn20  1  0.500000  0.089882  0.606274  1
  Sn  Sn21  1  0.000000  0.916956  0.104697  1
