# generated using pymatgen
data_Dy3AlC3
_symmetry_space_group_name_H-M   'P 1'
_cell_length_a   3.57070300
_cell_length_b   7.04946300
_cell_length_c   10.00023700
_cell_angle_alpha   90.00000000
_cell_angle_beta   90.00000000
_cell_angle_gamma   90.00000000
_symmetry_Int_Tables_number   1
_chemical_formula_structural   Dy3AlC3
_chemical_formula_sum   'Dy6 Al2 C6'
_cell_volume   251.72135248
_cell_formula_units_Z   2
loop_
 _symmetry_equiv_pos_site_id
 _symmetry_equiv_pos_as_xyz
  1  'x, y, z'
loop_
 _atom_site_type_symbol
 _atom_site_label
 _atom_site_symmetry_multiplicity
 _atom_site_fract_x
 _atom_site_fract_y
 _atom_site_fract_z
 _atom_site_occupancy
  Dy  Dy0  1  0.500000  0.509830  0.199647  1
  Dy  Dy1  1  0.500000  0.490170  0.800353  1
  Dy  Dy2  1  0.500000  0.990170  0.199647  1
  Dy  Dy3  1  0.500000  0.009830  0.800353  1
  Dy  Dy4  1  0.000000  0.750000  0.458000  1
  Dy  Dy5  1  0.000000  0.250000  0.542000  1
  Al  Al6  1  0.000000  0.750000  0.005888  1
  Al  Al7  1  0.000000  0.250000  0.994112  1
  C  C8  1  0.500000  0.509146  0.565981  1
  C  C9  1  0.500000  0.490854  0.434019  1
  C  C10  1  0.500000  0.990854  0.565981  1
  C  C11  1  0.500000  0.009146  0.434019  1
  C  C12  1  0.000000  0.750000  0.208697  1
  C  C13  1  0.000000  0.250000  0.791303  1
