# generated using pymatgen
data_DyY2MoO6
_symmetry_space_group_name_H-M   'P 1'
_cell_length_a   6.62005068
_cell_length_b   6.61670435
_cell_length_c   6.61970200
_cell_angle_alpha   92.08199764
_cell_angle_beta   92.09280983
_cell_angle_gamma   92.12068152
_symmetry_Int_Tables_number   1
_chemical_formula_structural   DyY2MoO6
_chemical_formula_sum   'Dy2 Y4 Mo2 O12'
_cell_volume   289.36418771
_cell_formula_units_Z   2
loop_
 _symmetry_equiv_pos_site_id
 _symmetry_equiv_pos_as_xyz
  1  'x, y, z'
loop_
 _atom_site_type_symbol
 _atom_site_label
 _atom_site_symmetry_multiplicity
 _atom_site_fract_x
 _atom_site_fract_y
 _atom_site_fract_z
 _atom_site_occupancy
  Dy  Dy0  1  0.747052  0.931566  0.439882  1
  Dy  Dy1  1  0.931346  0.439934  0.746785  1
  Y  Y2  1  0.440177  0.747067  0.931654  1
  Y  Y3  1  0.253041  0.068295  0.560306  1
  Y  Y4  1  0.068233  0.560062  0.253271  1
  Y  Y5  1  0.560231  0.253290  0.068401  1
  Mo  Mo6  1  0.499816  0.499634  0.500079  1
  Mo  Mo7  1  0.000200  0.000304  0.000154  1
  O  O8  1  0.596669  0.466197  0.810240  1
  O  O9  1  0.466818  0.810649  0.596312  1
  O  O10  1  0.810331  0.596461  0.466399  1
  O  O11  1  0.403726  0.534033  0.189331  1
  O  O12  1  0.533494  0.188797  0.403372  1
  O  O13  1  0.188753  0.403549  0.533738  1
  O  O14  1  0.069952  0.909217  0.309569  1
  O  O15  1  0.909201  0.309541  0.069884  1
  O  O16  1  0.691206  0.930143  0.090933  1
  O  O17  1  0.090605  0.690304  0.929646  1
  O  O18  1  0.929795  0.090648  0.690463  1
  O  O19  1  0.309354  0.070307  0.909578  1
