# generated using pymatgen
data_TmHfMn6Co6P7
_symmetry_space_group_name_H-M   'P 1'
_cell_length_a   9.00836900
_cell_length_b   9.00836840
_cell_length_c   3.58744400
_cell_angle_alpha   90.00000000
_cell_angle_beta   90.00000000
_cell_angle_gamma   119.99999852
_symmetry_Int_Tables_number   1
_chemical_formula_structural   TmHfMn6Co6P7
_chemical_formula_sum   'Tm1 Hf1 Mn6 Co6 P7'
_cell_volume   252.12045061
_cell_formula_units_Z   1
loop_
 _symmetry_equiv_pos_site_id
 _symmetry_equiv_pos_as_xyz
  1  'x, y, z'
loop_
 _atom_site_type_symbol
 _atom_site_label
 _atom_site_symmetry_multiplicity
 _atom_site_fract_x
 _atom_site_fract_y
 _atom_site_fract_z
 _atom_site_occupancy
  Tm  Tm0  1  0.666667  0.333333  0.500000  1
  Hf  Hf1  1  0.000000  0.000000  0.000000  1
  Mn  Mn2  1  0.211728  0.386134  0.000000  1
  Mn  Mn3  1  0.613866  0.825592  0.000000  1
  Mn  Mn4  1  0.174408  0.788272  0.000000  1
  Mn  Mn5  1  0.456706  0.560945  0.500000  1
  Mn  Mn6  1  0.439055  0.895763  0.500000  1
  Mn  Mn7  1  0.104237  0.543294  0.500000  1
  Co  Co8  1  0.704685  0.606136  0.000000  1
  Co  Co9  1  0.393864  0.098549  0.000000  1
  Co  Co10  1  0.901451  0.295315  0.000000  1
  Co  Co11  1  0.277743  0.223069  0.500000  1
  Co  Co12  1  0.776931  0.054672  0.500000  1
  Co  Co13  1  0.945328  0.722257  0.500000  1
  P  P14  1  0.447184  0.367096  0.000000  1
  P  P15  1  0.632904  0.080088  0.000000  1
  P  P16  1  0.919912  0.552816  0.000000  1
  P  P17  1  0.045778  0.255644  0.500000  1
  P  P18  1  0.744356  0.790135  0.500000  1
  P  P19  1  0.209865  0.954222  0.500000  1
  P  P20  1  0.333333  0.666667  0.000000  1
