# generated using pymatgen
data_Pr6Cd23S
_symmetry_space_group_name_H-M   'P 1'
_cell_length_a   10.08190402
_cell_length_b   10.08190388
_cell_length_c   10.08190300
_cell_angle_alpha   59.99999962
_cell_angle_beta   60.00000005
_cell_angle_gamma   59.99999960
_symmetry_Int_Tables_number   1
_chemical_formula_structural   Pr6Cd23S
_chemical_formula_sum   'Pr6 Cd23 S1'
_cell_volume   724.62385242
_cell_formula_units_Z   1
loop_
 _symmetry_equiv_pos_site_id
 _symmetry_equiv_pos_as_xyz
  1  'x, y, z'
loop_
 _atom_site_type_symbol
 _atom_site_label
 _atom_site_symmetry_multiplicity
 _atom_site_fract_x
 _atom_site_fract_y
 _atom_site_fract_z
 _atom_site_occupancy
  Pr  Pr0  1  0.797026  0.797026  0.202974  1
  Pr  Pr1  1  0.202974  0.797026  0.202974  1
  Pr  Pr2  1  0.797026  0.202974  0.202974  1
  Pr  Pr3  1  0.202974  0.202974  0.797026  1
  Pr  Pr4  1  0.797026  0.202974  0.797026  1
  Pr  Pr5  1  0.202974  0.797026  0.797026  1
  Cd  Cd6  1  0.832865  0.832865  0.501403  1
  Cd  Cd7  1  0.832865  0.501403  0.832865  1
  Cd  Cd8  1  0.501403  0.832865  0.832865  1
  Cd  Cd9  1  0.832865  0.832865  0.832865  1
  Cd  Cd10  1  0.167135  0.167135  0.498597  1
  Cd  Cd11  1  0.167135  0.498597  0.167135  1
  Cd  Cd12  1  0.498597  0.167135  0.167135  1
  Cd  Cd13  1  0.167135  0.167135  0.167135  1
  Cd  Cd14  1  0.621391  0.621391  0.135826  1
  Cd  Cd15  1  0.621391  0.135826  0.621391  1
  Cd  Cd16  1  0.135826  0.621391  0.621391  1
  Cd  Cd17  1  0.621391  0.621391  0.621391  1
  Cd  Cd18  1  0.378609  0.378609  0.864174  1
  Cd  Cd19  1  0.378609  0.864174  0.378609  1
  Cd  Cd20  1  0.864174  0.378609  0.378609  1
  Cd  Cd21  1  0.378609  0.378609  0.378609  1
  Cd  Cd22  1  0.000000  0.000000  0.500000  1
  Cd  Cd23  1  0.500000  0.000000  0.500000  1
  Cd  Cd24  1  0.000000  0.500000  0.500000  1
  Cd  Cd25  1  0.500000  0.500000  0.000000  1
  Cd  Cd26  1  0.000000  0.500000  0.000000  1
  Cd  Cd27  1  0.500000  0.000000  0.000000  1
  Cd  Cd28  1  0.500000  0.500000  0.500000  1
  S  S29  1  0.000000  0.000000  0.000000  1
