# generated using pymatgen
data_Sm3Ho17Sn13Bi3
_symmetry_space_group_name_H-M   'P 1'
_cell_length_a   8.14590104
_cell_length_b   8.18363262
_cell_length_c   15.46478734
_cell_angle_alpha   90.10485162
_cell_angle_beta   89.73977736
_cell_angle_gamma   89.92852451
_symmetry_Int_Tables_number   1
_chemical_formula_structural   Sm3Ho17Sn13Bi3
_chemical_formula_sum   'Sm3 Ho17 Sn13 Bi3'
_cell_volume   1030.91689691
_cell_formula_units_Z   1
loop_
 _symmetry_equiv_pos_site_id
 _symmetry_equiv_pos_as_xyz
  1  'x, y, z'
loop_
 _atom_site_type_symbol
 _atom_site_label
 _atom_site_symmetry_multiplicity
 _atom_site_fract_x
 _atom_site_fract_y
 _atom_site_fract_z
 _atom_site_occupancy
  Sm  Sm0  1  0.973530  0.825284  0.397266  1
  Sm  Sm1  1  0.525425  0.324968  0.601708  1
  Sm  Sm2  1  0.025491  0.180453  0.899843  1
  Ho  Ho3  1  0.376953  0.833784  0.877639  1
  Ho  Ho4  1  0.879975  0.661250  0.623639  1
  Ho  Ho5  1  0.621217  0.159642  0.375139  1
  Ho  Ho6  1  0.123622  0.340461  0.122241  1
  Ho  Ho7  1  0.628776  0.161949  0.121831  1
  Ho  Ho8  1  0.127463  0.337449  0.377508  1
  Ho  Ho9  1  0.373541  0.837860  0.622175  1
  Ho  Ho10  1  0.876545  0.662628  0.877783  1
  Ho  Ho11  1  0.538965  0.331783  0.896426  1
  Ho  Ho12  1  0.048698  0.173756  0.607344  1
  Ho  Ho13  1  0.452238  0.673251  0.393324  1
  Ho  Ho14  1  0.956809  0.821859  0.104071  1
  Ho  Ho15  1  0.469752  0.669389  0.100511  1
  Ho  Ho16  1  0.206099  0.502269  0.750838  1
  Ho  Ho17  1  0.705623  0.999361  0.754870  1
  Ho  Ho18  1  0.793654  0.498476  0.245736  1
  Ho  Ho19  1  0.294415  0.000855  0.252220  1
  Sn  Sn20  1  0.218435  0.530862  0.957652  1
  Sn  Sn21  1  0.713387  0.963637  0.958625  1
  Sn  Sn22  1  0.213430  0.535234  0.542024  1
  Sn  Sn23  1  0.286695  0.034763  0.457972  1
  Sn  Sn24  1  0.786900  0.465886  0.041574  1
  Sn  Sn25  1  0.573306  0.625261  0.748148  1
  Sn  Sn26  1  0.073083  0.876700  0.750658  1
  Sn  Sn27  1  0.428249  0.375358  0.248392  1
  Sn  Sn28  1  0.928506  0.124096  0.250366  1
  Sn  Sn29  1  0.342253  0.146344  0.753262  1
  Sn  Sn30  1  0.840576  0.354740  0.747937  1
  Sn  Sn31  1  0.655408  0.851114  0.249605  1
  Sn  Sn32  1  0.158661  0.645787  0.247123  1
  Bi  Bi33  1  0.281658  0.025434  0.044905  1
  Bi  Bi34  1  0.777871  0.473472  0.454843  1
  Bi  Bi35  1  0.722794  0.974584  0.544801  1
