# generated using pymatgen
data_KInH2
_symmetry_space_group_name_H-M   'P 1'
_cell_length_a   4.99341000
_cell_length_b   7.51357600
_cell_length_c   9.37145600
_cell_angle_alpha   90.00000000
_cell_angle_beta   90.00000000
_cell_angle_gamma   90.00000000
_symmetry_Int_Tables_number   1
_chemical_formula_structural   KInH2
_chemical_formula_sum   'K4 In4 H8'
_cell_volume   351.60171180
_cell_formula_units_Z   4
loop_
 _symmetry_equiv_pos_site_id
 _symmetry_equiv_pos_as_xyz
  1  'x, y, z'
loop_
 _atom_site_type_symbol
 _atom_site_label
 _atom_site_symmetry_multiplicity
 _atom_site_fract_x
 _atom_site_fract_y
 _atom_site_fract_z
 _atom_site_occupancy
  K  K0  1  0.750000  0.387825  0.662697  1
  K  K1  1  0.750000  0.887825  0.837303  1
  K  K2  1  0.250000  0.112175  0.162697  1
  K  K3  1  0.250000  0.612175  0.337303  1
  In  In4  1  0.250000  0.072061  0.543868  1
  In  In5  1  0.250000  0.572061  0.956132  1
  In  In6  1  0.750000  0.427939  0.043868  1
  In  In7  1  0.750000  0.927939  0.456132  1
  H  H8  1  0.750000  0.689230  0.511188  1
  H  H9  1  0.250000  0.113996  0.736604  1
  H  H10  1  0.250000  0.613996  0.763396  1
  H  H11  1  0.750000  0.189230  0.988812  1
  H  H12  1  0.250000  0.810770  0.011188  1
  H  H13  1  0.750000  0.386004  0.236604  1
  H  H14  1  0.750000  0.886004  0.263396  1
  H  H15  1  0.250000  0.310770  0.488812  1
