# generated using pymatgen
data_Y10Zn3Bi2Os
_symmetry_space_group_name_H-M   'P 1'
_cell_length_a   8.69743264
_cell_length_b   8.69743238
_cell_length_c   8.76385688
_cell_angle_alpha   125.09775815
_cell_angle_beta   125.09776669
_cell_angle_gamma   80.86687063
_symmetry_Int_Tables_number   1
_chemical_formula_structural   Y10Zn3Bi2Os
_chemical_formula_sum   'Y10 Zn3 Bi2 Os1'
_cell_volume   428.90345565
_cell_formula_units_Z   1
loop_
 _symmetry_equiv_pos_site_id
 _symmetry_equiv_pos_as_xyz
  1  'x, y, z'
loop_
 _atom_site_type_symbol
 _atom_site_label
 _atom_site_symmetry_multiplicity
 _atom_site_fract_x
 _atom_site_fract_y
 _atom_site_fract_z
 _atom_site_occupancy
  Y  Y0  1  0.010501  0.005226  0.015727  1
  Y  Y1  1  0.494774  0.489499  0.984273  1
  Y  Y2  1  0.785837  0.296617  0.799845  1
  Y  Y3  1  0.203383  0.714163  0.200155  1
  Y  Y4  1  0.485993  0.996772  0.200155  1
  Y  Y5  1  0.307885  0.468739  0.500000  1
  Y  Y6  1  0.031261  0.192115  0.500000  1
  Y  Y7  1  0.503228  0.014007  0.799845  1
  Y  Y8  1  0.705137  0.517320  0.500000  1
  Y  Y9  1  0.982680  0.794863  0.500000  1
  Zn  Zn10  1  0.135464  0.639699  0.775164  1
  Zn  Zn11  1  0.860301  0.364536  0.224836  1
  Zn  Zn12  1  0.633658  0.866342  0.500000  1
  Bi  Bi13  1  0.245808  0.254192  0.000000  1
  Bi  Bi14  1  0.745808  0.754192  0.000000  1
  Os  Os15  1  0.368280  0.131720  0.500000  1
