# generated using pymatgen
data_Li4TbSm3Si8
_symmetry_space_group_name_H-M   'P 1'
_cell_length_a   3.83639600
_cell_length_b   7.64844376
_cell_length_c   10.34239081
_cell_angle_alpha   89.97909580
_cell_angle_beta   90.00000000
_cell_angle_gamma   90.00000000
_symmetry_Int_Tables_number   1
_chemical_formula_structural   Li4TbSm3Si8
_chemical_formula_sum   'Li4 Tb1 Sm3 Si8'
_cell_volume   303.47115858
_cell_formula_units_Z   1
loop_
 _symmetry_equiv_pos_site_id
 _symmetry_equiv_pos_as_xyz
  1  'x, y, z'
loop_
 _atom_site_type_symbol
 _atom_site_label
 _atom_site_symmetry_multiplicity
 _atom_site_fract_x
 _atom_site_fract_y
 _atom_site_fract_z
 _atom_site_occupancy
  Li  Li0  1  0.250000  0.992176  0.389790  1
  Li  Li1  1  0.750000  0.006552  0.609834  1
  Li  Li2  1  0.250000  0.493368  0.108300  1
  Li  Li3  1  0.750000  0.509328  0.890857  1
  Tb  Tb4  1  0.250000  0.137813  0.864543  1
  Sm  Sm5  1  0.750000  0.861707  0.135545  1
  Sm  Sm6  1  0.250000  0.638256  0.635908  1
  Sm  Sm7  1  0.750000  0.359726  0.364670  1
  Si  Si8  1  0.750000  0.271429  0.067029  1
  Si  Si9  1  0.250000  0.731586  0.930643  1
  Si  Si10  1  0.750000  0.770906  0.430701  1
  Si  Si11  1  0.250000  0.226149  0.571361  1
  Si  Si12  1  0.750000  0.842241  0.821772  1
  Si  Si13  1  0.250000  0.161642  0.176827  1
  Si  Si14  1  0.750000  0.337141  0.680528  1
  Si  Si15  1  0.250000  0.659980  0.321691  1
