# generated using pymatgen
data_Pr4Al3ZnPt4
_symmetry_space_group_name_H-M   'P 1'
_cell_length_a   4.54758500
_cell_length_b   7.14325727
_cell_length_c   7.93745755
_cell_angle_alpha   89.57457028
_cell_angle_beta   90.00000000
_cell_angle_gamma   90.00000000
_symmetry_Int_Tables_number   1
_chemical_formula_structural   Pr4Al3ZnPt4
_chemical_formula_sum   'Pr4 Al3 Zn1 Pt4'
_cell_volume   257.83778471
_cell_formula_units_Z   1
loop_
 _symmetry_equiv_pos_site_id
 _symmetry_equiv_pos_as_xyz
  1  'x, y, z'
loop_
 _atom_site_type_symbol
 _atom_site_label
 _atom_site_symmetry_multiplicity
 _atom_site_fract_x
 _atom_site_fract_y
 _atom_site_fract_z
 _atom_site_occupancy
  Pr  Pr0  1  0.250000  0.528794  0.818041  1
  Pr  Pr1  1  0.250000  0.029150  0.687616  1
  Pr  Pr2  1  0.750000  0.971416  0.314119  1
  Pr  Pr3  1  0.750000  0.466507  0.180236  1
  Al  Al4  1  0.750000  0.354830  0.564824  1
  Al  Al5  1  0.250000  0.649180  0.433638  1
  Al  Al6  1  0.750000  0.851314  0.933603  1
  Zn  Zn7  1  0.250000  0.153323  0.069516  1
  Pt  Pt8  1  0.250000  0.775040  0.112059  1
  Pt  Pt9  1  0.250000  0.287327  0.397035  1
  Pt  Pt10  1  0.750000  0.716650  0.611471  1
  Pt  Pt11  1  0.750000  0.216470  0.877842  1
