# generated using pymatgen
data_Dy2Lu2Sc(GaSi)2
_symmetry_space_group_name_H-M   'P 1'
_cell_length_a   7.27417700
_cell_length_b   7.56642700
_cell_length_c   14.60783900
_cell_angle_alpha   90.00000000
_cell_angle_beta   90.00000000
_cell_angle_gamma   90.00000000
_symmetry_Int_Tables_number   1
_chemical_formula_structural   Dy2Lu2Sc(GaSi)2
_chemical_formula_sum   'Dy8 Lu8 Sc4 Ga8 Si8'
_cell_volume   804.00858200
_cell_formula_units_Z   4
loop_
 _symmetry_equiv_pos_site_id
 _symmetry_equiv_pos_as_xyz
  1  'x, y, z'
loop_
 _atom_site_type_symbol
 _atom_site_label
 _atom_site_symmetry_multiplicity
 _atom_site_fract_x
 _atom_site_fract_y
 _atom_site_fract_z
 _atom_site_occupancy
  Dy  Dy0  1  0.012535  0.178902  0.100711  1
  Dy  Dy1  1  0.987465  0.821098  0.899289  1
  Dy  Dy2  1  0.487465  0.678902  0.899289  1
  Dy  Dy3  1  0.987465  0.821098  0.600711  1
  Dy  Dy4  1  0.512535  0.321098  0.100711  1
  Dy  Dy5  1  0.012535  0.178902  0.399289  1
  Dy  Dy6  1  0.512535  0.321098  0.399289  1
  Dy  Dy7  1  0.487465  0.678902  0.600711  1
  Lu  Lu8  1  0.329918  0.174138  0.624582  1
  Lu  Lu9  1  0.670082  0.825862  0.375418  1
  Lu  Lu10  1  0.170082  0.674138  0.375418  1
  Lu  Lu11  1  0.670082  0.825862  0.124582  1
  Lu  Lu12  1  0.829918  0.325862  0.624582  1
  Lu  Lu13  1  0.329918  0.174138  0.875418  1
  Lu  Lu14  1  0.829918  0.325862  0.875418  1
  Lu  Lu15  1  0.170082  0.674138  0.124582  1
  Sc  Sc16  1  0.164848  0.506014  0.750000  1
  Sc  Sc17  1  0.835152  0.493986  0.250000  1
  Sc  Sc18  1  0.335152  0.006014  0.250000  1
  Sc  Sc19  1  0.664848  0.993986  0.750000  1
  Ga  Ga20  1  0.160820  0.468103  0.540269  1
  Ga  Ga21  1  0.839180  0.531897  0.459731  1
  Ga  Ga22  1  0.339180  0.968103  0.459731  1
  Ga  Ga23  1  0.839180  0.531897  0.040269  1
  Ga  Ga24  1  0.660820  0.031897  0.540269  1
  Ga  Ga25  1  0.160820  0.468103  0.959731  1
  Ga  Ga26  1  0.660820  0.031897  0.959731  1
  Ga  Ga27  1  0.339180  0.968103  0.040269  1
  Si  Si28  1  0.029672  0.104474  0.750000  1
  Si  Si29  1  0.970328  0.895526  0.250000  1
  Si  Si30  1  0.470328  0.604474  0.250000  1
  Si  Si31  1  0.529672  0.395526  0.750000  1
  Si  Si32  1  0.282926  0.870248  0.750000  1
  Si  Si33  1  0.717074  0.129752  0.250000  1
  Si  Si34  1  0.217074  0.370248  0.250000  1
  Si  Si35  1  0.782926  0.629752  0.750000  1
