# generated using pymatgen
data_Ti8Zn3Co
_symmetry_space_group_name_H-M   'P 1'
_cell_length_a   2.99519200
_cell_length_b   2.99519200
_cell_length_c   21.18367600
_cell_angle_alpha   90.00000000
_cell_angle_beta   90.00000000
_cell_angle_gamma   90.00000000
_symmetry_Int_Tables_number   1
_chemical_formula_structural   Ti8Zn3Co
_chemical_formula_sum   'Ti8 Zn3 Co1'
_cell_volume   190.04246701
_cell_formula_units_Z   1
loop_
 _symmetry_equiv_pos_site_id
 _symmetry_equiv_pos_as_xyz
  1  'x, y, z'
loop_
 _atom_site_type_symbol
 _atom_site_label
 _atom_site_symmetry_multiplicity
 _atom_site_fract_x
 _atom_site_fract_y
 _atom_site_fract_z
 _atom_site_occupancy
  Ti  Ti0  1  0.500000  0.500000  0.071280  1
  Ti  Ti1  1  0.000000  0.000000  0.328237  1
  Ti  Ti2  1  0.500000  0.500000  0.583812  1
  Ti  Ti3  1  0.000000  0.000000  0.841015  1
  Ti  Ti4  1  0.000000  0.000000  0.158985  1
  Ti  Ti5  1  0.500000  0.500000  0.416188  1
  Ti  Ti6  1  0.000000  0.000000  0.671763  1
  Ti  Ti7  1  0.500000  0.500000  0.928720  1
  Zn  Zn8  1  0.500000  0.500000  0.243823  1
  Zn  Zn9  1  0.000000  0.000000  0.500000  1
  Zn  Zn10  1  0.500000  0.500000  0.756177  1
  Co  Co11  1  0.000000  0.000000  0.000000  1
