# generated using pymatgen
data_Dy14Er2MgCo4Ag3
_symmetry_space_group_name_H-M   'P 1'
_cell_length_a   9.40438045
_cell_length_b   9.43245111
_cell_length_c   9.43247479
_cell_angle_alpha   60.04589988
_cell_angle_beta   59.90783098
_cell_angle_gamma   59.90670691
_symmetry_Int_Tables_number   1
_chemical_formula_structural   Dy14Er2MgCo4Ag3
_chemical_formula_sum   'Dy14 Er2 Mg1 Co4 Ag3'
_cell_volume   591.02420159
_cell_formula_units_Z   1
loop_
 _symmetry_equiv_pos_site_id
 _symmetry_equiv_pos_as_xyz
  1  'x, y, z'
loop_
 _atom_site_type_symbol
 _atom_site_label
 _atom_site_symmetry_multiplicity
 _atom_site_fract_x
 _atom_site_fract_y
 _atom_site_fract_z
 _atom_site_occupancy
  Dy  Dy0  1  0.185288  0.814207  0.186199  1
  Dy  Dy1  1  0.811246  0.188155  0.812805  1
  Dy  Dy2  1  0.185288  0.186189  0.814201  1
  Dy  Dy3  1  0.811230  0.812818  0.188155  1
  Dy  Dy4  1  0.935899  0.563167  0.563172  1
  Dy  Dy5  1  0.561888  0.937469  0.937480  1
  Dy  Dy6  1  0.561930  0.937081  0.563409  1
  Dy  Dy7  1  0.936303  0.563016  0.937743  1
  Dy  Dy8  1  0.561937  0.563400  0.937087  1
  Dy  Dy9  1  0.936305  0.937730  0.563025  1
  Dy  Dy10  1  0.346139  0.346767  0.346776  1
  Dy  Dy11  1  0.346551  0.346509  0.960261  1
  Dy  Dy12  1  0.346539  0.960262  0.346536  1
  Dy  Dy13  1  0.947942  0.350918  0.350927  1
  Er  Er14  1  0.810895  0.188222  0.188210  1
  Er  Er15  1  0.185769  0.813970  0.813840  1
  Mg  Mg16  1  0.288525  0.570501  0.570509  1
  Co  Co17  1  0.138278  0.142537  0.142536  1
  Co  Co18  1  0.138419  0.142019  0.576922  1
  Co  Co19  1  0.138401  0.576919  0.142022  1
  Co  Co20  1  0.575396  0.141540  0.141540  1
  Ag  Ag21  1  0.583298  0.583584  0.583600  1
  Ag  Ag22  1  0.583262  0.583543  0.249496  1
  Ag  Ag23  1  0.583268  0.249477  0.583547  1
