# generated using pymatgen
data_Pr5MoRhO12
_symmetry_space_group_name_H-M   'P 1'
_cell_length_a   7.13562048
_cell_length_b   7.13562126
_cell_length_c   7.83726300
_cell_angle_alpha   73.92986167
_cell_angle_beta   73.92985766
_cell_angle_gamma   49.45198046
_symmetry_Int_Tables_number   1
_chemical_formula_structural   Pr5MoRhO12
_chemical_formula_sum   'Pr5 Mo1 Rh1 O12'
_cell_volume   288.79912483
_cell_formula_units_Z   1
loop_
 _symmetry_equiv_pos_site_id
 _symmetry_equiv_pos_as_xyz
  1  'x, y, z'
loop_
 _atom_site_type_symbol
 _atom_site_label
 _atom_site_symmetry_multiplicity
 _atom_site_fract_x
 _atom_site_fract_y
 _atom_site_fract_z
 _atom_site_occupancy
  Pr  Pr0  1  0.290479  0.321789  0.355931  1
  Pr  Pr1  1  0.678211  0.709521  0.644069  1
  Pr  Pr2  1  0.683379  0.695072  0.167732  1
  Pr  Pr3  1  0.304928  0.316621  0.832268  1
  Pr  Pr4  1  0.992085  0.007915  0.500000  1
  Mo  Mo5  1  0.796036  0.203964  0.000000  1
  Rh  Rh6  1  0.247420  0.752580  0.000000  1
  O  O7  1  0.084960  0.600479  0.579877  1
  O  O8  1  0.996692  0.003122  0.189606  1
  O  O9  1  0.399521  0.915040  0.420123  1
  O  O10  1  0.513651  0.486016  0.166225  1
  O  O11  1  0.091023  0.571991  0.081666  1
  O  O12  1  0.892399  0.409511  0.427905  1
  O  O13  1  0.996878  0.003308  0.810394  1
  O  O14  1  0.590489  0.107600  0.572095  1
  O  O15  1  0.513984  0.486349  0.833775  1
  O  O16  1  0.596816  0.096960  0.078115  1
  O  O17  1  0.428009  0.908977  0.918334  1
  O  O18  1  0.903040  0.403184  0.921885  1
