# generated using pymatgen
data_Lu20FeCo3Sb8
_symmetry_space_group_name_H-M   'P 1'
_cell_length_a   7.67233511
_cell_length_b   8.69682500
_cell_length_c   11.94313364
_cell_angle_alpha   90.00000000
_cell_angle_beta   90.09670662
_cell_angle_gamma   90.00000000
_symmetry_Int_Tables_number   1
_chemical_formula_structural   Lu20FeCo3Sb8
_chemical_formula_sum   'Lu20 Fe1 Co3 Sb8'
_cell_volume   796.90392878
_cell_formula_units_Z   1
loop_
 _symmetry_equiv_pos_site_id
 _symmetry_equiv_pos_as_xyz
  1  'x, y, z'
loop_
 _atom_site_type_symbol
 _atom_site_label
 _atom_site_symmetry_multiplicity
 _atom_site_fract_x
 _atom_site_fract_y
 _atom_site_fract_z
 _atom_site_occupancy
  Lu  Lu0  1  0.156060  0.750000  0.204891  1
  Lu  Lu1  1  0.654263  0.250000  0.296487  1
  Lu  Lu2  1  0.845358  0.250000  0.797092  1
  Lu  Lu3  1  0.346370  0.750000  0.702570  1
  Lu  Lu4  1  0.449800  0.750000  0.997453  1
  Lu  Lu5  1  0.948642  0.250000  0.502813  1
  Lu  Lu6  1  0.549166  0.250000  0.002197  1
  Lu  Lu7  1  0.050843  0.750000  0.496726  1
  Lu  Lu8  1  0.619864  0.750000  0.308014  1
  Lu  Lu9  1  0.121515  0.250000  0.191313  1
  Lu  Lu10  1  0.379242  0.250000  0.691859  1
  Lu  Lu11  1  0.879216  0.750000  0.808880  1
  Lu  Lu12  1  0.823690  0.963594  0.065135  1
  Lu  Lu13  1  0.324694  0.034305  0.436124  1
  Lu  Lu14  1  0.176384  0.463255  0.935203  1
  Lu  Lu15  1  0.676886  0.538470  0.564449  1
  Lu  Lu16  1  0.176384  0.036745  0.935203  1
  Lu  Lu17  1  0.676886  0.961530  0.564449  1
  Lu  Lu18  1  0.823690  0.536406  0.065135  1
  Lu  Lu19  1  0.324694  0.465695  0.436124  1
  Fe  Fe20  1  0.429128  0.750000  0.489110  1
  Co  Co21  1  0.933891  0.250000  0.009096  1
  Co  Co22  1  0.568048  0.250000  0.509416  1
  Co  Co23  1  0.066416  0.750000  0.991749  1
  Sb  Sb24  1  0.929917  0.992399  0.327550  1
  Sb  Sb25  1  0.430305  0.008323  0.171727  1
  Sb  Sb26  1  0.069380  0.491979  0.672156  1
  Sb  Sb27  1  0.569833  0.508215  0.827821  1
  Sb  Sb28  1  0.069380  0.008021  0.672156  1
  Sb  Sb29  1  0.569833  0.991785  0.827821  1
  Sb  Sb30  1  0.929917  0.507601  0.327550  1
  Sb  Sb31  1  0.430305  0.491677  0.171727  1
