# generated using pymatgen
data_Lu2AlB2RuRh4
_symmetry_space_group_name_H-M   'P 1'
_cell_length_a   9.52045800
_cell_length_b   9.52045800
_cell_length_c   3.07012900
_cell_angle_alpha   90.00000000
_cell_angle_beta   90.00000000
_cell_angle_gamma   90.00000000
_symmetry_Int_Tables_number   1
_chemical_formula_structural   Lu2AlB2RuRh4
_chemical_formula_sum   'Lu4 Al2 B4 Ru2 Rh8'
_cell_volume   278.27379247
_cell_formula_units_Z   2
loop_
 _symmetry_equiv_pos_site_id
 _symmetry_equiv_pos_as_xyz
  1  'x, y, z'
loop_
 _atom_site_type_symbol
 _atom_site_label
 _atom_site_symmetry_multiplicity
 _atom_site_fract_x
 _atom_site_fract_y
 _atom_site_fract_z
 _atom_site_occupancy
  Lu  Lu0  1  0.825171  0.325171  0.000000  1
  Lu  Lu1  1  0.325171  0.174829  0.000000  1
  Lu  Lu2  1  0.674829  0.825171  0.000000  1
  Lu  Lu3  1  0.174829  0.674829  0.000000  1
  Al  Al4  1  0.000000  0.000000  0.000000  1
  Al  Al5  1  0.500000  0.500000  0.000000  1
  B  B6  1  0.621301  0.121301  0.000000  1
  B  B7  1  0.121301  0.378699  0.000000  1
  B  B8  1  0.878699  0.621301  0.000000  1
  B  B9  1  0.378699  0.878699  0.000000  1
  Ru  Ru10  1  0.500000  0.000000  0.500000  1
  Ru  Ru11  1  0.000000  0.500000  0.500000  1
  Rh  Rh12  1  0.070689  0.216112  0.500000  1
  Rh  Rh13  1  0.216112  0.929311  0.500000  1
  Rh  Rh14  1  0.783888  0.070689  0.500000  1
  Rh  Rh15  1  0.929311  0.783888  0.500000  1
  Rh  Rh16  1  0.429311  0.716112  0.500000  1
  Rh  Rh17  1  0.570689  0.283888  0.500000  1
  Rh  Rh18  1  0.716112  0.570689  0.500000  1
  Rh  Rh19  1  0.283888  0.429311  0.500000  1
