# generated using pymatgen
data_Sm5GdOsO12
_symmetry_space_group_name_H-M   'P 1'
_cell_length_a   6.63866418
_cell_length_b   6.60938283
_cell_length_c   6.61772442
_cell_angle_alpha   98.50160444
_cell_angle_beta   98.70120552
_cell_angle_gamma   98.67674663
_symmetry_Int_Tables_number   1
_chemical_formula_structural   Sm5GdOsO12
_chemical_formula_sum   'Sm5 Gd1 Os1 O12'
_cell_volume   279.38140129
_cell_formula_units_Z   1
loop_
 _symmetry_equiv_pos_site_id
 _symmetry_equiv_pos_as_xyz
  1  'x, y, z'
loop_
 _atom_site_type_symbol
 _atom_site_label
 _atom_site_symmetry_multiplicity
 _atom_site_fract_x
 _atom_site_fract_y
 _atom_site_fract_z
 _atom_site_occupancy
  Sm  Sm0  1  0.855632  0.388991  0.687799  1
  Sm  Sm1  1  0.609085  0.307640  0.142221  1
  Sm  Sm2  1  0.312095  0.144776  0.612579  1
  Sm  Sm3  1  0.687618  0.854640  0.387224  1
  Sm  Sm4  1  0.390772  0.692930  0.858642  1
  Gd  Gd5  1  0.146157  0.609119  0.315241  1
  Os  Os6  1  0.000279  0.000136  0.000462  1
  O  O7  1  0.930569  0.033627  0.710218  1
  O  O8  1  0.968285  0.289469  0.072459  1
  O  O9  1  0.593059  0.178269  0.439165  1
  O  O10  1  0.826067  0.562896  0.406277  1
  O  O11  1  0.295140  0.069395  0.963291  1
  O  O12  1  0.563997  0.410130  0.822905  1
  O  O13  1  0.432928  0.589937  0.179151  1
  O  O14  1  0.704442  0.930780  0.036933  1
  O  O15  1  0.177381  0.437915  0.590389  1
  O  O16  1  0.405683  0.821098  0.560436  1
  O  O17  1  0.031387  0.711600  0.925744  1
  O  O18  1  0.069423  0.966652  0.288863  1
