# generated using pymatgen
data_Ho3Tm9Co4RhPb
_symmetry_space_group_name_H-M   'P 1'
_cell_length_a   8.24788420
_cell_length_b   8.24879946
_cell_length_c   8.24343347
_cell_angle_alpha   110.96974452
_cell_angle_beta   110.68431808
_cell_angle_gamma   106.81968397
_symmetry_Int_Tables_number   1
_chemical_formula_structural   Ho3Tm9Co4RhPb
_chemical_formula_sum   'Ho3 Tm9 Co4 Rh1 Pb1'
_cell_volume   430.89305337
_cell_formula_units_Z   1
loop_
 _symmetry_equiv_pos_site_id
 _symmetry_equiv_pos_as_xyz
  1  'x, y, z'
loop_
 _atom_site_type_symbol
 _atom_site_label
 _atom_site_symmetry_multiplicity
 _atom_site_fract_x
 _atom_site_fract_y
 _atom_site_fract_z
 _atom_site_occupancy
  Ho  Ho0  1  0.290056  0.186274  0.476412  1
  Ho  Ho1  1  0.710507  0.814454  0.525039  1
  Ho  Ho2  1  0.289748  0.813359  0.103194  1
  Tm  Tm3  1  0.710835  0.186143  0.897030  1
  Tm  Tm4  1  0.620187  0.312122  0.307051  1
  Tm  Tm5  1  0.379672  0.687721  0.692329  1
  Tm  Tm6  1  0.004333  0.312363  0.692330  1
  Tm  Tm7  1  0.994649  0.686582  0.307070  1
  Tm  Tm8  1  0.210977  0.407443  0.195757  1
  Tm  Tm9  1  0.788174  0.591318  0.803662  1
  Tm  Tm10  1  0.212675  0.015583  0.803427  1
  Tm  Tm11  1  0.788666  0.984898  0.195512  1
  Co  Co12  1  0.999175  0.377667  0.377084  1
  Co  Co13  1  0.999760  0.621140  0.621158  1
  Co  Co14  1  0.388542  0.889168  0.501652  1
  Co  Co15  1  0.612211  0.112840  0.501654  1
  Rh  Rh16  1  0.999773  0.999881  0.998718  1
  Pb  Pb17  1  0.500060  0.501042  0.000924  1
