# generated using pymatgen
data_Ce3Ho3Tm2(AlRu)8
_symmetry_space_group_name_H-M   'P 1'
_cell_length_a   4.02557200
_cell_length_b   7.09606243
_cell_length_c   15.96367768
_cell_angle_alpha   91.27368457
_cell_angle_beta   90.00000000
_cell_angle_gamma   90.00000000
_symmetry_Int_Tables_number   1
_chemical_formula_structural   Ce3Ho3Tm2(AlRu)8
_chemical_formula_sum   'Ce3 Ho3 Tm2 Al8 Ru8'
_cell_volume   455.90112072
_cell_formula_units_Z   1
loop_
 _symmetry_equiv_pos_site_id
 _symmetry_equiv_pos_as_xyz
  1  'x, y, z'
loop_
 _atom_site_type_symbol
 _atom_site_label
 _atom_site_symmetry_multiplicity
 _atom_site_fract_x
 _atom_site_fract_y
 _atom_site_fract_z
 _atom_site_occupancy
  Ce  Ce0  1  0.750000  0.464702  0.281110  1
  Ce  Ce1  1  0.750000  0.331614  0.062279  1
  Ce  Ce2  1  0.250000  0.538022  0.719520  1
  Ho  Ho3  1  0.750000  0.839021  0.439993  1
  Ho  Ho4  1  0.250000  0.666339  0.936983  1
  Ho  Ho5  1  0.250000  0.043065  0.781523  1
  Tm  Tm6  1  0.750000  0.958436  0.219040  1
  Tm  Tm7  1  0.250000  0.159865  0.560875  1
  Al  Al8  1  0.750000  0.499641  0.562139  1
  Al  Al9  1  0.750000  0.367103  0.852483  1
  Al  Al10  1  0.750000  0.994753  0.934409  1
  Al  Al11  1  0.750000  0.875609  0.650640  1
  Al  Al12  1  0.250000  0.495533  0.437992  1
  Al  Al13  1  0.250000  0.994206  0.065861  1
  Al  Al14  1  0.250000  0.641103  0.150507  1
  Al  Al15  1  0.250000  0.123143  0.347257  1
  Ru  Ru16  1  0.750000  0.739942  0.806697  1
  Ru  Ru17  1  0.250000  0.237050  0.939808  1
  Ru  Ru18  1  0.750000  0.260123  0.431440  1
  Ru  Ru19  1  0.250000  0.740550  0.316126  1
  Ru  Ru20  1  0.750000  0.764904  0.065227  1
  Ru  Ru21  1  0.750000  0.261194  0.685193  1
  Ru  Ru22  1  0.250000  0.266718  0.186269  1
  Ru  Ru23  1  0.250000  0.737361  0.566628  1
