# generated using pymatgen
data_Hf8In4Cu3PdPt4
_symmetry_space_group_name_H-M   'P 1'
_cell_length_a   7.37162298
_cell_length_b   7.40579075
_cell_length_c   6.87734589
_cell_angle_alpha   89.93697946
_cell_angle_beta   90.00739453
_cell_angle_gamma   89.72688458
_symmetry_Int_Tables_number   1
_chemical_formula_structural   Hf8In4Cu3PdPt4
_chemical_formula_sum   'Hf8 In4 Cu3 Pd1 Pt4'
_cell_volume   375.44836630
_cell_formula_units_Z   1
loop_
 _symmetry_equiv_pos_site_id
 _symmetry_equiv_pos_as_xyz
  1  'x, y, z'
loop_
 _atom_site_type_symbol
 _atom_site_label
 _atom_site_symmetry_multiplicity
 _atom_site_fract_x
 _atom_site_fract_y
 _atom_site_fract_z
 _atom_site_occupancy
  Hf  Hf0  1  0.144134  0.148822  0.000290  1
  Hf  Hf1  1  0.848563  0.852391  0.997160  1
  Hf  Hf2  1  0.652828  0.350702  0.498637  1
  Hf  Hf3  1  0.354284  0.650137  0.499092  1
  Hf  Hf4  1  0.690956  0.311750  0.001641  1
  Hf  Hf5  1  0.312830  0.690447  0.000992  1
  Hf  Hf6  1  0.809597  0.810728  0.501025  1
  Hf  Hf7  1  0.186558  0.190121  0.500383  1
  In  In8  1  0.493343  0.000920  0.250973  1
  In  In9  1  0.491437  0.004810  0.750883  1
  In  In10  1  0.004375  0.506790  0.251772  1
  In  In11  1  0.007750  0.504808  0.749230  1
  Cu  Cu12  1  0.368649  0.370135  0.794741  1
  Cu  Cu13  1  0.130400  0.870114  0.295135  1
  Cu  Cu14  1  0.131230  0.870173  0.704100  1
  Pd  Pd15  1  0.367355  0.367496  0.208642  1
  Pt  Pt16  1  0.621776  0.623149  0.783407  1
  Pt  Pt17  1  0.629388  0.630250  0.211626  1
  Pt  Pt18  1  0.876992  0.123305  0.714449  1
  Pt  Pt19  1  0.877553  0.122952  0.285825  1
