# generated using pymatgen
data_Nd6Tm10MgHg3Rh4
_symmetry_space_group_name_H-M   'P 1'
_cell_length_a   9.64047539
_cell_length_b   9.63597479
_cell_length_c   9.63597600
_cell_angle_alpha   59.99999584
_cell_angle_beta   60.01543773
_cell_angle_gamma   60.01544225
_symmetry_Int_Tables_number   1
_chemical_formula_structural   Nd6Tm10MgHg3Rh4
_chemical_formula_sum   'Nd6 Tm10 Mg1 Hg3 Rh4'
_cell_volume   633.10554570
_cell_formula_units_Z   1
loop_
 _symmetry_equiv_pos_site_id
 _symmetry_equiv_pos_as_xyz
  1  'x, y, z'
loop_
 _atom_site_type_symbol
 _atom_site_label
 _atom_site_symmetry_multiplicity
 _atom_site_fract_x
 _atom_site_fract_y
 _atom_site_fract_z
 _atom_site_occupancy
  Nd  Nd0  1  0.189682  0.811732  0.811732  1
  Nd  Nd1  1  0.809469  0.189634  0.189634  1
  Nd  Nd2  1  0.809469  0.189634  0.811264  1
  Nd  Nd3  1  0.189682  0.811732  0.186854  1
  Nd  Nd4  1  0.809469  0.811264  0.189634  1
  Nd  Nd5  1  0.189682  0.186854  0.811732  1
  Tm  Tm6  1  0.598107  0.597086  0.597086  1
  Tm  Tm7  1  0.598107  0.597086  0.207722  1
  Tm  Tm8  1  0.598107  0.207722  0.597086  1
  Tm  Tm9  1  0.198680  0.600440  0.600440  1
  Tm  Tm10  1  0.062054  0.437256  0.437256  1
  Tm  Tm11  1  0.432928  0.066112  0.066112  1
  Tm  Tm12  1  0.432928  0.066112  0.434848  1
  Tm  Tm13  1  0.062054  0.437256  0.063434  1
  Tm  Tm14  1  0.432928  0.434848  0.066112  1
  Tm  Tm15  1  0.062054  0.063434  0.437256  1
  Mg  Mg16  1  0.538671  0.820443  0.820443  1
  Hg  Hg17  1  0.830343  0.833990  0.833990  1
  Hg  Hg18  1  0.830343  0.833990  0.501680  1
  Hg  Hg19  1  0.830343  0.501680  0.833990  1
  Rh  Rh20  1  0.390457  0.393169  0.393169  1
  Rh  Rh21  1  0.390457  0.393169  0.823203  1
  Rh  Rh22  1  0.390457  0.823203  0.393169  1
  Rh  Rh23  1  0.823533  0.392155  0.392155  1
