# generated using pymatgen
data_YTh3Al24PdPt8
_symmetry_space_group_name_H-M   'P 1'
_cell_length_a   7.61413819
_cell_length_b   7.61369694
_cell_length_c   13.21981962
_cell_angle_alpha   84.51426048
_cell_angle_beta   101.03904084
_cell_angle_gamma   119.87787858
_symmetry_Int_Tables_number   1
_chemical_formula_structural   YTh3Al24PdPt8
_chemical_formula_sum   'Y1 Th3 Al24 Pd1 Pt8'
_cell_volume   652.22066770
_cell_formula_units_Z   1
loop_
 _symmetry_equiv_pos_site_id
 _symmetry_equiv_pos_as_xyz
  1  'x, y, z'
loop_
 _atom_site_type_symbol
 _atom_site_label
 _atom_site_symmetry_multiplicity
 _atom_site_fract_x
 _atom_site_fract_y
 _atom_site_fract_z
 _atom_site_occupancy
  Y  Y0  1  0.936920  0.332043  0.806057  1
  Th  Th1  1  0.732447  0.998650  0.192874  1
  Th  Th2  1  0.267370  0.000927  0.806173  1
  Th  Th3  1  0.062526  0.667629  0.192805  1
  Al  Al4  1  0.803849  0.868067  0.814801  1
  Al  Al5  1  0.196878  0.135951  0.184959  1
  Al  Al6  1  0.979160  0.663174  0.942244  1
  Al  Al7  1  0.020364  0.333879  0.051661  1
  Al  Al8  1  0.397908  0.660513  0.816503  1
  Al  Al9  1  0.597741  0.336632  0.183598  1
  Al  Al10  1  0.878002  0.662027  0.667004  1
  Al  Al11  1  0.123159  0.334390  0.336130  1
  Al  Al12  1  0.605469  0.462128  0.815536  1
  Al  Al13  1  0.396945  0.537503  0.183675  1
  Al  Al14  1  0.228995  0.343720  0.665597  1
  Al  Al15  1  0.768367  0.655855  0.338107  1
  Al  Al16  1  0.852823  0.333378  0.559920  1
  Al  Al17  1  0.186300  0.999708  0.558323  1
  Al  Al18  1  0.813922  0.000459  0.443280  1
  Al  Al19  1  0.351641  0.003189  0.053716  1
  Al  Al20  1  0.650333  0.001109  0.942216  1
  Al  Al21  1  0.558216  0.993387  0.667071  1
  Al  Al22  1  0.446197  0.010250  0.336411  1
  Al  Al23  1  0.521521  0.666983  0.562836  1
  Al  Al24  1  0.480003  0.333343  0.440022  1
  Al  Al25  1  0.678324  0.664528  0.042132  1
  Al  Al26  1  0.315926  0.334391  0.951551  1
  Al  Al27  1  0.148020  0.666092  0.443242  1
  Pd  Pd28  1  0.328757  0.672353  0.000205  1
  Pt  Pt29  1  0.545066  0.324079  0.637662  1
  Pt  Pt30  1  0.454232  0.675749  0.362884  1
  Pt  Pt31  1  0.888832  0.008567  0.639068  1
  Pt  Pt32  1  0.111205  0.990752  0.361236  1
  Pt  Pt33  1  0.672019  0.328412  0.999909  1
  Pt  Pt34  1  0.204175  0.667515  0.638968  1
  Pt  Pt35  1  0.796391  0.333052  0.361571  1
  Pt  Pt36  1  0.999995  0.999618  0.000054  1
