# generated using pymatgen
data_TiBe4Ru
_symmetry_space_group_name_H-M   'P 1'
_cell_length_a   4.39593442
_cell_length_b   4.39593398
_cell_length_c   4.39593400
_cell_angle_alpha   59.99999985
_cell_angle_beta   60.00000315
_cell_angle_gamma   59.99999880
_symmetry_Int_Tables_number   1
_chemical_formula_structural   TiBe4Ru
_chemical_formula_sum   'Ti1 Be4 Ru1'
_cell_volume   60.06735899
_cell_formula_units_Z   1
loop_
 _symmetry_equiv_pos_site_id
 _symmetry_equiv_pos_as_xyz
  1  'x, y, z'
loop_
 _atom_site_type_symbol
 _atom_site_label
 _atom_site_symmetry_multiplicity
 _atom_site_fract_x
 _atom_site_fract_y
 _atom_site_fract_z
 _atom_site_occupancy
  Ti  Ti0  1  0.000000  0.000000  0.000000  1
  Be  Be1  1  0.624611  0.624611  0.126168  1
  Be  Be2  1  0.624611  0.126168  0.624611  1
  Be  Be3  1  0.126168  0.624611  0.624611  1
  Be  Be4  1  0.624611  0.624611  0.624611  1
  Ru  Ru5  1  0.250000  0.250000  0.250000  1
