# generated using pymatgen
data_Er3Lu5Ti9Si16Mo3
_symmetry_space_group_name_H-M   'P 1'
_cell_length_a   6.95177168
_cell_length_b   6.95264582
_cell_length_c   12.77552335
_cell_angle_alpha   89.94826363
_cell_angle_beta   90.05041751
_cell_angle_gamma   89.94430908
_symmetry_Int_Tables_number   1
_chemical_formula_structural   Er3Lu5Ti9Si16Mo3
_chemical_formula_sum   'Er3 Lu5 Ti9 Si16 Mo3'
_cell_volume   617.48122264
_cell_formula_units_Z   1
loop_
 _symmetry_equiv_pos_site_id
 _symmetry_equiv_pos_as_xyz
  1  'x, y, z'
loop_
 _atom_site_type_symbol
 _atom_site_label
 _atom_site_symmetry_multiplicity
 _atom_site_fract_x
 _atom_site_fract_y
 _atom_site_fract_z
 _atom_site_occupancy
  Er  Er0  1  0.659528  0.000651  0.966790  1
  Er  Er1  1  0.000701  0.339342  0.532728  1
  Er  Er2  1  0.000783  0.659350  0.033246  1
  Lu  Lu3  1  0.339991  0.000167  0.467025  1
  Lu  Lu4  1  0.499918  0.841929  0.718517  1
  Lu  Lu5  1  0.498645  0.158288  0.217085  1
  Lu  Lu6  1  0.841940  0.499943  0.281801  1
  Lu  Lu7  1  0.158231  0.498681  0.782825  1
  Ti  Ti8  1  0.672545  0.673047  0.499956  1
  Ti  Ti9  1  0.152475  0.006814  0.875400  1
  Ti  Ti10  1  0.492263  0.651971  0.126043  1
  Ti  Ti11  1  0.506159  0.347353  0.626891  1
  Ti  Ti12  1  0.651965  0.492176  0.873889  1
  Ti  Ti13  1  0.347462  0.506840  0.372767  1
  Ti  Ti14  1  0.849195  0.993406  0.375513  1
  Ti  Ti15  1  0.007182  0.152450  0.124409  1
  Ti  Ti16  1  0.993247  0.849321  0.624415  1
  Si  Si17  1  0.202668  0.132137  0.683511  1
  Si  Si18  1  0.368574  0.701181  0.933047  1
  Si  Si19  1  0.632069  0.296658  0.432780  1
  Si  Si20  1  0.701231  0.368631  0.066833  1
  Si  Si21  1  0.297524  0.633731  0.566885  1
  Si  Si22  1  0.797155  0.868603  0.184316  1
  Si  Si23  1  0.132822  0.201953  0.316744  1
  Si  Si24  1  0.868823  0.797018  0.815875  1
  Si  Si25  1  0.291628  0.953830  0.064658  1
  Si  Si26  1  0.546477  0.792306  0.315224  1
  Si  Si27  1  0.452038  0.208609  0.814686  1
  Si  Si28  1  0.791534  0.546756  0.685050  1
  Si  Si29  1  0.208470  0.451940  0.185459  1
  Si  Si30  1  0.706238  0.047653  0.565873  1
  Si  Si31  1  0.954102  0.291564  0.935361  1
  Si  Si32  1  0.048600  0.708019  0.433958  1
  Mo  Mo33  1  0.326982  0.327086  0.000160  1
  Mo  Mo34  1  0.173779  0.827152  0.249268  1
  Mo  Mo35  1  0.827058  0.173442  0.751009  1
