# generated using pymatgen
data_Er16In4OsPt3
_symmetry_space_group_name_H-M   'P 1'
_cell_length_a   9.61936213
_cell_length_b   9.61936312
_cell_length_c   9.61936092
_cell_angle_alpha   59.86298370
_cell_angle_beta   59.86299057
_cell_angle_gamma   59.86298388
_symmetry_Int_Tables_number   1
_chemical_formula_structural   Er16In4OsPt3
_chemical_formula_sum   'Er16 In4 Os1 Pt3'
_cell_volume   627.43889956
_cell_formula_units_Z   1
loop_
 _symmetry_equiv_pos_site_id
 _symmetry_equiv_pos_as_xyz
  1  'x, y, z'
loop_
 _atom_site_type_symbol
 _atom_site_label
 _atom_site_symmetry_multiplicity
 _atom_site_fract_x
 _atom_site_fract_y
 _atom_site_fract_z
 _atom_site_occupancy
  Er  Er0  1  0.191361  0.191361  0.808306  1
  Er  Er1  1  0.444269  0.059605  0.059605  1
  Er  Er2  1  0.436366  0.064551  0.436366  1
  Er  Er3  1  0.059605  0.444269  0.059605  1
  Er  Er4  1  0.651075  0.050785  0.651075  1
  Er  Er5  1  0.186459  0.810226  0.810226  1
  Er  Er6  1  0.059605  0.059605  0.444269  1
  Er  Er7  1  0.808306  0.191361  0.191361  1
  Er  Er8  1  0.810226  0.810226  0.186459  1
  Er  Er9  1  0.651075  0.651075  0.050785  1
  Er  Er10  1  0.649158  0.649158  0.649158  1
  Er  Er11  1  0.064551  0.436366  0.436366  1
  Er  Er12  1  0.050785  0.651075  0.651075  1
  Er  Er13  1  0.810226  0.186459  0.810226  1
  Er  Er14  1  0.436366  0.436366  0.064551  1
  Er  Er15  1  0.191361  0.808306  0.191361  1
  In  In16  1  0.416885  0.749245  0.416885  1
  In  In17  1  0.416885  0.416885  0.749245  1
  In  In18  1  0.749245  0.416885  0.416885  1
  In  In19  1  0.415817  0.415817  0.415817  1
  Os  Os20  1  0.858004  0.858004  0.858004  1
  Pt  Pt21  1  0.857982  0.426412  0.857982  1
  Pt  Pt22  1  0.857982  0.857982  0.426412  1
  Pt  Pt23  1  0.426412  0.857982  0.857982  1
