# generated using pymatgen
data_Y4Pa(ReB3)2
_symmetry_space_group_name_H-M   'P 1'
_cell_length_a   5.53058154
_cell_length_b   5.53057995
_cell_length_c   8.42682231
_cell_angle_alpha   70.84326997
_cell_angle_beta   70.84326303
_cell_angle_gamma   59.99998763
_symmetry_Int_Tables_number   1
_chemical_formula_structural   Y4Pa(ReB3)2
_chemical_formula_sum   'Y4 Pa1 Re2 B6'
_cell_volume   206.57578305
_cell_formula_units_Z   1
loop_
 _symmetry_equiv_pos_site_id
 _symmetry_equiv_pos_as_xyz
  1  'x, y, z'
loop_
 _atom_site_type_symbol
 _atom_site_label
 _atom_site_symmetry_multiplicity
 _atom_site_fract_x
 _atom_site_fract_y
 _atom_site_fract_z
 _atom_site_occupancy
  Y  Y0  1  0.749775  0.749775  0.750677  1
  Y  Y1  1  0.250225  0.250225  0.249323  1
  Y  Y2  1  0.583716  0.583716  0.248854  1
  Y  Y3  1  0.416284  0.416284  0.751146  1
  Pa  Pa4  1  0.000000  0.000000  0.000000  1
  Re  Re5  1  0.891161  0.891161  0.326517  1
  Re  Re6  1  0.108839  0.108839  0.673483  1
  B  B7  1  0.500000  0.171609  0.500000  1
  B  B8  1  0.828391  0.500000  0.500000  1
  B  B9  1  0.171609  0.828391  0.500000  1
  B  B10  1  0.171609  0.500000  0.500000  1
  B  B11  1  0.828391  0.171609  0.500000  1
  B  B12  1  0.500000  0.828391  0.500000  1
