# generated using pymatgen
data_SmMgB6Os
_symmetry_space_group_name_H-M   'P 1'
_cell_length_a   3.61197000
_cell_length_b   8.95147900
_cell_length_c   11.37169200
_cell_angle_alpha   90.00000000
_cell_angle_beta   90.00000000
_cell_angle_gamma   90.00000000
_symmetry_Int_Tables_number   1
_chemical_formula_structural   SmMgB6Os
_chemical_formula_sum   'Sm4 Mg4 B24 Os4'
_cell_volume   367.67493142
_cell_formula_units_Z   4
loop_
 _symmetry_equiv_pos_site_id
 _symmetry_equiv_pos_as_xyz
  1  'x, y, z'
loop_
 _atom_site_type_symbol
 _atom_site_label
 _atom_site_symmetry_multiplicity
 _atom_site_fract_x
 _atom_site_fract_y
 _atom_site_fract_z
 _atom_site_occupancy
  Sm  Sm0  1  0.000000  0.322601  0.414233  1
  Sm  Sm1  1  0.000000  0.677399  0.585767  1
  Sm  Sm2  1  0.000000  0.822601  0.085767  1
  Sm  Sm3  1  0.000000  0.177399  0.914233  1
  Mg  Mg4  1  0.000000  0.943704  0.370840  1
  Mg  Mg5  1  0.000000  0.056296  0.629160  1
  Mg  Mg6  1  0.000000  0.443704  0.129160  1
  Mg  Mg7  1  0.000000  0.556296  0.870840  1
  B  B8  1  0.500000  0.556749  0.430630  1
  B  B9  1  0.500000  0.443251  0.569370  1
  B  B10  1  0.500000  0.056749  0.069370  1
  B  B11  1  0.500000  0.943251  0.930630  1
  B  B12  1  0.500000  0.755409  0.416467  1
  B  B13  1  0.500000  0.244591  0.583533  1
  B  B14  1  0.500000  0.255409  0.083533  1
  B  B15  1  0.500000  0.744591  0.916467  1
  B  B16  1  0.500000  0.793140  0.263672  1
  B  B17  1  0.500000  0.206860  0.736327  1
  B  B18  1  0.500000  0.293140  0.236328  1
  B  B19  1  0.500000  0.706860  0.763673  1
  B  B20  1  0.500000  0.627084  0.182794  1
  B  B21  1  0.500000  0.372916  0.817206  1
  B  B22  1  0.500000  0.127084  0.317206  1
  B  B23  1  0.500000  0.872916  0.682794  1
  B  B24  1  0.500000  0.981909  0.213776  1
  B  B25  1  0.500000  0.018091  0.786224  1
  B  B26  1  0.500000  0.481909  0.286224  1
  B  B27  1  0.500000  0.518091  0.713776  1
  B  B28  1  0.500000  0.591769  0.024813  1
  B  B29  1  0.500000  0.408231  0.975187  1
  B  B30  1  0.500000  0.091769  0.475187  1
  B  B31  1  0.500000  0.908231  0.524813  1
  Os  Os32  1  0.000000  0.641311  0.317325  1
  Os  Os33  1  0.000000  0.358689  0.682675  1
  Os  Os34  1  0.000000  0.141311  0.182675  1
  Os  Os35  1  0.000000  0.858689  0.817325  1
