# generated using pymatgen
data_Ho6B14MoRu
_symmetry_space_group_name_H-M   'P 1'
_cell_length_a   8.08339735
_cell_length_b   8.08339788
_cell_length_c   9.36856200
_cell_angle_alpha   90.00000000
_cell_angle_beta   90.00000000
_cell_angle_gamma   155.02069677
_symmetry_Int_Tables_number   1
_chemical_formula_structural   Ho6B14MoRu
_chemical_formula_sum   'Ho6 B14 Mo1 Ru1'
_cell_volume   258.50710981
_cell_formula_units_Z   1
loop_
 _symmetry_equiv_pos_site_id
 _symmetry_equiv_pos_as_xyz
  1  'x, y, z'
loop_
 _atom_site_type_symbol
 _atom_site_label
 _atom_site_symmetry_multiplicity
 _atom_site_fract_x
 _atom_site_fract_y
 _atom_site_fract_z
 _atom_site_occupancy
  Ho  Ho0  1  0.256673  0.743327  0.250000  1
  Ho  Ho1  1  0.744691  0.255309  0.750000  1
  Ho  Ho2  1  0.605899  0.394101  0.061958  1
  Ho  Ho3  1  0.393145  0.606855  0.940991  1
  Ho  Ho4  1  0.393145  0.606855  0.559009  1
  Ho  Ho5  1  0.605899  0.394101  0.438042  1
  B  B6  1  0.978986  0.021014  0.096384  1
  B  B7  1  0.019457  0.980543  0.908967  1
  B  B8  1  0.019457  0.980543  0.591033  1
  B  B9  1  0.978986  0.021014  0.403616  1
  B  B10  1  0.773390  0.226610  0.034616  1
  B  B11  1  0.228011  0.771989  0.967971  1
  B  B12  1  0.228011  0.771989  0.532029  1
  B  B13  1  0.773390  0.226610  0.465384  1
  B  B14  1  0.868300  0.131700  0.151210  1
  B  B15  1  0.134782  0.865218  0.852621  1
  B  B16  1  0.134782  0.865218  0.647379  1
  B  B17  1  0.868300  0.131700  0.348790  1
  B  B18  1  0.042267  0.957733  0.250000  1
  B  B19  1  0.954151  0.045849  0.750000  1
  Mo  Mo20  1  0.552589  0.447411  0.750000  1
  Ru  Ru21  1  0.445683  0.554317  0.250000  1
