# generated using pymatgen
data_NaTbNd5OsBr12
_symmetry_space_group_name_H-M   'P 1'
_cell_length_a   9.56291479
_cell_length_b   9.50602391
_cell_length_c   9.54421157
_cell_angle_alpha   107.19558728
_cell_angle_beta   107.43243568
_cell_angle_gamma   106.85734130
_symmetry_Int_Tables_number   1
_chemical_formula_structural   NaTbNd5OsBr12
_chemical_formula_sum   'Na1 Tb1 Nd5 Os1 Br12'
_cell_volume   719.33482292
_cell_formula_units_Z   1
loop_
 _symmetry_equiv_pos_site_id
 _symmetry_equiv_pos_as_xyz
  1  'x, y, z'
loop_
 _atom_site_type_symbol
 _atom_site_label
 _atom_site_symmetry_multiplicity
 _atom_site_fract_x
 _atom_site_fract_y
 _atom_site_fract_z
 _atom_site_occupancy
  Na  Na0  1  0.500065  0.500213  0.499947  1
  Tb  Tb1  1  0.110149  0.314880  0.031941  1
  Nd  Nd2  1  0.319287  0.030397  0.112155  1
  Nd  Nd3  1  0.032281  0.113505  0.320291  1
  Nd  Nd4  1  0.968588  0.889655  0.680652  1
  Nd  Nd5  1  0.680714  0.969491  0.887595  1
  Nd  Nd6  1  0.888603  0.679752  0.968296  1
  Os  Os7  1  0.000189  0.999826  0.000865  1
  Br  Br8  1  0.216486  0.677943  0.070972  1
  Br  Br9  1  0.444030  0.373268  0.150272  1
  Br  Br10  1  0.685283  0.072995  0.219260  1
  Br  Br11  1  0.928710  0.781490  0.315565  1
  Br  Br12  1  0.154401  0.454569  0.363274  1
  Br  Br13  1  0.373420  0.154946  0.455943  1
  Br  Br14  1  0.626620  0.845330  0.544167  1
  Br  Br15  1  0.844994  0.544889  0.626587  1
  Br  Br16  1  0.073623  0.224492  0.694898  1
  Br  Br17  1  0.314841  0.927409  0.781011  1
  Br  Br18  1  0.545191  0.627329  0.845056  1
  Br  Br19  1  0.792525  0.317622  0.931257  1
