# generated using pymatgen
data_DyEr4(GaSb)2
_symmetry_space_group_name_H-M   'P 1'
_cell_length_a   8.63076279
_cell_length_b   8.55376850
_cell_length_c   7.85455146
_cell_angle_alpha   89.84145258
_cell_angle_beta   89.92275148
_cell_angle_gamma   125.55855276
_symmetry_Int_Tables_number   1
_chemical_formula_structural   DyEr4(GaSb)2
_chemical_formula_sum   'Dy2 Er8 Ga4 Sb4'
_cell_volume   471.72907591
_cell_formula_units_Z   2
loop_
 _symmetry_equiv_pos_site_id
 _symmetry_equiv_pos_as_xyz
  1  'x, y, z'
loop_
 _atom_site_type_symbol
 _atom_site_label
 _atom_site_symmetry_multiplicity
 _atom_site_fract_x
 _atom_site_fract_y
 _atom_site_fract_z
 _atom_site_occupancy
  Dy  Dy0  1  0.042158  0.307302  0.329343  1
  Dy  Dy1  1  0.957842  0.692698  0.670657  1
  Er  Er2  1  0.458186  0.196346  0.831044  1
  Er  Er3  1  0.796342  0.537807  0.167304  1
  Er  Er4  1  0.541814  0.803654  0.168956  1
  Er  Er5  1  0.203658  0.462193  0.832696  1
  Er  Er6  1  0.702917  0.962125  0.667596  1
  Er  Er7  1  0.297083  0.037875  0.332404  1
  Er  Er8  1  0.000000  0.000000  0.000000  1
  Er  Er9  1  0.500000  0.500000  0.500000  1
  Ga  Ga10  1  0.375115  0.375507  0.123589  1
  Ga  Ga11  1  0.624885  0.624493  0.876411  1
  Ga  Ga12  1  0.125537  0.125011  0.624199  1
  Ga  Ga13  1  0.874463  0.874989  0.375801  1
  Sb  Sb14  1  0.795912  0.208686  0.994700  1
  Sb  Sb15  1  0.204088  0.791314  0.005300  1
  Sb  Sb16  1  0.700595  0.290013  0.495669  1
  Sb  Sb17  1  0.299405  0.709987  0.504331  1
