# generated using pymatgen
data_Gd8YRh6
_symmetry_space_group_name_H-M   'P 1'
_cell_length_a   7.47411845
_cell_length_b   7.47411775
_cell_length_c   7.47411600
_cell_angle_alpha   71.23852351
_cell_angle_beta   71.23853342
_cell_angle_gamma   71.23852382
_symmetry_Int_Tables_number   1
_chemical_formula_structural   Gd8YRh6
_chemical_formula_sum   'Gd8 Y1 Rh6'
_cell_volume   363.07794521
_cell_formula_units_Z   1
loop_
 _symmetry_equiv_pos_site_id
 _symmetry_equiv_pos_as_xyz
  1  'x, y, z'
loop_
 _atom_site_type_symbol
 _atom_site_label
 _atom_site_symmetry_multiplicity
 _atom_site_fract_x
 _atom_site_fract_y
 _atom_site_fract_z
 _atom_site_occupancy
  Gd  Gd0  1  0.337973  0.833180  0.109171  1
  Gd  Gd1  1  0.109171  0.337973  0.833180  1
  Gd  Gd2  1  0.833180  0.109171  0.337973  1
  Gd  Gd3  1  0.166820  0.890829  0.662027  1
  Gd  Gd4  1  0.890829  0.662027  0.166820  1
  Gd  Gd5  1  0.662027  0.166820  0.890829  1
  Gd  Gd6  1  0.297847  0.297847  0.297847  1
  Gd  Gd7  1  0.702153  0.702153  0.702153  1
  Y  Y8  1  0.500000  0.500000  0.500000  1
  Rh  Rh9  1  0.456218  0.092009  0.663022  1
  Rh  Rh10  1  0.092009  0.663022  0.456218  1
  Rh  Rh11  1  0.663022  0.456218  0.092009  1
  Rh  Rh12  1  0.543782  0.907991  0.336978  1
  Rh  Rh13  1  0.907991  0.336978  0.543782  1
  Rh  Rh14  1  0.336978  0.543782  0.907991  1
