# generated using pymatgen
data_Y3Er7(TmRu2)2
_symmetry_space_group_name_H-M   'P 1'
_cell_length_a   6.27613555
_cell_length_b   7.29799744
_cell_length_c   9.07397792
_cell_angle_alpha   90.02455504
_cell_angle_beta   89.96266799
_cell_angle_gamma   90.16390302
_symmetry_Int_Tables_number   1
_chemical_formula_structural   Y3Er7(TmRu2)2
_chemical_formula_sum   'Y3 Er7 Tm2 Ru4'
_cell_volume   415.61559143
_cell_formula_units_Z   1
loop_
 _symmetry_equiv_pos_site_id
 _symmetry_equiv_pos_as_xyz
  1  'x, y, z'
loop_
 _atom_site_type_symbol
 _atom_site_label
 _atom_site_symmetry_multiplicity
 _atom_site_fract_x
 _atom_site_fract_y
 _atom_site_fract_z
 _atom_site_occupancy
  Y  Y0  1  0.632020  0.040005  0.249872  1
  Y  Y1  1  0.132227  0.459756  0.750235  1
  Y  Y2  1  0.368357  0.959844  0.750174  1
  Er  Er3  1  0.167088  0.176953  0.435374  1
  Er  Er4  1  0.668360  0.324638  0.563535  1
  Er  Er5  1  0.832497  0.822894  0.936303  1
  Er  Er6  1  0.668252  0.324824  0.936594  1
  Er  Er7  1  0.832566  0.823011  0.563808  1
  Er  Er8  1  0.331261  0.675854  0.435127  1
  Er  Er9  1  0.167188  0.176985  0.064572  1
  Tm  Tm10  1  0.331207  0.675586  0.064825  1
  Tm  Tm11  1  0.866534  0.541519  0.249816  1
  Ru  Ru12  1  0.042539  0.882765  0.249609  1
  Ru  Ru13  1  0.460132  0.386872  0.249544  1
  Ru  Ru14  1  0.955665  0.114317  0.750173  1
  Ru  Ru15  1  0.544106  0.614180  0.750440  1
