# generated using pymatgen
data_PaCl30
_symmetry_space_group_name_H-M   'P 1'
_cell_length_a   13.70665981
_cell_length_b   13.70666028
_cell_length_c   15.85139196
_cell_angle_alpha   83.49000159
_cell_angle_beta   83.49000284
_cell_angle_gamma   125.35477055
_symmetry_Int_Tables_number   1
_chemical_formula_structural   PaCl30
_chemical_formula_sum   'Pa1 Cl30'
_cell_volume   2353.58379179
_cell_formula_units_Z   1
loop_
 _symmetry_equiv_pos_site_id
 _symmetry_equiv_pos_as_xyz
  1  'x, y, z'
loop_
 _atom_site_type_symbol
 _atom_site_label
 _atom_site_symmetry_multiplicity
 _atom_site_fract_x
 _atom_site_fract_y
 _atom_site_fract_z
 _atom_site_occupancy
  Pa  Pa0  1  0.000000  0.000000  0.000000  1
  Cl  Cl1  1  0.936790  0.936790  0.172459  1
  Cl  Cl2  1  0.063210  0.063210  0.827541  1
  Cl  Cl3  1  0.066022  0.213191  0.005572  1
  Cl  Cl4  1  0.933978  0.786809  0.994428  1
  Cl  Cl5  1  0.213191  0.066022  0.005572  1
  Cl  Cl6  1  0.786809  0.933978  0.994428  1
  Cl  Cl7  1  0.200680  0.743926  0.064934  1
  Cl  Cl8  1  0.799320  0.256074  0.935066  1
  Cl  Cl9  1  0.699229  0.079988  0.259438  1
  Cl  Cl10  1  0.256074  0.799320  0.935066  1
  Cl  Cl11  1  0.300771  0.920012  0.740562  1
  Cl  Cl12  1  0.743926  0.200680  0.064934  1
  Cl  Cl13  1  0.981099  0.201556  0.773843  1
  Cl  Cl14  1  0.920012  0.300771  0.740562  1
  Cl  Cl15  1  0.018901  0.798444  0.226157  1
  Cl  Cl16  1  0.079988  0.699229  0.259438  1
  Cl  Cl17  1  0.798444  0.018901  0.226157  1
  Cl  Cl18  1  0.201556  0.981099  0.773843  1
  Cl  Cl19  1  0.466159  0.547866  0.261123  1
  Cl  Cl20  1  0.533841  0.452134  0.738877  1
  Cl  Cl21  1  0.507470  0.207194  0.450801  1
  Cl  Cl22  1  0.452134  0.533841  0.738877  1
  Cl  Cl23  1  0.492530  0.792806  0.549199  1
  Cl  Cl24  1  0.547866  0.466159  0.261123  1
  Cl  Cl25  1  0.238621  0.428293  0.546167  1
  Cl  Cl26  1  0.792806  0.492530  0.549199  1
  Cl  Cl27  1  0.761379  0.571707  0.453833  1
  Cl  Cl28  1  0.207194  0.507470  0.450801  1
  Cl  Cl29  1  0.571707  0.761379  0.453833  1
  Cl  Cl30  1  0.428293  0.238621  0.546167  1
