# generated using pymatgen
data_Dy2Si2PdRu
_symmetry_space_group_name_H-M   'P 1'
_cell_length_a   4.29356600
_cell_length_b   6.96392173
_cell_length_c   7.40505835
_cell_angle_alpha   90.62434893
_cell_angle_beta   90.00000000
_cell_angle_gamma   90.00000000
_symmetry_Int_Tables_number   1
_chemical_formula_structural   Dy2Si2PdRu
_chemical_formula_sum   'Dy4 Si4 Pd2 Ru2'
_cell_volume   221.39852554
_cell_formula_units_Z   2
loop_
 _symmetry_equiv_pos_site_id
 _symmetry_equiv_pos_as_xyz
  1  'x, y, z'
loop_
 _atom_site_type_symbol
 _atom_site_label
 _atom_site_symmetry_multiplicity
 _atom_site_fract_x
 _atom_site_fract_y
 _atom_site_fract_z
 _atom_site_occupancy
  Dy  Dy0  1  0.250000  0.992586  0.806585  1
  Dy  Dy1  1  0.750000  0.007414  0.193415  1
  Dy  Dy2  1  0.250000  0.500013  0.688357  1
  Dy  Dy3  1  0.750000  0.499987  0.311643  1
  Si  Si4  1  0.250000  0.300898  0.088540  1
  Si  Si5  1  0.750000  0.699102  0.911460  1
  Si  Si6  1  0.250000  0.789845  0.381057  1
  Si  Si7  1  0.750000  0.210155  0.618943  1
  Pd  Pd8  1  0.750000  0.834683  0.574194  1
  Pd  Pd9  1  0.250000  0.165317  0.425806  1
  Ru  Ru10  1  0.750000  0.346628  0.932577  1
  Ru  Ru11  1  0.250000  0.653372  0.067423  1
