# generated using pymatgen
data_Tb3Dy5Re(B8Os)3
_symmetry_space_group_name_H-M   'P 1'
_cell_length_a   3.67138000
_cell_length_b   9.17150558
_cell_length_c   11.55735502
_cell_angle_alpha   90.09033813
_cell_angle_beta   90.00000000
_cell_angle_gamma   90.00000000
_symmetry_Int_Tables_number   1
_chemical_formula_structural   Tb3Dy5Re(B8Os)3
_chemical_formula_sum   'Tb3 Dy5 Re1 B24 Os3'
_cell_volume   389.15972388
_cell_formula_units_Z   1
loop_
 _symmetry_equiv_pos_site_id
 _symmetry_equiv_pos_as_xyz
  1  'x, y, z'
loop_
 _atom_site_type_symbol
 _atom_site_label
 _atom_site_symmetry_multiplicity
 _atom_site_fract_x
 _atom_site_fract_y
 _atom_site_fract_z
 _atom_site_occupancy
  Tb  Tb0  1  0.000000  0.322862  0.414768  1
  Tb  Tb1  1  0.000000  0.679557  0.588201  1
  Tb  Tb2  1  0.000000  0.823053  0.083870  1
  Dy  Dy3  1  0.000000  0.176068  0.913123  1
  Dy  Dy4  1  0.000000  0.943347  0.371866  1
  Dy  Dy5  1  0.000000  0.055954  0.627684  1
  Dy  Dy6  1  0.000000  0.442942  0.127750  1
  Dy  Dy7  1  0.000000  0.556408  0.872852  1
  Re  Re8  1  0.000000  0.862496  0.821331  1
  B  B9  1  0.500000  0.553986  0.432817  1
  B  B10  1  0.500000  0.446167  0.567568  1
  B  B11  1  0.500000  0.053809  0.067545  1
  B  B12  1  0.500000  0.947147  0.932722  1
  B  B13  1  0.500000  0.747919  0.419189  1
  B  B14  1  0.500000  0.252234  0.580703  1
  B  B15  1  0.500000  0.247599  0.080744  1
  B  B16  1  0.500000  0.752086  0.919044  1
  B  B17  1  0.500000  0.790036  0.266584  1
  B  B18  1  0.500000  0.209361  0.732827  1
  B  B19  1  0.500000  0.290490  0.233426  1
  B  B20  1  0.500000  0.708891  0.766567  1
  B  B21  1  0.500000  0.631276  0.185917  1
  B  B22  1  0.500000  0.368082  0.813848  1
  B  B23  1  0.500000  0.131926  0.314238  1
  B  B24  1  0.500000  0.868447  0.686053  1
  B  B25  1  0.500000  0.984024  0.212728  1
  B  B26  1  0.500000  0.017271  0.787212  1
  B  B27  1  0.500000  0.483692  0.287687  1
  B  B28  1  0.500000  0.516274  0.712909  1
  B  B29  1  0.500000  0.606623  0.030266  1
  B  B30  1  0.500000  0.391528  0.970326  1
  B  B31  1  0.500000  0.107970  0.469701  1
  B  B32  1  0.500000  0.892638  0.529232  1
  Os  Os33  1  0.000000  0.637464  0.321457  1
  Os  Os34  1  0.000000  0.362464  0.678195  1
  Os  Os35  1  0.000000  0.137912  0.179050  1
