# generated using pymatgen
data_Tm4Al2Zn2Pt3Rh
_symmetry_space_group_name_H-M   'P 1'
_cell_length_a   4.19921500
_cell_length_b   6.84906478
_cell_length_c   8.00267619
_cell_angle_alpha   89.45754066
_cell_angle_beta   90.00000000
_cell_angle_gamma   90.00000000
_symmetry_Int_Tables_number   1
_chemical_formula_structural   Tm4Al2Zn2Pt3Rh
_chemical_formula_sum   'Tm4 Al2 Zn2 Pt3 Rh1'
_cell_volume   230.15221822
_cell_formula_units_Z   1
loop_
 _symmetry_equiv_pos_site_id
 _symmetry_equiv_pos_as_xyz
  1  'x, y, z'
loop_
 _atom_site_type_symbol
 _atom_site_label
 _atom_site_symmetry_multiplicity
 _atom_site_fract_x
 _atom_site_fract_y
 _atom_site_fract_z
 _atom_site_occupancy
  Tm  Tm0  1  0.250000  0.538303  0.178914  1
  Tm  Tm1  1  0.750000  0.459790  0.819835  1
  Tm  Tm2  1  0.750000  0.966516  0.685900  1
  Tm  Tm3  1  0.250000  0.038276  0.316859  1
  Al  Al4  1  0.250000  0.633855  0.560834  1
  Al  Al5  1  0.750000  0.361857  0.441419  1
  Zn  Zn6  1  0.750000  0.861420  0.064613  1
  Zn  Zn7  1  0.250000  0.139214  0.933832  1
  Pt  Pt8  1  0.250000  0.753191  0.868690  1
  Pt  Pt9  1  0.750000  0.247942  0.131136  1
  Pt  Pt10  1  0.750000  0.737315  0.386501  1
  Rh  Rh11  1  0.250000  0.262321  0.611468  1
