# generated using pymatgen
data_Ta7Nb2Si2B4W
_symmetry_space_group_name_H-M   'P 1'
_cell_length_a   7.28288155
_cell_length_b   7.28288089
_cell_length_c   7.28091033
_cell_angle_alpha   129.43072066
_cell_angle_beta   129.45079707
_cell_angle_gamma   74.32286925
_symmetry_Int_Tables_number   1
_chemical_formula_structural   Ta7Nb2Si2B4W
_chemical_formula_sum   'Ta7 Nb2 Si2 B4 W1'
_cell_volume   224.49432652
_cell_formula_units_Z   1
loop_
 _symmetry_equiv_pos_site_id
 _symmetry_equiv_pos_as_xyz
  1  'x, y, z'
loop_
 _atom_site_type_symbol
 _atom_site_label
 _atom_site_symmetry_multiplicity
 _atom_site_fract_x
 _atom_site_fract_y
 _atom_site_fract_z
 _atom_site_occupancy
  Ta  Ta0  1  0.500804  0.500414  0.001219  1
  Ta  Ta1  1  0.807438  0.304419  0.834644  1
  Ta  Ta2  1  0.192515  0.695614  0.165312  1
  Ta  Ta3  1  0.469698  0.972797  0.165312  1
  Ta  Ta4  1  0.304505  0.470275  0.497096  1
  Ta  Ta5  1  0.026821  0.192591  0.497096  1
  Ta  Ta6  1  0.530224  0.027205  0.834644  1
  Nb  Nb7  1  0.695412  0.529344  0.502833  1
  Nb  Nb8  1  0.973488  0.807421  0.502833  1
  Si  Si9  1  0.251629  0.251779  0.999921  1
  Si  Si10  1  0.748142  0.748292  0.999921  1
  B  B11  1  0.119371  0.618234  0.737605  1
  B  B12  1  0.882615  0.379362  0.261979  1
  B  B13  1  0.616402  0.884250  0.500652  1
  B  B14  1  0.381121  0.118352  0.499473  1
  W  W15  1  0.999813  0.999651  0.999463  1
