# generated using pymatgen
data_Tm2TiNb3(B2Ru5)2
_symmetry_space_group_name_H-M   'P 1'
_cell_length_a   9.49622014
_cell_length_b   9.48644517
_cell_length_c   3.08829600
_cell_angle_alpha   90.00000000
_cell_angle_beta   90.00000000
_cell_angle_gamma   90.36159859
_symmetry_Int_Tables_number   1
_chemical_formula_structural   Tm2TiNb3(B2Ru5)2
_chemical_formula_sum   'Tm2 Ti1 Nb3 B4 Ru10'
_cell_volume   278.20475257
_cell_formula_units_Z   1
loop_
 _symmetry_equiv_pos_site_id
 _symmetry_equiv_pos_as_xyz
  1  'x, y, z'
loop_
 _atom_site_type_symbol
 _atom_site_label
 _atom_site_symmetry_multiplicity
 _atom_site_fract_x
 _atom_site_fract_y
 _atom_site_fract_z
 _atom_site_occupancy
  Tm  Tm0  1  0.822514  0.674117  0.000000  1
  Tm  Tm1  1  0.177486  0.325883  0.000000  1
  Ti  Ti2  1  0.500000  0.500000  0.000000  1
  Nb  Nb3  1  0.326277  0.821891  0.000000  1
  Nb  Nb4  1  0.673723  0.178109  0.000000  1
  Nb  Nb5  1  0.000000  0.000000  0.000000  1
  B  B6  1  0.619290  0.875234  0.000000  1
  B  B7  1  0.380710  0.124766  0.000000  1
  B  B8  1  0.124264  0.619608  0.000000  1
  B  B9  1  0.875736  0.380392  0.000000  1
  Ru  Ru10  1  0.560110  0.720298  0.500000  1
  Ru  Ru11  1  0.439890  0.279702  0.500000  1
  Ru  Ru12  1  0.080726  0.784681  0.500000  1
  Ru  Ru13  1  0.919274  0.215319  0.500000  1
  Ru  Ru14  1  0.287172  0.580261  0.500000  1
  Ru  Ru15  1  0.712828  0.419739  0.500000  1
  Ru  Ru16  1  0.222782  0.061368  0.500000  1
  Ru  Ru17  1  0.777218  0.938632  0.500000  1
  Ru  Ru18  1  0.500000  0.000000  0.500000  1
  Ru  Ru19  1  0.000000  0.500000  0.500000  1
