# generated using pymatgen
data_La3Zn4(PdPt)2
_symmetry_space_group_name_H-M   'P 1'
_cell_length_a   8.46561448
_cell_length_b   8.46561367
_cell_length_c   8.46561390
_cell_angle_alpha   151.41008021
_cell_angle_beta   127.01011786
_cell_angle_gamma   61.31308118
_symmetry_Int_Tables_number   1
_chemical_formula_structural   La3Zn4(PdPt)2
_chemical_formula_sum   'La3 Zn4 Pd2 Pt2'
_cell_volume   229.95903580
_cell_formula_units_Z   1
loop_
 _symmetry_equiv_pos_site_id
 _symmetry_equiv_pos_as_xyz
  1  'x, y, z'
loop_
 _atom_site_type_symbol
 _atom_site_label
 _atom_site_symmetry_multiplicity
 _atom_site_fract_x
 _atom_site_fract_y
 _atom_site_fract_z
 _atom_site_occupancy
  La  La0  1  0.500000  0.000000  0.500000  1
  La  La1  1  0.872473  0.872473  0.000000  1
  La  La2  1  0.127527  0.127527  0.000000  1
  Zn  Zn3  1  0.480827  0.673742  0.807085  1
  Zn  Zn4  1  0.866658  0.673742  0.192915  1
  Zn  Zn5  1  0.133342  0.326258  0.807085  1
  Zn  Zn6  1  0.519173  0.326258  0.192915  1
  Pd  Pd7  1  0.282611  0.782611  0.500000  1
  Pd  Pd8  1  0.717389  0.217389  0.500000  1
  Pt  Pt9  1  0.799823  0.500000  0.299823  1
  Pt  Pt10  1  0.200177  0.500000  0.700177  1
