# generated using pymatgen
data_Y2Tm2Sc3AlPt4
_symmetry_space_group_name_H-M   'P 1'
_cell_length_a   4.50336600
_cell_length_b   7.00519745
_cell_length_c   8.28442476
_cell_angle_alpha   86.83544342
_cell_angle_beta   90.00000000
_cell_angle_gamma   90.00000000
_symmetry_Int_Tables_number   1
_chemical_formula_structural   Y2Tm2Sc3AlPt4
_chemical_formula_sum   'Y2 Tm2 Sc3 Al1 Pt4'
_cell_volume   260.94995369
_cell_formula_units_Z   1
loop_
 _symmetry_equiv_pos_site_id
 _symmetry_equiv_pos_as_xyz
  1  'x, y, z'
loop_
 _atom_site_type_symbol
 _atom_site_label
 _atom_site_symmetry_multiplicity
 _atom_site_fract_x
 _atom_site_fract_y
 _atom_site_fract_z
 _atom_site_occupancy
  Y  Y0  1  0.250000  0.039676  0.672381  1
  Y  Y1  1  0.750000  0.988874  0.339618  1
  Tm  Tm2  1  0.250000  0.521111  0.815875  1
  Tm  Tm3  1  0.750000  0.468312  0.182588  1
  Sc  Sc4  1  0.250000  0.134182  0.070116  1
  Sc  Sc5  1  0.250000  0.639159  0.435574  1
  Sc  Sc6  1  0.750000  0.860743  0.929253  1
  Al  Al7  1  0.750000  0.361426  0.567789  1
  Pt  Pt8  1  0.250000  0.266661  0.381506  1
  Pt  Pt9  1  0.250000  0.743364  0.100417  1
  Pt  Pt10  1  0.750000  0.728838  0.616963  1
  Pt  Pt11  1  0.750000  0.247652  0.887921  1
