# generated using pymatgen
data_Tb3ZnIn3IrRh
_symmetry_space_group_name_H-M   'P 1'
_cell_length_a   7.74228500
_cell_length_b   7.74228396
_cell_length_c   3.82289100
_cell_angle_alpha   90.00000000
_cell_angle_beta   90.00000000
_cell_angle_gamma   120.00000873
_symmetry_Int_Tables_number   1
_chemical_formula_structural   Tb3ZnIn3IrRh
_chemical_formula_sum   'Tb3 Zn1 In3 Ir1 Rh1'
_cell_volume   198.45441196
_cell_formula_units_Z   1
loop_
 _symmetry_equiv_pos_site_id
 _symmetry_equiv_pos_as_xyz
  1  'x, y, z'
loop_
 _atom_site_type_symbol
 _atom_site_label
 _atom_site_symmetry_multiplicity
 _atom_site_fract_x
 _atom_site_fract_y
 _atom_site_fract_z
 _atom_site_occupancy
  Tb  Tb0  1  0.023872  0.607890  0.500000  1
  Tb  Tb1  1  0.392110  0.415982  0.500000  1
  Tb  Tb2  1  0.584018  0.976128  0.500000  1
  Zn  Zn3  1  0.666667  0.333333  0.000000  1
  In  In4  1  0.743792  0.739423  0.000000  1
  In  In5  1  0.995631  0.256208  0.000000  1
  In  In6  1  0.260577  0.004369  0.000000  1
  Ir  Ir7  1  0.333333  0.666667  0.000000  1
  Rh  Rh8  1  0.000000  0.000000  0.500000  1
