# generated using pymatgen
data_Er4Al18Pd3Ru2Rh
_symmetry_space_group_name_H-M   'P 1'
_cell_length_a   7.58129707
_cell_length_b   7.58129726
_cell_length_c   9.46277876
_cell_angle_alpha   89.86437205
_cell_angle_beta   89.86437305
_cell_angle_gamma   119.51568047
_symmetry_Int_Tables_number   1
_chemical_formula_structural   Er4Al18Pd3Ru2Rh
_chemical_formula_sum   'Er4 Al18 Pd3 Ru2 Rh1'
_cell_volume   473.29338952
_cell_formula_units_Z   1
loop_
 _symmetry_equiv_pos_site_id
 _symmetry_equiv_pos_as_xyz
  1  'x, y, z'
loop_
 _atom_site_type_symbol
 _atom_site_label
 _atom_site_symmetry_multiplicity
 _atom_site_fract_x
 _atom_site_fract_y
 _atom_site_fract_z
 _atom_site_occupancy
  Er  Er0  1  0.995411  0.671265  0.750606  1
  Er  Er1  1  0.006014  0.329945  0.249900  1
  Er  Er2  1  0.670055  0.993986  0.750100  1
  Er  Er3  1  0.328735  0.004589  0.249394  1
  Al  Al4  1  0.124466  0.125864  0.749437  1
  Al  Al5  1  0.874136  0.875534  0.250563  1
  Al  Al6  1  0.999802  0.330454  0.576640  1
  Al  Al7  1  0.998523  0.670556  0.422301  1
  Al  Al8  1  0.995068  0.662218  0.076252  1
  Al  Al9  1  0.337782  0.004932  0.923748  1
  Al  Al10  1  0.994826  0.330749  0.923953  1
  Al  Al11  1  0.669251  0.005174  0.076047  1
  Al  Al12  1  0.669546  0.000198  0.423360  1
  Al  Al13  1  0.329444  0.001477  0.577699  1
  Al  Al14  1  0.334324  0.328444  0.049983  1
  Al  Al15  1  0.671556  0.665676  0.950017  1
  Al  Al16  1  0.670959  0.671748  0.554988  1
  Al  Al17  1  0.328252  0.329041  0.445012  1
  Al  Al18  1  0.341041  0.546678  0.750181  1
  Al  Al19  1  0.658039  0.449430  0.246085  1
  Al  Al20  1  0.550570  0.341961  0.753915  1
  Al  Al21  1  0.453322  0.658959  0.249819  1
  Pd  Pd22  1  0.671689  0.328311  0.500000  1
  Pd  Pd23  1  0.326895  0.673105  0.500000  1
  Pd  Pd24  1  0.327872  0.672128  0.000000  1
  Ru  Ru25  1  0.672275  0.327725  0.000000  1
  Ru  Ru26  1  0.999516  0.000484  0.500000  1
  Rh  Rh27  1  0.000634  0.999366  0.000000  1
