# generated using pymatgen
data_Dy2Y2Ga16CoIr2
_symmetry_space_group_name_H-M   'P 1'
_cell_length_a   6.13571800
_cell_length_b   6.09227300
_cell_length_c   11.18657300
_cell_angle_alpha   90.00000000
_cell_angle_beta   90.00000000
_cell_angle_gamma   90.00000000
_symmetry_Int_Tables_number   1
_chemical_formula_structural   Dy2Y2Ga16CoIr2
_chemical_formula_sum   'Dy2 Y2 Ga16 Co1 Ir2'
_cell_volume   418.15934644
_cell_formula_units_Z   1
loop_
 _symmetry_equiv_pos_site_id
 _symmetry_equiv_pos_as_xyz
  1  'x, y, z'
loop_
 _atom_site_type_symbol
 _atom_site_label
 _atom_site_symmetry_multiplicity
 _atom_site_fract_x
 _atom_site_fract_y
 _atom_site_fract_z
 _atom_site_occupancy
  Dy  Dy0  1  0.000000  0.500000  0.808039  1
  Dy  Dy1  1  0.000000  0.500000  0.191961  1
  Y  Y2  1  0.500000  0.000000  0.802131  1
  Y  Y3  1  0.500000  0.000000  0.197869  1
  Ga  Ga4  1  0.241812  0.256794  0.617121  1
  Ga  Ga5  1  0.758188  0.743206  0.617121  1
  Ga  Ga6  1  0.758188  0.256794  0.617121  1
  Ga  Ga7  1  0.241812  0.743206  0.617121  1
  Ga  Ga8  1  0.758188  0.743206  0.382879  1
  Ga  Ga9  1  0.241812  0.256794  0.382879  1
  Ga  Ga10  1  0.241812  0.743206  0.382879  1
  Ga  Ga11  1  0.758188  0.256794  0.382879  1
  Ga  Ga12  1  0.289859  0.286924  0.000000  1
  Ga  Ga13  1  0.710141  0.713076  0.000000  1
  Ga  Ga14  1  0.710141  0.286924  0.000000  1
  Ga  Ga15  1  0.289859  0.713076  0.000000  1
  Ga  Ga16  1  0.500000  0.500000  0.802870  1
  Ga  Ga17  1  0.500000  0.500000  0.197130  1
  Ga  Ga18  1  0.000000  0.000000  0.774366  1
  Ga  Ga19  1  0.000000  0.000000  0.225634  1
  Co  Co20  1  0.000000  0.500000  0.500000  1
  Ir  Ir21  1  0.500000  0.000000  0.500000  1
  Ir  Ir22  1  0.000000  0.000000  0.000000  1
