# generated using pymatgen
data_BaEu(AgSb)2
_symmetry_space_group_name_H-M   'P 1'
_cell_length_a   4.84692000
_cell_length_b   4.84691926
_cell_length_c   8.73106000
_cell_angle_alpha   90.00000000
_cell_angle_beta   90.00000000
_cell_angle_gamma   120.00000502
_symmetry_Int_Tables_number   1
_chemical_formula_structural   BaEu(AgSb)2
_chemical_formula_sum   'Ba1 Eu1 Ag2 Sb2'
_cell_volume   177.63527787
_cell_formula_units_Z   1
loop_
 _symmetry_equiv_pos_site_id
 _symmetry_equiv_pos_as_xyz
  1  'x, y, z'
loop_
 _atom_site_type_symbol
 _atom_site_label
 _atom_site_symmetry_multiplicity
 _atom_site_fract_x
 _atom_site_fract_y
 _atom_site_fract_z
 _atom_site_occupancy
  Ba  Ba0  1  0.000000  0.000000  0.000000  1
  Eu  Eu1  1  0.000000  0.000000  0.500000  1
  Ag  Ag2  1  0.333333  0.666667  0.281086  1
  Ag  Ag3  1  0.666667  0.333333  0.718914  1
  Sb  Sb4  1  0.333333  0.666667  0.730312  1
  Sb  Sb5  1  0.666667  0.333333  0.269688  1
