# generated using pymatgen
data_Cs2CdSi2GeAs4
_symmetry_space_group_name_H-M   'P 1'
_cell_length_a   8.71732260
_cell_length_b   8.87283827
_cell_length_c   8.49038702
_cell_angle_alpha   83.21349724
_cell_angle_beta   79.10413633
_cell_angle_gamma   72.52602849
_symmetry_Int_Tables_number   1
_chemical_formula_structural   Cs2CdSi2GeAs4
_chemical_formula_sum   'Cs4 Cd2 Si4 Ge2 As8'
_cell_volume   613.78834809
_cell_formula_units_Z   2
loop_
 _symmetry_equiv_pos_site_id
 _symmetry_equiv_pos_as_xyz
  1  'x, y, z'
loop_
 _atom_site_type_symbol
 _atom_site_label
 _atom_site_symmetry_multiplicity
 _atom_site_fract_x
 _atom_site_fract_y
 _atom_site_fract_z
 _atom_site_occupancy
  Cs  Cs0  1  0.456044  0.758359  0.363803  1
  Cs  Cs1  1  0.543956  0.241641  0.636197  1
  Cs  Cs2  1  0.431703  0.791722  0.850536  1
  Cs  Cs3  1  0.568297  0.208278  0.149464  1
  Cd  Cd4  1  0.969990  0.838114  0.238357  1
  Cd  Cd5  1  0.030010  0.161886  0.761643  1
  Si  Si6  1  0.943281  0.574074  0.615647  1
  Si  Si7  1  0.056719  0.425926  0.384353  1
  Si  Si8  1  0.140805  0.467381  0.972946  1
  Si  Si9  1  0.859195  0.532619  0.027054  1
  Ge  Ge10  1  0.946085  0.879409  0.775180  1
  Ge  Ge11  1  0.053915  0.120591  0.224820  1
  As  As12  1  0.800946  0.840294  0.550530  1
  As  As13  1  0.199054  0.159706  0.449470  1
  As  As14  1  0.830207  0.387054  0.284444  1
  As  As15  1  0.169793  0.612946  0.715556  1
  As  As16  1  0.767651  0.813604  0.031967  1
  As  As17  1  0.232349  0.186396  0.968033  1
  As  As18  1  0.781914  0.438572  0.808408  1
  As  As19  1  0.218086  0.561428  0.191592  1
