# generated using pymatgen
data_YCoF7
_symmetry_space_group_name_H-M   'P 1'
_cell_length_a   5.35028900
_cell_length_b   8.67239045
_cell_length_c   11.64995407
_cell_angle_alpha   62.46216166
_cell_angle_beta   90.00000000
_cell_angle_gamma   90.00000000
_symmetry_Int_Tables_number   1
_chemical_formula_structural   YCoF7
_chemical_formula_sum   'Y4 Co4 F28'
_cell_volume   479.31362760
_cell_formula_units_Z   4
loop_
 _symmetry_equiv_pos_site_id
 _symmetry_equiv_pos_as_xyz
  1  'x, y, z'
loop_
 _atom_site_type_symbol
 _atom_site_label
 _atom_site_symmetry_multiplicity
 _atom_site_fract_x
 _atom_site_fract_y
 _atom_site_fract_z
 _atom_site_occupancy
  Y  Y0  1  0.263412  0.808431  0.265367  1
  Y  Y1  1  0.736588  0.191569  0.734633  1
  Y  Y2  1  0.763412  0.191569  0.234633  1
  Y  Y3  1  0.236588  0.808431  0.765367  1
  Co  Co4  1  0.758724  0.726201  0.043103  1
  Co  Co5  1  0.241276  0.273799  0.956897  1
  Co  Co6  1  0.258724  0.273799  0.456897  1
  Co  Co7  1  0.741276  0.726201  0.543103  1
  F  F8  1  0.922680  0.706245  0.420202  1
  F  F9  1  0.077320  0.293755  0.579798  1
  F  F10  1  0.422680  0.293755  0.079798  1
  F  F11  1  0.577320  0.706245  0.920202  1
  F  F12  1  0.475160  0.727991  0.128198  1
  F  F13  1  0.524840  0.272009  0.871802  1
  F  F14  1  0.975160  0.272009  0.371802  1
  F  F15  1  0.024840  0.727991  0.628198  1
  F  F16  1  0.940032  0.739338  0.171181  1
  F  F17  1  0.059968  0.260662  0.828819  1
  F  F18  1  0.440032  0.260662  0.328819  1
  F  F19  1  0.559968  0.739338  0.671181  1
  F  F20  1  0.769804  0.492549  0.135632  1
  F  F21  1  0.230196  0.507451  0.864368  1
  F  F22  1  0.269804  0.507451  0.364368  1
  F  F23  1  0.730196  0.492549  0.635632  1
  F  F24  1  0.954261  0.282464  0.037812  1
  F  F25  1  0.045739  0.717536  0.962188  1
  F  F26  1  0.454261  0.717536  0.462188  1
  F  F27  1  0.545739  0.282464  0.537812  1
  F  F28  1  0.740431  0.958177  0.457296  1
  F  F29  1  0.259569  0.041823  0.542704  1
  F  F30  1  0.240431  0.041823  0.042704  1
  F  F31  1  0.759569  0.958177  0.957296  1
  F  F32  1  0.599660  0.967888  0.226772  1
  F  F33  1  0.400340  0.032112  0.773228  1
  F  F34  1  0.099660  0.032112  0.273228  1
  F  F35  1  0.900340  0.967888  0.726772  1
