# generated using pymatgen
data_Nd12Ga3SiI12
_symmetry_space_group_name_H-M   'P 1'
_cell_length_a   10.84423964
_cell_length_b   10.84423894
_cell_length_c   10.84423913
_cell_angle_alpha   109.36058761
_cell_angle_beta   109.36058872
_cell_angle_gamma   109.36058909
_symmetry_Int_Tables_number   1
_chemical_formula_structural   Nd12Ga3SiI12
_chemical_formula_sum   'Nd12 Ga3 Si1 I12'
_cell_volume   985.69284117
_cell_formula_units_Z   1
loop_
 _symmetry_equiv_pos_site_id
 _symmetry_equiv_pos_as_xyz
  1  'x, y, z'
loop_
 _atom_site_type_symbol
 _atom_site_label
 _atom_site_symmetry_multiplicity
 _atom_site_fract_x
 _atom_site_fract_y
 _atom_site_fract_z
 _atom_site_occupancy
  Nd  Nd0  1  0.263934  0.017901  0.031239  1
  Nd  Nd1  1  0.031239  0.263934  0.017901  1
  Nd  Nd2  1  0.485387  0.750000  0.014613  1
  Nd  Nd3  1  0.750000  0.236123  0.263877  1
  Nd  Nd4  1  0.017901  0.031239  0.263934  1
  Nd  Nd5  1  0.014613  0.485387  0.750000  1
  Nd  Nd6  1  0.236123  0.263877  0.750000  1
  Nd  Nd7  1  0.263877  0.750000  0.236123  1
  Nd  Nd8  1  0.236066  0.468761  0.482099  1
  Nd  Nd9  1  0.468761  0.482099  0.236066  1
  Nd  Nd10  1  0.750000  0.014613  0.485387  1
  Nd  Nd11  1  0.482099  0.236066  0.468761  1
  Ga  Ga12  1  0.999893  0.250000  0.500107  1
  Ga  Ga13  1  0.250000  0.500107  0.999893  1
  Ga  Ga14  1  0.500107  0.999893  0.250000  1
  Si  Si15  1  0.250000  0.250000  0.250000  1
  I  I16  1  0.757736  0.742264  0.250000  1
  I  I17  1  0.507502  0.250000  0.992498  1
  I  I18  1  0.250000  0.992498  0.507502  1
  I  I19  1  0.515378  0.507333  0.757051  1
  I  I20  1  0.992667  0.984622  0.742949  1
  I  I21  1  0.742949  0.992667  0.984622  1
  I  I22  1  0.507333  0.757051  0.515378  1
  I  I23  1  0.757051  0.515378  0.507333  1
  I  I24  1  0.992498  0.507502  0.250000  1
  I  I25  1  0.984622  0.742949  0.992667  1
  I  I26  1  0.250000  0.757736  0.742264  1
  I  I27  1  0.742264  0.250000  0.757736  1
