# generated using pymatgen
data_Tb16YEr3Sn16
_symmetry_space_group_name_H-M   'P 1'
_cell_length_a   8.04258205
_cell_length_b   8.19601105
_cell_length_c   15.50867500
_cell_angle_alpha   90.00000000
_cell_angle_beta   90.00000000
_cell_angle_gamma   89.98684626
_symmetry_Int_Tables_number   1
_chemical_formula_structural   Tb16YEr3Sn16
_chemical_formula_sum   'Tb16 Y1 Er3 Sn16'
_cell_volume   1022.28672067
_cell_formula_units_Z   1
loop_
 _symmetry_equiv_pos_site_id
 _symmetry_equiv_pos_as_xyz
  1  'x, y, z'
loop_
 _atom_site_type_symbol
 _atom_site_label
 _atom_site_symmetry_multiplicity
 _atom_site_fract_x
 _atom_site_fract_y
 _atom_site_fract_z
 _atom_site_occupancy
  Tb  Tb0  1  0.367637  0.835801  0.878399  1
  Tb  Tb1  1  0.867625  0.664194  0.621572  1
  Tb  Tb2  1  0.632600  0.164310  0.378481  1
  Tb  Tb3  1  0.132264  0.335981  0.121532  1
  Tb  Tb4  1  0.632600  0.164310  0.121519  1
  Tb  Tb5  1  0.132264  0.335981  0.378468  1
  Tb  Tb6  1  0.367637  0.835801  0.621601  1
  Tb  Tb7  1  0.867625  0.664194  0.878428  1
  Tb  Tb8  1  0.520093  0.319876  0.902218  1
  Tb  Tb9  1  0.020102  0.180122  0.597795  1
  Tb  Tb10  1  0.479985  0.680020  0.402252  1
  Tb  Tb11  1  0.979784  0.819806  0.097740  1
  Tb  Tb12  1  0.479985  0.680020  0.097748  1
  Tb  Tb13  1  0.979784  0.819806  0.402260  1
  Tb  Tb14  1  0.520093  0.319876  0.597782  1
  Tb  Tb15  1  0.020102  0.180122  0.902205  1
  Y  Y16  1  0.301490  0.002001  0.250000  1
  Er  Er17  1  0.198639  0.502079  0.750000  1
  Er  Er18  1  0.698638  0.997919  0.750000  1
  Er  Er19  1  0.801359  0.497884  0.250000  1
  Sn  Sn20  1  0.292221  0.034459  0.042041  1
  Sn  Sn21  1  0.792250  0.465559  0.457730  1
  Sn  Sn22  1  0.707752  0.965570  0.542286  1
  Sn  Sn23  1  0.207766  0.534453  0.957717  1
  Sn  Sn24  1  0.707752  0.965570  0.957714  1
  Sn  Sn25  1  0.207766  0.534453  0.542283  1
  Sn  Sn26  1  0.292221  0.034459  0.457959  1
  Sn  Sn27  1  0.792250  0.465559  0.042270  1
  Sn  Sn28  1  0.565009  0.618690  0.750000  1
  Sn  Sn29  1  0.064981  0.881301  0.750000  1
  Sn  Sn30  1  0.435101  0.381582  0.250000  1
  Sn  Sn31  1  0.934496  0.118845  0.250000  1
  Sn  Sn32  1  0.328249  0.146395  0.750000  1
  Sn  Sn33  1  0.828184  0.353659  0.750000  1
  Sn  Sn34  1  0.672070  0.853511  0.250000  1
  Sn  Sn35  1  0.171629  0.645830  0.250000  1
