# generated using pymatgen
data_La2Er2TmSn4
_symmetry_space_group_name_H-M   'P 1'
_cell_length_a   8.18889000
_cell_length_b   8.33978700
_cell_length_c   15.71538500
_cell_angle_alpha   90.00000000
_cell_angle_beta   90.00000000
_cell_angle_gamma   90.00000000
_symmetry_Int_Tables_number   1
_chemical_formula_structural   La2Er2TmSn4
_chemical_formula_sum   'La8 Er8 Tm4 Sn16'
_cell_volume   1073.26019136
_cell_formula_units_Z   4
loop_
 _symmetry_equiv_pos_site_id
 _symmetry_equiv_pos_as_xyz
  1  'x, y, z'
loop_
 _atom_site_type_symbol
 _atom_site_label
 _atom_site_symmetry_multiplicity
 _atom_site_fract_x
 _atom_site_fract_y
 _atom_site_fract_z
 _atom_site_occupancy
  La  La0  1  0.515141  0.321348  0.903628  1
  La  La1  1  0.015141  0.178652  0.596372  1
  La  La2  1  0.484859  0.678652  0.403628  1
  La  La3  1  0.984859  0.821348  0.096372  1
  La  La4  1  0.484859  0.678652  0.096372  1
  La  La5  1  0.984859  0.821348  0.403628  1
  La  La6  1  0.515141  0.321348  0.596372  1
  La  La7  1  0.015141  0.178652  0.903628  1
  Er  Er8  1  0.360377  0.836988  0.876640  1
  Er  Er9  1  0.860377  0.663012  0.623360  1
  Er  Er10  1  0.639623  0.163012  0.376640  1
  Er  Er11  1  0.139623  0.336988  0.123360  1
  Er  Er12  1  0.639623  0.163012  0.123360  1
  Er  Er13  1  0.139623  0.336988  0.376640  1
  Er  Er14  1  0.360377  0.836988  0.623360  1
  Er  Er15  1  0.860377  0.663012  0.876640  1
  Tm  Tm16  1  0.194632  0.504314  0.750000  1
  Tm  Tm17  1  0.694632  0.995686  0.750000  1
  Tm  Tm18  1  0.805368  0.495686  0.250000  1
  Tm  Tm19  1  0.305368  0.004314  0.250000  1
  Sn  Sn20  1  0.305385  0.041825  0.043135  1
  Sn  Sn21  1  0.805385  0.458175  0.456865  1
  Sn  Sn22  1  0.694615  0.958175  0.543135  1
  Sn  Sn23  1  0.194615  0.541825  0.956865  1
  Sn  Sn24  1  0.694615  0.958175  0.956865  1
  Sn  Sn25  1  0.194615  0.541825  0.543135  1
  Sn  Sn26  1  0.305385  0.041825  0.456865  1
  Sn  Sn27  1  0.805385  0.458175  0.043135  1
  Sn  Sn28  1  0.558770  0.626838  0.750000  1
  Sn  Sn29  1  0.058770  0.873162  0.750000  1
  Sn  Sn30  1  0.441230  0.373162  0.250000  1
  Sn  Sn31  1  0.941230  0.126838  0.250000  1
  Sn  Sn32  1  0.324096  0.140872  0.750000  1
  Sn  Sn33  1  0.824096  0.359128  0.750000  1
  Sn  Sn34  1  0.675904  0.859128  0.250000  1
  Sn  Sn35  1  0.175904  0.640872  0.250000  1
