# generated using pymatgen
data_La2Zn(Ga3Cu4)3
_symmetry_space_group_name_H-M   'P 1'
_cell_length_a   10.36373116
_cell_length_b   8.19084487
_cell_length_c   7.86732900
_cell_angle_alpha   80.36180795
_cell_angle_beta   51.18570768
_cell_angle_gamma   48.45249235
_symmetry_Int_Tables_number   1
_chemical_formula_structural   La2Zn(Ga3Cu4)3
_chemical_formula_sum   'La2 Zn1 Ga9 Cu12'
_cell_volume   352.38154575
_cell_formula_units_Z   1
loop_
 _symmetry_equiv_pos_site_id
 _symmetry_equiv_pos_as_xyz
  1  'x, y, z'
loop_
 _atom_site_type_symbol
 _atom_site_label
 _atom_site_symmetry_multiplicity
 _atom_site_fract_x
 _atom_site_fract_y
 _atom_site_fract_z
 _atom_site_occupancy
  La  La0  1  0.000000  0.000000  0.000000  1
  La  La1  1  0.250000  0.250000  0.250000  1
  Zn  Zn2  1  0.500000  0.500000  0.500000  1
  Ga  Ga3  1  0.750000  0.750000  0.750000  1
  Ga  Ga4  1  0.756822  0.070988  0.832769  1
  Ga  Ga5  1  0.832769  0.339422  0.756822  1
  Ga  Ga6  1  0.070988  0.756822  0.339422  1
  Ga  Ga7  1  0.339422  0.832769  0.070988  1
  Ga  Ga8  1  0.493368  0.180398  0.417974  1
  Ga  Ga9  1  0.417974  0.908258  0.493368  1
  Ga  Ga10  1  0.180398  0.493368  0.908258  1
  Ga  Ga11  1  0.908258  0.417974  0.180398  1
  Cu  Cu12  1  0.624914  0.125868  0.624785  1
  Cu  Cu13  1  0.624785  0.624435  0.624914  1
  Cu  Cu14  1  0.125868  0.624914  0.624435  1
  Cu  Cu15  1  0.624435  0.624785  0.125868  1
  Cu  Cu16  1  0.486561  0.437711  0.186769  1
  Cu  Cu17  1  0.186769  0.888957  0.486561  1
  Cu  Cu18  1  0.437711  0.486561  0.888957  1
  Cu  Cu19  1  0.888957  0.186769  0.437711  1
  Cu  Cu20  1  0.762861  0.813080  0.063364  1
  Cu  Cu21  1  0.063364  0.360696  0.762861  1
  Cu  Cu22  1  0.813080  0.762861  0.360696  1
  Cu  Cu23  1  0.360696  0.063364  0.813080  1
