# generated using pymatgen
data_La2Y6ZnPd24
_symmetry_space_group_name_H-M   'P 1'
_cell_length_a   8.42290706
_cell_length_b   8.42290706
_cell_length_c   8.42290706
_cell_angle_alpha   90.08875020
_cell_angle_beta   89.91124980
_cell_angle_gamma   89.91124980
_symmetry_Int_Tables_number   1
_chemical_formula_structural   La2Y6ZnPd24
_chemical_formula_sum   'La2 Y6 Zn1 Pd24'
_cell_volume   597.56404810
_cell_formula_units_Z   1
loop_
 _symmetry_equiv_pos_site_id
 _symmetry_equiv_pos_as_xyz
  1  'x, y, z'
loop_
 _atom_site_type_symbol
 _atom_site_label
 _atom_site_symmetry_multiplicity
 _atom_site_fract_x
 _atom_site_fract_y
 _atom_site_fract_z
 _atom_site_occupancy
  La  La0  1  0.251247  0.748753  0.748753  1
  La  La1  1  0.748753  0.251247  0.251247  1
  Y  Y2  1  0.250624  0.250173  0.250173  1
  Y  Y3  1  0.749376  0.749827  0.749827  1
  Y  Y4  1  0.749827  0.749376  0.250173  1
  Y  Y5  1  0.749827  0.250173  0.749376  1
  Y  Y6  1  0.250173  0.250624  0.749827  1
  Y  Y7  1  0.250173  0.749827  0.250624  1
  Zn  Zn8  1  0.000000  0.000000  0.000000  1
  Pd  Pd9  1  0.261694  0.498153  0.003058  1
  Pd  Pd10  1  0.738306  0.501847  0.996942  1
  Pd  Pd11  1  0.003058  0.261694  0.501847  1
  Pd  Pd12  1  0.498153  0.261694  0.996942  1
  Pd  Pd13  1  0.996942  0.738306  0.498153  1
  Pd  Pd14  1  0.501847  0.738306  0.003058  1
  Pd  Pd15  1  0.498153  0.996942  0.261694  1
  Pd  Pd16  1  0.261694  0.003058  0.498153  1
  Pd  Pd17  1  0.501847  0.003058  0.738306  1
  Pd  Pd18  1  0.738306  0.996942  0.501847  1
  Pd  Pd19  1  0.003058  0.501847  0.261694  1
  Pd  Pd20  1  0.996942  0.498153  0.738306  1
  Pd  Pd21  1  0.253649  0.497276  0.497276  1
  Pd  Pd22  1  0.746351  0.502724  0.502724  1
  Pd  Pd23  1  0.497276  0.253649  0.502724  1
  Pd  Pd24  1  0.502724  0.746351  0.497276  1
  Pd  Pd25  1  0.497276  0.502724  0.253649  1
  Pd  Pd26  1  0.502724  0.497276  0.746351  1
  Pd  Pd27  1  0.295797  0.002520  0.002520  1
  Pd  Pd28  1  0.704203  0.997480  0.997480  1
  Pd  Pd29  1  0.002520  0.295797  0.997480  1
  Pd  Pd30  1  0.997480  0.704203  0.002520  1
  Pd  Pd31  1  0.002520  0.997480  0.295797  1
  Pd  Pd32  1  0.997480  0.002520  0.704203  1
