# generated using pymatgen
data_Zr6Zn21CuSiPd
_symmetry_space_group_name_H-M   'P 1'
_cell_length_a   8.74339409
_cell_length_b   8.74500665
_cell_length_c   8.74500741
_cell_angle_alpha   60.19982578
_cell_angle_beta   60.00610957
_cell_angle_gamma   60.00609736
_symmetry_Int_Tables_number   1
_chemical_formula_structural   Zr6Zn21CuSiPd
_chemical_formula_sum   'Zr6 Zn21 Cu1 Si1 Pd1'
_cell_volume   473.56231713
_cell_formula_units_Z   1
loop_
 _symmetry_equiv_pos_site_id
 _symmetry_equiv_pos_as_xyz
  1  'x, y, z'
loop_
 _atom_site_type_symbol
 _atom_site_label
 _atom_site_symmetry_multiplicity
 _atom_site_fract_x
 _atom_site_fract_y
 _atom_site_fract_z
 _atom_site_occupancy
  Zr  Zr0  1  0.712774  0.287226  0.287226  1
  Zr  Zr1  1  0.287226  0.712774  0.712774  1
  Zr  Zr2  1  0.288116  0.711154  0.288846  1
  Zr  Zr3  1  0.711884  0.288846  0.711154  1
  Zr  Zr4  1  0.288116  0.288846  0.711154  1
  Zr  Zr5  1  0.711884  0.711154  0.288846  1
  Zn  Zn6  1  0.128396  0.120194  0.120194  1
  Zn  Zn7  1  0.871604  0.879806  0.879806  1
  Zn  Zn8  1  0.122714  0.122248  0.632324  1
  Zn  Zn9  1  0.122714  0.632324  0.122248  1
  Zn  Zn10  1  0.877286  0.877752  0.367676  1
  Zn  Zn11  1  0.877286  0.367676  0.877752  1
  Zn  Zn12  1  0.631217  0.120194  0.120194  1
  Zn  Zn13  1  0.368783  0.879806  0.879806  1
  Zn  Zn14  1  0.000000  0.500000  0.500000  1
  Zn  Zn15  1  0.000000  0.500000  0.000000  1
  Zn  Zn16  1  0.500000  0.000000  0.500000  1
  Zn  Zn17  1  0.000000  0.000000  0.500000  1
  Zn  Zn18  1  0.500000  0.500000  0.000000  1
  Zn  Zn19  1  0.337951  0.337152  0.337152  1
  Zn  Zn20  1  0.662049  0.662848  0.662848  1
  Zn  Zn21  1  0.339886  0.332431  0.987797  1
  Zn  Zn22  1  0.339886  0.987797  0.332431  1
  Zn  Zn23  1  0.660114  0.667569  0.012203  1
  Zn  Zn24  1  0.660114  0.012203  0.667569  1
  Zn  Zn25  1  0.987745  0.337152  0.337152  1
  Zn  Zn26  1  0.012255  0.662848  0.662848  1
  Cu  Cu27  1  0.500000  0.000000  0.000000  1
  Si  Si28  1  0.500000  0.500000  0.500000  1
  Pd  Pd29  1  0.000000  0.000000  0.000000  1
