# generated using pymatgen
data_Er12Ni4SnAu
_symmetry_space_group_name_H-M   'P 1'
_cell_length_a   8.28637777
_cell_length_b   8.28637728
_cell_length_c   8.28637832
_cell_angle_alpha   112.76945727
_cell_angle_beta   109.35453175
_cell_angle_gamma   106.35353557
_symmetry_Int_Tables_number   1
_chemical_formula_structural   Er12Ni4SnAu
_chemical_formula_sum   'Er12 Ni4 Sn1 Au1'
_cell_volume   436.62060625
_cell_formula_units_Z   1
loop_
 _symmetry_equiv_pos_site_id
 _symmetry_equiv_pos_as_xyz
  1  'x, y, z'
loop_
 _atom_site_type_symbol
 _atom_site_label
 _atom_site_symmetry_multiplicity
 _atom_site_fract_x
 _atom_site_fract_y
 _atom_site_fract_z
 _atom_site_occupancy
  Er  Er0  1  0.324919  0.134128  0.809209  1
  Er  Er1  1  0.675081  0.484293  0.809209  1
  Er  Er2  1  0.423442  0.726614  0.696828  1
  Er  Er3  1  0.576558  0.273386  0.303172  1
  Er  Er4  1  0.970213  0.273386  0.696828  1
  Er  Er5  1  0.029787  0.726614  0.303172  1
  Er  Er6  1  0.324919  0.515707  0.190791  1
  Er  Er7  1  0.675081  0.865872  0.190791  1
  Er  Er8  1  0.179944  0.789543  0.969486  1
  Er  Er9  1  0.820056  0.789543  0.609599  1
  Er  Er10  1  0.179944  0.210457  0.390401  1
  Er  Er11  1  0.820056  0.210457  0.030514  1
  Ni  Ni12  1  0.875433  0.875433  0.000000  1
  Ni  Ni13  1  0.124567  0.124567  0.000000  1
  Ni  Ni14  1  0.646036  0.500000  0.146036  1
  Ni  Ni15  1  0.353964  0.500000  0.853964  1
  Sn  Sn16  1  0.500000  0.000000  0.500000  1
  Au  Au17  1  0.000000  0.500000  0.500000  1
