# generated using pymatgen
data_Y9ErIn8Pt3Rh
_symmetry_space_group_name_H-M   'P 1'
_cell_length_a   3.63693900
_cell_length_b   8.15367429
_cell_length_c   18.30234776
_cell_angle_alpha   90.15684842
_cell_angle_beta   90.00000000
_cell_angle_gamma   90.00000000
_symmetry_Int_Tables_number   1
_chemical_formula_structural   Y9ErIn8Pt3Rh
_chemical_formula_sum   'Y9 Er1 In8 Pt3 Rh1'
_cell_volume   542.74340072
_cell_formula_units_Z   1
loop_
 _symmetry_equiv_pos_site_id
 _symmetry_equiv_pos_as_xyz
  1  'x, y, z'
loop_
 _atom_site_type_symbol
 _atom_site_label
 _atom_site_symmetry_multiplicity
 _atom_site_fract_x
 _atom_site_fract_y
 _atom_site_fract_z
 _atom_site_occupancy
  Y  Y0  1  0.000000  0.113023  0.412656  1
  Y  Y1  1  0.000000  0.882564  0.583965  1
  Y  Y2  1  0.000000  0.384014  0.915751  1
  Y  Y3  1  0.000000  0.617206  0.085900  1
  Y  Y4  1  0.000000  0.237540  0.221704  1
  Y  Y5  1  0.000000  0.760207  0.779874  1
  Y  Y6  1  0.000000  0.259533  0.720292  1
  Y  Y7  1  0.000000  0.000203  0.000305  1
  Y  Y8  1  0.000000  0.499802  0.499612  1
  Er  Er9  1  0.000000  0.748684  0.278783  1
  In  In10  1  0.500000  0.422226  0.351249  1
  In  In11  1  0.500000  0.578228  0.648857  1
  In  In12  1  0.500000  0.078043  0.851271  1
  In  In13  1  0.500000  0.925867  0.150197  1
  In  In14  1  0.500000  0.292035  0.067602  1
  In  In15  1  0.500000  0.708786  0.933277  1
  In  In16  1  0.500000  0.207311  0.566479  1
  In  In17  1  0.500000  0.791060  0.430184  1
  Pt  Pt18  1  0.500000  0.976909  0.695968  1
  Pt  Pt19  1  0.500000  0.477089  0.803568  1
  Pt  Pt20  1  0.500000  0.524452  0.198245  1
  Rh  Rh21  1  0.500000  0.015214  0.304260  1
