# generated using pymatgen
data_La2Nd3Al2Ru3
_symmetry_space_group_name_H-M   'P 1'
_cell_length_a   8.52554943
_cell_length_b   8.61887591
_cell_length_c   8.60352238
_cell_angle_alpha   109.44376628
_cell_angle_beta   109.13467685
_cell_angle_gamma   109.24481242
_symmetry_Int_Tables_number   1
_chemical_formula_structural   La2Nd3Al2Ru3
_chemical_formula_sum   'La4 Nd6 Al4 Ru6'
_cell_volume   490.17315813
_cell_formula_units_Z   2
loop_
 _symmetry_equiv_pos_site_id
 _symmetry_equiv_pos_as_xyz
  1  'x, y, z'
loop_
 _atom_site_type_symbol
 _atom_site_label
 _atom_site_symmetry_multiplicity
 _atom_site_fract_x
 _atom_site_fract_y
 _atom_site_fract_z
 _atom_site_occupancy
  La  La0  1  0.253093  0.690436  0.441701  1
  La  La1  1  0.752559  0.813410  0.060056  1
  La  La2  1  0.440448  0.248651  0.688275  1
  La  La3  1  0.691500  0.440115  0.252688  1
  Nd  Nd4  1  0.999919  0.286204  0.504113  1
  Nd  Nd5  1  0.065592  0.751250  0.816105  1
  Nd  Nd6  1  0.817056  0.064020  0.750774  1
  Nd  Nd7  1  0.215498  0.216791  0.213130  1
  Nd  Nd8  1  0.499211  0.995359  0.283688  1
  Nd  Nd9  1  0.287412  0.501547  0.999238  1
  Al  Al10  1  0.590426  0.588546  0.589675  1
  Al  Al11  1  0.499904  0.003459  0.915009  1
  Al  Al12  1  0.915611  0.497430  0.998440  1
  Al  Al13  1  0.998639  0.912486  0.499567  1
  Ru  Ru14  1  0.247540  0.121937  0.859649  1
  Ru  Ru15  1  0.738957  0.373660  0.632594  1
  Ru  Ru16  1  0.862728  0.254485  0.123035  1
  Ru  Ru17  1  0.111992  0.862204  0.243798  1
  Ru  Ru18  1  0.629674  0.738557  0.376791  1
  Ru  Ru19  1  0.382239  0.639453  0.751676  1
