# generated using pymatgen
data_MgNiHg4(SeO6)2
_symmetry_space_group_name_H-M   'P 1'
_cell_length_a   6.75190893
_cell_length_b   7.14902816
_cell_length_c   7.46089942
_cell_angle_alpha   74.62523242
_cell_angle_beta   67.42547327
_cell_angle_gamma   64.79506118
_symmetry_Int_Tables_number   1
_chemical_formula_structural   MgNiHg4(SeO6)2
_chemical_formula_sum   'Mg1 Ni1 Hg4 Se2 O12'
_cell_volume   298.64486454
_cell_formula_units_Z   1
loop_
 _symmetry_equiv_pos_site_id
 _symmetry_equiv_pos_as_xyz
  1  'x, y, z'
loop_
 _atom_site_type_symbol
 _atom_site_label
 _atom_site_symmetry_multiplicity
 _atom_site_fract_x
 _atom_site_fract_y
 _atom_site_fract_z
 _atom_site_occupancy
  Mg  Mg0  1  0.660732  0.869492  0.799733  1
  Ni  Ni1  1  0.340888  0.127965  0.199124  1
  Hg  Hg2  1  0.845162  0.637549  0.200756  1
  Hg  Hg3  1  0.151816  0.361167  0.807686  1
  Hg  Hg4  1  0.655271  0.364070  0.804177  1
  Hg  Hg5  1  0.344010  0.634042  0.200831  1
  Se  Se6  1  0.791084  0.124509  0.328234  1
  Se  Se7  1  0.210258  0.876878  0.666992  1
  O  O8  1  0.637851  0.167857  0.178943  1
  O  O9  1  0.452229  0.182297  0.879994  1
  O  O10  1  0.936321  0.924705  0.813026  1
  O  O11  1  0.775699  0.913318  0.489023  1
  O  O12  1  0.307509  0.662885  0.562565  1
  O  O13  1  0.164702  0.450399  0.228131  1
  O  O14  1  0.223302  0.089869  0.506483  1
  O  O15  1  0.545314  0.817891  0.126065  1
  O  O16  1  0.363688  0.836125  0.814307  1
  O  O17  1  0.834531  0.546849  0.777832  1
  O  O18  1  0.694091  0.336202  0.435851  1
  O  O19  1  0.065543  0.075930  0.180248  1
