# generated using pymatgen
data_Zr2AlRe3
_symmetry_space_group_name_H-M   'P 1'
_cell_length_a   5.27938600
_cell_length_b   5.27938603
_cell_length_c   8.67340600
_cell_angle_alpha   90.00000000
_cell_angle_beta   90.00000000
_cell_angle_gamma   119.99998730
_symmetry_Int_Tables_number   1
_chemical_formula_structural   Zr2AlRe3
_chemical_formula_sum   'Zr4 Al2 Re6'
_cell_volume   209.35686112
_cell_formula_units_Z   2
loop_
 _symmetry_equiv_pos_site_id
 _symmetry_equiv_pos_as_xyz
  1  'x, y, z'
loop_
 _atom_site_type_symbol
 _atom_site_label
 _atom_site_symmetry_multiplicity
 _atom_site_fract_x
 _atom_site_fract_y
 _atom_site_fract_z
 _atom_site_occupancy
  Zr  Zr0  1  0.333333  0.666667  0.434971  1
  Zr  Zr1  1  0.666667  0.333333  0.934971  1
  Zr  Zr2  1  0.666667  0.333333  0.565029  1
  Zr  Zr3  1  0.333333  0.666667  0.065029  1
  Al  Al4  1  0.000000  0.000000  0.000000  1
  Al  Al5  1  0.000000  0.000000  0.500000  1
  Re  Re6  1  0.170381  0.340761  0.750000  1
  Re  Re7  1  0.829619  0.170381  0.250000  1
  Re  Re8  1  0.340761  0.170381  0.250000  1
  Re  Re9  1  0.659239  0.829619  0.750000  1
  Re  Re10  1  0.829619  0.659239  0.250000  1
  Re  Re11  1  0.170381  0.829619  0.750000  1
