# generated using pymatgen
data_Tb4Gd2TcNiSn
_symmetry_space_group_name_H-M   'P 1'
_cell_length_a   8.51240363
_cell_length_b   8.51240354
_cell_length_c   8.51240267
_cell_angle_alpha   104.65080478
_cell_angle_beta   110.51331140
_cell_angle_gamma   113.36877768
_symmetry_Int_Tables_number   1
_chemical_formula_structural   Tb4Gd2TcNiSn
_chemical_formula_sum   'Tb8 Gd4 Tc2 Ni2 Sn2'
_cell_volume   472.01209434
_cell_formula_units_Z   2
loop_
 _symmetry_equiv_pos_site_id
 _symmetry_equiv_pos_as_xyz
  1  'x, y, z'
loop_
 _atom_site_type_symbol
 _atom_site_label
 _atom_site_symmetry_multiplicity
 _atom_site_fract_x
 _atom_site_fract_y
 _atom_site_fract_z
 _atom_site_occupancy
  Tb  Tb0  1  0.814994  0.146863  0.331869  1
  Tb  Tb1  1  0.814994  0.483126  0.668131  1
  Tb  Tb2  1  0.185006  0.853137  0.668131  1
  Tb  Tb3  1  0.185006  0.516874  0.331869  1
  Tb  Tb4  1  0.601596  0.784417  0.817180  1
  Tb  Tb5  1  0.967237  0.784417  0.182820  1
  Tb  Tb6  1  0.032763  0.215583  0.817180  1
  Tb  Tb7  1  0.398404  0.215583  0.182820  1
  Gd  Gd8  1  0.701230  0.260918  0.962147  1
  Gd  Gd9  1  0.298770  0.739082  0.037853  1
  Gd  Gd10  1  0.701230  0.739082  0.440311  1
  Gd  Gd11  1  0.298770  0.260918  0.559689  1
  Tc  Tc12  1  0.825595  0.500000  0.325595  1
  Tc  Tc13  1  0.174405  0.500000  0.674405  1
  Ni  Ni14  1  0.000000  0.116099  0.116099  1
  Ni  Ni15  1  0.000000  0.883901  0.883901  1
  Sn  Sn16  1  0.500000  0.500000  0.000000  1
  Sn  Sn17  1  0.500000  0.000000  0.500000  1
