# generated using pymatgen
data_Dy3HoAl4PtRh3
_symmetry_space_group_name_H-M   'P 1'
_cell_length_a   4.27459600
_cell_length_b   6.85722506
_cell_length_c   7.92619523
_cell_angle_alpha   89.99357053
_cell_angle_beta   90.00000000
_cell_angle_gamma   90.00000000
_symmetry_Int_Tables_number   1
_chemical_formula_structural   Dy3HoAl4PtRh3
_chemical_formula_sum   'Dy3 Ho1 Al4 Pt1 Rh3'
_cell_volume   232.33157726
_cell_formula_units_Z   1
loop_
 _symmetry_equiv_pos_site_id
 _symmetry_equiv_pos_as_xyz
  1  'x, y, z'
loop_
 _atom_site_type_symbol
 _atom_site_label
 _atom_site_symmetry_multiplicity
 _atom_site_fract_x
 _atom_site_fract_y
 _atom_site_fract_z
 _atom_site_occupancy
  Dy  Dy0  1  0.250000  0.533148  0.182126  1
  Dy  Dy1  1  0.750000  0.462836  0.819629  1
  Dy  Dy2  1  0.250000  0.034424  0.320932  1
  Ho  Ho3  1  0.750000  0.967171  0.677759  1
  Al  Al4  1  0.250000  0.635919  0.560748  1
  Al  Al5  1  0.750000  0.363238  0.439369  1
  Al  Al6  1  0.750000  0.864052  0.062812  1
  Al  Al7  1  0.250000  0.139036  0.938803  1
  Pt  Pt8  1  0.250000  0.766494  0.877754  1
  Rh  Rh9  1  0.750000  0.235539  0.119433  1
  Rh  Rh10  1  0.750000  0.735246  0.380655  1
  Rh  Rh11  1  0.250000  0.262897  0.619981  1
