# generated using pymatgen
data_CrF17
_symmetry_space_group_name_H-M   'P 1'
_cell_length_a   8.77405903
_cell_length_b   8.56638405
_cell_length_c   10.15898968
_cell_angle_alpha   81.50794260
_cell_angle_beta   86.84953386
_cell_angle_gamma   67.84870511
_symmetry_Int_Tables_number   1
_chemical_formula_structural   CrF17
_chemical_formula_sum   'Cr2 F34'
_cell_volume   699.45775653
_cell_formula_units_Z   2
loop_
 _symmetry_equiv_pos_site_id
 _symmetry_equiv_pos_as_xyz
  1  'x, y, z'
loop_
 _atom_site_type_symbol
 _atom_site_label
 _atom_site_symmetry_multiplicity
 _atom_site_fract_x
 _atom_site_fract_y
 _atom_site_fract_z
 _atom_site_occupancy
  Cr  Cr0  1  0.863226  0.248396  0.760814  1
  Cr  Cr1  1  0.136774  0.751604  0.239186  1
  F  F2  1  0.605376  0.204333  0.485539  1
  F  F3  1  0.394624  0.795667  0.514461  1
  F  F4  1  0.823096  0.693628  0.718356  1
  F  F5  1  0.176904  0.306372  0.281644  1
  F  F6  1  0.083122  0.773512  0.860306  1
  F  F7  1  0.916878  0.226488  0.139694  1
  F  F8  1  0.557506  0.140193  0.379274  1
  F  F9  1  0.442494  0.859807  0.620726  1
  F  F10  1  0.659519  0.313206  0.703619  1
  F  F11  1  0.340481  0.686794  0.296381  1
  F  F12  1  0.928409  0.081386  0.663480  1
  F  F13  1  0.071591  0.918614  0.336520  1
  F  F14  1  0.905240  0.379353  0.625451  1
  F  F15  1  0.094760  0.620647  0.374549  1
  F  F16  1  0.855182  0.808711  0.614867  1
  F  F17  1  0.144818  0.191289  0.385133  1
  F  F18  1  0.800715  0.418783  0.855270  1
  F  F19  1  0.199285  0.581217  0.144730  1
  F  F20  1  0.210212  0.689500  0.772762  1
  F  F21  1  0.789788  0.310500  0.227238  1
  F  F22  1  0.936129  0.816632  0.177155  1
  F  F23  1  0.063871  0.183368  0.822845  1
  F  F24  1  0.818352  0.115657  0.893910  1
  F  F25  1  0.181648  0.884343  0.106090  1
  F  F26  1  0.484414  0.588168  0.981512  1
  F  F27  1  0.515586  0.411832  0.018488  1
  F  F28  1  0.461984  0.083369  0.866908  1
  F  F29  1  0.538016  0.916631  0.133092  1
  F  F30  1  0.285761  0.241707  0.614596  1
  F  F31  1  0.714239  0.758293  0.385404  1
  F  F32  1  0.254875  0.390268  0.675833  1
  F  F33  1  0.745125  0.609732  0.324167  1
  F  F34  1  0.560761  0.917727  0.836514  1
  F  F35  1  0.439239  0.082273  0.163486  1
