# generated using pymatgen
data_MnV3Fe5Si3
_symmetry_space_group_name_H-M   'P 1'
_cell_length_a   3.95796000
_cell_length_b   5.68333400
_cell_length_c   11.86707900
_cell_angle_alpha   89.99872701
_cell_angle_beta   89.99807413
_cell_angle_gamma   90.00003462
_symmetry_Int_Tables_number   1
_chemical_formula_structural   MnV3Fe5Si3
_chemical_formula_sum   'Mn2 V6 Fe10 Si6'
_cell_volume   266.94292427
_cell_formula_units_Z   2
loop_
 _symmetry_equiv_pos_site_id
 _symmetry_equiv_pos_as_xyz
  1  'x, y, z'
loop_
 _atom_site_type_symbol
 _atom_site_label
 _atom_site_symmetry_multiplicity
 _atom_site_fract_x
 _atom_site_fract_y
 _atom_site_fract_z
 _atom_site_occupancy
  Mn  Mn0  1  0.500000  0.251102  0.999999  1
  Mn  Mn1  1  0.500000  0.748898  0.000001  1
  V  V2  1  0.000000  0.000000  0.000000  1
  V  V3  1  0.499977  0.500032  0.164385  1
  V  V4  1  0.999971  0.000015  0.333442  1
  V  V5  1  0.500000  0.500000  0.500000  1
  V  V6  1  0.000029  0.999985  0.666559  1
  V  V7  1  0.500023  0.499968  0.835615  1
  Fe  Fe8  1  0.999978  0.250103  0.167991  1
  Fe  Fe9  1  0.999976  0.749912  0.167954  1
  Fe  Fe10  1  0.499970  0.249644  0.333283  1
  Fe  Fe11  1  0.499970  0.750409  0.333266  1
  Fe  Fe12  1  0.000000  0.249085  0.499958  1
  Fe  Fe13  1  0.000000  0.750915  0.500042  1
  Fe  Fe14  1  0.500028  0.249591  0.666734  1
  Fe  Fe15  1  0.500028  0.750356  0.666717  1
  Fe  Fe16  1  0.000024  0.250088  0.832046  1
  Fe  Fe17  1  0.000022  0.749897  0.832009  1
  Si  Si18  1  0.000000  0.500000  0.000000  1
  Si  Si19  1  0.499978  0.999936  0.166234  1
  Si  Si20  1  0.999973  0.500077  0.333554  1
  Si  Si21  1  0.500000  0.000000  0.500000  1
  Si  Si22  1  0.000027  0.499923  0.666447  1
  Si  Si23  1  0.500022  0.000064  0.833766  1
