# generated using pymatgen
data_YEr4LuFeBi2
_symmetry_space_group_name_H-M   'P 1'
_cell_length_a   8.27380300
_cell_length_b   8.23274179
_cell_length_c   4.17016900
_cell_angle_alpha   90.00000000
_cell_angle_beta   90.00000000
_cell_angle_gamma   120.16512038
_symmetry_Int_Tables_number   1
_chemical_formula_structural   YEr4LuFeBi2
_chemical_formula_sum   'Y1 Er4 Lu1 Fe1 Bi2'
_cell_volume   245.58901907
_cell_formula_units_Z   1
loop_
 _symmetry_equiv_pos_site_id
 _symmetry_equiv_pos_as_xyz
  1  'x, y, z'
loop_
 _atom_site_type_symbol
 _atom_site_label
 _atom_site_symmetry_multiplicity
 _atom_site_fract_x
 _atom_site_fract_y
 _atom_site_fract_z
 _atom_site_occupancy
  Y  Y0  1  0.606490  0.000000  0.000000  1
  Er  Er1  1  0.001269  0.230487  0.500000  1
  Er  Er2  1  0.770782  0.769513  0.500000  1
  Er  Er3  1  0.000748  0.612462  0.000000  1
  Er  Er4  1  0.388286  0.387538  0.000000  1
  Lu  Lu5  1  0.228849  0.000000  0.500000  1
  Fe  Fe6  1  0.006314  0.000000  0.000000  1
  Bi  Bi7  1  0.332198  0.667135  0.500000  1
  Bi  Bi8  1  0.665064  0.332865  0.500000  1
