# generated using pymatgen
data_Ce3Ho(SiTc)4
_symmetry_space_group_name_H-M   'P 1'
_cell_length_a   4.52417000
_cell_length_b   7.19264347
_cell_length_c   6.87620768
_cell_angle_alpha   88.50671229
_cell_angle_beta   90.00000000
_cell_angle_gamma   90.00000000
_symmetry_Int_Tables_number   1
_chemical_formula_structural   Ce3Ho(SiTc)4
_chemical_formula_sum   'Ce3 Ho1 Si4 Tc4'
_cell_volume   223.68090752
_cell_formula_units_Z   1
loop_
 _symmetry_equiv_pos_site_id
 _symmetry_equiv_pos_as_xyz
  1  'x, y, z'
loop_
 _atom_site_type_symbol
 _atom_site_label
 _atom_site_symmetry_multiplicity
 _atom_site_fract_x
 _atom_site_fract_y
 _atom_site_fract_z
 _atom_site_occupancy
  Ce  Ce0  1  0.250000  0.973002  0.820727  1
  Ce  Ce1  1  0.750000  0.030152  0.179218  1
  Ce  Ce2  1  0.250000  0.472141  0.688971  1
  Ho  Ho3  1  0.750000  0.524107  0.317388  1
  Si  Si4  1  0.250000  0.312654  0.117993  1
  Si  Si5  1  0.750000  0.692383  0.888758  1
  Si  Si6  1  0.250000  0.804231  0.388247  1
  Si  Si7  1  0.750000  0.192764  0.608339  1
  Tc  Tc8  1  0.750000  0.854430  0.553476  1
  Tc  Tc9  1  0.250000  0.149289  0.444759  1
  Tc  Tc10  1  0.750000  0.343842  0.939548  1
  Tc  Tc11  1  0.250000  0.651005  0.052574  1
