# generated using pymatgen
data_Rb4Na2CaZrSb4
_symmetry_space_group_name_H-M   'P 1'
_cell_length_a   9.95868065
_cell_length_b   9.95868177
_cell_length_c   9.95868215
_cell_angle_alpha   136.02853199
_cell_angle_beta   64.14201485
_cell_angle_gamma   135.76268080
_symmetry_Int_Tables_number   1
_chemical_formula_structural   Rb4Na2CaZrSb4
_chemical_formula_sum   'Rb4 Na2 Ca1 Zr1 Sb4'
_cell_volume   471.90204182
_cell_formula_units_Z   1
loop_
 _symmetry_equiv_pos_site_id
 _symmetry_equiv_pos_as_xyz
  1  'x, y, z'
loop_
 _atom_site_type_symbol
 _atom_site_label
 _atom_site_symmetry_multiplicity
 _atom_site_fract_x
 _atom_site_fract_y
 _atom_site_fract_z
 _atom_site_occupancy
  Rb  Rb0  1  0.326667  0.729940  0.049218  1
  Rb  Rb1  1  0.173333  0.222551  0.403273  1
  Rb  Rb2  1  0.819277  0.770061  0.596727  1
  Rb  Rb3  1  0.680723  0.277450  0.950783  1
  Na  Na4  1  0.249999  0.249999  0.000000  1
  Na  Na5  1  0.750000  0.750000  0.000000  1
  Ca  Ca6  1  0.749999  0.249999  0.500000  1
  Zr  Zr7  1  0.249999  0.750000  0.500001  1
  Sb  Sb8  1  0.926505  0.304057  0.181447  1
  Sb  Sb9  1  0.573495  0.754944  0.377553  1
  Sb  Sb10  1  0.377391  0.195943  0.622448  1
  Sb  Sb11  1  0.122609  0.745056  0.818552  1
