# generated using pymatgen
data_Zr4Ta5WN12
_symmetry_space_group_name_H-M   'P 1'
_cell_length_a   5.29822036
_cell_length_b   5.29822015
_cell_length_c   10.69393200
_cell_angle_alpha   90.00000000
_cell_angle_beta   90.00000000
_cell_angle_gamma   119.87102678
_symmetry_Int_Tables_number   1
_chemical_formula_structural   Zr4Ta5WN12
_chemical_formula_sum   'Zr4 Ta5 W1 N12'
_cell_volume   260.31009958
_cell_formula_units_Z   1
loop_
 _symmetry_equiv_pos_site_id
 _symmetry_equiv_pos_as_xyz
  1  'x, y, z'
loop_
 _atom_site_type_symbol
 _atom_site_label
 _atom_site_symmetry_multiplicity
 _atom_site_fract_x
 _atom_site_fract_y
 _atom_site_fract_z
 _atom_site_occupancy
  Zr  Zr0  1  0.666717  0.332847  0.001038  1
  Zr  Zr1  1  0.332847  0.666717  0.001038  1
  Zr  Zr2  1  0.332847  0.666717  0.498962  1
  Zr  Zr3  1  0.666717  0.332847  0.498962  1
  Ta  Ta4  1  0.324230  0.999328  0.750000  1
  Ta  Ta5  1  0.999328  0.324230  0.750000  1
  Ta  Ta6  1  0.320919  0.320919  0.250000  1
  Ta  Ta7  1  0.679138  0.000106  0.250000  1
  Ta  Ta8  1  0.000106  0.679138  0.250000  1
  W  W9  1  0.675238  0.675238  0.750000  1
  N  N10  1  0.658326  0.658326  0.371633  1
  N  N11  1  0.341521  0.000254  0.371253  1
  N  N12  1  0.000254  0.341521  0.371253  1
  N  N13  1  0.342572  0.342572  0.629568  1
  N  N14  1  0.659223  0.999060  0.629513  1
  N  N15  1  0.999060  0.659223  0.629513  1
  N  N16  1  0.342572  0.342572  0.870432  1
  N  N17  1  0.659223  0.999060  0.870487  1
  N  N18  1  0.999060  0.659223  0.870487  1
  N  N19  1  0.658326  0.658326  0.128367  1
  N  N20  1  0.341521  0.000254  0.128747  1
  N  N21  1  0.000254  0.341521  0.128747  1
