# generated using pymatgen
data_Tb2Er3Mn2O12
_symmetry_space_group_name_H-M   'P 1'
_cell_length_a   6.79015304
_cell_length_b   6.79015427
_cell_length_c   7.21632512
_cell_angle_alpha   74.65184362
_cell_angle_beta   74.65184374
_cell_angle_gamma   50.06187282
_symmetry_Int_Tables_number   1
_chemical_formula_structural   Tb2Er3Mn2O12
_chemical_formula_sum   'Tb2 Er3 Mn2 O12'
_cell_volume   243.97967384
_cell_formula_units_Z   1
loop_
 _symmetry_equiv_pos_site_id
 _symmetry_equiv_pos_as_xyz
  1  'x, y, z'
loop_
 _atom_site_type_symbol
 _atom_site_label
 _atom_site_symmetry_multiplicity
 _atom_site_fract_x
 _atom_site_fract_y
 _atom_site_fract_z
 _atom_site_occupancy
  Tb  Tb0  1  0.304859  0.304859  0.356896  1
  Tb  Tb1  1  0.999770  0.999770  0.500303  1
  Er  Er2  1  0.694837  0.694837  0.644313  1
  Er  Er3  1  0.307357  0.307357  0.836232  1
  Er  Er4  1  0.692822  0.692822  0.163824  1
  Mn  Mn5  1  0.754051  0.246367  0.999553  1
  Mn  Mn6  1  0.246367  0.754051  0.999553  1
  O  O7  1  0.901770  0.422856  0.917981  1
  O  O8  1  0.422856  0.901770  0.917981  1
  O  O9  1  0.097180  0.578699  0.079412  1
  O  O10  1  0.578699  0.097180  0.079412  1
  O  O11  1  0.095295  0.596616  0.578248  1
  O  O12  1  0.596616  0.095295  0.578248  1
  O  O13  1  0.899503  0.406357  0.425034  1
  O  O14  1  0.406357  0.899503  0.425034  1
  O  O15  1  0.000201  0.000201  0.821792  1
  O  O16  1  0.000242  0.000242  0.177909  1
  O  O17  1  0.499965  0.499965  0.817947  1
  O  O18  1  0.501256  0.501256  0.180329  1
