# generated using pymatgen
data_ErCo4CuP3
_symmetry_space_group_name_H-M   'P 1'
_cell_length_a   3.68576800
_cell_length_b   10.22500700
_cell_length_c   11.85374400
_cell_angle_alpha   90.00000000
_cell_angle_beta   90.00000000
_cell_angle_gamma   90.00000000
_symmetry_Int_Tables_number   1
_chemical_formula_structural   ErCo4CuP3
_chemical_formula_sum   'Er4 Co16 Cu4 P12'
_cell_volume   446.73209281
_cell_formula_units_Z   4
loop_
 _symmetry_equiv_pos_site_id
 _symmetry_equiv_pos_as_xyz
  1  'x, y, z'
loop_
 _atom_site_type_symbol
 _atom_site_label
 _atom_site_symmetry_multiplicity
 _atom_site_fract_x
 _atom_site_fract_y
 _atom_site_fract_z
 _atom_site_occupancy
  Er  Er0  1  0.250000  0.578708  0.702151  1
  Er  Er1  1  0.250000  0.921292  0.202151  1
  Er  Er2  1  0.750000  0.421292  0.297849  1
  Er  Er3  1  0.750000  0.078708  0.797849  1
  Co  Co4  1  0.250000  0.405931  0.483710  1
  Co  Co5  1  0.250000  0.094069  0.983710  1
  Co  Co6  1  0.750000  0.594069  0.516290  1
  Co  Co7  1  0.750000  0.905931  0.016290  1
  Co  Co8  1  0.250000  0.224206  0.173432  1
  Co  Co9  1  0.250000  0.275794  0.673432  1
  Co  Co10  1  0.750000  0.775794  0.826568  1
  Co  Co11  1  0.750000  0.724206  0.326568  1
  Co  Co12  1  0.250000  0.879198  0.699813  1
  Co  Co13  1  0.250000  0.620802  0.199813  1
  Co  Co14  1  0.750000  0.120802  0.300187  1
  Co  Co15  1  0.750000  0.379198  0.800187  1
  Co  Co16  1  0.250000  0.464677  0.933190  1
  Co  Co17  1  0.250000  0.035323  0.433190  1
  Co  Co18  1  0.750000  0.535323  0.066810  1
  Co  Co19  1  0.750000  0.964677  0.566810  1
  Cu  Cu20  1  0.250000  0.710941  0.991768  1
  Cu  Cu21  1  0.250000  0.789059  0.491768  1
  Cu  Cu22  1  0.750000  0.289059  0.008232  1
  Cu  Cu23  1  0.750000  0.210941  0.508232  1
  P  P24  1  0.250000  0.425176  0.116398  1
  P  P25  1  0.250000  0.074824  0.616398  1
  P  P26  1  0.750000  0.574824  0.883602  1
  P  P27  1  0.750000  0.925176  0.383602  1
  P  P28  1  0.250000  0.268235  0.860001  1
  P  P29  1  0.250000  0.231765  0.360001  1
  P  P30  1  0.750000  0.731765  0.139999  1
  P  P31  1  0.750000  0.768235  0.639999  1
  P  P32  1  0.250000  0.599636  0.391402  1
  P  P33  1  0.250000  0.900364  0.891402  1
  P  P34  1  0.750000  0.400364  0.608598  1
  P  P35  1  0.750000  0.099636  0.108598  1
