# generated using pymatgen
data_Er16MgIn3(CoIr)2
_symmetry_space_group_name_H-M   'P 1'
_cell_length_a   9.51599783
_cell_length_b   9.51672983
_cell_length_c   9.51672910
_cell_angle_alpha   60.18944420
_cell_angle_beta   60.14790313
_cell_angle_gamma   60.14790709
_symmetry_Int_Tables_number   1
_chemical_formula_structural   Er16MgIn3(CoIr)2
_chemical_formula_sum   'Er16 Mg1 In3 Co2 Ir2'
_cell_volume   611.64972638
_cell_formula_units_Z   1
loop_
 _symmetry_equiv_pos_site_id
 _symmetry_equiv_pos_as_xyz
  1  'x, y, z'
loop_
 _atom_site_type_symbol
 _atom_site_label
 _atom_site_symmetry_multiplicity
 _atom_site_fract_x
 _atom_site_fract_y
 _atom_site_fract_z
 _atom_site_occupancy
  Er  Er0  1  0.059234  0.061038  0.438614  1
  Er  Er1  1  0.649182  0.038580  0.657025  1
  Er  Er2  1  0.196357  0.810254  0.186156  1
  Er  Er3  1  0.436959  0.063079  0.437708  1
  Er  Er4  1  0.196357  0.186156  0.810254  1
  Er  Er5  1  0.646983  0.658012  0.658012  1
  Er  Er6  1  0.048191  0.652167  0.652167  1
  Er  Er7  1  0.437891  0.062633  0.062633  1
  Er  Er8  1  0.649182  0.657025  0.038580  1
  Er  Er9  1  0.191221  0.810904  0.810904  1
  Er  Er10  1  0.812998  0.184430  0.810608  1
  Er  Er11  1  0.814703  0.188333  0.188333  1
  Er  Er12  1  0.812998  0.810608  0.184430  1
  Er  Er13  1  0.060026  0.438787  0.438787  1
  Er  Er14  1  0.436959  0.437708  0.063079  1
  Er  Er15  1  0.059234  0.438614  0.061038  1
  Mg  Mg16  1  0.730670  0.423179  0.423179  1
  In  In17  1  0.418812  0.415934  0.748541  1
  In  In18  1  0.418812  0.748541  0.415934  1
  In  In19  1  0.418884  0.416230  0.416230  1
  Co  Co20  1  0.860569  0.858288  0.858288  1
  Co  Co21  1  0.420948  0.859416  0.859416  1
  Ir  Ir22  1  0.861416  0.857299  0.422782  1
  Ir  Ir23  1  0.861416  0.422782  0.857299  1
