# generated using pymatgen
data_Sb(MoCl5)2
_symmetry_space_group_name_H-M   'P 1'
_cell_length_a   9.32651814
_cell_length_b   9.32651730
_cell_length_c   13.45199322
_cell_angle_alpha   86.68579298
_cell_angle_beta   86.68579066
_cell_angle_gamma   138.26778226
_symmetry_Int_Tables_number   1
_chemical_formula_structural   Sb(MoCl5)2
_chemical_formula_sum   'Sb2 Mo4 Cl20'
_cell_volume   768.55419693
_cell_formula_units_Z   2
loop_
 _symmetry_equiv_pos_site_id
 _symmetry_equiv_pos_as_xyz
  1  'x, y, z'
loop_
 _atom_site_type_symbol
 _atom_site_label
 _atom_site_symmetry_multiplicity
 _atom_site_fract_x
 _atom_site_fract_y
 _atom_site_fract_z
 _atom_site_occupancy
  Sb  Sb0  1  0.051428  0.948572  0.750000  1
  Sb  Sb1  1  0.948572  0.051428  0.250000  1
  Mo  Mo2  1  0.428660  0.571340  0.750000  1
  Mo  Mo3  1  0.571340  0.428660  0.250000  1
  Mo  Mo4  1  0.274532  0.725468  0.750000  1
  Mo  Mo5  1  0.725468  0.274532  0.250000  1
  Cl  Cl6  1  0.775227  0.475805  0.371498  1
  Cl  Cl7  1  0.524195  0.224773  0.128502  1
  Cl  Cl8  1  0.224773  0.524195  0.628502  1
  Cl  Cl9  1  0.475805  0.775227  0.871498  1
  Cl  Cl10  1  0.884983  0.773207  0.140884  1
  Cl  Cl11  1  0.226793  0.115017  0.359116  1
  Cl  Cl12  1  0.115017  0.226793  0.859116  1
  Cl  Cl13  1  0.773207  0.884983  0.640884  1
  Cl  Cl14  1  0.061057  0.576858  0.154471  1
  Cl  Cl15  1  0.423142  0.938943  0.345529  1
  Cl  Cl16  1  0.938943  0.423142  0.845529  1
  Cl  Cl17  1  0.576858  0.061057  0.654471  1
  Cl  Cl18  1  0.585759  0.655193  0.352833  1
  Cl  Cl19  1  0.344807  0.414241  0.147167  1
  Cl  Cl20  1  0.414241  0.344807  0.647167  1
  Cl  Cl21  1  0.655193  0.585759  0.852834  1
  Cl  Cl22  1  0.940546  0.269973  0.358809  1
  Cl  Cl23  1  0.730027  0.059454  0.141191  1
  Cl  Cl24  1  0.059454  0.730027  0.641191  1
  Cl  Cl25  1  0.269973  0.940546  0.858809  1
