# generated using pymatgen
data_Dy4NpUTc6
_symmetry_space_group_name_H-M   'P 1'
_cell_length_a   5.77922500
_cell_length_b   5.77922454
_cell_length_c   8.20193100
_cell_angle_alpha   90.00000000
_cell_angle_beta   90.00000000
_cell_angle_gamma   119.99998546
_symmetry_Int_Tables_number   1
_chemical_formula_structural   Dy4NpUTc6
_chemical_formula_sum   'Dy4 Np1 U1 Tc6'
_cell_volume   237.23894181
_cell_formula_units_Z   1
loop_
 _symmetry_equiv_pos_site_id
 _symmetry_equiv_pos_as_xyz
  1  'x, y, z'
loop_
 _atom_site_type_symbol
 _atom_site_label
 _atom_site_symmetry_multiplicity
 _atom_site_fract_x
 _atom_site_fract_y
 _atom_site_fract_z
 _atom_site_occupancy
  Dy  Dy0  1  0.333333  0.666667  0.440582  1
  Dy  Dy1  1  0.666667  0.333333  0.559418  1
  Dy  Dy2  1  0.666667  0.333333  0.941130  1
  Dy  Dy3  1  0.333333  0.666667  0.058870  1
  Np  Np4  1  0.000000  0.000000  0.500000  1
  U  U5  1  0.000000  0.000000  0.000000  1
  Tc  Tc6  1  0.836576  0.163424  0.252732  1
  Tc  Tc7  1  0.836576  0.673153  0.252732  1
  Tc  Tc8  1  0.326847  0.163424  0.252732  1
  Tc  Tc9  1  0.163424  0.836576  0.747268  1
  Tc  Tc10  1  0.163424  0.326847  0.747268  1
  Tc  Tc11  1  0.673153  0.836576  0.747268  1
