# generated using pymatgen
data_Yb3Eu7Si6
_symmetry_space_group_name_H-M   'P 1'
_cell_length_a   9.26234396
_cell_length_b   9.26234412
_cell_length_c   9.26386233
_cell_angle_alpha   130.74428166
_cell_angle_beta   130.74427921
_cell_angle_gamma   72.21024218
_symmetry_Int_Tables_number   1
_chemical_formula_structural   Yb3Eu7Si6
_chemical_formula_sum   'Yb3 Eu7 Si6'
_cell_volume   446.03212189
_cell_formula_units_Z   1
loop_
 _symmetry_equiv_pos_site_id
 _symmetry_equiv_pos_as_xyz
  1  'x, y, z'
loop_
 _atom_site_type_symbol
 _atom_site_label
 _atom_site_symmetry_multiplicity
 _atom_site_fract_x
 _atom_site_fract_y
 _atom_site_fract_z
 _atom_site_occupancy
  Yb  Yb0  1  0.536235  0.036235  0.856170  1
  Yb  Yb1  1  0.499076  0.498123  0.000097  1
  Yb  Yb2  1  0.998123  0.999076  0.000097  1
  Eu  Eu3  1  0.178365  0.678365  0.144288  1
  Eu  Eu4  1  0.034147  0.177589  0.499271  1
  Eu  Eu5  1  0.677589  0.534147  0.499271  1
  Eu  Eu6  1  0.466021  0.966021  0.144222  1
  Eu  Eu7  1  0.821094  0.321094  0.854722  1
  Eu  Eu8  1  0.965248  0.822021  0.499710  1
  Eu  Eu9  1  0.322021  0.465248  0.499710  1
  Si  Si10  1  0.889826  0.389826  0.277782  1
  Si  Si11  1  0.111198  0.611198  0.723067  1
  Si  Si12  1  0.387899  0.111060  0.500687  1
  Si  Si13  1  0.611060  0.887899  0.500687  1
  Si  Si14  1  0.253747  0.248351  0.000110  1
  Si  Si15  1  0.748351  0.753747  0.000110  1
