# generated using pymatgen
data_EuZnSbH
_symmetry_space_group_name_H-M   'P 1'
_cell_length_a   4.36692800
_cell_length_b   4.36631300
_cell_length_c   16.87231300
_cell_angle_alpha   90.00000000
_cell_angle_beta   90.00000000
_cell_angle_gamma   90.00000000
_symmetry_Int_Tables_number   1
_chemical_formula_structural   EuZnSbH
_chemical_formula_sum   'Eu4 Zn4 Sb4 H4'
_cell_volume   321.71071059
_cell_formula_units_Z   4
loop_
 _symmetry_equiv_pos_site_id
 _symmetry_equiv_pos_as_xyz
  1  'x, y, z'
loop_
 _atom_site_type_symbol
 _atom_site_label
 _atom_site_symmetry_multiplicity
 _atom_site_fract_x
 _atom_site_fract_y
 _atom_site_fract_z
 _atom_site_occupancy
  Eu  Eu0  1  0.250000  0.752741  0.567541  1
  Eu  Eu1  1  0.750000  0.247259  0.432459  1
  Eu  Eu2  1  0.750000  0.252741  0.932459  1
  Eu  Eu3  1  0.250000  0.747259  0.067541  1
  Zn  Zn4  1  0.250000  0.260331  0.750042  1
  Zn  Zn5  1  0.750000  0.739669  0.249958  1
  Zn  Zn6  1  0.750000  0.760331  0.749958  1
  Zn  Zn7  1  0.250000  0.239669  0.250042  1
  Sb  Sb8  1  0.250000  0.742595  0.350686  1
  Sb  Sb9  1  0.750000  0.257405  0.649314  1
  Sb  Sb10  1  0.750000  0.242595  0.149314  1
  Sb  Sb11  1  0.250000  0.757405  0.850686  1
  H  H12  1  0.250000  0.249481  0.000011  1
  H  H13  1  0.750000  0.750519  0.999989  1
  H  H14  1  0.750000  0.749481  0.499989  1
  H  H15  1  0.250000  0.250519  0.500011  1
