# generated using pymatgen
data_Zr10Si6S
_symmetry_space_group_name_H-M   'P 1'
_cell_length_a   5.66967000
_cell_length_b   8.06734990
_cell_length_c   8.06741700
_cell_angle_alpha   120.00009881
_cell_angle_beta   90.00003032
_cell_angle_gamma   90.00002035
_symmetry_Int_Tables_number   1
_chemical_formula_structural   Zr10Si6S
_chemical_formula_sum   'Zr10 Si6 S1'
_cell_volume   319.56071251
_cell_formula_units_Z   1
loop_
 _symmetry_equiv_pos_site_id
 _symmetry_equiv_pos_as_xyz
  1  'x, y, z'
loop_
 _atom_site_type_symbol
 _atom_site_label
 _atom_site_symmetry_multiplicity
 _atom_site_fract_x
 _atom_site_fract_y
 _atom_site_fract_z
 _atom_site_occupancy
  Zr  Zr0  1  0.500007  0.333343  0.666673  1
  Zr  Zr1  1  0.500003  0.666658  0.333329  1
  Zr  Zr2  1  0.999997  0.666666  0.333334  1
  Zr  Zr3  1  0.999993  0.333335  0.666667  1
  Zr  Zr4  1  0.759859  0.258760  0.999979  1
  Zr  Zr5  1  0.759854  0.741217  0.741245  1
  Zr  Zr6  1  0.759849  0.000024  0.258787  1
  Zr  Zr7  1  0.240137  0.741215  0.999972  1
  Zr  Zr8  1  0.240141  0.258763  0.258782  1
  Zr  Zr9  1  0.240159  0.000025  0.741245  1
  Si  Si10  1  0.750991  0.607120  0.999969  1
  Si  Si11  1  0.751003  0.392851  0.392880  1
  Si  Si12  1  0.750991  0.000032  0.607156  1
  Si  Si13  1  0.249005  0.392850  0.999972  1
  Si  Si14  1  0.249003  0.607119  0.607152  1
  Si  Si15  1  0.249005  0.000031  0.392874  1
  S  S16  1  0.499999  0.999993  0.999983  1
