# generated using pymatgen
data_Cs8Na4SmDy3Sb8
_symmetry_space_group_name_H-M   'P 1'
_cell_length_a   11.68078333
_cell_length_b   11.68078282
_cell_length_c   7.60257358
_cell_angle_alpha   89.94771613
_cell_angle_beta   90.05228731
_cell_angle_gamma   99.84032269
_symmetry_Int_Tables_number   1
_chemical_formula_structural   Cs8Na4SmDy3Sb8
_chemical_formula_sum   'Cs8 Na4 Sm1 Dy3 Sb8'
_cell_volume   1022.03878163
_cell_formula_units_Z   1
loop_
 _symmetry_equiv_pos_site_id
 _symmetry_equiv_pos_as_xyz
  1  'x, y, z'
loop_
 _atom_site_type_symbol
 _atom_site_label
 _atom_site_symmetry_multiplicity
 _atom_site_fract_x
 _atom_site_fract_y
 _atom_site_fract_z
 _atom_site_occupancy
  Cs  Cs0  1  0.070056  0.429640  0.249806  1
  Cs  Cs1  1  0.429640  0.070056  0.750194  1
  Cs  Cs2  1  0.930302  0.570109  0.750171  1
  Cs  Cs3  1  0.570109  0.930302  0.249829  1
  Cs  Cs4  1  0.677243  0.322318  0.213605  1
  Cs  Cs5  1  0.822893  0.177228  0.713793  1
  Cs  Cs6  1  0.322318  0.677243  0.786395  1
  Cs  Cs7  1  0.177228  0.822893  0.286207  1
  Na  Na8  1  0.382053  0.382053  0.000000  1
  Na  Na9  1  0.117730  0.117730  0.500000  1
  Na  Na10  1  0.617759  0.617759  0.000000  1
  Na  Na11  1  0.882567  0.882567  0.500000  1
  Sm  Sm12  1  0.631846  0.631846  0.500000  1
  Dy  Dy13  1  0.131092  0.131092  0.000000  1
  Dy  Dy14  1  0.367949  0.367949  0.500000  1
  Dy  Dy15  1  0.869492  0.869492  0.000000  1
  Sb  Sb16  1  0.844526  0.658874  0.246548  1
  Sb  Sb17  1  0.658874  0.844526  0.753452  1
  Sb  Sb18  1  0.158675  0.341211  0.749879  1
  Sb  Sb19  1  0.341211  0.158675  0.250121  1
  Sb  Sb20  1  0.904897  0.095376  0.209230  1
  Sb  Sb21  1  0.594380  0.401785  0.711451  1
  Sb  Sb22  1  0.095376  0.904897  0.790770  1
  Sb  Sb23  1  0.401785  0.594380  0.288549  1
