# generated using pymatgen
data_CaTbNd5CoI12
_symmetry_space_group_name_H-M   'P 1'
_cell_length_a   10.02474557
_cell_length_b   9.92503128
_cell_length_c   10.04939576
_cell_angle_alpha   106.98864792
_cell_angle_beta   106.86671967
_cell_angle_gamma   106.99489636
_symmetry_Int_Tables_number   1
_chemical_formula_structural   CaTbNd5CoI12
_chemical_formula_sum   'Ca1 Tb1 Nd5 Co1 I12'
_cell_volume   833.83461718
_cell_formula_units_Z   1
loop_
 _symmetry_equiv_pos_site_id
 _symmetry_equiv_pos_as_xyz
  1  'x, y, z'
loop_
 _atom_site_type_symbol
 _atom_site_label
 _atom_site_symmetry_multiplicity
 _atom_site_fract_x
 _atom_site_fract_y
 _atom_site_fract_z
 _atom_site_occupancy
  Ca  Ca0  1  0.499466  0.501256  0.500301  1
  Tb  Tb1  1  0.705312  0.975166  0.902643  1
  Nd  Nd2  1  0.024729  0.098982  0.301802  1
  Nd  Nd3  1  0.092332  0.286462  0.024376  1
  Nd  Nd4  1  0.303862  0.024445  0.099315  1
  Nd  Nd5  1  0.976260  0.900841  0.698108  1
  Nd  Nd6  1  0.904505  0.712789  0.974716  1
  Co  Co7  1  0.000172  0.999380  0.999819  1
  I  I8  1  0.158050  0.462037  0.380405  1
  I  I9  1  0.458301  0.383749  0.158672  1
  I  I10  1  0.380490  0.155767  0.459268  1
  I  I11  1  0.840275  0.537623  0.619523  1
  I  I12  1  0.541295  0.625344  0.842878  1
  I  I13  1  0.620685  0.849764  0.549291  1
  I  I14  1  0.678979  0.069227  0.215207  1
  I  I15  1  0.073756  0.228238  0.683660  1
  I  I16  1  0.221210  0.678052  0.071035  1
  I  I17  1  0.324075  0.928917  0.777051  1
  I  I18  1  0.925258  0.771309  0.316029  1
  I  I19  1  0.770988  0.310652  0.925902  1
