# generated using pymatgen
data_YbPa(Al5Fe)4
_symmetry_space_group_name_H-M   'P 1'
_cell_length_a   6.76888657
_cell_length_b   6.76888635
_cell_length_c   8.97026600
_cell_angle_alpha   90.00000000
_cell_angle_beta   90.00000000
_cell_angle_gamma   97.47631864
_symmetry_Int_Tables_number   1
_chemical_formula_structural   YbPa(Al5Fe)4
_chemical_formula_sum   'Yb1 Pa1 Al20 Fe4'
_cell_volume   407.50406069
_cell_formula_units_Z   1
loop_
 _symmetry_equiv_pos_site_id
 _symmetry_equiv_pos_as_xyz
  1  'x, y, z'
loop_
 _atom_site_type_symbol
 _atom_site_label
 _atom_site_symmetry_multiplicity
 _atom_site_fract_x
 _atom_site_fract_y
 _atom_site_fract_z
 _atom_site_occupancy
  Yb  Yb0  1  0.123821  0.876179  0.750000  1
  Pa  Pa1  1  0.874417  0.125583  0.250000  1
  Al  Al2  1  0.228615  0.225943  0.500542  1
  Al  Al3  1  0.774057  0.771385  0.999458  1
  Al  Al4  1  0.774057  0.771385  0.500542  1
  Al  Al5  1  0.228615  0.225943  0.999458  1
  Al  Al6  1  0.373858  0.626142  0.548471  1
  Al  Al7  1  0.623833  0.376167  0.052086  1
  Al  Al8  1  0.583991  0.865493  0.750000  1
  Al  Al9  1  0.412306  0.133522  0.250000  1
  Al  Al10  1  0.866478  0.587694  0.250000  1
  Al  Al11  1  0.134507  0.416009  0.750000  1
  Al  Al12  1  0.477023  0.221019  0.750000  1
  Al  Al13  1  0.521103  0.778598  0.250000  1
  Al  Al14  1  0.221402  0.478897  0.250000  1
  Al  Al15  1  0.778981  0.522977  0.750000  1
  Al  Al16  1  0.157423  0.842577  0.402514  1
  Al  Al17  1  0.839502  0.160498  0.901337  1
  Al  Al18  1  0.839502  0.160498  0.598663  1
  Al  Al19  1  0.157423  0.842577  0.097486  1
  Al  Al20  1  0.373858  0.626142  0.951529  1
  Al  Al21  1  0.623833  0.376167  0.447914  1
  Fe  Fe22  1  0.998686  0.492990  0.496117  1
  Fe  Fe23  1  0.998686  0.492990  0.003883  1
  Fe  Fe24  1  0.507010  0.001314  0.496117  1
  Fe  Fe25  1  0.507010  0.001314  0.003883  1
