# generated using pymatgen
data_Ho8Sc12Sn7Sb9
_symmetry_space_group_name_H-M   'P 1'
_cell_length_a   7.82844700
_cell_length_b   7.84463699
_cell_length_c   14.75218600
_cell_angle_alpha   90.00000000
_cell_angle_beta   90.00000000
_cell_angle_gamma   90.15304433
_symmetry_Int_Tables_number   1
_chemical_formula_structural   Ho8Sc12Sn7Sb9
_chemical_formula_sum   'Ho8 Sc12 Sn7 Sb9'
_cell_volume   905.94805511
_cell_formula_units_Z   1
loop_
 _symmetry_equiv_pos_site_id
 _symmetry_equiv_pos_as_xyz
  1  'x, y, z'
loop_
 _atom_site_type_symbol
 _atom_site_label
 _atom_site_symmetry_multiplicity
 _atom_site_fract_x
 _atom_site_fract_y
 _atom_site_fract_z
 _atom_site_occupancy
  Ho  Ho0  1  0.525978  0.318805  0.902497  1
  Ho  Ho1  1  0.024947  0.180104  0.595217  1
  Ho  Ho2  1  0.474915  0.680873  0.403671  1
  Ho  Ho3  1  0.975205  0.819868  0.096495  1
  Ho  Ho4  1  0.474915  0.680873  0.096329  1
  Ho  Ho5  1  0.975205  0.819868  0.403505  1
  Ho  Ho6  1  0.525978  0.318805  0.597503  1
  Ho  Ho7  1  0.024947  0.180104  0.904783  1
  Sc  Sc8  1  0.359977  0.845017  0.875047  1
  Sc  Sc9  1  0.861743  0.655687  0.626323  1
  Sc  Sc10  1  0.637908  0.157531  0.374188  1
  Sc  Sc11  1  0.137652  0.343128  0.125944  1
  Sc  Sc12  1  0.637908  0.157531  0.125812  1
  Sc  Sc13  1  0.137652  0.343128  0.374056  1
  Sc  Sc14  1  0.359977  0.845017  0.624953  1
  Sc  Sc15  1  0.861743  0.655687  0.873677  1
  Sc  Sc16  1  0.188752  0.502328  0.750000  1
  Sc  Sc17  1  0.687823  0.997335  0.750000  1
  Sc  Sc18  1  0.811054  0.497719  0.250000  1
  Sc  Sc19  1  0.311425  0.002812  0.250000  1
  Sn  Sn20  1  0.053764  0.874962  0.750000  1
  Sn  Sn21  1  0.445722  0.374254  0.250000  1
  Sn  Sn22  1  0.945515  0.125988  0.250000  1
  Sn  Sn23  1  0.329654  0.149492  0.750000  1
  Sn  Sn24  1  0.836477  0.345569  0.750000  1
  Sn  Sn25  1  0.668804  0.850299  0.250000  1
  Sn  Sn26  1  0.169089  0.650080  0.250000  1
  Sb  Sb27  1  0.294561  0.044102  0.044218  1
  Sb  Sb28  1  0.793675  0.457111  0.456604  1
  Sb  Sb29  1  0.705817  0.955494  0.544252  1
  Sb  Sb30  1  0.207182  0.542636  0.955421  1
  Sb  Sb31  1  0.705817  0.955494  0.955748  1
  Sb  Sb32  1  0.207182  0.542636  0.544579  1
  Sb  Sb33  1  0.294561  0.044102  0.455782  1
  Sb  Sb34  1  0.793675  0.457111  0.043396  1
  Sb  Sb35  1  0.552799  0.628456  0.750000  1
