# generated using pymatgen
data_ZrSc(TiRe8)3
_symmetry_space_group_name_H-M   'P 1'
_cell_length_a   8.40884185
_cell_length_b   8.40956412
_cell_length_c   8.40956427
_cell_angle_alpha   109.47296595
_cell_angle_beta   109.46947797
_cell_angle_gamma   109.46947745
_symmetry_Int_Tables_number   1
_chemical_formula_structural   ZrSc(TiRe8)3
_chemical_formula_sum   'Zr1 Sc1 Ti3 Re24'
_cell_volume   457.79453276
_cell_formula_units_Z   1
loop_
 _symmetry_equiv_pos_site_id
 _symmetry_equiv_pos_as_xyz
  1  'x, y, z'
loop_
 _atom_site_type_symbol
 _atom_site_label
 _atom_site_symmetry_multiplicity
 _atom_site_fract_x
 _atom_site_fract_y
 _atom_site_fract_z
 _atom_site_occupancy
  Zr  Zr0  1  0.000849  0.000000  0.000000  1
  Sc  Sc1  1  0.629780  0.000000  0.000000  1
  Ti  Ti2  1  0.999737  0.629008  0.000000  1
  Ti  Ti3  1  0.999737  0.000000  0.629008  1
  Ti  Ti4  1  0.370729  0.370992  0.370992  1
  Re  Re5  1  0.396778  0.676341  0.000000  1
  Re  Re6  1  0.720437  0.323659  0.323659  1
  Re  Re7  1  0.396778  0.000000  0.676341  1
  Re  Re8  1  0.682581  0.400179  0.000000  1
  Re  Re9  1  0.999112  0.400747  0.682022  1
  Re  Re10  1  0.317090  0.718725  0.317978  1
  Re  Re11  1  0.317090  0.317978  0.718725  1
  Re  Re12  1  0.999112  0.682022  0.400747  1
  Re  Re13  1  0.682581  0.000000  0.400179  1
  Re  Re14  1  0.598367  0.599253  0.281275  1
  Re  Re15  1  0.282401  0.599821  0.599821  1
  Re  Re16  1  0.598367  0.281275  0.599253  1
  Re  Re17  1  0.377180  0.193434  0.000000  1
  Re  Re18  1  0.183746  0.806566  0.806566  1
  Re  Re19  1  0.377180  0.000000  0.193434  1
  Re  Re20  1  0.194216  0.376146  0.000000  1
  Re  Re21  1  0.001460  0.378494  0.193953  1
  Re  Re22  1  0.807507  0.184541  0.806047  1
  Re  Re23  1  0.807507  0.806047  0.184541  1
  Re  Re24  1  0.001460  0.193953  0.378494  1
  Re  Re25  1  0.194216  0.000000  0.376146  1
  Re  Re26  1  0.622967  0.621506  0.815459  1
  Re  Re27  1  0.818069  0.623854  0.623854  1
  Re  Re28  1  0.622967  0.815459  0.621506  1
