# generated using pymatgen
data_Tm2U(GaIr)3
_symmetry_space_group_name_H-M   'P 1'
_cell_length_a   7.17631605
_cell_length_b   7.31624444
_cell_length_c   3.77304000
_cell_angle_alpha   90.00000000
_cell_angle_beta   90.00000000
_cell_angle_gamma   120.64714316
_symmetry_Int_Tables_number   1
_chemical_formula_structural   Tm2U(GaIr)3
_chemical_formula_sum   'Tm2 U1 Ga3 Ir3'
_cell_volume   170.42866953
_cell_formula_units_Z   1
loop_
 _symmetry_equiv_pos_site_id
 _symmetry_equiv_pos_as_xyz
  1  'x, y, z'
loop_
 _atom_site_type_symbol
 _atom_site_label
 _atom_site_symmetry_multiplicity
 _atom_site_fract_x
 _atom_site_fract_y
 _atom_site_fract_z
 _atom_site_occupancy
  Tm  Tm0  1  0.596340  0.593327  0.500000  1
  Tm  Tm1  1  0.403660  0.996987  0.500000  1
  U  U2  1  0.000000  0.414438  0.500000  1
  Ga  Ga3  1  0.000000  0.760459  0.000000  1
  Ga  Ga4  1  0.266386  0.254794  0.000000  1
  Ga  Ga5  1  0.733614  0.988408  0.000000  1
  Ir  Ir6  1  0.303268  0.640012  0.000000  1
  Ir  Ir7  1  0.696732  0.336742  0.000000  1
  Ir  Ir8  1  0.000000  0.014834  0.500000  1
