# generated using pymatgen
data_NaAc7(GePt)8
_symmetry_space_group_name_H-M   'P 1'
_cell_length_a   4.59847700
_cell_length_b   7.84683900
_cell_length_c   15.00207100
_cell_angle_alpha   90.00000000
_cell_angle_beta   90.00000000
_cell_angle_gamma   90.00000000
_symmetry_Int_Tables_number   1
_chemical_formula_structural   NaAc7(GePt)8
_chemical_formula_sum   'Na1 Ac7 Ge8 Pt8'
_cell_volume   541.32735891
_cell_formula_units_Z   1
loop_
 _symmetry_equiv_pos_site_id
 _symmetry_equiv_pos_as_xyz
  1  'x, y, z'
loop_
 _atom_site_type_symbol
 _atom_site_label
 _atom_site_symmetry_multiplicity
 _atom_site_fract_x
 _atom_site_fract_y
 _atom_site_fract_z
 _atom_site_occupancy
  Na  Na0  1  0.000000  0.297577  0.500000  1
  Ac  Ac1  1  0.500000  0.789005  0.741967  1
  Ac  Ac2  1  0.000000  0.210026  0.749116  1
  Ac  Ac3  1  0.500000  0.789005  0.258033  1
  Ac  Ac4  1  0.000000  0.210026  0.250884  1
  Ac  Ac5  1  0.500000  0.709477  0.000000  1
  Ac  Ac6  1  0.500000  0.702520  0.500000  1
  Ac  Ac7  1  0.000000  0.288445  0.000000  1
  Ge  Ge8  1  0.500000  0.409729  0.643347  1
  Ge  Ge9  1  0.000000  0.582409  0.846105  1
  Ge  Ge10  1  0.500000  0.409729  0.356653  1
  Ge  Ge11  1  0.000000  0.582409  0.153895  1
  Ge  Ge12  1  0.500000  0.080735  0.094123  1
  Ge  Ge13  1  0.000000  0.934830  0.413200  1
  Ge  Ge14  1  0.500000  0.080735  0.905877  1
  Ge  Ge15  1  0.000000  0.934830  0.586800  1
  Pt  Pt16  1  0.500000  0.091182  0.606119  1
  Pt  Pt17  1  0.000000  0.912989  0.885583  1
  Pt  Pt18  1  0.500000  0.091182  0.393881  1
  Pt  Pt19  1  0.000000  0.912989  0.114417  1
  Pt  Pt20  1  0.500000  0.416887  0.145941  1
  Pt  Pt21  1  0.000000  0.573198  0.350816  1
  Pt  Pt22  1  0.500000  0.416887  0.854059  1
  Pt  Pt23  1  0.000000  0.573198  0.649184  1
