# generated using pymatgen
data_Ce2ErIn3Tc2
_symmetry_space_group_name_H-M   'P 1'
_cell_length_a   8.40729157
_cell_length_b   8.40729004
_cell_length_c   5.00349381
_cell_angle_alpha   80.65047223
_cell_angle_beta   80.65047540
_cell_angle_gamma   33.79585523
_symmetry_Int_Tables_number   1
_chemical_formula_structural   Ce2ErIn3Tc2
_chemical_formula_sum   'Ce2 Er1 In3 Tc2'
_cell_volume   193.86184022
_cell_formula_units_Z   1
loop_
 _symmetry_equiv_pos_site_id
 _symmetry_equiv_pos_as_xyz
  1  'x, y, z'
loop_
 _atom_site_type_symbol
 _atom_site_label
 _atom_site_symmetry_multiplicity
 _atom_site_fract_x
 _atom_site_fract_y
 _atom_site_fract_z
 _atom_site_occupancy
  Ce  Ce0  1  0.831729  0.831729  0.590368  1
  Ce  Ce1  1  0.168271  0.168271  0.409632  1
  Er  Er2  1  0.000000  0.000000  0.000000  1
  In  In3  1  0.374758  0.374758  0.069337  1
  In  In4  1  0.500000  0.500000  0.500000  1
  In  In5  1  0.625242  0.625242  0.930663  1
  Tc  Tc6  1  0.792647  0.792647  0.068338  1
  Tc  Tc7  1  0.207353  0.207353  0.931662  1
