# generated using pymatgen
data_Lu6Sc4GaPb5
_symmetry_space_group_name_H-M   'P 1'
_cell_length_a   6.30121103
_cell_length_b   8.66758180
_cell_length_c   8.70892962
_cell_angle_alpha   119.84305983
_cell_angle_beta   90.00173010
_cell_angle_gamma   89.99651816
_symmetry_Int_Tables_number   1
_chemical_formula_structural   Lu6Sc4GaPb5
_chemical_formula_sum   'Lu6 Sc4 Ga1 Pb5'
_cell_volume   412.57415847
_cell_formula_units_Z   1
loop_
 _symmetry_equiv_pos_site_id
 _symmetry_equiv_pos_as_xyz
  1  'x, y, z'
loop_
 _atom_site_type_symbol
 _atom_site_label
 _atom_site_symmetry_multiplicity
 _atom_site_fract_x
 _atom_site_fract_y
 _atom_site_fract_z
 _atom_site_occupancy
  Lu  Lu0  1  0.750033  0.242237  0.000000  1
  Lu  Lu1  1  0.749961  0.758130  0.773331  1
  Lu  Lu2  1  0.749961  0.984800  0.226669  1
  Lu  Lu3  1  0.250024  0.764996  0.000000  1
  Lu  Lu4  1  0.250076  0.235318  0.235151  1
  Lu  Lu5  1  0.250076  0.000165  0.764849  1
  Sc  Sc6  1  0.505013  0.343957  0.679007  1
  Sc  Sc7  1  0.505013  0.664950  0.320993  1
  Sc  Sc8  1  0.994942  0.664762  0.320670  1
  Sc  Sc9  1  0.994942  0.344092  0.679330  1
  Ga  Ga10  1  0.749787  0.598769  0.000000  1
  Pb  Pb11  1  0.750142  0.394897  0.397522  1
  Pb  Pb12  1  0.750142  0.997375  0.602478  1
  Pb  Pb13  1  0.250155  0.400546  0.000000  1
  Pb  Pb14  1  0.249868  0.600991  0.596976  1
  Pb  Pb15  1  0.249868  0.004014  0.403024  1
