# generated using pymatgen
data_Th8Ta4Ti7Si16Mo
_symmetry_space_group_name_H-M   'P 1'
_cell_length_a   7.16631527
_cell_length_b   7.16315982
_cell_length_c   13.30809817
_cell_angle_alpha   89.93564250
_cell_angle_beta   90.08217600
_cell_angle_gamma   89.98260678
_symmetry_Int_Tables_number   1
_chemical_formula_structural   Th8Ta4Ti7Si16Mo
_chemical_formula_sum   'Th8 Ta4 Ti7 Si16 Mo1'
_cell_volume   683.14958139
_cell_formula_units_Z   1
loop_
 _symmetry_equiv_pos_site_id
 _symmetry_equiv_pos_as_xyz
  1  'x, y, z'
loop_
 _atom_site_type_symbol
 _atom_site_label
 _atom_site_symmetry_multiplicity
 _atom_site_fract_x
 _atom_site_fract_y
 _atom_site_fract_z
 _atom_site_occupancy
  Th  Th0  1  0.337750  0.001892  0.468829  1
  Th  Th1  1  0.498716  0.838351  0.719693  1
  Th  Th2  1  0.500417  0.162087  0.218115  1
  Th  Th3  1  0.836842  0.498031  0.281391  1
  Th  Th4  1  0.161964  0.500705  0.781743  1
  Th  Th5  1  0.662093  0.999274  0.968052  1
  Th  Th6  1  0.002352  0.337060  0.532594  1
  Th  Th7  1  0.997864  0.663417  0.030499  1
  Ta  Ta8  1  0.328591  0.328592  0.999082  1
  Ta  Ta9  1  0.170596  0.829219  0.249127  1
  Ta  Ta10  1  0.832133  0.169522  0.750767  1
  Ta  Ta11  1  0.671415  0.670143  0.499833  1
  Ti  Ti12  1  0.489678  0.661346  0.126239  1
  Ti  Ti13  1  0.505559  0.340073  0.627241  1
  Ti  Ti14  1  0.659869  0.491935  0.873086  1
  Ti  Ti15  1  0.339762  0.507338  0.373834  1
  Ti  Ti16  1  0.840074  0.992723  0.376894  1
  Ti  Ti17  1  0.005535  0.158624  0.123982  1
  Ti  Ti18  1  0.993772  0.839462  0.623814  1
  Si  Si19  1  0.198035  0.122667  0.688264  1
  Si  Si20  1  0.377656  0.700404  0.936580  1
  Si  Si21  1  0.623184  0.302017  0.437675  1
  Si  Si22  1  0.696380  0.377791  0.062439  1
  Si  Si23  1  0.304458  0.623088  0.563386  1
  Si  Si24  1  0.802428  0.876687  0.187017  1
  Si  Si25  1  0.123353  0.196307  0.312528  1
  Si  Si26  1  0.879676  0.803963  0.813088  1
  Si  Si27  1  0.287113  0.960793  0.063239  1
  Si  Si28  1  0.540834  0.788250  0.315037  1
  Si  Si29  1  0.457988  0.213049  0.814601  1
  Si  Si30  1  0.786997  0.541862  0.684861  1
  Si  Si31  1  0.211133  0.458374  0.184352  1
  Si  Si32  1  0.713593  0.040404  0.565320  1
  Si  Si33  1  0.960993  0.285077  0.935792  1
  Si  Si34  1  0.040995  0.712041  0.434851  1
  Mo  Mo35  1  0.160201  0.007432  0.876158  1
