# generated using pymatgen
data_GdDy(ZnPt)2
_symmetry_space_group_name_H-M   'P 1'
_cell_length_a   4.22909200
_cell_length_b   6.83919387
_cell_length_c   8.04442800
_cell_angle_alpha   88.74795730
_cell_angle_beta   90.00000000
_cell_angle_gamma   90.00000000
_symmetry_Int_Tables_number   1
_chemical_formula_structural   GdDy(ZnPt)2
_chemical_formula_sum   'Gd2 Dy2 Zn4 Pt4'
_cell_volume   232.61810621
_cell_formula_units_Z   2
loop_
 _symmetry_equiv_pos_site_id
 _symmetry_equiv_pos_as_xyz
  1  'x, y, z'
loop_
 _atom_site_type_symbol
 _atom_site_label
 _atom_site_symmetry_multiplicity
 _atom_site_fract_x
 _atom_site_fract_y
 _atom_site_fract_z
 _atom_site_occupancy
  Gd  Gd0  1  0.750000  0.965417  0.687848  1
  Gd  Gd1  1  0.250000  0.034583  0.312152  1
  Dy  Dy2  1  0.250000  0.536899  0.186091  1
  Dy  Dy3  1  0.750000  0.463101  0.813909  1
  Zn  Zn4  1  0.250000  0.641578  0.563477  1
  Zn  Zn5  1  0.750000  0.358422  0.436523  1
  Zn  Zn6  1  0.750000  0.858368  0.062158  1
  Zn  Zn7  1  0.250000  0.141632  0.937842  1
  Pt  Pt8  1  0.250000  0.752470  0.880664  1
  Pt  Pt9  1  0.750000  0.247530  0.119336  1
  Pt  Pt10  1  0.750000  0.741504  0.381213  1
  Pt  Pt11  1  0.250000  0.258496  0.618787  1
