# generated using pymatgen
data_Tb16Y4Sn11Sb5
_symmetry_space_group_name_H-M   'P 1'
_cell_length_a   8.14913970
_cell_length_b   8.18500723
_cell_length_c   15.46503575
_cell_angle_alpha   90.14417393
_cell_angle_beta   90.18231186
_cell_angle_gamma   89.84814936
_symmetry_Int_Tables_number   1
_chemical_formula_structural   Tb16Y4Sn11Sb5
_chemical_formula_sum   'Tb16 Y4 Sn11 Sb5'
_cell_volume   1031.51766345
_cell_formula_units_Z   1
loop_
 _symmetry_equiv_pos_site_id
 _symmetry_equiv_pos_as_xyz
  1  'x, y, z'
loop_
 _atom_site_type_symbol
 _atom_site_label
 _atom_site_symmetry_multiplicity
 _atom_site_fract_x
 _atom_site_fract_y
 _atom_site_fract_z
 _atom_site_occupancy
  Tb  Tb0  1  0.378740  0.839384  0.879695  1
  Tb  Tb1  1  0.877635  0.660692  0.621539  1
  Tb  Tb2  1  0.622870  0.159773  0.378572  1
  Tb  Tb3  1  0.121281  0.338915  0.121277  1
  Tb  Tb4  1  0.622202  0.161132  0.120588  1
  Tb  Tb5  1  0.123402  0.338110  0.378698  1
  Tb  Tb6  1  0.375452  0.839077  0.621640  1
  Tb  Tb7  1  0.877618  0.660852  0.878659  1
  Tb  Tb8  1  0.543525  0.331407  0.895003  1
  Tb  Tb9  1  0.041918  0.172456  0.604135  1
  Tb  Tb10  1  0.458193  0.672914  0.395834  1
  Tb  Tb11  1  0.958537  0.825419  0.104529  1
  Tb  Tb12  1  0.462859  0.669323  0.104304  1
  Tb  Tb13  1  0.968544  0.824530  0.398409  1
  Tb  Tb14  1  0.531151  0.324565  0.601721  1
  Tb  Tb15  1  0.036095  0.177991  0.897204  1
  Y  Y16  1  0.207510  0.500970  0.747719  1
  Y  Y17  1  0.707621  0.000381  0.749592  1
  Y  Y18  1  0.792441  0.498968  0.248968  1
  Y  Y19  1  0.292771  0.999939  0.252070  1
  Sn  Sn20  1  0.217719  0.531908  0.543189  1
  Sn  Sn21  1  0.282630  0.031388  0.456973  1
  Sn  Sn22  1  0.780585  0.469733  0.042961  1
  Sn  Sn23  1  0.573074  0.624269  0.749897  1
  Sn  Sn24  1  0.073384  0.877504  0.751738  1
  Sn  Sn25  1  0.426564  0.375668  0.249567  1
  Sn  Sn26  1  0.926547  0.122425  0.249797  1
  Sn  Sn27  1  0.343608  0.146230  0.751656  1
  Sn  Sn28  1  0.842953  0.354207  0.749278  1
  Sn  Sn29  1  0.657356  0.853609  0.250061  1
  Sn  Sn30  1  0.156565  0.645300  0.249462  1
  Sb  Sb31  1  0.275402  0.024909  0.045365  1
  Sb  Sb32  1  0.777373  0.471939  0.455490  1
  Sb  Sb33  1  0.721845  0.972447  0.544638  1
  Sb  Sb34  1  0.221933  0.527628  0.955205  1
  Sb  Sb35  1  0.722098  0.974037  0.954563  1
