# generated using pymatgen
data_La3Dy3(Sn3Hg2)2
_symmetry_space_group_name_H-M   'P 1'
_cell_length_a   6.57315559
_cell_length_b   6.57315557
_cell_length_c   10.39888639
_cell_angle_alpha   89.50400854
_cell_angle_beta   89.50400504
_cell_angle_gamma   102.67262852
_symmetry_Int_Tables_number   1
_chemical_formula_structural   La3Dy3(Sn3Hg2)2
_chemical_formula_sum   'La3 Dy3 Sn6 Hg4'
_cell_volume   438.31094825
_cell_formula_units_Z   1
loop_
 _symmetry_equiv_pos_site_id
 _symmetry_equiv_pos_as_xyz
  1  'x, y, z'
loop_
 _atom_site_type_symbol
 _atom_site_label
 _atom_site_symmetry_multiplicity
 _atom_site_fract_x
 _atom_site_fract_y
 _atom_site_fract_z
 _atom_site_occupancy
  La  La0  1  0.204204  0.795796  0.000000  1
  La  La1  1  0.793531  0.206469  0.500000  1
  La  La2  1  0.795949  0.204051  0.000000  1
  Dy  Dy3  1  0.628804  0.629856  0.249191  1
  Dy  Dy4  1  0.370144  0.371196  0.750809  1
  Dy  Dy5  1  0.205553  0.794447  0.500000  1
  Sn  Sn6  1  0.016307  0.012126  0.254756  1
  Sn  Sn7  1  0.987874  0.983693  0.745244  1
  Sn  Sn8  1  0.487461  0.062437  0.252747  1
  Sn  Sn9  1  0.937563  0.512539  0.747253  1
  Sn  Sn10  1  0.504952  0.931622  0.745963  1
  Sn  Sn11  1  0.068378  0.495048  0.254037  1
  Hg  Hg12  1  0.315307  0.315731  0.041949  1
  Hg  Hg13  1  0.684269  0.684693  0.958051  1
  Hg  Hg14  1  0.317614  0.317909  0.459798  1
  Hg  Hg15  1  0.682091  0.682386  0.540202  1
