# generated using pymatgen
data_Ho2Ta3P7Rh9
_symmetry_space_group_name_H-M   'P 1'
_cell_length_a   3.92466800
_cell_length_b   9.64452085
_cell_length_c   9.64486501
_cell_angle_alpha   120.00001863
_cell_angle_beta   90.00075207
_cell_angle_gamma   89.99913802
_symmetry_Int_Tables_number   1
_chemical_formula_structural   Ho2Ta3P7Rh9
_chemical_formula_sum   'Ho2 Ta3 P7 Rh9'
_cell_volume   316.16244712
_cell_formula_units_Z   1
loop_
 _symmetry_equiv_pos_site_id
 _symmetry_equiv_pos_as_xyz
  1  'x, y, z'
loop_
 _atom_site_type_symbol
 _atom_site_label
 _atom_site_symmetry_multiplicity
 _atom_site_fract_x
 _atom_site_fract_y
 _atom_site_fract_z
 _atom_site_occupancy
  Ho  Ho0  1  0.261178  0.666683  0.333353  1
  Ho  Ho1  1  0.762220  0.333340  0.666665  1
  Ta  Ta2  1  0.761991  0.094921  0.872813  1
  Ta  Ta3  1  0.761986  0.127192  0.222115  1
  Ta  Ta4  1  0.762011  0.777872  0.905074  1
  P  P5  1  0.262142  0.999982  0.000002  1
  P  P6  1  0.761651  0.876802  0.588442  1
  P  P7  1  0.761617  0.411555  0.288332  1
  P  P8  1  0.761643  0.711656  0.123227  1
  P  P9  1  0.262018  0.117725  0.416344  1
  P  P10  1  0.262015  0.583662  0.701380  1
  P  P11  1  0.261996  0.298607  0.882281  1
  Rh  Rh12  1  0.261851  0.885187  0.161245  1
  Rh  Rh13  1  0.261848  0.838760  0.723945  1
  Rh  Rh14  1  0.261821  0.276052  0.114806  1
  Rh  Rh15  1  0.761908  0.611802  0.557401  1
  Rh  Rh16  1  0.761890  0.442581  0.054387  1
  Rh  Rh17  1  0.761925  0.945637  0.388201  1
  Rh  Rh18  1  0.262078  0.367619  0.439068  1
  Rh  Rh19  1  0.262096  0.560911  0.928544  1
  Rh  Rh20  1  0.262117  0.071457  0.632374  1
