# generated using pymatgen
data_Mg3Sc5(B6Os)4
_symmetry_space_group_name_H-M   'P 1'
_cell_length_a   3.49075600
_cell_length_b   8.83070813
_cell_length_c   11.13360922
_cell_angle_alpha   90.05956124
_cell_angle_beta   90.00000000
_cell_angle_gamma   90.00000000
_symmetry_Int_Tables_number   1
_chemical_formula_structural   Mg3Sc5(B6Os)4
_chemical_formula_sum   'Mg3 Sc5 B24 Os4'
_cell_volume   343.20275311
_cell_formula_units_Z   1
loop_
 _symmetry_equiv_pos_site_id
 _symmetry_equiv_pos_as_xyz
  1  'x, y, z'
loop_
 _atom_site_type_symbol
 _atom_site_label
 _atom_site_symmetry_multiplicity
 _atom_site_fract_x
 _atom_site_fract_y
 _atom_site_fract_z
 _atom_site_occupancy
  Mg  Mg0  1  0.000000  0.945061  0.374647  1
  Mg  Mg1  1  0.000000  0.055605  0.626338  1
  Mg  Mg2  1  0.000000  0.554287  0.875356  1
  Sc  Sc3  1  0.000000  0.178265  0.913229  1
  Sc  Sc4  1  0.000000  0.820637  0.082811  1
  Sc  Sc5  1  0.000000  0.674983  0.589130  1
  Sc  Sc6  1  0.000000  0.324392  0.414882  1
  Sc  Sc7  1  0.000000  0.444277  0.127087  1
  B  B8  1  0.500000  0.370581  0.817346  1
  B  B9  1  0.500000  0.978559  0.212444  1
  B  B10  1  0.500000  0.554747  0.435336  1
  B  B11  1  0.500000  0.293740  0.236529  1
  B  B12  1  0.500000  0.205816  0.736994  1
  B  B13  1  0.500000  0.095456  0.473775  1
  B  B14  1  0.500000  0.795343  0.262965  1
  B  B15  1  0.500000  0.445627  0.565103  1
  B  B16  1  0.500000  0.244679  0.578784  1
  B  B17  1  0.500000  0.480156  0.287270  1
  B  B18  1  0.500000  0.705761  0.762841  1
  B  B19  1  0.500000  0.755483  0.421363  1
  B  B20  1  0.500000  0.520700  0.712865  1
  B  B21  1  0.500000  0.904329  0.526702  1
  B  B22  1  0.500000  0.053237  0.065284  1
  B  B23  1  0.500000  0.599898  0.026481  1
  B  B24  1  0.500000  0.746298  0.919873  1
  B  B25  1  0.500000  0.021754  0.787409  1
  B  B26  1  0.500000  0.400778  0.971831  1
  B  B27  1  0.500000  0.945906  0.934118  1
  B  B28  1  0.500000  0.630971  0.181957  1
  B  B29  1  0.500000  0.252693  0.078520  1
  B  B30  1  0.500000  0.871054  0.681398  1
  B  B31  1  0.500000  0.128517  0.319048  1
  Os  Os32  1  0.000000  0.137835  0.180749  1
  Os  Os33  1  0.000000  0.361438  0.678184  1
  Os  Os34  1  0.000000  0.861755  0.819377  1
  Os  Os35  1  0.000000  0.639377  0.321979  1
