# generated using pymatgen
data_CaYb2ScP3
_symmetry_space_group_name_H-M   'P 1'
_cell_length_a   7.21676841
_cell_length_b   7.44707475
_cell_length_c   7.45038000
_cell_angle_alpha   110.08402146
_cell_angle_beta   108.84150341
_cell_angle_gamma   108.83749680
_symmetry_Int_Tables_number   1
_chemical_formula_structural   CaYb2ScP3
_chemical_formula_sum   'Ca2 Yb4 Sc2 P6'
_cell_volume   310.65072855
_cell_formula_units_Z   2
loop_
 _symmetry_equiv_pos_site_id
 _symmetry_equiv_pos_as_xyz
  1  'x, y, z'
loop_
 _atom_site_type_symbol
 _atom_site_label
 _atom_site_symmetry_multiplicity
 _atom_site_fract_x
 _atom_site_fract_y
 _atom_site_fract_z
 _atom_site_occupancy
  Ca  Ca0  1  0.502759  0.000464  0.634473  1
  Ca  Ca1  1  0.368285  0.365990  0.365527  1
  Yb  Yb2  1  0.503090  0.999306  0.134499  1
  Yb  Yb3  1  0.001771  0.634339  0.499889  1
  Yb  Yb4  1  0.868592  0.864808  0.865501  1
  Yb  Yb5  1  0.001880  0.134449  0.500111  1
  Sc  Sc6  1  0.118964  0.500075  0.999160  1
  Sc  Sc7  1  0.619804  0.500915  0.000840  1
  P  P8  1  0.379085  0.616714  0.765395  1
  P  P9  1  0.879794  0.264526  0.117397  1
  P  P10  1  0.616244  0.736285  0.352602  1
  P  P11  1  0.113689  0.851318  0.234605  1
  P  P12  1  0.262399  0.147131  0.882603  1
  P  P13  1  0.763642  0.383681  0.647398  1
