# generated using pymatgen
data_Li3Yb4AlPd4
_symmetry_space_group_name_H-M   'P 1'
_cell_length_a   4.12095200
_cell_length_b   7.08732112
_cell_length_c   8.40437960
_cell_angle_alpha   89.87443525
_cell_angle_beta   90.00000000
_cell_angle_gamma   90.00000000
_symmetry_Int_Tables_number   1
_chemical_formula_structural   Li3Yb4AlPd4
_chemical_formula_sum   'Li3 Yb4 Al1 Pd4'
_cell_volume   245.46200855
_cell_formula_units_Z   1
loop_
 _symmetry_equiv_pos_site_id
 _symmetry_equiv_pos_as_xyz
  1  'x, y, z'
loop_
 _atom_site_type_symbol
 _atom_site_label
 _atom_site_symmetry_multiplicity
 _atom_site_fract_x
 _atom_site_fract_y
 _atom_site_fract_z
 _atom_site_occupancy
  Li  Li0  1  0.250000  0.133286  0.941206  1
  Li  Li1  1  0.250000  0.634682  0.559181  1
  Li  Li2  1  0.750000  0.867691  0.056320  1
  Yb  Yb3  1  0.250000  0.031726  0.317746  1
  Yb  Yb4  1  0.250000  0.534366  0.179645  1
  Yb  Yb5  1  0.750000  0.962786  0.677328  1
  Yb  Yb6  1  0.750000  0.466674  0.821678  1
  Al  Al7  1  0.750000  0.368866  0.442083  1
  Pd  Pd8  1  0.250000  0.267522  0.606132  1
  Pd  Pd9  1  0.250000  0.760772  0.875290  1
  Pd  Pd10  1  0.750000  0.725290  0.376772  1
  Pd  Pd11  1  0.750000  0.246338  0.146618  1
