# generated using pymatgen
data_LiTm3Zn2Si2Ag
_symmetry_space_group_name_H-M   'P 1'
_cell_length_a   6.88464100
_cell_length_b   6.87923017
_cell_length_c   4.23974000
_cell_angle_alpha   90.00000000
_cell_angle_beta   90.00000000
_cell_angle_gamma   120.02602697
_symmetry_Int_Tables_number   1
_chemical_formula_structural   LiTm3Zn2Si2Ag
_chemical_formula_sum   'Li1 Tm3 Zn2 Si2 Ag1'
_cell_volume   173.85093686
_cell_formula_units_Z   1
loop_
 _symmetry_equiv_pos_site_id
 _symmetry_equiv_pos_as_xyz
  1  'x, y, z'
loop_
 _atom_site_type_symbol
 _atom_site_label
 _atom_site_symmetry_multiplicity
 _atom_site_fract_x
 _atom_site_fract_y
 _atom_site_fract_z
 _atom_site_occupancy
  Li  Li0  1  0.240064  0.000000  0.500000  1
  Tm  Tm1  1  0.575925  0.000000  0.000000  1
  Tm  Tm2  1  0.002998  0.574918  0.000000  1
  Tm  Tm3  1  0.428080  0.425082  0.000000  1
  Zn  Zn4  1  0.000203  0.249804  0.500000  1
  Zn  Zn5  1  0.750398  0.750196  0.500000  1
  Si  Si6  1  0.334406  0.664914  0.500000  1
  Si  Si7  1  0.669493  0.335086  0.500000  1
  Ag  Ag8  1  0.998433  0.000000  0.000000  1
