# generated using pymatgen
data_Dy19Er(Bi3Sb)3
_symmetry_space_group_name_H-M   'P 1'
_cell_length_a   8.20308855
_cell_length_b   9.48319500
_cell_length_c   12.00912771
_cell_angle_alpha   90.00123137
_cell_angle_beta   90.05488126
_cell_angle_gamma   90.00206046
_symmetry_Int_Tables_number   1
_chemical_formula_structural   Dy19Er(Bi3Sb)3
_chemical_formula_sum   'Dy19 Er1 Bi9 Sb3'
_cell_volume   934.20748862
_cell_formula_units_Z   1
loop_
 _symmetry_equiv_pos_site_id
 _symmetry_equiv_pos_as_xyz
  1  'x, y, z'
loop_
 _atom_site_type_symbol
 _atom_site_label
 _atom_site_symmetry_multiplicity
 _atom_site_fract_x
 _atom_site_fract_y
 _atom_site_fract_z
 _atom_site_occupancy
  Dy  Dy0  1  0.352787  0.749885  0.212893  1
  Dy  Dy1  1  0.852841  0.749860  0.286458  1
  Dy  Dy2  1  0.647193  0.249956  0.786771  1
  Dy  Dy3  1  0.148101  0.249962  0.716372  1
  Dy  Dy4  1  0.190293  0.934051  0.442545  1
  Dy  Dy5  1  0.311282  0.062296  0.942800  1
  Dy  Dy6  1  0.808459  0.440120  0.558950  1
  Dy  Dy7  1  0.311160  0.437785  0.942771  1
  Dy  Dy8  1  0.808493  0.059917  0.558976  1
  Dy  Dy9  1  0.689082  0.937176  0.057386  1
  Dy  Dy10  1  0.190310  0.565965  0.442549  1
  Dy  Dy11  1  0.475386  0.249965  0.487870  1
  Dy  Dy12  1  0.972592  0.250049  0.011952  1
  Dy  Dy13  1  0.528691  0.750001  0.512733  1
  Dy  Dy14  1  0.027650  0.749896  0.987940  1
  Dy  Dy15  1  0.318089  0.250002  0.216316  1
  Dy  Dy16  1  0.811589  0.250017  0.278916  1
  Dy  Dy17  1  0.683147  0.749895  0.782191  1
  Dy  Dy18  1  0.183703  0.749998  0.717974  1
  Er  Er19  1  0.688843  0.562920  0.057301  1
  Bi  Bi20  1  0.092177  0.250002  0.456537  1
  Bi  Bi21  1  0.565504  0.995129  0.325556  1
  Bi  Bi22  1  0.065678  0.504029  0.174307  1
  Bi  Bi23  1  0.434018  0.495573  0.674631  1
  Bi  Bi24  1  0.934031  0.003945  0.825859  1
  Bi  Bi25  1  0.433974  0.004405  0.674616  1
  Bi  Bi26  1  0.934056  0.496006  0.825944  1
  Bi  Bi27  1  0.565554  0.504824  0.325483  1
  Bi  Bi28  1  0.065807  0.995941  0.174353  1
  Sb  Sb29  1  0.407781  0.749744  0.958129  1
  Sb  Sb30  1  0.908309  0.750009  0.541597  1
  Sb  Sb31  1  0.593418  0.250679  0.041321  1
