# generated using pymatgen
data_TbHo5CoP12Ir17
_symmetry_space_group_name_H-M   'P 1'
_cell_length_a   3.95291700
_cell_length_b   11.13917100
_cell_length_c   12.79487200
_cell_angle_alpha   90.00000000
_cell_angle_beta   90.00000000
_cell_angle_gamma   90.00000000
_symmetry_Int_Tables_number   1
_chemical_formula_structural   TbHo5CoP12Ir17
_chemical_formula_sum   'Tb1 Ho5 Co1 P12 Ir17'
_cell_volume   563.38659846
_cell_formula_units_Z   1
loop_
 _symmetry_equiv_pos_site_id
 _symmetry_equiv_pos_as_xyz
  1  'x, y, z'
loop_
 _atom_site_type_symbol
 _atom_site_label
 _atom_site_symmetry_multiplicity
 _atom_site_fract_x
 _atom_site_fract_y
 _atom_site_fract_z
 _atom_site_occupancy
  Tb  Tb0  1  0.500000  0.000000  0.477257  1
  Ho  Ho1  1  0.000000  0.500000  0.522559  1
  Ho  Ho2  1  0.500000  0.818712  0.202226  1
  Ho  Ho3  1  0.500000  0.181288  0.202226  1
  Ho  Ho4  1  0.000000  0.688289  0.798074  1
  Ho  Ho5  1  0.000000  0.311711  0.798074  1
  Co  Co6  1  0.500000  0.000000  0.024590  1
  P  P7  1  0.500000  0.315259  0.618225  1
  P  P8  1  0.500000  0.684741  0.618225  1
  P  P9  1  0.000000  0.184669  0.381112  1
  P  P10  1  0.000000  0.815331  0.381112  1
  P  P11  1  0.500000  0.500000  0.876150  1
  P  P12  1  0.000000  0.000000  0.121464  1
  P  P13  1  0.500000  0.854371  0.896568  1
  P  P14  1  0.500000  0.145629  0.896568  1
  P  P15  1  0.000000  0.657086  0.106103  1
  P  P16  1  0.000000  0.342914  0.106103  1
  P  P17  1  0.500000  0.500000  0.358441  1
  P  P18  1  0.000000  0.000000  0.640642  1
  Ir  Ir19  1  0.000000  0.500000  0.971679  1
  Ir  Ir20  1  0.500000  0.294695  0.429453  1
  Ir  Ir21  1  0.500000  0.705305  0.429453  1
  Ir  Ir22  1  0.000000  0.207956  0.570281  1
  Ir  Ir23  1  0.000000  0.792044  0.570281  1
  Ir  Ir24  1  0.500000  0.869919  0.714069  1
  Ir  Ir25  1  0.500000  0.130081  0.714069  1
  Ir  Ir26  1  0.000000  0.630866  0.285206  1
  Ir  Ir27  1  0.000000  0.369134  0.285206  1
  Ir  Ir28  1  0.500000  0.333607  0.001380  1
  Ir  Ir29  1  0.500000  0.666393  0.001380  1
  Ir  Ir30  1  0.000000  0.157586  0.001681  1
  Ir  Ir31  1  0.000000  0.842414  0.001681  1
  Ir  Ir32  1  0.500000  0.500000  0.179495  1
  Ir  Ir33  1  0.000000  0.000000  0.820166  1
  Ir  Ir34  1  0.500000  0.500000  0.699995  1
  Ir  Ir35  1  0.000000  0.000000  0.298804  1
