# generated using pymatgen
data_Tb3DyTm8Co5Sn
_symmetry_space_group_name_H-M   'P 1'
_cell_length_a   8.22426647
_cell_length_b   8.21949020
_cell_length_c   8.21538390
_cell_angle_alpha   107.01912943
_cell_angle_beta   110.78137995
_cell_angle_gamma   110.62515198
_symmetry_Int_Tables_number   1
_chemical_formula_structural   Tb3DyTm8Co5Sn
_chemical_formula_sum   'Tb3 Dy1 Tm8 Co5 Sn1'
_cell_volume   427.01042398
_cell_formula_units_Z   1
loop_
 _symmetry_equiv_pos_site_id
 _symmetry_equiv_pos_as_xyz
  1  'x, y, z'
loop_
 _atom_site_type_symbol
 _atom_site_label
 _atom_site_symmetry_multiplicity
 _atom_site_fract_x
 _atom_site_fract_y
 _atom_site_fract_z
 _atom_site_occupancy
  Tb  Tb0  1  0.478909  0.291245  0.188178  1
  Tb  Tb1  1  0.106083  0.292983  0.812471  1
  Tb  Tb2  1  0.894755  0.710041  0.185206  1
  Dy  Dy3  1  0.808240  0.206425  0.015780  1
  Tm  Tm4  1  0.520293  0.707997  0.811636  1
  Tm  Tm5  1  0.309443  0.622425  0.316885  1
  Tm  Tm6  1  0.307469  0.992362  0.686126  1
  Tm  Tm7  1  0.691557  0.379194  0.685169  1
  Tm  Tm8  1  0.692221  0.006156  0.314245  1
  Tm  Tm9  1  0.194726  0.210631  0.404404  1
  Tm  Tm10  1  0.808048  0.791711  0.600968  1
  Tm  Tm11  1  0.193993  0.790451  0.983530  1
  Co  Co12  1  0.499329  0.614496  0.111723  1
  Co  Co13  1  0.496846  0.388436  0.883169  1
  Co  Co14  1  0.374587  0.999800  0.375805  1
  Co  Co15  1  0.620905  0.998116  0.621528  1
  Co  Co16  1  0.001874  0.997228  0.002427  1
  Sn  Sn17  1  0.000721  0.500302  0.500752  1
