# generated using pymatgen
data_Tb20FeCo(Bi4Ru)2
_symmetry_space_group_name_H-M   'P 1'
_cell_length_a   8.03703757
_cell_length_b   8.99381600
_cell_length_c   12.48318134
_cell_angle_alpha   90.00000000
_cell_angle_beta   90.10970601
_cell_angle_gamma   90.00000000
_symmetry_Int_Tables_number   1
_chemical_formula_structural   Tb20FeCo(Bi4Ru)2
_chemical_formula_sum   'Tb20 Fe1 Co1 Bi8 Ru2'
_cell_volume   902.32809560
_cell_formula_units_Z   1
loop_
 _symmetry_equiv_pos_site_id
 _symmetry_equiv_pos_as_xyz
  1  'x, y, z'
loop_
 _atom_site_type_symbol
 _atom_site_label
 _atom_site_symmetry_multiplicity
 _atom_site_fract_x
 _atom_site_fract_y
 _atom_site_fract_z
 _atom_site_occupancy
  Tb  Tb0  1  0.845717  0.750000  0.799915  1
  Tb  Tb1  1  0.155574  0.250000  0.205233  1
  Tb  Tb2  1  0.344394  0.250000  0.706448  1
  Tb  Tb3  1  0.652861  0.750000  0.299782  1
  Tb  Tb4  1  0.381518  0.750000  0.690887  1
  Tb  Tb5  1  0.621306  0.250000  0.306425  1
  Tb  Tb6  1  0.878232  0.250000  0.807299  1
  Tb  Tb7  1  0.119019  0.750000  0.189263  1
  Tb  Tb8  1  0.943250  0.750000  0.504274  1
  Tb  Tb9  1  0.053716  0.250000  0.496292  1
  Tb  Tb10  1  0.449696  0.250000  0.996664  1
  Tb  Tb11  1  0.550649  0.750000  0.003832  1
  Tb  Tb12  1  0.674305  0.034658  0.562932  1
  Tb  Tb13  1  0.324254  0.955825  0.436498  1
  Tb  Tb14  1  0.176995  0.957749  0.935226  1
  Tb  Tb15  1  0.324254  0.544175  0.436498  1
  Tb  Tb16  1  0.824121  0.035762  0.063356  1
  Tb  Tb17  1  0.674305  0.465342  0.562932  1
  Tb  Tb18  1  0.824121  0.464238  0.063356  1
  Tb  Tb19  1  0.176995  0.542251  0.935226  1
  Fe  Fe20  1  0.573465  0.750000  0.511479  1
  Co  Co21  1  0.933316  0.750000  0.009010  1
  Bi  Bi22  1  0.572461  0.492554  0.827118  1
  Bi  Bi23  1  0.428797  0.507974  0.172764  1
  Bi  Bi24  1  0.070660  0.507919  0.672912  1
  Bi  Bi25  1  0.428797  0.992026  0.172764  1
  Bi  Bi26  1  0.928481  0.492895  0.326768  1
  Bi  Bi27  1  0.572461  0.007446  0.827118  1
  Bi  Bi28  1  0.928481  0.007105  0.326768  1
  Bi  Bi29  1  0.070660  0.992081  0.672912  1
  Ru  Ru30  1  0.425252  0.250000  0.488713  1
  Ru  Ru31  1  0.071888  0.250000  0.989335  1
