# generated using pymatgen
data_Ba4Np3PaF28
_symmetry_space_group_name_H-M   'P 1'
_cell_length_a   10.02723554
_cell_length_b   6.03342147
_cell_length_c   10.28558600
_cell_angle_alpha   87.43497302
_cell_angle_beta   89.92096371
_cell_angle_gamma   90.15603091
_symmetry_Int_Tables_number   1
_chemical_formula_structural   Ba4Np3PaF28
_chemical_formula_sum   'Ba4 Np3 Pa1 F28'
_cell_volume   621.63644833
_cell_formula_units_Z   1
loop_
 _symmetry_equiv_pos_site_id
 _symmetry_equiv_pos_as_xyz
  1  'x, y, z'
loop_
 _atom_site_type_symbol
 _atom_site_label
 _atom_site_symmetry_multiplicity
 _atom_site_fract_x
 _atom_site_fract_y
 _atom_site_fract_z
 _atom_site_occupancy
  Ba  Ba0  1  0.311846  0.273216  0.514315  1
  Ba  Ba1  1  0.814730  0.730734  0.986953  1
  Ba  Ba2  1  0.688770  0.729969  0.489560  1
  Ba  Ba3  1  0.188178  0.272639  0.012925  1
  Np  Np4  1  0.386696  0.766124  0.785317  1
  Np  Np5  1  0.885058  0.234993  0.714568  1
  Np  Np6  1  0.114926  0.765769  0.285369  1
  Pa  Pa7  1  0.613301  0.235050  0.215645  1
  F  F8  1  0.391902  0.062845  0.886468  1
  F  F9  1  0.049598  0.349374  0.612327  1
  F  F10  1  0.726641  0.544510  0.242470  1
  F  F11  1  0.280564  0.447812  0.762851  1
  F  F12  1  0.494173  0.992247  0.648628  1
  F  F13  1  0.762154  0.302187  0.545586  1
  F  F14  1  0.772824  0.066060  0.312650  1
  F  F15  1  0.991773  0.006807  0.850175  1
  F  F16  1  0.444425  0.341993  0.107750  1
  F  F17  1  0.217828  0.447227  0.263459  1
  F  F18  1  0.108763  0.061230  0.388094  1
  F  F19  1  0.607918  0.933623  0.112497  1
  F  F20  1  0.273800  0.917177  0.188399  1
  F  F21  1  0.025317  0.578168  0.124191  1
  F  F22  1  0.507783  0.012708  0.358757  1
  F  F23  1  0.009201  0.992956  0.147290  1
  F  F24  1  0.229226  0.916565  0.686819  1
  F  F25  1  0.892344  0.940205  0.611346  1
  F  F26  1  0.517415  0.435942  0.368366  1
  F  F27  1  0.952224  0.649517  0.389608  1
  F  F28  1  0.973518  0.420358  0.876207  1
  F  F29  1  0.727301  0.081631  0.811898  1
  F  F30  1  0.475906  0.576104  0.625193  1
  F  F31  1  0.263571  0.699322  0.953403  1
  F  F32  1  0.236606  0.697680  0.454032  1
  F  F33  1  0.731264  0.309234  0.042082  1
  F  F34  1  0.550853  0.654137  0.888193  1
  F  F35  1  0.781598  0.553889  0.736610  1
