# generated using pymatgen
data_Er16Ga6RuPt
_symmetry_space_group_name_H-M   'P 1'
_cell_length_a   9.98032200
_cell_length_b   9.98032303
_cell_length_c   6.95505700
_cell_angle_alpha   90.00000000
_cell_angle_beta   90.00000000
_cell_angle_gamma   120.00000322
_symmetry_Int_Tables_number   1
_chemical_formula_structural   Er16Ga6RuPt
_chemical_formula_sum   'Er16 Ga6 Ru1 Pt1'
_cell_volume   599.95746672
_cell_formula_units_Z   1
loop_
 _symmetry_equiv_pos_site_id
 _symmetry_equiv_pos_as_xyz
  1  'x, y, z'
loop_
 _atom_site_type_symbol
 _atom_site_label
 _atom_site_symmetry_multiplicity
 _atom_site_fract_x
 _atom_site_fract_y
 _atom_site_fract_z
 _atom_site_occupancy
  Er  Er0  1  0.000000  0.000000  0.265222  1
  Er  Er1  1  0.000000  0.000000  0.766730  1
  Er  Er2  1  0.170071  0.829929  0.990411  1
  Er  Er3  1  0.829099  0.170901  0.491518  1
  Er  Er4  1  0.170071  0.340142  0.990411  1
  Er  Er5  1  0.659858  0.829929  0.990411  1
  Er  Er6  1  0.341801  0.170901  0.491518  1
  Er  Er7  1  0.829099  0.658199  0.491518  1
  Er  Er8  1  0.333333  0.666667  0.661034  1
  Er  Er9  1  0.666667  0.333333  0.161917  1
  Er  Er10  1  0.468157  0.531843  0.297111  1
  Er  Er11  1  0.535289  0.464711  0.794145  1
  Er  Er12  1  0.468157  0.936313  0.297111  1
  Er  Er13  1  0.063687  0.531843  0.297111  1
  Er  Er14  1  0.929422  0.464711  0.794145  1
  Er  Er15  1  0.535289  0.070578  0.794145  1
  Ga  Ga16  1  0.164379  0.835621  0.543688  1
  Ga  Ga17  1  0.836564  0.163436  0.043677  1
  Ga  Ga18  1  0.164379  0.328757  0.543688  1
  Ga  Ga19  1  0.671243  0.835621  0.543688  1
  Ga  Ga20  1  0.326872  0.163436  0.043677  1
  Ga  Ga21  1  0.836564  0.673128  0.043677  1
  Ru  Ru22  1  0.666667  0.333333  0.552929  1
  Pt  Pt23  1  0.333333  0.666667  0.056636  1
