# generated using pymatgen
data_Li2In6BRh4
_symmetry_space_group_name_H-M   'P 1'
_cell_length_a   8.65836720
_cell_length_b   8.66274281
_cell_length_c   8.65968189
_cell_angle_alpha   59.98129873
_cell_angle_beta   60.01034439
_cell_angle_gamma   60.01160847
_symmetry_Int_Tables_number   1
_chemical_formula_structural   Li2In6BRh4
_chemical_formula_sum   'Li4 In12 B2 Rh8'
_cell_volume   459.29207974
_cell_formula_units_Z   2
loop_
 _symmetry_equiv_pos_site_id
 _symmetry_equiv_pos_as_xyz
  1  'x, y, z'
loop_
 _atom_site_type_symbol
 _atom_site_label
 _atom_site_symmetry_multiplicity
 _atom_site_fract_x
 _atom_site_fract_y
 _atom_site_fract_z
 _atom_site_occupancy
  Li  Li0  1  0.125000  0.125000  0.625000  1
  Li  Li1  1  0.125000  0.625000  0.125000  1
  Li  Li2  1  0.125000  0.125000  0.125000  1
  Li  Li3  1  0.625000  0.125000  0.125000  1
  In  In4  1  0.956600  0.956634  0.543360  1
  In  In5  1  0.293410  0.706602  0.293373  1
  In  In6  1  0.706589  0.293427  0.706606  1
  In  In7  1  0.293400  0.293366  0.706640  1
  In  In8  1  0.706614  0.293352  0.293398  1
  In  In9  1  0.706579  0.706556  0.293438  1
  In  In10  1  0.956639  0.543390  0.543295  1
  In  In11  1  0.543386  0.956648  0.956602  1
  In  In12  1  0.543411  0.956573  0.543394  1
  In  In13  1  0.543421  0.543444  0.956562  1
  In  In14  1  0.956590  0.543398  0.956627  1
  In  In15  1  0.293361  0.706610  0.706705  1
  B  B16  1  0.250023  0.249992  0.250037  1
  B  B17  1  0.999977  0.000008  0.999963  1
  Rh  Rh18  1  0.903161  0.903072  0.903244  1
  Rh  Rh19  1  0.903145  0.290458  0.903221  1
  Rh  Rh20  1  0.290455  0.903089  0.903220  1
  Rh  Rh21  1  0.346847  0.346876  0.959524  1
  Rh  Rh22  1  0.959545  0.346911  0.346780  1
  Rh  Rh23  1  0.903153  0.903124  0.290476  1
  Rh  Rh24  1  0.346855  0.959542  0.346779  1
  Rh  Rh25  1  0.346839  0.346928  0.346756  1
