# generated using pymatgen
data_La4TbOs2
_symmetry_space_group_name_H-M   'P 1'
_cell_length_a   6.73451467
_cell_length_b   7.34762104
_cell_length_c   8.99766601
_cell_angle_alpha   94.68767221
_cell_angle_beta   111.97715889
_cell_angle_gamma   90.00000163
_symmetry_Int_Tables_number   1
_chemical_formula_structural   La4TbOs2
_chemical_formula_sum   'La8 Tb2 Os4'
_cell_volume   411.26866553
_cell_formula_units_Z   2
loop_
 _symmetry_equiv_pos_site_id
 _symmetry_equiv_pos_as_xyz
  1  'x, y, z'
loop_
 _atom_site_type_symbol
 _atom_site_label
 _atom_site_symmetry_multiplicity
 _atom_site_fract_x
 _atom_site_fract_y
 _atom_site_fract_z
 _atom_site_occupancy
  La  La0  1  0.977790  0.909824  0.181130  1
  La  La1  1  0.796660  0.590176  0.818870  1
  La  La2  1  0.022210  0.090176  0.818870  1
  La  La3  1  0.203340  0.409824  0.181130  1
  La  La4  1  0.636286  0.818769  0.426851  1
  La  La5  1  0.209435  0.681231  0.573149  1
  La  La6  1  0.363714  0.181231  0.573149  1
  La  La7  1  0.790565  0.318769  0.426851  1
  Tb  Tb8  1  0.434634  0.750000  0.000000  1
  Tb  Tb9  1  0.565366  0.250000  0.000000  1
  Os  Os10  1  0.819801  0.573496  0.215905  1
  Os  Os11  1  0.603895  0.926504  0.784095  1
  Os  Os12  1  0.180199  0.426504  0.784095  1
  Os  Os13  1  0.396105  0.073496  0.215905  1
