# generated using pymatgen
data_Pr3Pd2Pt7
_symmetry_space_group_name_H-M   'P 1'
_cell_length_a   9.50976371
_cell_length_b   9.50976251
_cell_length_c   9.50976300
_cell_angle_alpha   33.34310852
_cell_angle_beta   33.34310851
_cell_angle_gamma   33.34311685
_symmetry_Int_Tables_number   1
_chemical_formula_structural   Pr3Pd2Pt7
_chemical_formula_sum   'Pr3 Pd2 Pt7'
_cell_volume   231.35261241
_cell_formula_units_Z   1
loop_
 _symmetry_equiv_pos_site_id
 _symmetry_equiv_pos_as_xyz
  1  'x, y, z'
loop_
 _atom_site_type_symbol
 _atom_site_label
 _atom_site_symmetry_multiplicity
 _atom_site_fract_x
 _atom_site_fract_y
 _atom_site_fract_z
 _atom_site_occupancy
  Pr  Pr0  1  0.360687  0.360687  0.360687  1
  Pr  Pr1  1  0.500000  0.500000  0.500000  1
  Pr  Pr2  1  0.639313  0.639313  0.639313  1
  Pd  Pd3  1  0.167108  0.167108  0.167108  1
  Pd  Pd4  1  0.832892  0.832892  0.832892  1
  Pt  Pt5  1  0.000000  0.000000  0.000000  1
  Pt  Pt6  1  0.581374  0.086111  0.086113  1
  Pt  Pt7  1  0.086111  0.581374  0.086113  1
  Pt  Pt8  1  0.913888  0.913888  0.418626  1
  Pt  Pt9  1  0.086112  0.086112  0.581374  1
  Pt  Pt10  1  0.913889  0.418626  0.913887  1
  Pt  Pt11  1  0.418626  0.913889  0.913887  1
