# generated using pymatgen
data_NdEr3(MgIr)4
_symmetry_space_group_name_H-M   'P 1'
_cell_length_a   4.12245700
_cell_length_b   7.12788805
_cell_length_c   8.49623000
_cell_angle_alpha   89.90379812
_cell_angle_beta   90.00000000
_cell_angle_gamma   90.00000000
_symmetry_Int_Tables_number   1
_chemical_formula_structural   NdEr3(MgIr)4
_chemical_formula_sum   'Nd1 Er3 Mg4 Ir4'
_cell_volume   249.65637065
_cell_formula_units_Z   1
loop_
 _symmetry_equiv_pos_site_id
 _symmetry_equiv_pos_as_xyz
  1  'x, y, z'
loop_
 _atom_site_type_symbol
 _atom_site_label
 _atom_site_symmetry_multiplicity
 _atom_site_fract_x
 _atom_site_fract_y
 _atom_site_fract_z
 _atom_site_occupancy
  Nd  Nd0  1  0.250000  0.538657  0.175831  1
  Er  Er1  1  0.750000  0.458920  0.823033  1
  Er  Er2  1  0.750000  0.960828  0.673484  1
  Er  Er3  1  0.250000  0.041708  0.328893  1
  Mg  Mg4  1  0.250000  0.635606  0.560321  1
  Mg  Mg5  1  0.750000  0.363187  0.443702  1
  Mg  Mg6  1  0.750000  0.865948  0.056079  1
  Mg  Mg7  1  0.250000  0.132763  0.938221  1
  Ir  Ir8  1  0.250000  0.751911  0.865177  1
  Ir  Ir9  1  0.750000  0.240604  0.130269  1
  Ir  Ir10  1  0.750000  0.757727  0.374188  1
  Ir  Ir11  1  0.250000  0.252144  0.630804  1
