# generated using pymatgen
data_DyTh(In2Pd3)2
_symmetry_space_group_name_H-M   'P 1'
_cell_length_a   4.68498300
_cell_length_b   9.88702500
_cell_length_c   10.37794700
_cell_angle_alpha   90.00000000
_cell_angle_beta   90.00000000
_cell_angle_gamma   90.00000000
_symmetry_Int_Tables_number   1
_chemical_formula_structural   DyTh(In2Pd3)2
_chemical_formula_sum   'Dy2 Th2 In8 Pd12'
_cell_volume   480.71215112
_cell_formula_units_Z   2
loop_
 _symmetry_equiv_pos_site_id
 _symmetry_equiv_pos_as_xyz
  1  'x, y, z'
loop_
 _atom_site_type_symbol
 _atom_site_label
 _atom_site_symmetry_multiplicity
 _atom_site_fract_x
 _atom_site_fract_y
 _atom_site_fract_z
 _atom_site_occupancy
  Dy  Dy0  1  0.750000  0.556504  0.275910  1
  Dy  Dy1  1  0.750000  0.943496  0.775910  1
  Th  Th2  1  0.250000  0.445764  0.726466  1
  Th  Th3  1  0.250000  0.054236  0.226466  1
  In  In4  1  0.250000  0.885967  0.515956  1
  In  In5  1  0.250000  0.614033  0.015956  1
  In  In6  1  0.750000  0.113879  0.488283  1
  In  In7  1  0.750000  0.386121  0.988283  1
  In  In8  1  0.250000  0.158701  0.894053  1
  In  In9  1  0.250000  0.341299  0.394053  1
  In  In10  1  0.750000  0.831554  0.100650  1
  In  In11  1  0.750000  0.668446  0.600650  1
  Pd  Pd12  1  0.250000  0.145837  0.623625  1
  Pd  Pd13  1  0.250000  0.354163  0.123625  1
  Pd  Pd14  1  0.750000  0.857184  0.373840  1
  Pd  Pd15  1  0.750000  0.642816  0.873840  1
  Pd  Pd16  1  0.250000  0.742518  0.741946  1
  Pd  Pd17  1  0.250000  0.757482  0.241946  1
  Pd  Pd18  1  0.750000  0.256498  0.258898  1
  Pd  Pd19  1  0.750000  0.243502  0.758898  1
  Pd  Pd20  1  0.250000  0.895518  0.973589  1
  Pd  Pd21  1  0.250000  0.604482  0.473589  1
  Pd  Pd22  1  0.750000  0.101979  0.026784  1
  Pd  Pd23  1  0.750000  0.398021  0.526784  1
