# generated using pymatgen
data_YbPrAl8(SiAu2)2
_symmetry_space_group_name_H-M   'P 1'
_cell_length_a   6.09445900
_cell_length_b   6.09445900
_cell_length_c   8.29499000
_cell_angle_alpha   90.00000000
_cell_angle_beta   90.00000000
_cell_angle_gamma   90.00000000
_symmetry_Int_Tables_number   1
_chemical_formula_structural   YbPrAl8(SiAu2)2
_chemical_formula_sum   'Yb1 Pr1 Al8 Si2 Au4'
_cell_volume   308.09608960
_cell_formula_units_Z   1
loop_
 _symmetry_equiv_pos_site_id
 _symmetry_equiv_pos_as_xyz
  1  'x, y, z'
loop_
 _atom_site_type_symbol
 _atom_site_label
 _atom_site_symmetry_multiplicity
 _atom_site_fract_x
 _atom_site_fract_y
 _atom_site_fract_z
 _atom_site_occupancy
  Yb  Yb0  1  0.250000  0.750000  0.500000  1
  Pr  Pr1  1  0.750000  0.250000  0.500000  1
  Al  Al2  1  0.500216  0.501473  0.178666  1
  Al  Al3  1  0.999784  0.501473  0.178666  1
  Al  Al4  1  0.500216  0.998527  0.178666  1
  Al  Al5  1  0.999784  0.998527  0.178666  1
  Al  Al6  1  0.001473  0.000216  0.821333  1
  Al  Al7  1  0.498527  0.000216  0.821333  1
  Al  Al8  1  0.001473  0.499784  0.821333  1
  Al  Al9  1  0.498527  0.499784  0.821333  1
  Si  Si10  1  0.750000  0.750000  0.352728  1
  Si  Si11  1  0.250000  0.250000  0.647273  1
  Au  Au12  1  0.750000  0.250000  0.000000  1
  Au  Au13  1  0.250000  0.750000  0.000000  1
  Au  Au14  1  0.250000  0.250000  0.350652  1
  Au  Au15  1  0.750000  0.750000  0.649349  1
