# generated using pymatgen
data_Er3Lu3Th2(CdIr)2
_symmetry_space_group_name_H-M   'P 1'
_cell_length_a   9.64321597
_cell_length_b   9.64321589
_cell_length_c   9.64321700
_cell_angle_alpha   59.99999963
_cell_angle_beta   59.99999991
_cell_angle_gamma   60.00000362
_symmetry_Int_Tables_number   1
_chemical_formula_structural   Er3Lu3Th2(CdIr)2
_chemical_formula_sum   'Er6 Lu6 Th4 Cd4 Ir4'
_cell_volume   634.08975398
_cell_formula_units_Z   2
loop_
 _symmetry_equiv_pos_site_id
 _symmetry_equiv_pos_as_xyz
  1  'x, y, z'
loop_
 _atom_site_type_symbol
 _atom_site_label
 _atom_site_symmetry_multiplicity
 _atom_site_fract_x
 _atom_site_fract_y
 _atom_site_fract_z
 _atom_site_occupancy
  Er  Er0  1  0.185302  0.814698  0.814698  1
  Er  Er1  1  0.814698  0.185302  0.185302  1
  Er  Er2  1  0.814698  0.185302  0.814698  1
  Er  Er3  1  0.185302  0.814698  0.185302  1
  Er  Er4  1  0.814698  0.814698  0.185302  1
  Er  Er5  1  0.185302  0.185302  0.814698  1
  Lu  Lu6  1  0.063682  0.436318  0.436318  1
  Lu  Lu7  1  0.436318  0.063682  0.063682  1
  Lu  Lu8  1  0.436318  0.063682  0.436318  1
  Lu  Lu9  1  0.063682  0.436318  0.063682  1
  Lu  Lu10  1  0.436318  0.436318  0.063682  1
  Lu  Lu11  1  0.063682  0.063682  0.436318  1
  Th  Th12  1  0.600943  0.600943  0.600943  1
  Th  Th13  1  0.600943  0.600943  0.197172  1
  Th  Th14  1  0.600943  0.197172  0.600943  1
  Th  Th15  1  0.197172  0.600943  0.600943  1
  Cd  Cd16  1  0.833108  0.833108  0.833108  1
  Cd  Cd17  1  0.833108  0.833108  0.500675  1
  Cd  Cd18  1  0.833108  0.500675  0.833108  1
  Cd  Cd19  1  0.500675  0.833108  0.833108  1
  Ir  Ir20  1  0.392081  0.392081  0.392081  1
  Ir  Ir21  1  0.392081  0.392081  0.823754  1
  Ir  Ir22  1  0.392081  0.823754  0.392081  1
  Ir  Ir23  1  0.823754  0.392081  0.392081  1
