# generated using pymatgen
data_Cs2RbTmAs2
_symmetry_space_group_name_H-M   'P 1'
_cell_length_a   9.94920537
_cell_length_b   9.94920472
_cell_length_c   9.94920596
_cell_angle_alpha   130.68388832
_cell_angle_beta   136.38312382
_cell_angle_gamma   67.92290346
_symmetry_Int_Tables_number   1
_chemical_formula_structural   Cs2RbTmAs2
_chemical_formula_sum   'Cs4 Rb2 Tm2 As4'
_cell_volume   506.41521676
_cell_formula_units_Z   2
loop_
 _symmetry_equiv_pos_site_id
 _symmetry_equiv_pos_as_xyz
  1  'x, y, z'
loop_
 _atom_site_type_symbol
 _atom_site_label
 _atom_site_symmetry_multiplicity
 _atom_site_fract_x
 _atom_site_fract_y
 _atom_site_fract_z
 _atom_site_occupancy
  Cs  Cs0  1  0.687598  0.465224  0.777627  1
  Cs  Cs1  1  0.812402  0.090029  0.277627  1
  Cs  Cs2  1  0.187598  0.909971  0.722373  1
  Cs  Cs3  1  0.312402  0.534776  0.222373  1
  Rb  Rb4  1  0.750000  0.000000  0.750000  1
  Rb  Rb5  1  0.250000  0.000000  0.250000  1
  Tm  Tm6  1  0.250000  0.500000  0.750000  1
  Tm  Tm7  1  0.750000  0.500000  0.250000  1
  As  As8  1  0.409607  0.224134  0.814526  1
  As  As9  1  0.590393  0.775866  0.185474  1
  As  As10  1  0.090393  0.404919  0.314526  1
  As  As11  1  0.909607  0.595081  0.685474  1
