# generated using pymatgen
data_Ho3ErGa18(Co2Ni)2
_symmetry_space_group_name_H-M   'P 1'
_cell_length_a   7.36870878
_cell_length_b   7.36903012
_cell_length_c   9.34638961
_cell_angle_alpha   89.94748072
_cell_angle_beta   89.94461735
_cell_angle_gamma   119.79600258
_symmetry_Int_Tables_number   1
_chemical_formula_structural   Ho3ErGa18(Co2Ni)2
_chemical_formula_sum   'Ho3 Er1 Ga18 Co4 Ni2'
_cell_volume   440.41748025
_cell_formula_units_Z   1
loop_
 _symmetry_equiv_pos_site_id
 _symmetry_equiv_pos_as_xyz
  1  'x, y, z'
loop_
 _atom_site_type_symbol
 _atom_site_label
 _atom_site_symmetry_multiplicity
 _atom_site_fract_x
 _atom_site_fract_y
 _atom_site_fract_z
 _atom_site_occupancy
  Ho  Ho0  1  0.503310  0.831521  0.750056  1
  Ho  Ho1  1  0.497248  0.168899  0.249927  1
  Ho  Ho2  1  0.168585  0.496851  0.249931  1
  Er  Er3  1  0.831139  0.502839  0.750109  1
  Ga  Ga4  1  0.163341  0.949523  0.748294  1
  Ga  Ga5  1  0.836820  0.051123  0.249980  1
  Ga  Ga6  1  0.050248  0.836523  0.251728  1
  Ga  Ga7  1  0.948824  0.163351  0.750020  1
  Ga  Ga8  1  0.622013  0.621428  0.248583  1
  Ga  Ga9  1  0.378774  0.378053  0.751421  1
  Ga  Ga10  1  0.167216  0.169230  0.059715  1
  Ga  Ga11  1  0.834638  0.834351  0.559555  1
  Ga  Ga12  1  0.830785  0.832628  0.940202  1
  Ga  Ga13  1  0.165507  0.165360  0.440538  1
  Ga  Ga14  1  0.500455  0.833915  0.073122  1
  Ga  Ga15  1  0.501141  0.163848  0.573257  1
  Ga  Ga16  1  0.165898  0.499526  0.926809  1
  Ga  Ga17  1  0.836320  0.499011  0.426920  1
  Ga  Ga18  1  0.503511  0.168282  0.927011  1
  Ga  Ga19  1  0.498713  0.836081  0.426660  1
  Ga  Ga20  1  0.831915  0.496664  0.072765  1
  Ga  Ga21  1  0.163724  0.501284  0.573411  1
  Co  Co22  1  0.500143  0.499880  0.999925  1
  Co  Co23  1  0.828898  0.171073  0.500065  1
  Co  Co24  1  0.829144  0.170798  0.999930  1
  Co  Co25  1  0.171118  0.828710  0.500068  1
  Ni  Ni26  1  0.170626  0.829231  0.999950  1
  Ni  Ni27  1  0.499946  0.500019  0.500050  1
