# generated using pymatgen
data_CaSc4U3(ReB6)4
_symmetry_space_group_name_H-M   'P 1'
_cell_length_a   3.60223400
_cell_length_b   8.97628300
_cell_length_c   11.33336826
_cell_angle_alpha   90.13915863
_cell_angle_beta   90.00000000
_cell_angle_gamma   90.00000000
_symmetry_Int_Tables_number   1
_chemical_formula_structural   CaSc4U3(ReB6)4
_chemical_formula_sum   'Ca1 Sc4 U3 Re4 B24'
_cell_volume   366.45966232
_cell_formula_units_Z   1
loop_
 _symmetry_equiv_pos_site_id
 _symmetry_equiv_pos_as_xyz
  1  'x, y, z'
loop_
 _atom_site_type_symbol
 _atom_site_label
 _atom_site_symmetry_multiplicity
 _atom_site_fract_x
 _atom_site_fract_y
 _atom_site_fract_z
 _atom_site_occupancy
  Ca  Ca0  1  0.000000  0.180919  0.913465  1
  Sc  Sc1  1  0.000000  0.946285  0.374205  1
  Sc  Sc2  1  0.000000  0.055107  0.627392  1
  Sc  Sc3  1  0.000000  0.443866  0.124917  1
  Sc  Sc4  1  0.000000  0.553559  0.873912  1
  U  U5  1  0.000000  0.320969  0.414299  1
  U  U6  1  0.000000  0.678245  0.586622  1
  U  U7  1  0.000000  0.822783  0.085461  1
  Re  Re8  1  0.000000  0.639954  0.320383  1
  Re  Re9  1  0.000000  0.363009  0.676360  1
  Re  Re10  1  0.000000  0.140362  0.184208  1
  Re  Re11  1  0.000000  0.855843  0.818176  1
  B  B12  1  0.500000  0.553837  0.433433  1
  B  B13  1  0.500000  0.446994  0.565409  1
  B  B14  1  0.500000  0.052529  0.068576  1
  B  B15  1  0.500000  0.943666  0.933407  1
  B  B16  1  0.500000  0.753064  0.420267  1
  B  B17  1  0.500000  0.247200  0.580317  1
  B  B18  1  0.500000  0.252946  0.081138  1
  B  B19  1  0.500000  0.746713  0.920313  1
  B  B20  1  0.500000  0.794699  0.264427  1
  B  B21  1  0.500000  0.205949  0.734340  1
  B  B22  1  0.500000  0.295119  0.235389  1
  B  B23  1  0.500000  0.704434  0.764402  1
  B  B24  1  0.500000  0.630727  0.181966  1
  B  B25  1  0.500000  0.370960  0.816246  1
  B  B26  1  0.500000  0.130763  0.318130  1
  B  B27  1  0.500000  0.868847  0.682802  1
  B  B28  1  0.500000  0.980610  0.214010  1
  B  B29  1  0.500000  0.018302  0.785693  1
  B  B30  1  0.500000  0.481020  0.285448  1
  B  B31  1  0.500000  0.519139  0.713467  1
  B  B32  1  0.500000  0.599526  0.027404  1
  B  B33  1  0.500000  0.401986  0.972899  1
  B  B34  1  0.500000  0.101801  0.472945  1
  B  B35  1  0.500000  0.898266  0.528176  1
