# generated using pymatgen
data_Zr10BeSn(BiPb2)2
_symmetry_space_group_name_H-M   'P 1'
_cell_length_a   8.85508403
_cell_length_b   8.85604037
_cell_length_c   5.99884302
_cell_angle_alpha   90.01006121
_cell_angle_beta   89.99497080
_cell_angle_gamma   120.00357051
_symmetry_Int_Tables_number   1
_chemical_formula_structural   Zr10BeSn(BiPb2)2
_chemical_formula_sum   'Zr10 Be1 Sn1 Bi2 Pb4'
_cell_volume   407.39413267
_cell_formula_units_Z   1
loop_
 _symmetry_equiv_pos_site_id
 _symmetry_equiv_pos_as_xyz
  1  'x, y, z'
loop_
 _atom_site_type_symbol
 _atom_site_label
 _atom_site_symmetry_multiplicity
 _atom_site_fract_x
 _atom_site_fract_y
 _atom_site_fract_z
 _atom_site_occupancy
  Zr  Zr0  1  0.666776  0.333283  0.001695  1
  Zr  Zr1  1  0.333224  0.666508  0.001695  1
  Zr  Zr2  1  0.333727  0.667116  0.499050  1
  Zr  Zr3  1  0.666273  0.333388  0.499050  1
  Zr  Zr4  1  0.737197  0.736386  0.774869  1
  Zr  Zr5  1  0.262803  0.999189  0.774869  1
  Zr  Zr6  1  0.000000  0.263705  0.775238  1
  Zr  Zr7  1  0.264222  0.263917  0.224824  1
  Zr  Zr8  1  0.735778  0.999696  0.224824  1
  Zr  Zr9  1  0.000000  0.735846  0.224150  1
  Be  Be10  1  0.000000  0.999812  0.001158  1
  Sn  Sn11  1  0.000000  0.999583  0.498998  1
  Bi  Bi12  1  0.390272  0.390296  0.742400  1
  Bi  Bi13  1  0.609728  0.000023  0.742400  1
  Pb  Pb14  1  0.000000  0.610504  0.741693  1
  Pb  Pb15  1  0.611825  0.611520  0.257558  1
  Pb  Pb16  1  0.388175  0.999695  0.257558  1
  Pb  Pb17  1  0.000000  0.389532  0.257969  1
