# generated using pymatgen
data_SmZrSi7Rh12
_symmetry_space_group_name_H-M   'P 1'
_cell_length_a   9.73609700
_cell_length_b   9.73609623
_cell_length_c   3.85226300
_cell_angle_alpha   90.00000000
_cell_angle_beta   90.00000000
_cell_angle_gamma   120.00000784
_symmetry_Int_Tables_number   1
_chemical_formula_structural   SmZrSi7Rh12
_chemical_formula_sum   'Sm1 Zr1 Si7 Rh12'
_cell_volume   316.23961783
_cell_formula_units_Z   1
loop_
 _symmetry_equiv_pos_site_id
 _symmetry_equiv_pos_as_xyz
  1  'x, y, z'
loop_
 _atom_site_type_symbol
 _atom_site_label
 _atom_site_symmetry_multiplicity
 _atom_site_fract_x
 _atom_site_fract_y
 _atom_site_fract_z
 _atom_site_occupancy
  Sm  Sm0  1  0.333333  0.666667  0.752727  1
  Zr  Zr1  1  0.666667  0.333333  0.249180  1
  Si  Si2  1  0.000000  0.000000  0.442328  1
  Si  Si3  1  0.404829  0.292988  0.754218  1
  Si  Si4  1  0.707012  0.111840  0.754218  1
  Si  Si5  1  0.888160  0.595171  0.754218  1
  Si  Si6  1  0.600989  0.712587  0.251703  1
  Si  Si7  1  0.287413  0.888404  0.251703  1
  Si  Si8  1  0.111596  0.399011  0.251703  1
  Rh  Rh9  1  0.445822  0.069248  0.754809  1
  Rh  Rh10  1  0.930752  0.376572  0.754809  1
  Rh  Rh11  1  0.623428  0.554178  0.754809  1
  Rh  Rh12  1  0.556576  0.940353  0.251984  1
  Rh  Rh13  1  0.059647  0.616224  0.251984  1
  Rh  Rh14  1  0.383776  0.443424  0.251984  1
  Rh  Rh15  1  0.141595  0.258617  0.748916  1
  Rh  Rh16  1  0.741383  0.882979  0.748916  1
  Rh  Rh17  1  0.117021  0.858405  0.748916  1
  Rh  Rh18  1  0.854381  0.732783  0.256958  1
  Rh  Rh19  1  0.267217  0.121597  0.256958  1
  Rh  Rh20  1  0.878403  0.145619  0.256958  1
