# generated using pymatgen
data_Ho16InCo4Hg3
_symmetry_space_group_name_H-M   'P 1'
_cell_length_a   9.42431011
_cell_length_b   9.41911679
_cell_length_c   9.42431000
_cell_angle_alpha   59.98175989
_cell_angle_beta   60.00000039
_cell_angle_gamma   59.98176585
_symmetry_Int_Tables_number   1
_chemical_formula_structural   Ho16InCo4Hg3
_chemical_formula_sum   'Ho16 In1 Co4 Hg3'
_cell_volume   591.39077640
_cell_formula_units_Z   1
loop_
 _symmetry_equiv_pos_site_id
 _symmetry_equiv_pos_as_xyz
  1  'x, y, z'
loop_
 _atom_site_type_symbol
 _atom_site_label
 _atom_site_symmetry_multiplicity
 _atom_site_fract_x
 _atom_site_fract_y
 _atom_site_fract_z
 _atom_site_occupancy
  Ho  Ho0  1  0.939305  0.936120  0.562288  1
  Ho  Ho1  1  0.812303  0.187153  0.188241  1
  Ho  Ho2  1  0.938016  0.561565  0.562405  1
  Ho  Ho3  1  0.938016  0.561565  0.938016  1
  Ho  Ho4  1  0.812246  0.811932  0.187911  1
  Ho  Ho5  1  0.347398  0.347668  0.347398  1
  Ho  Ho6  1  0.562288  0.936120  0.939305  1
  Ho  Ho7  1  0.562288  0.936120  0.562288  1
  Ho  Ho8  1  0.187911  0.811932  0.812246  1
  Ho  Ho9  1  0.188241  0.187153  0.812303  1
  Ho  Ho10  1  0.347398  0.347668  0.957538  1
  Ho  Ho11  1  0.348129  0.955613  0.348129  1
  Ho  Ho12  1  0.812303  0.187153  0.812303  1
  Ho  Ho13  1  0.562405  0.561565  0.938016  1
  Ho  Ho14  1  0.187911  0.811932  0.187911  1
  Ho  Ho15  1  0.957538  0.347668  0.347398  1
  In  In16  1  0.579748  0.260758  0.579748  1
  Co  Co17  1  0.576463  0.140953  0.141292  1
  Co  Co18  1  0.141292  0.140953  0.141292  1
  Co  Co19  1  0.140994  0.577019  0.140994  1
  Co  Co20  1  0.141292  0.140953  0.576463  1
  Hg  Hg21  1  0.584419  0.583480  0.247682  1
  Hg  Hg22  1  0.247682  0.583480  0.584419  1
  Hg  Hg23  1  0.584419  0.583480  0.584419  1
