# generated using pymatgen
data_Sc11Tc2OsPt
_symmetry_space_group_name_H-M   'P 1'
_cell_length_a   9.48187722
_cell_length_b   9.48187787
_cell_length_c   9.50116705
_cell_angle_alpha   60.22435294
_cell_angle_beta   60.22435027
_cell_angle_gamma   60.64838512
_symmetry_Int_Tables_number   1
_chemical_formula_structural   Sc11Tc2OsPt
_chemical_formula_sum   'Sc22 Tc4 Os2 Pt2'
_cell_volume   608.99339104
_cell_formula_units_Z   2
loop_
 _symmetry_equiv_pos_site_id
 _symmetry_equiv_pos_as_xyz
  1  'x, y, z'
loop_
 _atom_site_type_symbol
 _atom_site_label
 _atom_site_symmetry_multiplicity
 _atom_site_fract_x
 _atom_site_fract_y
 _atom_site_fract_z
 _atom_site_occupancy
  Sc  Sc0  1  0.845330  0.845330  0.837723  1
  Sc  Sc1  1  0.529953  0.157637  0.157080  1
  Sc  Sc2  1  0.154354  0.154354  0.531569  1
  Sc  Sc3  1  0.157637  0.529953  0.157080  1
  Sc  Sc4  1  0.845646  0.845646  0.468431  1
  Sc  Sc5  1  0.842363  0.470047  0.842920  1
  Sc  Sc6  1  0.470047  0.842363  0.842920  1
  Sc  Sc7  1  0.154670  0.154670  0.162277  1
  Sc  Sc8  1  0.196113  0.801861  0.198501  1
  Sc  Sc9  1  0.198139  0.803887  0.801499  1
  Sc  Sc10  1  0.801861  0.196113  0.198501  1
  Sc  Sc11  1  0.803454  0.803454  0.198393  1
  Sc  Sc12  1  0.196546  0.196546  0.801607  1
  Sc  Sc13  1  0.803887  0.198139  0.801499  1
  Sc  Sc14  1  0.380819  0.380819  0.384619  1
  Sc  Sc15  1  0.151692  0.617630  0.610411  1
  Sc  Sc16  1  0.617630  0.151692  0.610411  1
  Sc  Sc17  1  0.613176  0.613176  0.153005  1
  Sc  Sc18  1  0.382370  0.848308  0.389589  1
  Sc  Sc19  1  0.386824  0.386824  0.846995  1
  Sc  Sc20  1  0.848308  0.382370  0.389589  1
  Sc  Sc21  1  0.619181  0.619181  0.615381  1
  Tc  Tc22  1  0.500000  0.500000  0.000000  1
  Tc  Tc23  1  0.500000  0.000000  0.500000  1
  Tc  Tc24  1  0.000000  0.500000  0.500000  1
  Tc  Tc25  1  0.000000  0.000000  0.000000  1
  Os  Os26  1  0.000000  0.000000  0.500000  1
  Os  Os27  1  0.500000  0.500000  0.500000  1
  Pt  Pt28  1  0.500000  0.000000  0.000000  1
  Pt  Pt29  1  0.000000  0.500000  0.000000  1
