# generated using pymatgen
data_PmRh2
_symmetry_space_group_name_H-M   'P 1'
_cell_length_a   5.40875935
_cell_length_b   5.41008936
_cell_length_c   5.41382308
_cell_angle_alpha   60.02559922
_cell_angle_beta   60.02345497
_cell_angle_gamma   60.00580030
_symmetry_Int_Tables_number   1
_chemical_formula_structural   PmRh2
_chemical_formula_sum   'Pm2 Rh4'
_cell_volume   112.06528789
_cell_formula_units_Z   2
loop_
 _symmetry_equiv_pos_site_id
 _symmetry_equiv_pos_as_xyz
  1  'x, y, z'
loop_
 _atom_site_type_symbol
 _atom_site_label
 _atom_site_symmetry_multiplicity
 _atom_site_fract_x
 _atom_site_fract_y
 _atom_site_fract_z
 _atom_site_occupancy
  Pm  Pm0  1  0.750016  0.749995  0.749941  1
  Pm  Pm1  1  0.999984  0.000005  0.000059  1
  Rh  Rh2  1  0.875000  0.375000  0.375000  1
  Rh  Rh3  1  0.375000  0.875000  0.375000  1
  Rh  Rh4  1  0.375000  0.375000  0.875000  1
  Rh  Rh5  1  0.375000  0.375000  0.375000  1
