# generated using pymatgen
data_LiTbDyAgAs4
_symmetry_space_group_name_H-M   'P 1'
_cell_length_a   3.93878500
_cell_length_b   3.94059400
_cell_length_c   10.45664700
_cell_angle_alpha   90.00000000
_cell_angle_beta   90.00000000
_cell_angle_gamma   90.00000000
_symmetry_Int_Tables_number   1
_chemical_formula_structural   LiTbDyAgAs4
_chemical_formula_sum   'Li1 Tb1 Dy1 Ag1 As4'
_cell_volume   162.29921313
_cell_formula_units_Z   1
loop_
 _symmetry_equiv_pos_site_id
 _symmetry_equiv_pos_as_xyz
  1  'x, y, z'
loop_
 _atom_site_type_symbol
 _atom_site_label
 _atom_site_symmetry_multiplicity
 _atom_site_fract_x
 _atom_site_fract_y
 _atom_site_fract_z
 _atom_site_occupancy
  Li  Li0  1  0.000000  0.000000  0.499890  1
  Tb  Tb1  1  0.500000  0.000000  0.773246  1
  Dy  Dy2  1  0.000000  0.500000  0.226530  1
  Ag  Ag3  1  0.500000  0.500000  0.499811  1
  As  As4  1  0.000000  0.000000  0.000654  1
  As  As5  1  0.500000  0.500000  0.000735  1
  As  As6  1  0.000000  0.500000  0.676625  1
  As  As7  1  0.500000  0.000000  0.322510  1
