# generated using pymatgen
data_La6Pr10CdHg3Ir4
_symmetry_space_group_name_H-M   'P 1'
_cell_length_a   10.00084252
_cell_length_b   10.08651718
_cell_length_c   10.08650836
_cell_angle_alpha   59.62498907
_cell_angle_beta   60.21954116
_cell_angle_gamma   60.21901745
_symmetry_Int_Tables_number   1
_chemical_formula_structural   La6Pr10CdHg3Ir4
_chemical_formula_sum   'La6 Pr10 Cd1 Hg3 Ir4'
_cell_volume   719.74915986
_cell_formula_units_Z   1
loop_
 _symmetry_equiv_pos_site_id
 _symmetry_equiv_pos_as_xyz
  1  'x, y, z'
loop_
 _atom_site_type_symbol
 _atom_site_label
 _atom_site_symmetry_multiplicity
 _atom_site_fract_x
 _atom_site_fract_y
 _atom_site_fract_z
 _atom_site_occupancy
  La  La0  1  0.346197  0.348178  0.348171  1
  La  La1  1  0.351096  0.346075  0.953227  1
  La  La2  1  0.351103  0.953219  0.346077  1
  La  La3  1  0.952457  0.350434  0.350455  1
  La  La4  1  0.811258  0.188877  0.188875  1
  La  La5  1  0.186084  0.811942  0.811927  1
  Pr  Pr6  1  0.190567  0.809044  0.191391  1
  Pr  Pr7  1  0.805561  0.192058  0.806932  1
  Pr  Pr8  1  0.190604  0.191377  0.809035  1
  Pr  Pr9  1  0.805544  0.806915  0.192075  1
  Pr  Pr10  1  0.936856  0.564351  0.564355  1
  Pr  Pr11  1  0.561227  0.936555  0.936529  1
  Pr  Pr12  1  0.560186  0.940311  0.561578  1
  Pr  Pr13  1  0.938357  0.560363  0.939767  1
  Pr  Pr14  1  0.560159  0.561601  0.940308  1
  Pr  Pr15  1  0.938370  0.939759  0.560363  1
  Cd  Cd16  1  0.258323  0.580077  0.580086  1
  Hg  Hg17  1  0.583701  0.584602  0.584602  1
  Hg  Hg18  1  0.583180  0.586516  0.246284  1
  Hg  Hg19  1  0.583173  0.246296  0.586513  1
  Ir  Ir20  1  0.136631  0.144490  0.144503  1
  Ir  Ir21  1  0.146567  0.136130  0.575486  1
  Ir  Ir22  1  0.146563  0.575490  0.136122  1
  Ir  Ir23  1  0.576232  0.145338  0.145337  1
