# generated using pymatgen
data_Ho9Th(Al2Ru3)2
_symmetry_space_group_name_H-M   'P 1'
_cell_length_a   8.34118333
_cell_length_b   8.34118242
_cell_length_c   8.34118360
_cell_angle_alpha   109.45349739
_cell_angle_beta   109.45349390
_cell_angle_gamma   109.45351206
_symmetry_Int_Tables_number   1
_chemical_formula_structural   Ho9Th(Al2Ru3)2
_chemical_formula_sum   'Ho9 Th1 Al4 Ru6'
_cell_volume   447.03926145
_cell_formula_units_Z   1
loop_
 _symmetry_equiv_pos_site_id
 _symmetry_equiv_pos_as_xyz
  1  'x, y, z'
loop_
 _atom_site_type_symbol
 _atom_site_label
 _atom_site_symmetry_multiplicity
 _atom_site_fract_x
 _atom_site_fract_y
 _atom_site_fract_z
 _atom_site_occupancy
  Ho  Ho0  1  0.477212  0.151108  0.221701  1
  Ho  Ho1  1  0.151108  0.221701  0.477212  1
  Ho  Ho2  1  0.221701  0.477212  0.151108  1
  Ho  Ho3  1  0.408825  0.694146  0.910154  1
  Ho  Ho4  1  0.694146  0.910154  0.408825  1
  Ho  Ho5  1  0.910154  0.408825  0.694146  1
  Ho  Ho6  1  0.658379  0.089936  0.839668  1
  Ho  Ho7  1  0.089936  0.839668  0.658379  1
  Ho  Ho8  1  0.839668  0.658379  0.089936  1
  Th  Th9  1  0.609445  0.609445  0.609445  1
  Al  Al10  1  0.408118  0.318678  0.910760  1
  Al  Al11  1  0.318678  0.910760  0.408118  1
  Al  Al12  1  0.910760  0.408118  0.318678  1
  Al  Al13  1  0.998488  0.998488  0.998488  1
  Ru  Ru14  1  0.033166  0.157827  0.783702  1
  Ru  Ru15  1  0.157827  0.783702  0.033166  1
  Ru  Ru16  1  0.783702  0.033166  0.157827  1
  Ru  Ru17  1  0.658683  0.532245  0.287760  1
  Ru  Ru18  1  0.532245  0.287760  0.658683  1
  Ru  Ru19  1  0.287760  0.658683  0.532245  1
