# generated using pymatgen
data_La5Y15(Cd3Tc)2
_symmetry_space_group_name_H-M   'P 1'
_cell_length_a   9.86714902
_cell_length_b   9.80091220
_cell_length_c   9.92096231
_cell_angle_alpha   90.00000067
_cell_angle_beta   89.46134103
_cell_angle_gamma   119.77819067
_symmetry_Int_Tables_number   1
_chemical_formula_structural   La5Y15(Cd3Tc)2
_chemical_formula_sum   'La5 Y15 Cd6 Tc2'
_cell_volume   832.69028538
_cell_formula_units_Z   1
loop_
 _symmetry_equiv_pos_site_id
 _symmetry_equiv_pos_as_xyz
  1  'x, y, z'
loop_
 _atom_site_type_symbol
 _atom_site_label
 _atom_site_symmetry_multiplicity
 _atom_site_fract_x
 _atom_site_fract_y
 _atom_site_fract_z
 _atom_site_occupancy
  La  La0  1  0.207449  0.792767  0.435527  1
  La  La1  1  0.207449  0.414683  0.435527  1
  La  La2  1  0.581363  0.790681  0.434362  1
  La  La3  1  0.783743  0.206905  0.566657  1
  La  La4  1  0.783743  0.576839  0.566657  1
  Y  Y5  1  0.997787  0.998893  0.500455  1
  Y  Y6  1  0.001568  0.000784  0.001281  1
  Y  Y7  1  0.413911  0.206956  0.557128  1
  Y  Y8  1  0.790958  0.208352  0.943556  1
  Y  Y9  1  0.790958  0.582606  0.943556  1
  Y  Y10  1  0.426330  0.213165  0.937184  1
  Y  Y11  1  0.211117  0.791356  0.057720  1
  Y  Y12  1  0.211117  0.419761  0.057720  1
  Y  Y13  1  0.579702  0.789851  0.056726  1
  Y  Y14  1  0.541264  0.454993  0.241569  1
  Y  Y15  1  0.541264  0.086272  0.241569  1
  Y  Y16  1  0.912982  0.456491  0.241243  1
  Y  Y17  1  0.456745  0.539368  0.757024  1
  Y  Y18  1  0.456745  0.917376  0.757024  1
  Y  Y19  1  0.081816  0.540907  0.759861  1
  Cd  Cd20  1  0.885025  0.115315  0.244358  1
  Cd  Cd21  1  0.885025  0.769711  0.244358  1
  Cd  Cd22  1  0.229786  0.114893  0.245565  1
  Cd  Cd23  1  0.118708  0.889848  0.754377  1
  Cd  Cd24  1  0.118708  0.228859  0.754377  1
  Cd  Cd25  1  0.768764  0.884382  0.758950  1
  Tc  Tc26  1  0.331750  0.665876  0.272661  1
  Tc  Tc27  1  0.684221  0.342110  0.733006  1
