# generated using pymatgen
data_Ho2Er6Si8PdPt7
_symmetry_space_group_name_H-M   'P 1'
_cell_length_a   4.26016900
_cell_length_b   7.46872797
_cell_length_c   13.95356600
_cell_angle_alpha   89.94819221
_cell_angle_beta   90.00000000
_cell_angle_gamma   90.00000000
_symmetry_Int_Tables_number   1
_chemical_formula_structural   Ho2Er6Si8PdPt7
_chemical_formula_sum   'Ho2 Er6 Si8 Pd1 Pt7'
_cell_volume   443.97498646
_cell_formula_units_Z   1
loop_
 _symmetry_equiv_pos_site_id
 _symmetry_equiv_pos_as_xyz
  1  'x, y, z'
loop_
 _atom_site_type_symbol
 _atom_site_label
 _atom_site_symmetry_multiplicity
 _atom_site_fract_x
 _atom_site_fract_y
 _atom_site_fract_z
 _atom_site_occupancy
  Ho  Ho0  1  0.000000  0.300609  0.999826  1
  Ho  Ho1  1  0.500000  0.699778  0.499812  1
  Er  Er2  1  0.000000  0.293823  0.500009  1
  Er  Er3  1  0.500000  0.705236  0.000326  1
  Er  Er4  1  0.000000  0.203760  0.249546  1
  Er  Er5  1  0.500000  0.796045  0.250129  1
  Er  Er6  1  0.000000  0.203352  0.750055  1
  Er  Er7  1  0.500000  0.795613  0.750160  1
  Si  Si8  1  0.000000  0.907510  0.591903  1
  Si  Si9  1  0.500000  0.094469  0.907041  1
  Si  Si10  1  0.000000  0.906449  0.407402  1
  Si  Si11  1  0.500000  0.093904  0.092504  1
  Si  Si12  1  0.000000  0.593950  0.146989  1
  Si  Si13  1  0.500000  0.405890  0.351771  1
  Si  Si14  1  0.000000  0.594245  0.855997  1
  Si  Si15  1  0.500000  0.403303  0.645787  1
  Pd  Pd16  1  0.000000  0.580501  0.656791  1
  Pt  Pt17  1  0.500000  0.074929  0.608388  1
  Pt  Pt18  1  0.000000  0.923981  0.891192  1
  Pt  Pt19  1  0.500000  0.076247  0.391498  1
  Pt  Pt20  1  0.000000  0.923804  0.108455  1
  Pt  Pt21  1  0.500000  0.420464  0.155307  1
  Pt  Pt22  1  0.000000  0.579702  0.346694  1
  Pt  Pt23  1  0.500000  0.422433  0.842417  1
