# generated using pymatgen
data_PrFe2BC
_symmetry_space_group_name_H-M   'P 1'
_cell_length_a   5.58937681
_cell_length_b   5.58937682
_cell_length_c   5.58937687
_cell_angle_alpha   142.51784731
_cell_angle_beta   142.51783885
_cell_angle_gamma   54.04951480
_symmetry_Int_Tables_number   1
_chemical_formula_structural   PrFe2BC
_chemical_formula_sum   'Pr1 Fe2 B1 C1'
_cell_volume   64.22960378
_cell_formula_units_Z   1
loop_
 _symmetry_equiv_pos_site_id
 _symmetry_equiv_pos_as_xyz
  1  'x, y, z'
loop_
 _atom_site_type_symbol
 _atom_site_label
 _atom_site_symmetry_multiplicity
 _atom_site_fract_x
 _atom_site_fract_y
 _atom_site_fract_z
 _atom_site_occupancy
  Pr  Pr0  1  0.999053  0.999053  0.000000  1
  Fe  Fe1  1  0.745396  0.245396  0.500000  1
  Fe  Fe2  1  0.245396  0.745396  0.500000  1
  B  B3  1  0.332334  0.332334  0.000000  1
  C  C4  1  0.677820  0.677820  0.000000  1
