# generated using pymatgen
data_CeEr4Pd15
_symmetry_space_group_name_H-M   'P 1'
_cell_length_a   4.11658800
_cell_length_b   4.11658800
_cell_length_c   20.65088300
_cell_angle_alpha   90.00000000
_cell_angle_beta   90.00000000
_cell_angle_gamma   90.00000000
_symmetry_Int_Tables_number   1
_chemical_formula_structural   CeEr4Pd15
_chemical_formula_sum   'Ce1 Er4 Pd15'
_cell_volume   349.95599171
_cell_formula_units_Z   1
loop_
 _symmetry_equiv_pos_site_id
 _symmetry_equiv_pos_as_xyz
  1  'x, y, z'
loop_
 _atom_site_type_symbol
 _atom_site_label
 _atom_site_symmetry_multiplicity
 _atom_site_fract_x
 _atom_site_fract_y
 _atom_site_fract_z
 _atom_site_occupancy
  Ce  Ce0  1  0.000000  0.000000  0.000000  1
  Er  Er1  1  0.000000  0.000000  0.200912  1
  Er  Er2  1  0.000000  0.000000  0.399808  1
  Er  Er3  1  0.000000  0.000000  0.600192  1
  Er  Er4  1  0.000000  0.000000  0.799088  1
  Pd  Pd5  1  0.500000  0.500000  0.000000  1
  Pd  Pd6  1  0.500000  0.500000  0.199373  1
  Pd  Pd7  1  0.500000  0.500000  0.400001  1
  Pd  Pd8  1  0.500000  0.500000  0.599999  1
  Pd  Pd9  1  0.500000  0.500000  0.800627  1
  Pd  Pd10  1  0.500000  0.000000  0.098875  1
  Pd  Pd11  1  0.500000  0.000000  0.299705  1
  Pd  Pd12  1  0.500000  0.000000  0.500000  1
  Pd  Pd13  1  0.500000  0.000000  0.700295  1
  Pd  Pd14  1  0.500000  0.000000  0.901125  1
  Pd  Pd15  1  0.000000  0.500000  0.098875  1
  Pd  Pd16  1  0.000000  0.500000  0.299705  1
  Pd  Pd17  1  0.000000  0.500000  0.500000  1
  Pd  Pd18  1  0.000000  0.500000  0.700295  1
  Pd  Pd19  1  0.000000  0.500000  0.901125  1
