# generated using pymatgen
data_Fe2Bi6SbO18
_symmetry_space_group_name_H-M   'P 1'
_cell_length_a   9.22800700
_cell_length_b   9.22800669
_cell_length_c   5.12227300
_cell_angle_alpha   90.00000000
_cell_angle_beta   90.00000000
_cell_angle_gamma   120.00000276
_symmetry_Int_Tables_number   1
_chemical_formula_structural   Fe2Bi6SbO18
_chemical_formula_sum   'Fe2 Bi6 Sb1 O18'
_cell_volume   377.75407410
_cell_formula_units_Z   1
loop_
 _symmetry_equiv_pos_site_id
 _symmetry_equiv_pos_as_xyz
  1  'x, y, z'
loop_
 _atom_site_type_symbol
 _atom_site_label
 _atom_site_symmetry_multiplicity
 _atom_site_fract_x
 _atom_site_fract_y
 _atom_site_fract_z
 _atom_site_occupancy
  Fe  Fe0  1  0.000000  0.000000  0.494419  1
  Fe  Fe1  1  0.333333  0.666667  0.999861  1
  Bi  Bi2  1  0.011755  0.376002  0.501226  1
  Bi  Bi3  1  0.287844  0.292643  0.000059  1
  Bi  Bi4  1  0.004799  0.712156  0.000059  1
  Bi  Bi5  1  0.623998  0.635753  0.501226  1
  Bi  Bi6  1  0.364247  0.988245  0.501226  1
  Bi  Bi7  1  0.707357  0.995201  0.000059  1
  Sb  Sb8  1  0.666667  0.333333  0.001541  1
  O  O9  1  0.087172  0.206081  0.723717  1
  O  O10  1  0.231713  0.456063  0.224028  1
  O  O11  1  0.126975  0.598286  0.783062  1
  O  O12  1  0.401714  0.528689  0.783062  1
  O  O13  1  0.224350  0.768287  0.224028  1
  O  O14  1  0.118908  0.912828  0.723717  1
  O  O15  1  0.543937  0.775650  0.224028  1
  O  O16  1  0.209029  0.090089  0.270903  1
  O  O17  1  0.471311  0.873025  0.783062  1
  O  O18  1  0.793919  0.881092  0.723717  1
  O  O19  1  0.456074  0.229482  0.780745  1
  O  O20  1  0.595276  0.127052  0.217652  1
  O  O21  1  0.531776  0.404724  0.217652  1
  O  O22  1  0.770518  0.226593  0.780745  1
  O  O23  1  0.909911  0.118941  0.270903  1
  O  O24  1  0.773407  0.543926  0.780745  1
  O  O25  1  0.872948  0.468224  0.217652  1
  O  O26  1  0.881059  0.790971  0.270903  1
