# generated using pymatgen
data_Ho11Er3(LuBi2)6
_symmetry_space_group_name_H-M   'P 1'
_cell_length_a   8.18883956
_cell_length_b   9.44594126
_cell_length_c   11.96240100
_cell_angle_alpha   89.99904769
_cell_angle_beta   89.95470962
_cell_angle_gamma   90.01334367
_symmetry_Int_Tables_number   1
_chemical_formula_structural   Ho11Er3(LuBi2)6
_chemical_formula_sum   'Ho11 Er3 Lu6 Bi12'
_cell_volume   925.30692348
_cell_formula_units_Z   1
loop_
 _symmetry_equiv_pos_site_id
 _symmetry_equiv_pos_as_xyz
  1  'x, y, z'
loop_
 _atom_site_type_symbol
 _atom_site_label
 _atom_site_symmetry_multiplicity
 _atom_site_fract_x
 _atom_site_fract_y
 _atom_site_fract_z
 _atom_site_occupancy
  Ho  Ho0  1  0.524552  0.250200  0.988271  1
  Ho  Ho1  1  0.353799  0.250370  0.283421  1
  Ho  Ho2  1  0.645366  0.751297  0.716778  1
  Ho  Ho3  1  0.145105  0.750966  0.782990  1
  Ho  Ho4  1  0.855819  0.250283  0.216749  1
  Ho  Ho5  1  0.186963  0.249998  0.781585  1
  Ho  Ho6  1  0.813549  0.750407  0.218414  1
  Ho  Ho7  1  0.313481  0.750241  0.282328  1
  Ho  Ho8  1  0.686672  0.250228  0.718062  1
  Ho  Ho9  1  0.808213  0.564547  0.940626  1
  Ho  Ho10  1  0.693427  0.064117  0.440736  1
  Er  Er11  1  0.191680  0.434934  0.059181  1
  Er  Er12  1  0.692547  0.434246  0.440685  1
  Er  Er13  1  0.306965  0.565077  0.559432  1
  Lu  Lu14  1  0.024711  0.250414  0.511092  1
  Lu  Lu15  1  0.976306  0.750088  0.489076  1
  Lu  Lu16  1  0.475644  0.750329  0.010955  1
  Lu  Lu17  1  0.193289  0.066347  0.059753  1
  Lu  Lu18  1  0.806594  0.933346  0.940356  1
  Lu  Lu19  1  0.306614  0.933359  0.559383  1
  Bi  Bi20  1  0.404670  0.248566  0.542894  1
  Bi  Bi21  1  0.594461  0.749067  0.457750  1
  Bi  Bi22  1  0.095432  0.752297  0.042960  1
  Bi  Bi23  1  0.906718  0.246877  0.957222  1
  Bi  Bi24  1  0.066495  0.003885  0.327246  1
  Bi  Bi25  1  0.933749  0.996657  0.672641  1
  Bi  Bi26  1  0.432670  0.995455  0.826639  1
  Bi  Bi27  1  0.933631  0.504110  0.672539  1
  Bi  Bi28  1  0.565630  0.003414  0.173233  1
  Bi  Bi29  1  0.066513  0.496594  0.327289  1
  Bi  Bi30  1  0.566275  0.497099  0.173311  1
  Bi  Bi31  1  0.432461  0.505185  0.826399  1
