# generated using pymatgen
data_NdGa2Ni2Pt
_symmetry_space_group_name_H-M   'P 1'
_cell_length_a   9.06197200
_cell_length_b   9.06197253
_cell_length_c   4.18974700
_cell_angle_alpha   90.00000000
_cell_angle_beta   90.00000000
_cell_angle_gamma   120.00000535
_symmetry_Int_Tables_number   1
_chemical_formula_structural   NdGa2Ni2Pt
_chemical_formula_sum   'Nd3 Ga6 Ni6 Pt3'
_cell_volume   297.96404710
_cell_formula_units_Z   3
loop_
 _symmetry_equiv_pos_site_id
 _symmetry_equiv_pos_as_xyz
  1  'x, y, z'
loop_
 _atom_site_type_symbol
 _atom_site_label
 _atom_site_symmetry_multiplicity
 _atom_site_fract_x
 _atom_site_fract_y
 _atom_site_fract_z
 _atom_site_occupancy
  Nd  Nd0  1  0.333333  0.666667  0.500000  1
  Nd  Nd1  1  0.666667  0.333333  0.500000  1
  Nd  Nd2  1  0.000000  0.000000  0.000000  1
  Ga  Ga3  1  0.466003  0.000000  0.000000  1
  Ga  Ga4  1  0.000000  0.466003  0.000000  1
  Ga  Ga5  1  0.533997  0.533997  0.000000  1
  Ga  Ga6  1  0.717814  0.000000  0.500000  1
  Ga  Ga7  1  0.000000  0.717814  0.500000  1
  Ga  Ga8  1  0.282186  0.282186  0.500000  1
  Ni  Ni9  1  0.219405  0.382652  0.000000  1
  Ni  Ni10  1  0.617348  0.836753  0.000000  1
  Ni  Ni11  1  0.163247  0.780595  0.000000  1
  Ni  Ni12  1  0.836753  0.617348  0.000000  1
  Ni  Ni13  1  0.780595  0.163247  0.000000  1
  Ni  Ni14  1  0.382652  0.219405  0.000000  1
  Pt  Pt15  1  0.284395  0.000000  0.500000  1
  Pt  Pt16  1  0.000000  0.284395  0.500000  1
  Pt  Pt17  1  0.715605  0.715605  0.500000  1
