# generated using pymatgen
data_Y4Er4Si12Ir3Pd
_symmetry_space_group_name_H-M   'P 1'
_cell_length_a   8.16982596
_cell_length_b   8.16982579
_cell_length_c   7.88745601
_cell_angle_alpha   89.99564019
_cell_angle_beta   90.00436207
_cell_angle_gamma   120.11269704
_symmetry_Int_Tables_number   1
_chemical_formula_structural   Y4Er4Si12Ir3Pd
_chemical_formula_sum   'Y4 Er4 Si12 Ir3 Pd1'
_cell_volume   455.40612823
_cell_formula_units_Z   1
loop_
 _symmetry_equiv_pos_site_id
 _symmetry_equiv_pos_as_xyz
  1  'x, y, z'
loop_
 _atom_site_type_symbol
 _atom_site_label
 _atom_site_symmetry_multiplicity
 _atom_site_fract_x
 _atom_site_fract_y
 _atom_site_fract_z
 _atom_site_occupancy
  Y  Y0  1  0.511873  0.488127  0.247258  1
  Y  Y1  1  0.490818  0.509182  0.751876  1
  Y  Y2  1  0.999990  0.000010  0.251906  1
  Y  Y3  1  0.000031  0.999969  0.750570  1
  Er  Er4  1  0.511837  0.023461  0.246663  1
  Er  Er5  1  0.491440  0.983194  0.752458  1
  Er  Er6  1  0.976539  0.488163  0.246663  1
  Er  Er7  1  0.016806  0.508560  0.752458  1
  Si  Si8  1  0.166332  0.333741  0.003312  1
  Si  Si9  1  0.833963  0.666911  0.997546  1
  Si  Si10  1  0.666259  0.833668  0.003312  1
  Si  Si11  1  0.832893  0.664655  0.499874  1
  Si  Si12  1  0.333089  0.166037  0.997546  1
  Si  Si13  1  0.164469  0.329833  0.501664  1
  Si  Si14  1  0.166797  0.833203  0.003096  1
  Si  Si15  1  0.335345  0.167107  0.499874  1
  Si  Si16  1  0.833574  0.166426  0.997935  1
  Si  Si17  1  0.670167  0.835531  0.501664  1
  Si  Si18  1  0.832395  0.167605  0.499419  1
  Si  Si19  1  0.165094  0.834906  0.501971  1
  Ir  Ir20  1  0.332498  0.667502  0.028074  1
  Ir  Ir21  1  0.667602  0.332398  0.965043  1
  Ir  Ir22  1  0.667615  0.332385  0.538863  1
  Pd  Pd23  1  0.332575  0.667425  0.460956  1
