# generated using pymatgen
data_Th3Ti(Al3Pd)8
_symmetry_space_group_name_H-M   'P 1'
_cell_length_a   8.54437520
_cell_length_b   8.53252467
_cell_length_c   8.54585500
_cell_angle_alpha   89.56244729
_cell_angle_beta   89.64370522
_cell_angle_gamma   89.55880811
_symmetry_Int_Tables_number   1
_chemical_formula_structural   Th3Ti(Al3Pd)8
_chemical_formula_sum   'Th3 Ti1 Al24 Pd8'
_cell_volume   622.98788888
_cell_formula_units_Z   1
loop_
 _symmetry_equiv_pos_site_id
 _symmetry_equiv_pos_as_xyz
  1  'x, y, z'
loop_
 _atom_site_type_symbol
 _atom_site_label
 _atom_site_symmetry_multiplicity
 _atom_site_fract_x
 _atom_site_fract_y
 _atom_site_fract_z
 _atom_site_occupancy
  Th  Th0  1  0.000000  0.500000  0.000000  1
  Th  Th1  1  0.500000  0.000000  0.000000  1
  Th  Th2  1  0.000000  0.000000  0.500000  1
  Ti  Ti3  1  0.500000  0.500000  0.500000  1
  Al  Al4  1  0.992189  0.638895  0.638925  1
  Al  Al5  1  0.638919  0.638902  0.992183  1
  Al  Al6  1  0.638937  0.992191  0.638944  1
  Al  Al7  1  0.007811  0.361105  0.361075  1
  Al  Al8  1  0.361081  0.361098  0.007817  1
  Al  Al9  1  0.361063  0.007809  0.361056  1
  Al  Al10  1  0.734244  0.499998  0.265738  1
  Al  Al11  1  0.265756  0.500002  0.734262  1
  Al  Al12  1  0.500105  0.265997  0.734245  1
  Al  Al13  1  0.499895  0.734003  0.265755  1
  Al  Al14  1  0.265781  0.734002  0.499895  1
  Al  Al15  1  0.734219  0.265998  0.500105  1
  Al  Al16  1  0.834076  0.143672  0.834081  1
  Al  Al17  1  0.143696  0.833988  0.833980  1
  Al  Al18  1  0.833983  0.833994  0.143677  1
  Al  Al19  1  0.165924  0.856328  0.165919  1
  Al  Al20  1  0.856304  0.166012  0.166020  1
  Al  Al21  1  0.166017  0.166006  0.856323  1
  Al  Al22  1  0.729547  0.492445  0.729562  1
  Al  Al23  1  0.492253  0.729402  0.729429  1
  Al  Al24  1  0.729400  0.729390  0.492251  1
  Al  Al25  1  0.270453  0.507555  0.270438  1
  Al  Al26  1  0.507747  0.270598  0.270571  1
  Al  Al27  1  0.270600  0.270610  0.507749  1
  Pd  Pd28  1  0.831218  0.831030  0.831232  1
  Pd  Pd29  1  0.168782  0.168970  0.168768  1
  Pd  Pd30  1  0.665023  0.334849  0.000012  1
  Pd  Pd31  1  0.000016  0.334839  0.665017  1
  Pd  Pd32  1  0.334926  0.000005  0.665055  1
  Pd  Pd33  1  0.334977  0.665151  0.999988  1
  Pd  Pd34  1  0.999984  0.665161  0.334983  1
  Pd  Pd35  1  0.665074  0.999995  0.334945  1
