# generated using pymatgen
data_Sm3Lu3(SbO7)2
_symmetry_space_group_name_H-M   'P 1'
_cell_length_a   6.47454100
_cell_length_b   6.48059366
_cell_length_c   7.46890400
_cell_angle_alpha   89.99419138
_cell_angle_beta   90.00146900
_cell_angle_gamma   108.73575718
_symmetry_Int_Tables_number   1
_chemical_formula_structural   Sm3Lu3(SbO7)2
_chemical_formula_sum   'Sm3 Lu3 Sb2 O14'
_cell_volume   296.78040228
_cell_formula_units_Z   1
loop_
 _symmetry_equiv_pos_site_id
 _symmetry_equiv_pos_as_xyz
  1  'x, y, z'
loop_
 _atom_site_type_symbol
 _atom_site_label
 _atom_site_symmetry_multiplicity
 _atom_site_fract_x
 _atom_site_fract_y
 _atom_site_fract_z
 _atom_site_occupancy
  Sm  Sm0  1  0.532242  0.998862  0.750174  1
  Sm  Sm1  1  0.496245  0.495644  0.002116  1
  Sm  Sm2  1  0.496934  0.496196  0.497922  1
  Lu  Lu3  1  0.469447  0.997488  0.250157  1
  Lu  Lu4  1  0.997303  0.471100  0.749823  1
  Lu  Lu5  1  0.001212  0.530973  0.249831  1
  Sb  Sb6  1  0.000412  0.000672  0.002713  1
  Sb  Sb7  1  0.000293  0.000569  0.497282  1
  O  O8  1  0.645942  0.367233  0.750039  1
  O  O9  1  0.352912  0.644630  0.249993  1
  O  O10  1  0.935524  0.075412  0.749997  1
  O  O11  1  0.070402  0.921732  0.250010  1
  O  O12  1  0.324594  0.079399  0.979433  1
  O  O13  1  0.678541  0.925469  0.462974  1
  O  O14  1  0.937359  0.680467  0.532182  1
  O  O15  1  0.063147  0.321816  0.032762  1
  O  O16  1  0.353645  0.623990  0.749944  1
  O  O17  1  0.640037  0.361157  0.249987  1
  O  O18  1  0.324397  0.079115  0.520871  1
  O  O19  1  0.678756  0.925713  0.037350  1
  O  O20  1  0.937841  0.680742  0.967492  1
  O  O21  1  0.062817  0.321623  0.466949  1
