# generated using pymatgen
data_Ce2Tm2LuRu2
_symmetry_space_group_name_H-M   'P 1'
_cell_length_a   6.32397419
_cell_length_b   6.99799250
_cell_length_c   8.71927434
_cell_angle_alpha   95.83676237
_cell_angle_beta   111.26261941
_cell_angle_gamma   89.99999602
_symmetry_Int_Tables_number   1
_chemical_formula_structural   Ce2Tm2LuRu2
_chemical_formula_sum   'Ce4 Tm4 Lu2 Ru4'
_cell_volume   357.45799310
_cell_formula_units_Z   2
loop_
 _symmetry_equiv_pos_site_id
 _symmetry_equiv_pos_as_xyz
  1  'x, y, z'
loop_
 _atom_site_type_symbol
 _atom_site_label
 _atom_site_symmetry_multiplicity
 _atom_site_fract_x
 _atom_site_fract_y
 _atom_site_fract_z
 _atom_site_occupancy
  Ce  Ce0  1  0.521905  0.094127  0.808838  1
  Ce  Ce1  1  0.478095  0.905873  0.191162  1
  Ce  Ce2  1  0.713067  0.405873  0.191162  1
  Ce  Ce3  1  0.286933  0.594127  0.808838  1
  Tm  Tm4  1  0.294215  0.313664  0.433024  1
  Tm  Tm5  1  0.705785  0.686336  0.566976  1
  Tm  Tm6  1  0.861192  0.186336  0.566976  1
  Tm  Tm7  1  0.138808  0.813664  0.433024  1
  Lu  Lu8  1  0.081518  0.250000  0.000000  1
  Lu  Lu9  1  0.918482  0.750000  0.000000  1
  Ru  Ru10  1  0.343381  0.591864  0.220881  1
  Ru  Ru11  1  0.656619  0.408136  0.779119  1
  Ru  Ru12  1  0.122502  0.908136  0.779119  1
  Ru  Ru13  1  0.877498  0.091864  0.220881  1
