# generated using pymatgen
data_Er2PaCo2
_symmetry_space_group_name_H-M   'P 1'
_cell_length_a   3.57904651
_cell_length_b   6.05460627
_cell_length_c   5.90485333
_cell_angle_alpha   120.84253943
_cell_angle_beta   107.64147529
_cell_angle_gamma   89.99999148
_symmetry_Int_Tables_number   1
_chemical_formula_structural   Er2PaCo2
_chemical_formula_sum   'Er2 Pa1 Co2'
_cell_volume   102.78926327
_cell_formula_units_Z   1
loop_
 _symmetry_equiv_pos_site_id
 _symmetry_equiv_pos_as_xyz
  1  'x, y, z'
loop_
 _atom_site_type_symbol
 _atom_site_label
 _atom_site_symmetry_multiplicity
 _atom_site_fract_x
 _atom_site_fract_y
 _atom_site_fract_z
 _atom_site_occupancy
  Er  Er0  1  0.806575  0.306575  0.613149  1
  Er  Er1  1  0.193425  0.693425  0.386851  1
  Pa  Pa2  1  0.000000  0.000000  0.000000  1
  Co  Co3  1  0.500000  0.284410  0.000000  1
  Co  Co4  1  0.500000  0.715590  0.000000  1
