# generated using pymatgen
data_CaLa8Tb11Si16
_symmetry_space_group_name_H-M   'P 1'
_cell_length_a   7.84819768
_cell_length_b   7.84819768
_cell_length_c   14.74849588
_cell_angle_alpha   89.94174750
_cell_angle_beta   90.05825250
_cell_angle_gamma   90.07522428
_symmetry_Int_Tables_number   1
_chemical_formula_structural   CaLa8Tb11Si16
_chemical_formula_sum   'Ca1 La8 Tb11 Si16'
_cell_volume   908.42018602
_cell_formula_units_Z   1
loop_
 _symmetry_equiv_pos_site_id
 _symmetry_equiv_pos_as_xyz
  1  'x, y, z'
loop_
 _atom_site_type_symbol
 _atom_site_label
 _atom_site_symmetry_multiplicity
 _atom_site_fract_x
 _atom_site_fract_y
 _atom_site_fract_z
 _atom_site_occupancy
  Ca  Ca0  1  0.687412  0.687412  0.500000  1
  La  La1  1  0.985882  0.631797  0.045694  1
  La  La2  1  0.012114  0.368683  0.546989  1
  La  La3  1  0.631797  0.985882  0.954306  1
  La  La4  1  0.132925  0.512899  0.795748  1
  La  La5  1  0.868959  0.488408  0.296753  1
  La  La6  1  0.512899  0.132925  0.204252  1
  La  La7  1  0.488408  0.868959  0.703247  1
  La  La8  1  0.368683  0.012114  0.453011  1
  Tb  Tb9  1  0.366982  0.489019  0.374613  1
  Tb  Tb10  1  0.868274  0.011419  0.375723  1
  Tb  Tb11  1  0.986889  0.134189  0.124533  1
  Tb  Tb12  1  0.011419  0.868274  0.624277  1
  Tb  Tb13  1  0.632583  0.513794  0.875300  1
  Tb  Tb14  1  0.489019  0.366982  0.625387  1
  Tb  Tb15  1  0.513794  0.632583  0.124700  1
  Tb  Tb16  1  0.134189  0.986889  0.875467  1
  Tb  Tb17  1  0.811048  0.185691  0.751028  1
  Tb  Tb18  1  0.185691  0.811048  0.248972  1
  Tb  Tb19  1  0.312243  0.312243  0.000000  1
  Si  Si20  1  0.080000  0.715427  0.437384  1
  Si  Si21  1  0.927464  0.285139  0.938419  1
  Si  Si22  1  0.715427  0.080000  0.562616  1
  Si  Si23  1  0.214851  0.427606  0.188723  1
  Si  Si24  1  0.786884  0.570993  0.691028  1
  Si  Si25  1  0.427606  0.214851  0.811277  1
  Si  Si26  1  0.570993  0.786884  0.308972  1
  Si  Si27  1  0.285139  0.927464  0.061581  1
  Si  Si28  1  0.837861  0.802600  0.802668  1
  Si  Si29  1  0.161532  0.198142  0.302591  1
  Si  Si30  1  0.802600  0.837861  0.197332  1
  Si  Si31  1  0.294462  0.659030  0.556007  1
  Si  Si32  1  0.698431  0.338368  0.053436  1
  Si  Si33  1  0.659030  0.294462  0.443993  1
  Si  Si34  1  0.338368  0.698431  0.946564  1
  Si  Si35  1  0.198142  0.161532  0.697409  1
