# generated using pymatgen
data_Sc3Mn3Si2As
_symmetry_space_group_name_H-M   'P 1'
_cell_length_a   6.52792200
_cell_length_b   6.52792175
_cell_length_c   3.87477300
_cell_angle_alpha   90.00000000
_cell_angle_beta   90.00000000
_cell_angle_gamma   120.00000125
_symmetry_Int_Tables_number   1
_chemical_formula_structural   Sc3Mn3Si2As
_chemical_formula_sum   'Sc3 Mn3 Si2 As1'
_cell_volume   142.99695435
_cell_formula_units_Z   1
loop_
 _symmetry_equiv_pos_site_id
 _symmetry_equiv_pos_as_xyz
  1  'x, y, z'
loop_
 _atom_site_type_symbol
 _atom_site_label
 _atom_site_symmetry_multiplicity
 _atom_site_fract_x
 _atom_site_fract_y
 _atom_site_fract_z
 _atom_site_occupancy
  Sc  Sc0  1  0.411910  0.416994  0.500000  1
  Sc  Sc1  1  0.583006  0.994916  0.500000  1
  Sc  Sc2  1  0.005084  0.588090  0.500000  1
  Mn  Mn3  1  0.002553  0.229530  0.000000  1
  Mn  Mn4  1  0.226977  0.997447  0.000000  1
  Mn  Mn5  1  0.770470  0.773023  0.000000  1
  Si  Si6  1  0.000000  0.000000  0.500000  1
  Si  Si7  1  0.333333  0.666667  0.000000  1
  As  As8  1  0.666667  0.333333  0.000000  1
