# generated using pymatgen
data_Zn21Pt5
_symmetry_space_group_name_H-M   'P 1'
_cell_length_a   7.91970302
_cell_length_b   7.98292585
_cell_length_c   7.92246200
_cell_angle_alpha   70.45021875
_cell_angle_beta   70.91842839
_cell_angle_gamma   109.46953069
_symmetry_Int_Tables_number   1
_chemical_formula_structural   Zn21Pt5
_chemical_formula_sum   'Zn21 Pt5'
_cell_volume   387.05101473
_cell_formula_units_Z   1
loop_
 _symmetry_equiv_pos_site_id
 _symmetry_equiv_pos_as_xyz
  1  'x, y, z'
loop_
 _atom_site_type_symbol
 _atom_site_label
 _atom_site_symmetry_multiplicity
 _atom_site_fract_x
 _atom_site_fract_y
 _atom_site_fract_z
 _atom_site_occupancy
  Zn  Zn0  1  0.994463  0.355326  0.641421  1
  Zn  Zn1  1  0.004421  0.000056  0.787002  1
  Zn  Zn2  1  0.774298  0.773571  0.225892  1
  Zn  Zn3  1  0.209859  0.000118  0.995543  1
  Zn  Zn4  1  0.000136  0.228027  0.000001  1
  Zn  Zn5  1  0.273460  0.257959  0.388515  1
  Zn  Zn6  1  0.014219  0.740452  0.646815  1
  Zn  Zn7  1  0.726619  0.000152  0.647738  1
  Zn  Zn8  1  0.658578  0.642564  0.628029  1
  Zn  Zn9  1  0.371196  0.642921  0.342029  1
  Zn  Zn10  1  0.645738  0.374128  0.357294  1
  Zn  Zn11  1  0.352769  0.743104  0.985854  1
  Zn  Zn12  1  0.609579  0.256376  0.729785  1
  Zn  Zn13  1  0.351154  0.999016  0.272608  1
  Zn  Zn14  1  0.724558  0.355375  0.988352  1
  Zn  Zn15  1  0.015010  0.357107  0.273167  1
  Zn  Zn16  1  0.272349  0.626868  0.729168  1
  Zn  Zn17  1  0.641074  0.646894  0.993721  1
  Zn  Zn18  1  0.006783  0.646851  0.357800  1
  Zn  Zn19  1  0.646619  0.998844  0.352973  1
  Zn  Zn20  1  0.359197  0.354662  0.005074  1
  Pt  Pt21  1  0.368457  0.000160  0.631172  1
  Pt  Pt22  1  0.996881  0.000271  0.343769  1
  Pt  Pt23  1  0.343184  0.361374  0.656316  1
  Pt  Pt24  1  0.657546  0.000174  0.002662  1
  Pt  Pt25  1  0.981855  0.637652  0.017307  1
