# generated using pymatgen
data_Tb3Ho7In8(OsAu)2
_symmetry_space_group_name_H-M   'P 1'
_cell_length_a   3.64864100
_cell_length_b   8.16911900
_cell_length_c   18.34003300
_cell_angle_alpha   89.91493777
_cell_angle_beta   90.00000000
_cell_angle_gamma   90.00000000
_symmetry_Int_Tables_number   1
_chemical_formula_structural   Tb3Ho7In8(OsAu)2
_chemical_formula_sum   'Tb3 Ho7 In8 Os2 Au2'
_cell_volume   546.64576873
_cell_formula_units_Z   1
loop_
 _symmetry_equiv_pos_site_id
 _symmetry_equiv_pos_as_xyz
  1  'x, y, z'
loop_
 _atom_site_type_symbol
 _atom_site_label
 _atom_site_symmetry_multiplicity
 _atom_site_fract_x
 _atom_site_fract_y
 _atom_site_fract_z
 _atom_site_occupancy
  Tb  Tb0  1  0.000000  0.500218  0.500002  1
  Tb  Tb1  1  0.000000  0.000167  0.999811  1
  Tb  Tb2  1  0.000000  0.757952  0.282782  1
  Ho  Ho3  1  0.000000  0.241008  0.717556  1
  Ho  Ho4  1  0.000000  0.777960  0.777500  1
  Ho  Ho5  1  0.000000  0.221914  0.222338  1
  Ho  Ho6  1  0.000000  0.620284  0.080855  1
  Ho  Ho7  1  0.000000  0.380034  0.918587  1
  Ho  Ho8  1  0.000000  0.884966  0.586038  1
  Ho  Ho9  1  0.000000  0.115704  0.414752  1
  In  In10  1  0.500000  0.708772  0.933032  1
  In  In11  1  0.500000  0.291434  0.066423  1
  In  In12  1  0.500000  0.794999  0.432560  1
  In  In13  1  0.500000  0.206058  0.568571  1
  In  In14  1  0.500000  0.583259  0.648288  1
  In  In15  1  0.500000  0.415140  0.351592  1
  In  In16  1  0.500000  0.924147  0.149929  1
  In  In17  1  0.500000  0.076183  0.849861  1
  Os  Os18  1  0.500000  0.979442  0.695217  1
  Os  Os19  1  0.500000  0.022262  0.305167  1
  Au  Au20  1  0.500000  0.521433  0.197293  1
  Au  Au21  1  0.500000  0.476664  0.801847  1
