# generated using pymatgen
data_HoEr2B7W
_symmetry_space_group_name_H-M   'P 1'
_cell_length_a   8.11515123
_cell_length_b   8.11515077
_cell_length_c   9.46095600
_cell_angle_alpha   90.00000000
_cell_angle_beta   90.00000000
_cell_angle_gamma   155.54147302
_symmetry_Int_Tables_number   1
_chemical_formula_structural   HoEr2B7W
_chemical_formula_sum   'Ho2 Er4 B14 W2'
_cell_volume   257.96734214
_cell_formula_units_Z   2
loop_
 _symmetry_equiv_pos_site_id
 _symmetry_equiv_pos_as_xyz
  1  'x, y, z'
loop_
 _atom_site_type_symbol
 _atom_site_label
 _atom_site_symmetry_multiplicity
 _atom_site_fract_x
 _atom_site_fract_y
 _atom_site_fract_z
 _atom_site_occupancy
  Ho  Ho0  1  0.245422  0.754578  0.250000  1
  Ho  Ho1  1  0.754578  0.245422  0.750000  1
  Er  Er2  1  0.892669  0.107331  0.440154  1
  Er  Er3  1  0.107331  0.892669  0.559846  1
  Er  Er4  1  0.892669  0.107331  0.059846  1
  Er  Er5  1  0.107331  0.892669  0.940154  1
  B  B6  1  0.727738  0.272262  0.467150  1
  B  B7  1  0.272262  0.727738  0.532850  1
  B  B8  1  0.727738  0.272262  0.032850  1
  B  B9  1  0.272262  0.727738  0.967150  1
  B  B10  1  0.635219  0.364781  0.146786  1
  B  B11  1  0.364781  0.635219  0.853214  1
  B  B12  1  0.635219  0.364781  0.353214  1
  B  B13  1  0.364781  0.635219  0.646786  1
  B  B14  1  0.519193  0.480807  0.091239  1
  B  B15  1  0.480807  0.519193  0.908761  1
  B  B16  1  0.519193  0.480807  0.408761  1
  B  B17  1  0.480807  0.519193  0.591239  1
  B  B18  1  0.453708  0.546292  0.250000  1
  B  B19  1  0.546292  0.453708  0.750000  1
  W  W20  1  0.052867  0.947133  0.250000  1
  W  W21  1  0.947133  0.052867  0.750000  1
