# generated using pymatgen
data_Tm2Lu3Sn4
_symmetry_space_group_name_H-M   'P 1'
_cell_length_a   7.93341800
_cell_length_b   8.06225800
_cell_length_c   15.23076100
_cell_angle_alpha   90.00000000
_cell_angle_beta   90.00000000
_cell_angle_gamma   90.00000000
_symmetry_Int_Tables_number   1
_chemical_formula_structural   Tm2Lu3Sn4
_chemical_formula_sum   'Tm8 Lu12 Sn16'
_cell_volume   974.17870602
_cell_formula_units_Z   4
loop_
 _symmetry_equiv_pos_site_id
 _symmetry_equiv_pos_as_xyz
  1  'x, y, z'
loop_
 _atom_site_type_symbol
 _atom_site_label
 _atom_site_symmetry_multiplicity
 _atom_site_fract_x
 _atom_site_fract_y
 _atom_site_fract_z
 _atom_site_occupancy
  Tm  Tm0  1  0.522108  0.320754  0.903100  1
  Tm  Tm1  1  0.022108  0.179246  0.596900  1
  Tm  Tm2  1  0.477892  0.679246  0.403100  1
  Tm  Tm3  1  0.977892  0.820754  0.096900  1
  Tm  Tm4  1  0.477892  0.679246  0.096900  1
  Tm  Tm5  1  0.977892  0.820754  0.403100  1
  Tm  Tm6  1  0.522108  0.320754  0.596900  1
  Tm  Tm7  1  0.022108  0.179246  0.903100  1
  Lu  Lu8  1  0.367482  0.836729  0.877130  1
  Lu  Lu9  1  0.867482  0.663271  0.622870  1
  Lu  Lu10  1  0.632518  0.163271  0.377130  1
  Lu  Lu11  1  0.132518  0.336729  0.122870  1
  Lu  Lu12  1  0.632518  0.163271  0.122870  1
  Lu  Lu13  1  0.132518  0.336729  0.377130  1
  Lu  Lu14  1  0.367482  0.836729  0.622870  1
  Lu  Lu15  1  0.867482  0.663271  0.877130  1
  Lu  Lu16  1  0.197799  0.504232  0.750000  1
  Lu  Lu17  1  0.697799  0.995768  0.750000  1
  Lu  Lu18  1  0.802201  0.495768  0.250000  1
  Lu  Lu19  1  0.302201  0.004232  0.250000  1
  Sn  Sn20  1  0.293372  0.037247  0.041228  1
  Sn  Sn21  1  0.793372  0.462753  0.458772  1
  Sn  Sn22  1  0.706628  0.962753  0.541228  1
  Sn  Sn23  1  0.206628  0.537247  0.958772  1
  Sn  Sn24  1  0.706628  0.962753  0.958772  1
  Sn  Sn25  1  0.206628  0.537247  0.541228  1
  Sn  Sn26  1  0.293372  0.037247  0.458772  1
  Sn  Sn27  1  0.793372  0.462753  0.041228  1
  Sn  Sn28  1  0.563748  0.620444  0.750000  1
  Sn  Sn29  1  0.063748  0.879556  0.750000  1
  Sn  Sn30  1  0.436252  0.379556  0.250000  1
  Sn  Sn31  1  0.936252  0.120444  0.250000  1
  Sn  Sn32  1  0.331659  0.149307  0.750000  1
  Sn  Sn33  1  0.831659  0.350693  0.750000  1
  Sn  Sn34  1  0.668341  0.850693  0.250000  1
  Sn  Sn35  1  0.168341  0.649307  0.250000  1
