# generated using pymatgen
data_La2Nd2Cu5Ni9
_symmetry_space_group_name_H-M   'P 1'
_cell_length_a   5.05655063
_cell_length_b   5.07215279
_cell_length_c   12.60721406
_cell_angle_alpha   78.39514399
_cell_angle_beta   78.51989168
_cell_angle_gamma   59.89788371
_symmetry_Int_Tables_number   1
_chemical_formula_structural   La2Nd2Cu5Ni9
_chemical_formula_sum   'La2 Nd2 Cu5 Ni9'
_cell_volume   272.17433725
_cell_formula_units_Z   1
loop_
 _symmetry_equiv_pos_site_id
 _symmetry_equiv_pos_as_xyz
  1  'x, y, z'
loop_
 _atom_site_type_symbol
 _atom_site_label
 _atom_site_symmetry_multiplicity
 _atom_site_fract_x
 _atom_site_fract_y
 _atom_site_fract_z
 _atom_site_occupancy
  La  La0  1  0.853287  0.853217  0.440278  1
  La  La1  1  0.146713  0.146783  0.559722  1
  Nd  Nd2  1  0.948366  0.949332  0.152969  1
  Nd  Nd3  1  0.051634  0.050668  0.847031  1
  Cu  Cu4  1  0.718312  0.723512  0.834662  1
  Cu  Cu5  1  0.281688  0.276488  0.165338  1
  Cu  Cu6  1  0.607635  0.613969  0.164427  1
  Cu  Cu7  1  0.392365  0.386031  0.835573  1
  Cu  Cu8  1  0.000000  0.500000  0.000000  1
  Ni  Ni9  1  0.500000  0.500000  0.500000  1
  Ni  Ni10  1  0.500000  0.000000  0.000000  1
  Ni  Ni11  1  0.500000  0.500000  0.000000  1
  Ni  Ni12  1  0.391325  0.391731  0.327785  1
  Ni  Ni13  1  0.889513  0.391503  0.327481  1
  Ni  Ni14  1  0.391325  0.889159  0.327785  1
  Ni  Ni15  1  0.608675  0.608269  0.672215  1
  Ni  Ni16  1  0.110487  0.608497  0.672519  1
  Ni  Ni17  1  0.608675  0.110841  0.672215  1
