# generated using pymatgen
data_Y20FeCo3Bi8
_symmetry_space_group_name_H-M   'P 1'
_cell_length_a   8.04358627
_cell_length_b   8.93763900
_cell_length_c   12.42430273
_cell_angle_alpha   90.00000000
_cell_angle_beta   90.07334676
_cell_angle_gamma   90.00000000
_symmetry_Int_Tables_number   1
_chemical_formula_structural   Y20FeCo3Bi8
_chemical_formula_sum   'Y20 Fe1 Co3 Bi8'
_cell_volume   893.19072065
_cell_formula_units_Z   1
loop_
 _symmetry_equiv_pos_site_id
 _symmetry_equiv_pos_as_xyz
  1  'x, y, z'
loop_
 _atom_site_type_symbol
 _atom_site_label
 _atom_site_symmetry_multiplicity
 _atom_site_fract_x
 _atom_site_fract_y
 _atom_site_fract_z
 _atom_site_occupancy
  Y  Y0  1  0.847918  0.750000  0.800736  1
  Y  Y1  1  0.151517  0.250000  0.198350  1
  Y  Y2  1  0.348642  0.250000  0.698634  1
  Y  Y3  1  0.650521  0.750000  0.301919  1
  Y  Y4  1  0.380711  0.750000  0.689647  1
  Y  Y5  1  0.620407  0.250000  0.309859  1
  Y  Y6  1  0.879910  0.250000  0.810164  1
  Y  Y7  1  0.119675  0.750000  0.189121  1
  Y  Y8  1  0.953063  0.750000  0.503379  1
  Y  Y9  1  0.045866  0.250000  0.497116  1
  Y  Y10  1  0.455273  0.250000  0.997293  1
  Y  Y11  1  0.544945  0.750000  0.003087  1
  Y  Y12  1  0.675782  0.032246  0.562740  1
  Y  Y13  1  0.322812  0.965837  0.436953  1
  Y  Y14  1  0.176881  0.966924  0.936556  1
  Y  Y15  1  0.322812  0.534163  0.436953  1
  Y  Y16  1  0.823264  0.034069  0.063380  1
  Y  Y17  1  0.675782  0.467754  0.562740  1
  Y  Y18  1  0.823264  0.465931  0.063380  1
  Y  Y19  1  0.176881  0.533076  0.936556  1
  Fe  Fe20  1  0.563422  0.750000  0.509324  1
  Co  Co21  1  0.439323  0.250000  0.491439  1
  Co  Co22  1  0.059161  0.250000  0.991679  1
  Co  Co23  1  0.940911  0.750000  0.007760  1
  Bi  Bi24  1  0.570683  0.492621  0.826254  1
  Bi  Bi25  1  0.429208  0.507465  0.174104  1
  Bi  Bi26  1  0.070861  0.507503  0.674146  1
  Bi  Bi27  1  0.429208  0.992535  0.174104  1
  Bi  Bi28  1  0.929875  0.492588  0.326114  1
  Bi  Bi29  1  0.570683  0.007379  0.826254  1
  Bi  Bi30  1  0.929875  0.007412  0.326114  1
  Bi  Bi31  1  0.070861  0.992497  0.674146  1
