# generated using pymatgen
data_Tm2Rh5Pb
_symmetry_space_group_name_H-M   'P 1'
_cell_length_a   5.73232632
_cell_length_b   5.73232472
_cell_length_c   8.55152300
_cell_angle_alpha   90.00000000
_cell_angle_beta   90.00000000
_cell_angle_gamma   96.46446548
_symmetry_Int_Tables_number   1
_chemical_formula_structural   Tm2Rh5Pb
_chemical_formula_sum   'Tm4 Rh10 Pb2'
_cell_volume   279.21261872
_cell_formula_units_Z   2
loop_
 _symmetry_equiv_pos_site_id
 _symmetry_equiv_pos_as_xyz
  1  'x, y, z'
loop_
 _atom_site_type_symbol
 _atom_site_label
 _atom_site_symmetry_multiplicity
 _atom_site_fract_x
 _atom_site_fract_y
 _atom_site_fract_z
 _atom_site_occupancy
  Tm  Tm0  1  0.779166  0.220834  0.500000  1
  Tm  Tm1  1  0.220834  0.779166  0.000000  1
  Tm  Tm2  1  0.220834  0.779166  0.500000  1
  Tm  Tm3  1  0.779166  0.220834  0.000000  1
  Rh  Rh4  1  0.735491  0.735491  0.000811  1
  Rh  Rh5  1  0.735491  0.735491  0.499189  1
  Rh  Rh6  1  0.264509  0.264509  0.999189  1
  Rh  Rh7  1  0.264509  0.264509  0.500811  1
  Rh  Rh8  1  0.499582  0.000616  0.750000  1
  Rh  Rh9  1  0.500418  0.999384  0.250000  1
  Rh  Rh10  1  0.000430  0.000430  0.250000  1
  Rh  Rh11  1  0.999570  0.999570  0.750000  1
  Rh  Rh12  1  0.000616  0.499582  0.750000  1
  Rh  Rh13  1  0.999384  0.500418  0.250000  1
  Pb  Pb14  1  0.500960  0.500960  0.750000  1
  Pb  Pb15  1  0.499040  0.499040  0.250000  1
