# generated using pymatgen
data_Sr2Zn3Ag14
_symmetry_space_group_name_H-M   'P 1'
_cell_length_a   7.29919244
_cell_length_b   7.29919273
_cell_length_c   7.29919203
_cell_angle_alpha   82.70801074
_cell_angle_beta   82.70801111
_cell_angle_gamma   82.70800774
_symmetry_Int_Tables_number   1
_chemical_formula_structural   Sr2Zn3Ag14
_chemical_formula_sum   'Sr2 Zn3 Ag14'
_cell_volume   380.18820264
_cell_formula_units_Z   1
loop_
 _symmetry_equiv_pos_site_id
 _symmetry_equiv_pos_as_xyz
  1  'x, y, z'
loop_
 _atom_site_type_symbol
 _atom_site_label
 _atom_site_symmetry_multiplicity
 _atom_site_fract_x
 _atom_site_fract_y
 _atom_site_fract_z
 _atom_site_occupancy
  Sr  Sr0  1  0.654342  0.654342  0.654342  1
  Sr  Sr1  1  0.345658  0.345658  0.345658  1
  Zn  Zn2  1  0.000000  0.000000  0.500000  1
  Zn  Zn3  1  0.000000  0.500000  0.000000  1
  Zn  Zn4  1  0.500000  0.000000  0.000000  1
  Ag  Ag5  1  0.343864  0.343864  0.857300  1
  Ag  Ag6  1  0.857300  0.343864  0.343864  1
  Ag  Ag7  1  0.100991  0.100991  0.100991  1
  Ag  Ag8  1  0.899009  0.899009  0.899009  1
  Ag  Ag9  1  0.296025  0.703975  0.000000  1
  Ag  Ag10  1  0.703975  0.000000  0.296025  1
  Ag  Ag11  1  0.000000  0.296025  0.703975  1
  Ag  Ag12  1  0.703975  0.296025  0.000000  1
  Ag  Ag13  1  0.296025  0.000000  0.703975  1
  Ag  Ag14  1  0.000000  0.703975  0.296025  1
  Ag  Ag15  1  0.142700  0.656136  0.656136  1
  Ag  Ag16  1  0.656136  0.656136  0.142700  1
  Ag  Ag17  1  0.656136  0.142700  0.656136  1
  Ag  Ag18  1  0.343864  0.857300  0.343864  1
