# generated using pymatgen
data_Tb4CeHo5(SiB4)4
_symmetry_space_group_name_H-M   'P 1'
_cell_length_a   7.23661811
_cell_length_b   7.23712515
_cell_length_c   8.12180101
_cell_angle_alpha   89.99356821
_cell_angle_beta   89.99944925
_cell_angle_gamma   90.07113417
_symmetry_Int_Tables_number   1
_chemical_formula_structural   Tb4CeHo5(SiB4)4
_chemical_formula_sum   'Tb4 Ce1 Ho5 Si4 B16'
_cell_volume   425.35715716
_cell_formula_units_Z   1
loop_
 _symmetry_equiv_pos_site_id
 _symmetry_equiv_pos_as_xyz
  1  'x, y, z'
loop_
 _atom_site_type_symbol
 _atom_site_label
 _atom_site_symmetry_multiplicity
 _atom_site_fract_x
 _atom_site_fract_y
 _atom_site_fract_z
 _atom_site_occupancy
  Tb  Tb0  1  0.318651  0.818704  0.775935  1
  Tb  Tb1  1  0.319539  0.819576  0.223874  1
  Tb  Tb2  1  0.819527  0.680477  0.223348  1
  Tb  Tb3  1  0.680819  0.180869  0.775592  1
  Ce  Ce4  1  0.682233  0.182279  0.231507  1
  Ho  Ho5  1  0.819683  0.680747  0.777933  1
  Ho  Ho6  1  0.180795  0.319624  0.778036  1
  Ho  Ho7  1  0.180564  0.319433  0.221698  1
  Ho  Ho8  1  0.000729  0.999301  0.500579  1
  Ho  Ho9  1  0.498851  0.500451  0.500568  1
  Si  Si10  1  0.115924  0.615460  0.502268  1
  Si  Si11  1  0.886554  0.385994  0.501249  1
  Si  Si12  1  0.384090  0.114829  0.500008  1
  Si  Si13  1  0.614369  0.884501  0.500345  1
  B  B14  1  0.172605  0.039354  0.998750  1
  B  B15  1  0.827941  0.960804  0.999587  1
  B  B16  1  0.961127  0.171830  0.999406  1
  B  B17  1  0.327253  0.539190  0.998869  1
  B  B18  1  0.039522  0.827461  0.998764  1
  B  B19  1  0.671616  0.460779  0.999276  1
  B  B20  1  0.538976  0.672394  0.998682  1
  B  B21  1  0.460429  0.327729  0.999660  1
  B  B22  1  0.090098  0.589848  0.998857  1
  B  B23  1  0.909811  0.409527  0.000635  1
  B  B24  1  0.409632  0.090140  0.999226  1
  B  B25  1  0.590064  0.909679  0.999232  1
  B  B26  1  0.999833  0.999928  0.161062  1
  B  B27  1  0.000199  0.999777  0.836989  1
  B  B28  1  0.499715  0.500100  0.836991  1
  B  B29  1  0.498850  0.499212  0.161075  1
