# generated using pymatgen
data_Ho5Er(MoO6)2
_symmetry_space_group_name_H-M   'P 1'
_cell_length_a   6.60421448
_cell_length_b   6.60754930
_cell_length_c   6.60761815
_cell_angle_alpha   92.07626521
_cell_angle_beta   92.09833053
_cell_angle_gamma   92.06250191
_symmetry_Int_Tables_number   1
_chemical_formula_structural   Ho5Er(MoO6)2
_chemical_formula_sum   'Ho5 Er1 Mo2 O12'
_cell_volume   287.75746777
_cell_formula_units_Z   1
loop_
 _symmetry_equiv_pos_site_id
 _symmetry_equiv_pos_as_xyz
  1  'x, y, z'
loop_
 _atom_site_type_symbol
 _atom_site_label
 _atom_site_symmetry_multiplicity
 _atom_site_fract_x
 _atom_site_fract_y
 _atom_site_fract_z
 _atom_site_occupancy
  Ho  Ho0  1  0.931118  0.439769  0.746658  1
  Ho  Ho1  1  0.440304  0.746923  0.931177  1
  Ho  Ho2  1  0.253148  0.068527  0.559803  1
  Ho  Ho3  1  0.068465  0.560444  0.253042  1
  Ho  Ho4  1  0.560140  0.252899  0.069037  1
  Er  Er5  1  0.746945  0.931225  0.439970  1
  Mo  Mo6  1  0.500366  0.499968  0.499866  1
  Mo  Mo7  1  0.999466  0.999811  0.999781  1
  O  O8  1  0.597114  0.466707  0.811794  1
  O  O9  1  0.467878  0.812071  0.596684  1
  O  O10  1  0.811837  0.598442  0.466881  1
  O  O11  1  0.402869  0.533159  0.188174  1
  O  O12  1  0.534340  0.187943  0.403269  1
  O  O13  1  0.188326  0.402746  0.533161  1
  O  O14  1  0.068729  0.909250  0.311032  1
  O  O15  1  0.908847  0.310960  0.069648  1
  O  O16  1  0.689013  0.929770  0.092492  1
  O  O17  1  0.091156  0.689096  0.930103  1
  O  O18  1  0.929294  0.090484  0.688709  1
  O  O19  1  0.310644  0.069805  0.908719  1
