# generated using pymatgen
data_Pr3Ag3Rh
_symmetry_space_group_name_H-M   'P 1'
_cell_length_a   8.44939170
_cell_length_b   8.44939201
_cell_length_c   8.44939383
_cell_angle_alpha   114.36491366
_cell_angle_beta   114.36492574
_cell_angle_gamma   114.36491709
_symmetry_Int_Tables_number   1
_chemical_formula_structural   Pr3Ag3Rh
_chemical_formula_sum   'Pr6 Ag6 Rh2'
_cell_volume   356.35449854
_cell_formula_units_Z   2
loop_
 _symmetry_equiv_pos_site_id
 _symmetry_equiv_pos_as_xyz
  1  'x, y, z'
loop_
 _atom_site_type_symbol
 _atom_site_label
 _atom_site_symmetry_multiplicity
 _atom_site_fract_x
 _atom_site_fract_y
 _atom_site_fract_z
 _atom_site_occupancy
  Pr  Pr0  1  0.391747  0.048364  0.283303  1
  Pr  Pr1  1  0.048364  0.283303  0.391747  1
  Pr  Pr2  1  0.283303  0.391747  0.048364  1
  Pr  Pr3  1  0.608253  0.951636  0.716697  1
  Pr  Pr4  1  0.951636  0.716697  0.608253  1
  Pr  Pr5  1  0.716697  0.608253  0.951636  1
  Ag  Ag6  1  0.217351  0.047743  0.560247  1
  Ag  Ag7  1  0.047743  0.560247  0.217351  1
  Ag  Ag8  1  0.560247  0.217351  0.047743  1
  Ag  Ag9  1  0.782649  0.952257  0.439753  1
  Ag  Ag10  1  0.952257  0.439753  0.782649  1
  Ag  Ag11  1  0.439753  0.782649  0.952257  1
  Rh  Rh12  1  0.000000  0.000000  0.000000  1
  Rh  Rh13  1  0.500000  0.500000  0.500000  1
