# generated using pymatgen
data_Sr4AcSn3H
_symmetry_space_group_name_H-M   'P 1'
_cell_length_a   10.07355837
_cell_length_b   10.07355696
_cell_length_c   10.08420443
_cell_angle_alpha   129.07352659
_cell_angle_beta   129.07351859
_cell_angle_gamma   74.81321153
_symmetry_Int_Tables_number   1
_chemical_formula_structural   Sr4AcSn3H
_chemical_formula_sum   'Sr8 Ac2 Sn6 H2'
_cell_volume   601.00012091
_cell_formula_units_Z   2
loop_
 _symmetry_equiv_pos_site_id
 _symmetry_equiv_pos_as_xyz
  1  'x, y, z'
loop_
 _atom_site_type_symbol
 _atom_site_label
 _atom_site_symmetry_multiplicity
 _atom_site_fract_x
 _atom_site_fract_y
 _atom_site_fract_z
 _atom_site_occupancy
  Sr  Sr0  1  0.505963  0.505963  0.000000  1
  Sr  Sr1  1  0.005963  0.005963  0.000000  1
  Sr  Sr2  1  0.013211  0.186277  0.500000  1
  Sr  Sr3  1  0.686277  0.513211  0.500000  1
  Sr  Sr4  1  0.486968  0.986968  0.178910  1
  Sr  Sr5  1  0.808059  0.308059  0.821090  1
  Sr  Sr6  1  0.985388  0.812449  0.500000  1
  Sr  Sr7  1  0.312449  0.485388  0.500000  1
  Ac  Ac8  1  0.522424  0.022424  0.841805  1
  Ac  Ac9  1  0.180619  0.680619  0.158195  1
  Sn  Sn10  1  0.251205  0.251205  0.000000  1
  Sn  Sn11  1  0.751205  0.751205  0.000000  1
  Sn  Sn12  1  0.875949  0.375949  0.254449  1
  Sn  Sn13  1  0.121501  0.621501  0.745551  1
  Sn  Sn14  1  0.372899  0.118709  0.500000  1
  Sn  Sn15  1  0.618709  0.872899  0.500000  1
  H  H16  1  0.252326  0.752326  0.500000  1
  H  H17  1  0.748888  0.248888  0.500000  1
