# generated using pymatgen
data_LaEuCu15Si8Ni3
_symmetry_space_group_name_H-M   'P 1'
_cell_length_a   8.17273954
_cell_length_b   8.17331380
_cell_length_c   8.15947748
_cell_angle_alpha   120.82710806
_cell_angle_beta   120.23978786
_cell_angle_gamma   89.19411160
_symmetry_Int_Tables_number   1
_chemical_formula_structural   LaEuCu15Si8Ni3
_chemical_formula_sum   'La1 Eu1 Cu15 Si8 Ni3'
_cell_volume   381.84873484
_cell_formula_units_Z   1
loop_
 _symmetry_equiv_pos_site_id
 _symmetry_equiv_pos_as_xyz
  1  'x, y, z'
loop_
 _atom_site_type_symbol
 _atom_site_label
 _atom_site_symmetry_multiplicity
 _atom_site_fract_x
 _atom_site_fract_y
 _atom_site_fract_z
 _atom_site_occupancy
  La  La0  1  0.252892  0.250234  0.999804  1
  Eu  Eu1  1  0.749428  0.747439  0.999630  1
  Cu  Cu2  1  0.567064  0.698734  0.265723  1
  Cu  Cu3  1  0.796557  0.930037  0.726285  1
  Cu  Cu4  1  0.312846  0.814191  0.757432  1
  Cu  Cu5  1  0.811224  0.056028  0.501696  1
  Cu  Cu6  1  0.430295  0.300700  0.731090  1
  Cu  Cu7  1  0.188587  0.944536  0.500407  1
  Cu  Cu8  1  0.446063  0.690853  0.502405  1
  Cu  Cu9  1  0.942829  0.444938  0.757312  1
  Cu  Cu10  1  0.690818  0.186933  0.246254  1
  Cu  Cu11  1  0.058257  0.555781  0.245861  1
  Cu  Cu12  1  0.295502  0.570699  0.866454  1
  Cu  Cu13  1  0.933151  0.201045  0.133831  1
  Cu  Cu14  1  0.066534  0.798466  0.864940  1
  Cu  Cu15  1  0.203187  0.069972  0.272930  1
  Cu  Cu16  1  0.556324  0.312711  0.501672  1
  Si  Si17  1  0.445548  0.946334  0.162020  1
  Si  Si18  1  0.215382  0.716913  0.162090  1
  Si  Si19  1  0.713285  0.548961  0.488726  1
  Si  Si20  1  0.938909  0.774892  0.487358  1
  Si  Si21  1  0.286214  0.447647  0.501846  1
  Si  Si22  1  0.779839  0.289476  0.844069  1
  Si  Si23  1  0.555455  0.063197  0.843700  1
  Si  Si24  1  0.053844  0.215137  0.501014  1
  Ni  Ni25  1  0.500429  0.999394  0.499609  1
  Ni  Ni26  1  0.002970  0.497883  0.500709  1
  Ni  Ni27  1  0.706567  0.426870  0.135133  1
