# generated using pymatgen
data_Rb2CaH12Ir2Pb
_symmetry_space_group_name_H-M   'P 1'
_cell_length_a   7.92352000
_cell_length_b   7.92352000
_cell_length_c   7.83873300
_cell_angle_alpha   90.00000000
_cell_angle_beta   90.00000000
_cell_angle_gamma   90.00000000
_symmetry_Int_Tables_number   1
_chemical_formula_structural   Rb2CaH12Ir2Pb
_chemical_formula_sum   'Rb4 Ca2 H24 Ir4 Pb2'
_cell_volume   492.13266144
_cell_formula_units_Z   2
loop_
 _symmetry_equiv_pos_site_id
 _symmetry_equiv_pos_as_xyz
  1  'x, y, z'
loop_
 _atom_site_type_symbol
 _atom_site_label
 _atom_site_symmetry_multiplicity
 _atom_site_fract_x
 _atom_site_fract_y
 _atom_site_fract_z
 _atom_site_occupancy
  Rb  Rb0  1  0.000000  0.000000  0.500000  1
  Rb  Rb1  1  0.000000  0.500000  0.000000  1
  Rb  Rb2  1  0.500000  0.000000  0.000000  1
  Rb  Rb3  1  0.000000  0.000000  0.000000  1
  Ca  Ca4  1  0.500000  0.500000  0.500000  1
  Ca  Ca5  1  0.500000  0.500000  0.000000  1
  H  H6  1  0.724728  0.724728  0.487379  1
  H  H7  1  0.275272  0.275272  0.487379  1
  H  H8  1  0.067175  0.731616  0.737167  1
  H  H9  1  0.268384  0.932825  0.737167  1
  H  H10  1  0.731616  0.067175  0.737167  1
  H  H11  1  0.932825  0.268384  0.737167  1
  H  H12  1  0.717956  0.491772  0.737900  1
  H  H13  1  0.491772  0.717956  0.737900  1
  H  H14  1  0.508228  0.282044  0.737900  1
  H  H15  1  0.282044  0.508228  0.737900  1
  H  H16  1  0.278714  0.721286  0.943173  1
  H  H17  1  0.721286  0.278714  0.943173  1
  H  H18  1  0.721286  0.721286  0.056827  1
  H  H19  1  0.278714  0.278714  0.056827  1
  H  H20  1  0.282044  0.491772  0.262100  1
  H  H21  1  0.508228  0.717956  0.262100  1
  H  H22  1  0.491772  0.282044  0.262100  1
  H  H23  1  0.717956  0.508228  0.262100  1
  H  H24  1  0.932825  0.731616  0.262833  1
  H  H25  1  0.731616  0.932825  0.262833  1
  H  H26  1  0.268384  0.067175  0.262833  1
  H  H27  1  0.067175  0.268384  0.262833  1
  H  H28  1  0.275272  0.724728  0.512621  1
  H  H29  1  0.724728  0.275272  0.512621  1
  Ir  Ir30  1  0.279286  0.720714  0.727731  1
  Ir  Ir31  1  0.720714  0.279286  0.727731  1
  Ir  Ir32  1  0.720714  0.720714  0.272269  1
  Ir  Ir33  1  0.279286  0.279286  0.272269  1
  Pb  Pb34  1  0.000000  0.500000  0.500000  1
  Pb  Pb35  1  0.500000  0.000000  0.500000  1
