# generated using pymatgen
data_Tm3Pa(Al3Ir)6
_symmetry_space_group_name_H-M   'P 1'
_cell_length_a   7.55991284
_cell_length_b   7.55571129
_cell_length_c   9.39772000
_cell_angle_alpha   90.00000000
_cell_angle_beta   90.00000000
_cell_angle_gamma   119.62384980
_symmetry_Int_Tables_number   1
_chemical_formula_structural   Tm3Pa(Al3Ir)6
_chemical_formula_sum   'Tm3 Pa1 Al18 Ir6'
_cell_volume   466.63676476
_cell_formula_units_Z   1
loop_
 _symmetry_equiv_pos_site_id
 _symmetry_equiv_pos_as_xyz
  1  'x, y, z'
loop_
 _atom_site_type_symbol
 _atom_site_label
 _atom_site_symmetry_multiplicity
 _atom_site_fract_x
 _atom_site_fract_y
 _atom_site_fract_z
 _atom_site_occupancy
  Tm  Tm0  1  0.004831  0.328928  0.750000  1
  Tm  Tm1  1  0.672110  0.994972  0.250000  1
  Tm  Tm2  1  0.329281  0.004428  0.750000  1
  Pa  Pa3  1  0.995971  0.671088  0.250000  1
  Al  Al4  1  0.131051  0.130393  0.250000  1
  Al  Al5  1  0.873011  0.874675  0.750000  1
  Al  Al6  1  0.000518  0.331813  0.074525  1
  Al  Al7  1  0.999519  0.664720  0.920012  1
  Al  Al8  1  0.999519  0.664720  0.579988  1
  Al  Al9  1  0.338822  0.003888  0.425332  1
  Al  Al10  1  0.000518  0.331813  0.425475  1
  Al  Al11  1  0.665100  0.000325  0.576360  1
  Al  Al12  1  0.665100  0.000325  0.923640  1
  Al  Al13  1  0.338822  0.003888  0.074668  1
  Al  Al14  1  0.332301  0.332445  0.556773  1
  Al  Al15  1  0.663289  0.666271  0.447688  1
  Al  Al16  1  0.663289  0.666271  0.052312  1
  Al  Al17  1  0.332301  0.332445  0.943227  1
  Al  Al18  1  0.339646  0.547307  0.250000  1
  Al  Al19  1  0.659327  0.449348  0.750000  1
  Al  Al20  1  0.546646  0.340896  0.250000  1
  Al  Al21  1  0.450382  0.660923  0.750000  1
  Ir  Ir22  1  0.674066  0.329710  0.001948  1
  Ir  Ir23  1  0.325732  0.672174  0.001971  1
  Ir  Ir24  1  0.325732  0.672174  0.498029  1
  Ir  Ir25  1  0.674066  0.329710  0.498052  1
  Ir  Ir26  1  0.999526  0.997176  0.002875  1
  Ir  Ir27  1  0.999526  0.997176  0.497125  1
