# generated using pymatgen
data_CdSnPt2O7
_symmetry_space_group_name_H-M   'P 1'
_cell_length_a   7.18163696
_cell_length_b   7.18163666
_cell_length_c   7.18265000
_cell_angle_alpha   59.99532307
_cell_angle_beta   59.99532444
_cell_angle_gamma   59.10775705
_symmetry_Int_Tables_number   1
_chemical_formula_structural   CdSnPt2O7
_chemical_formula_sum   'Cd2 Sn2 Pt4 O14'
_cell_volume   260.11893760
_cell_formula_units_Z   2
loop_
 _symmetry_equiv_pos_site_id
 _symmetry_equiv_pos_as_xyz
  1  'x, y, z'
loop_
 _atom_site_type_symbol
 _atom_site_label
 _atom_site_symmetry_multiplicity
 _atom_site_fract_x
 _atom_site_fract_y
 _atom_site_fract_z
 _atom_site_occupancy
  Cd  Cd0  1  0.625000  0.125000  0.625000  1
  Cd  Cd1  1  0.125000  0.625000  0.625000  1
  Sn  Sn2  1  0.625000  0.625000  0.125000  1
  Sn  Sn3  1  0.625000  0.625000  0.625000  1
  Pt  Pt4  1  0.625000  0.125000  0.125000  1
  Pt  Pt5  1  0.125000  0.125000  0.125000  1
  Pt  Pt6  1  0.125000  0.625000  0.125000  1
  Pt  Pt7  1  0.125000  0.125000  0.625000  1
  O  O8  1  0.020655  0.469159  0.465325  1
  O  O9  1  0.786226  0.786226  0.213774  1
  O  O10  1  0.780841  0.229345  0.205140  1
  O  O11  1  0.020655  0.469159  0.044860  1
  O  O12  1  0.469159  0.020655  0.465325  1
  O  O13  1  0.727577  0.727577  0.772423  1
  O  O14  1  0.033199  0.033199  0.466801  1
  O  O15  1  0.780841  0.229345  0.784675  1
  O  O16  1  0.522423  0.522423  0.477577  1
  O  O17  1  0.216801  0.216801  0.783199  1
  O  O18  1  0.229345  0.780841  0.205140  1
  O  O19  1  0.469159  0.020655  0.044860  1
  O  O20  1  0.463774  0.463774  0.036226  1
  O  O21  1  0.229345  0.780841  0.784675  1
