# generated using pymatgen
data_Ho8Tm2(IrRh)3
_symmetry_space_group_name_H-M   'P 1'
_cell_length_a   10.83054007
_cell_length_b   10.83149500
_cell_length_c   6.34576804
_cell_angle_alpha   90.00000000
_cell_angle_beta   89.98697258
_cell_angle_gamma   90.00000000
_symmetry_Int_Tables_number   1
_chemical_formula_structural   Ho8Tm2(IrRh)3
_chemical_formula_sum   'Ho16 Tm4 Ir6 Rh6'
_cell_volume   744.42799858
_cell_formula_units_Z   2
loop_
 _symmetry_equiv_pos_site_id
 _symmetry_equiv_pos_as_xyz
  1  'x, y, z'
loop_
 _atom_site_type_symbol
 _atom_site_label
 _atom_site_symmetry_multiplicity
 _atom_site_fract_x
 _atom_site_fract_y
 _atom_site_fract_z
 _atom_site_occupancy
  Ho  Ho0  1  0.289822  0.088162  0.378092  1
  Ho  Ho1  1  0.289822  0.911838  0.878092  1
  Ho  Ho2  1  0.709022  0.089142  0.877742  1
  Ho  Ho3  1  0.709022  0.910858  0.377742  1
  Ho  Ho4  1  0.587058  0.789668  0.878391  1
  Ho  Ho5  1  0.587058  0.210332  0.378391  1
  Ho  Ho6  1  0.411620  0.789946  0.378161  1
  Ho  Ho7  1  0.411620  0.210054  0.878161  1
  Ho  Ho8  1  0.210148  0.411698  0.621653  1
  Ho  Ho9  1  0.210148  0.588302  0.121653  1
  Ho  Ho10  1  0.789758  0.412909  0.121788  1
  Ho  Ho11  1  0.789758  0.587091  0.621788  1
  Ho  Ho12  1  0.912140  0.709618  0.122433  1
  Ho  Ho13  1  0.912140  0.290382  0.622433  1
  Ho  Ho14  1  0.089435  0.709611  0.621741  1
  Ho  Ho15  1  0.089435  0.290389  0.121741  1
  Tm  Tm16  1  0.000386  0.999955  0.500022  1
  Tm  Tm17  1  0.000386  0.000045  0.000022  1
  Tm  Tm18  1  0.500096  0.499829  0.999969  1
  Tm  Tm19  1  0.500096  0.500171  0.499969  1
  Ir  Ir20  1  0.152441  0.152984  0.750058  1
  Ir  Ir21  1  0.152441  0.847016  0.250058  1
  Ir  Ir22  1  0.653625  0.346517  0.749928  1
  Ir  Ir23  1  0.653625  0.653483  0.249928  1
  Ir  Ir24  1  0.347037  0.346891  0.250092  1
  Ir  Ir25  1  0.347037  0.653109  0.750092  1
  Rh  Rh26  1  0.847078  0.152507  0.249945  1
  Rh  Rh27  1  0.847078  0.847493  0.749945  1
  Rh  Rh28  1  0.500618  0.000011  0.122607  1
  Rh  Rh29  1  0.500618  0.999989  0.622607  1
  Rh  Rh30  1  0.999715  0.500071  0.877378  1
  Rh  Rh31  1  0.999715  0.499929  0.377378  1
