# generated using pymatgen
data_Ho4ReB16Rh2W
_symmetry_space_group_name_H-M   'P 1'
_cell_length_a   3.57817000
_cell_length_b   5.97932260
_cell_length_c   11.58655700
_cell_angle_alpha   90.30265750
_cell_angle_beta   90.00000000
_cell_angle_gamma   90.00000000
_symmetry_Int_Tables_number   1
_chemical_formula_structural   Ho4ReB16Rh2W
_chemical_formula_sum   'Ho4 Re1 B16 Rh2 W1'
_cell_volume   247.89130800
_cell_formula_units_Z   1
loop_
 _symmetry_equiv_pos_site_id
 _symmetry_equiv_pos_as_xyz
  1  'x, y, z'
loop_
 _atom_site_type_symbol
 _atom_site_label
 _atom_site_symmetry_multiplicity
 _atom_site_fract_x
 _atom_site_fract_y
 _atom_site_fract_z
 _atom_site_occupancy
  Ho  Ho0  1  0.000000  0.628947  0.151940  1
  Ho  Ho1  1  0.000000  0.372801  0.848276  1
  Ho  Ho2  1  0.000000  0.128634  0.353542  1
  Ho  Ho3  1  0.000000  0.870918  0.647425  1
  Re  Re4  1  0.000000  0.869772  0.913268  1
  B  B5  1  0.500000  0.974831  0.194363  1
  B  B6  1  0.500000  0.022729  0.805935  1
  B  B7  1  0.500000  0.478188  0.307827  1
  B  B8  1  0.500000  0.523483  0.692642  1
  B  B9  1  0.500000  0.787669  0.314464  1
  B  B10  1  0.500000  0.210934  0.686039  1
  B  B11  1  0.500000  0.291050  0.188304  1
  B  B12  1  0.500000  0.711594  0.812963  1
  B  B13  1  0.500000  0.864092  0.469440  1
  B  B14  1  0.500000  0.135724  0.530898  1
  B  B15  1  0.500000  0.367775  0.030320  1
  B  B16  1  0.500000  0.634637  0.966827  1
  B  B17  1  0.500000  0.883584  0.045681  1
  B  B18  1  0.500000  0.112896  0.951165  1
  B  B19  1  0.500000  0.386818  0.453052  1
  B  B20  1  0.500000  0.613148  0.547486  1
  Rh  Rh21  1  0.000000  0.640716  0.406977  1
  Rh  Rh22  1  0.000000  0.357945  0.594806  1
  W  W23  1  0.000000  0.131114  0.086360  1
