# generated using pymatgen
data_CaYbErGa8Ag3
_symmetry_space_group_name_H-M   'P 1'
_cell_length_a   4.38288861
_cell_length_b   8.35978267
_cell_length_c   8.35978327
_cell_angle_alpha   71.12122451
_cell_angle_beta   74.96371387
_cell_angle_gamma   74.96370861
_symmetry_Int_Tables_number   1
_chemical_formula_structural   CaYbErGa8Ag3
_chemical_formula_sum   'Ca1 Yb1 Er1 Ga8 Ag3'
_cell_volume   274.69209551
_cell_formula_units_Z   1
loop_
 _symmetry_equiv_pos_site_id
 _symmetry_equiv_pos_as_xyz
  1  'x, y, z'
loop_
 _atom_site_type_symbol
 _atom_site_label
 _atom_site_symmetry_multiplicity
 _atom_site_fract_x
 _atom_site_fract_y
 _atom_site_fract_z
 _atom_site_occupancy
  Ca  Ca0  1  0.499817  0.500162  0.500162  1
  Yb  Yb1  1  0.199980  0.799736  0.799736  1
  Er  Er2  1  0.796919  0.203290  0.203290  1
  Ga  Ga3  1  0.357560  0.360965  0.923924  1
  Ga  Ga4  1  0.644972  0.636059  0.074508  1
  Ga  Ga5  1  0.357560  0.923924  0.360965  1
  Ga  Ga6  1  0.644972  0.074508  0.636059  1
  Ga  Ga7  1  0.160398  0.471246  0.208246  1
  Ga  Ga8  1  0.838335  0.528042  0.794764  1
  Ga  Ga9  1  0.160398  0.208246  0.471246  1
  Ga  Ga10  1  0.838335  0.794764  0.528042  1
  Ag  Ag11  1  0.499967  0.000094  0.000094  1
  Ag  Ag12  1  0.000395  0.808265  0.190698  1
  Ag  Ag13  1  0.000395  0.190698  0.808265  1
