# generated using pymatgen
data_HoNb8CuS16
_symmetry_space_group_name_H-M   'P 1'
_cell_length_a   6.76063400
_cell_length_b   6.76063418
_cell_length_c   13.02946500
_cell_angle_alpha   90.00000000
_cell_angle_beta   90.00000000
_cell_angle_gamma   119.99999911
_symmetry_Int_Tables_number   1
_chemical_formula_structural   HoNb8CuS16
_chemical_formula_sum   'Ho1 Nb8 Cu1 S16'
_cell_volume   515.74150269
_cell_formula_units_Z   1
loop_
 _symmetry_equiv_pos_site_id
 _symmetry_equiv_pos_as_xyz
  1  'x, y, z'
loop_
 _atom_site_type_symbol
 _atom_site_label
 _atom_site_symmetry_multiplicity
 _atom_site_fract_x
 _atom_site_fract_y
 _atom_site_fract_z
 _atom_site_occupancy
  Ho  Ho0  1  0.000000  0.000000  0.500000  1
  Nb  Nb1  1  0.989540  0.494770  0.235226  1
  Nb  Nb2  1  0.010460  0.505230  0.764774  1
  Nb  Nb3  1  0.494770  0.505230  0.764774  1
  Nb  Nb4  1  0.505230  0.010460  0.235226  1
  Nb  Nb5  1  0.000000  0.000000  0.765889  1
  Nb  Nb6  1  0.000000  0.000000  0.234111  1
  Nb  Nb7  1  0.505230  0.494770  0.235226  1
  Nb  Nb8  1  0.494770  0.989540  0.764774  1
  Cu  Cu9  1  0.000000  0.000000  0.000000  1
  S  S10  1  0.333333  0.666667  0.641509  1
  S  S11  1  0.666667  0.333333  0.114702  1
  S  S12  1  0.666667  0.333333  0.358491  1
  S  S13  1  0.333333  0.666667  0.885298  1
  S  S14  1  0.167317  0.334634  0.355635  1
  S  S15  1  0.830976  0.169024  0.882968  1
  S  S16  1  0.338048  0.169024  0.882968  1
  S  S17  1  0.665366  0.832683  0.355635  1
  S  S18  1  0.167317  0.832683  0.355635  1
  S  S19  1  0.830976  0.661952  0.882968  1
  S  S20  1  0.169024  0.338048  0.117032  1
  S  S21  1  0.832683  0.167317  0.644365  1
  S  S22  1  0.334634  0.167317  0.644365  1
  S  S23  1  0.661952  0.830976  0.117032  1
  S  S24  1  0.169024  0.830976  0.117032  1
  S  S25  1  0.832683  0.665366  0.644365  1
