# generated using pymatgen
data_Gd10C4Cl15
_symmetry_space_group_name_H-M   'P 1'
_cell_length_a   8.67242739
_cell_length_b   9.67576776
_cell_length_c   10.48126700
_cell_angle_alpha   70.39851959
_cell_angle_beta   66.38811734
_cell_angle_gamma   70.64694533
_symmetry_Int_Tables_number   1
_chemical_formula_structural   Gd10C4Cl15
_chemical_formula_sum   'Gd10 C4 Cl15'
_cell_volume   739.13457663
_cell_formula_units_Z   1
loop_
 _symmetry_equiv_pos_site_id
 _symmetry_equiv_pos_as_xyz
  1  'x, y, z'
loop_
 _atom_site_type_symbol
 _atom_site_label
 _atom_site_symmetry_multiplicity
 _atom_site_fract_x
 _atom_site_fract_y
 _atom_site_fract_z
 _atom_site_occupancy
  Gd  Gd0  1  0.342834  0.748165  0.828846  1
  Gd  Gd1  1  0.657166  0.251835  0.171154  1
  Gd  Gd2  1  0.172560  0.429759  0.045536  1
  Gd  Gd3  1  0.827440  0.570241  0.954464  1
  Gd  Gd4  1  0.085559  0.183122  0.877940  1
  Gd  Gd5  1  0.914441  0.816878  0.122060  1
  Gd  Gd6  1  0.249920  0.542532  0.633292  1
  Gd  Gd7  1  0.750080  0.457468  0.366708  1
  Gd  Gd8  1  0.032649  0.101349  0.267987  1
  Gd  Gd9  1  0.967351  0.898651  0.732013  1
  C  C10  1  0.875997  0.359285  0.178076  1
  C  C11  1  0.124003  0.640715  0.821924  1
  C  C12  1  0.956883  0.292078  0.059338  1
  C  C13  1  0.043117  0.707922  0.940662  1
  Cl  Cl14  1  0.500000  0.500000  0.000000  1
  Cl  Cl15  1  0.128614  0.816911  0.468974  1
  Cl  Cl16  1  0.871386  0.183089  0.531026  1
  Cl  Cl17  1  0.250872  0.017846  0.653715  1
  Cl  Cl18  1  0.749128  0.982154  0.346285  1
  Cl  Cl19  1  0.333830  0.172509  0.217039  1
  Cl  Cl20  1  0.666170  0.827491  0.782961  1
  Cl  Cl21  1  0.455622  0.371453  0.413036  1
  Cl  Cl22  1  0.544378  0.628547  0.586964  1
  Cl  Cl23  1  0.957477  0.439776  0.702507  1
  Cl  Cl24  1  0.042523  0.560224  0.297493  1
  Cl  Cl25  1  0.215949  0.914671  0.056552  1
  Cl  Cl26  1  0.784051  0.085329  0.943448  1
  Cl  Cl27  1  0.378970  0.276866  0.811357  1
  Cl  Cl28  1  0.621030  0.723134  0.188643  1
