# generated using pymatgen
data_NdTh(Co9Si4)2
_symmetry_space_group_name_H-M   'P 1'
_cell_length_a   7.93326911
_cell_length_b   7.93326780
_cell_length_c   7.93326822
_cell_angle_alpha   121.53036969
_cell_angle_beta   121.53036452
_cell_angle_gamma   87.36915368
_symmetry_Int_Tables_number   1
_chemical_formula_structural   NdTh(Co9Si4)2
_chemical_formula_sum   'Nd1 Th1 Co18 Si8'
_cell_volume   344.49285916
_cell_formula_units_Z   1
loop_
 _symmetry_equiv_pos_site_id
 _symmetry_equiv_pos_as_xyz
  1  'x, y, z'
loop_
 _atom_site_type_symbol
 _atom_site_label
 _atom_site_symmetry_multiplicity
 _atom_site_fract_x
 _atom_site_fract_y
 _atom_site_fract_z
 _atom_site_occupancy
  Nd  Nd0  1  0.250000  0.250000  0.000000  1
  Th  Th1  1  0.750000  0.750000  0.000000  1
  Co  Co2  1  0.689796  0.451025  0.502378  1
  Co  Co3  1  0.451025  0.948647  0.761229  1
  Co  Co4  1  0.187418  0.689796  0.238771  1
  Co  Co5  1  0.551353  0.048975  0.238771  1
  Co  Co6  1  0.948647  0.187418  0.497622  1
  Co  Co7  1  0.199034  0.930585  0.129835  1
  Co  Co8  1  0.800751  0.069199  0.870165  1
  Co  Co9  1  0.430801  0.699249  0.129835  1
  Co  Co10  1  0.569415  0.300966  0.870165  1
  Co  Co11  1  0.699249  0.569415  0.268449  1
  Co  Co12  1  0.300966  0.430801  0.731551  1
  Co  Co13  1  0.930585  0.800751  0.731551  1
  Co  Co14  1  0.312582  0.551353  0.502378  1
  Co  Co15  1  0.810204  0.312582  0.761229  1
  Co  Co16  1  0.000000  0.500000  0.500000  1
  Co  Co17  1  0.500000  0.000000  0.500000  1
  Co  Co18  1  0.069199  0.199034  0.268449  1
  Co  Co19  1  0.048975  0.810204  0.497622  1
  Si  Si20  1  0.288171  0.790609  0.836809  1
  Si  Si21  1  0.048638  0.546200  0.836809  1
  Si  Si22  1  0.546200  0.709391  0.497562  1
  Si  Si23  1  0.790609  0.953800  0.502438  1
  Si  Si24  1  0.451362  0.288171  0.497562  1
  Si  Si25  1  0.953800  0.451362  0.163191  1
  Si  Si26  1  0.709391  0.211829  0.163191  1
  Si  Si27  1  0.211829  0.048638  0.502438  1
