# generated using pymatgen
data_PaTi6Al5Ru12
_symmetry_space_group_name_H-M   'P 1'
_cell_length_a   4.32005700
_cell_length_b   6.15684000
_cell_length_c   12.97957900
_cell_angle_alpha   90.00000000
_cell_angle_beta   89.99824932
_cell_angle_gamma   90.00000000
_symmetry_Int_Tables_number   1
_chemical_formula_structural   PaTi6Al5Ru12
_chemical_formula_sum   'Pa1 Ti6 Al5 Ru12'
_cell_volume   345.22954091
_cell_formula_units_Z   1
loop_
 _symmetry_equiv_pos_site_id
 _symmetry_equiv_pos_as_xyz
  1  'x, y, z'
loop_
 _atom_site_type_symbol
 _atom_site_label
 _atom_site_symmetry_multiplicity
 _atom_site_fract_x
 _atom_site_fract_y
 _atom_site_fract_z
 _atom_site_occupancy
  Pa  Pa0  1  0.000000  0.000000  0.000000  1
  Ti  Ti1  1  0.000000  0.499999  0.000000  1
  Ti  Ti2  1  0.499946  0.000000  0.186176  1
  Ti  Ti3  1  0.999941  0.499999  0.338211  1
  Ti  Ti4  1  0.500000  0.000000  0.500000  1
  Ti  Ti5  1  0.000060  0.499999  0.661789  1
  Ti  Ti6  1  0.500055  0.000000  0.813824  1
  Al  Al7  1  0.499930  0.499999  0.170479  1
  Al  Al8  1  0.999937  0.000000  0.339306  1
  Al  Al9  1  0.500000  0.499999  0.500000  1
  Al  Al10  1  0.000064  0.000000  0.660694  1
  Al  Al11  1  0.500070  0.499999  0.829521  1
  Ru  Ru12  1  0.500000  0.252847  0.000000  1
  Ru  Ru13  1  0.500000  0.747152  0.000000  1
  Ru  Ru14  1  0.999939  0.251265  0.168369  1
  Ru  Ru15  1  0.999939  0.748735  0.168369  1
  Ru  Ru16  1  0.499948  0.252012  0.335013  1
  Ru  Ru17  1  0.499948  0.747989  0.335013  1
  Ru  Ru18  1  0.000000  0.251549  0.500000  1
  Ru  Ru19  1  0.000000  0.748451  0.500000  1
  Ru  Ru20  1  0.500050  0.252012  0.664987  1
  Ru  Ru21  1  0.500050  0.747989  0.664987  1
  Ru  Ru22  1  0.000062  0.251265  0.831631  1
  Ru  Ru23  1  0.000062  0.748735  0.831631  1
