# generated using pymatgen
data_TbEr4Th3(MgRu)2
_symmetry_space_group_name_H-M   'P 1'
_cell_length_a   9.71188634
_cell_length_b   9.79527548
_cell_length_c   9.79078084
_cell_angle_alpha   59.45256549
_cell_angle_beta   60.29674534
_cell_angle_gamma   60.25067578
_symmetry_Int_Tables_number   1
_chemical_formula_structural   TbEr4Th3(MgRu)2
_chemical_formula_sum   'Tb2 Er8 Th6 Mg4 Ru4'
_cell_volume   658.51131714
_cell_formula_units_Z   2
loop_
 _symmetry_equiv_pos_site_id
 _symmetry_equiv_pos_as_xyz
  1  'x, y, z'
loop_
 _atom_site_type_symbol
 _atom_site_label
 _atom_site_symmetry_multiplicity
 _atom_site_fract_x
 _atom_site_fract_y
 _atom_site_fract_z
 _atom_site_occupancy
  Tb  Tb0  1  0.813781  0.813781  0.186219  1
  Tb  Tb1  1  0.186219  0.186219  0.813781  1
  Er  Er2  1  0.439298  0.060702  0.439298  1
  Er  Er3  1  0.060702  0.439298  0.060702  1
  Er  Er4  1  0.439359  0.439359  0.060641  1
  Er  Er5  1  0.060641  0.060641  0.439359  1
  Er  Er6  1  0.183861  0.816139  0.816139  1
  Er  Er7  1  0.816139  0.183861  0.183861  1
  Er  Er8  1  0.813304  0.186696  0.813304  1
  Er  Er9  1  0.186696  0.813304  0.186696  1
  Th  Th10  1  0.592380  0.599277  0.599533  1
  Th  Th11  1  0.599277  0.592380  0.208812  1
  Th  Th12  1  0.599533  0.208812  0.592380  1
  Th  Th13  1  0.208812  0.599533  0.599277  1
  Th  Th14  1  0.066232  0.433768  0.433768  1
  Th  Th15  1  0.433768  0.066232  0.066232  1
  Mg  Mg16  1  0.832107  0.829339  0.828921  1
  Mg  Mg17  1  0.829339  0.832107  0.509633  1
  Mg  Mg18  1  0.828921  0.509633  0.832107  1
  Mg  Mg19  1  0.509633  0.828921  0.829339  1
  Ru  Ru20  1  0.378889  0.398541  0.397954  1
  Ru  Ru21  1  0.398541  0.378889  0.824615  1
  Ru  Ru22  1  0.397954  0.824615  0.378889  1
  Ru  Ru23  1  0.824615  0.397954  0.398541  1
