# generated using pymatgen
data_GeSe7Br2
_symmetry_space_group_name_H-M   'P 1'
_cell_length_a   9.01935700
_cell_length_b   12.92689100
_cell_length_c   15.20111900
_cell_angle_alpha   90.00000000
_cell_angle_beta   90.00000000
_cell_angle_gamma   90.00000000
_symmetry_Int_Tables_number   1
_chemical_formula_structural   GeSe7Br2
_chemical_formula_sum   'Ge4 Se28 Br8'
_cell_volume   1772.33258812
_cell_formula_units_Z   4
loop_
 _symmetry_equiv_pos_site_id
 _symmetry_equiv_pos_as_xyz
  1  'x, y, z'
loop_
 _atom_site_type_symbol
 _atom_site_label
 _atom_site_symmetry_multiplicity
 _atom_site_fract_x
 _atom_site_fract_y
 _atom_site_fract_z
 _atom_site_occupancy
  Ge  Ge0  1  0.245520  0.750000  0.436789  1
  Ge  Ge1  1  0.254480  0.250000  0.936789  1
  Ge  Ge2  1  0.745520  0.750000  0.063211  1
  Ge  Ge3  1  0.754480  0.250000  0.563211  1
  Se  Se4  1  0.734258  0.250000  0.219204  1
  Se  Se5  1  0.860871  0.398872  0.268420  1
  Se  Se6  1  0.139129  0.898872  0.731580  1
  Se  Se7  1  0.360871  0.101128  0.231580  1
  Se  Se8  1  0.139129  0.601128  0.731580  1
  Se  Se9  1  0.227502  0.039587  0.108288  1
  Se  Se10  1  0.727502  0.039587  0.391712  1
  Se  Se11  1  0.641750  0.913733  0.019124  1
  Se  Se12  1  0.858250  0.413733  0.519124  1
  Se  Se13  1  0.772498  0.539587  0.891712  1
  Se  Se14  1  0.639129  0.601128  0.768420  1
  Se  Se15  1  0.272498  0.539587  0.608288  1
  Se  Se16  1  0.358250  0.413733  0.980876  1
  Se  Se17  1  0.141750  0.913733  0.480876  1
  Se  Se18  1  0.265742  0.750000  0.780796  1
  Se  Se19  1  0.358250  0.086267  0.980876  1
  Se  Se20  1  0.234258  0.250000  0.280796  1
  Se  Se21  1  0.727502  0.460413  0.391712  1
  Se  Se22  1  0.765742  0.750000  0.719204  1
  Se  Se23  1  0.641750  0.586267  0.019124  1
  Se  Se24  1  0.272498  0.960413  0.608288  1
  Se  Se25  1  0.860871  0.101128  0.268420  1
  Se  Se26  1  0.227502  0.460413  0.108288  1
  Se  Se27  1  0.772498  0.960413  0.891712  1
  Se  Se28  1  0.858250  0.086267  0.519124  1
  Se  Se29  1  0.141750  0.586267  0.480876  1
  Se  Se30  1  0.360871  0.398872  0.231580  1
  Se  Se31  1  0.639129  0.898872  0.768420  1
  Br  Br32  1  0.822512  0.250000  0.712225  1
  Br  Br33  1  0.677488  0.750000  0.212225  1
  Br  Br34  1  0.502624  0.750000  0.459180  1
  Br  Br35  1  0.997376  0.250000  0.959180  1
  Br  Br36  1  0.322512  0.250000  0.787775  1
  Br  Br37  1  0.002624  0.750000  0.040820  1
  Br  Br38  1  0.497376  0.250000  0.540820  1
  Br  Br39  1  0.177488  0.750000  0.287775  1
