# generated using pymatgen
data_DyEr3ReTcB12
_symmetry_space_group_name_H-M   'P 1'
_cell_length_a   3.66561900
_cell_length_b   9.13665742
_cell_length_c   11.51406203
_cell_angle_alpha   90.04557992
_cell_angle_beta   90.00000000
_cell_angle_gamma   90.00000000
_symmetry_Int_Tables_number   1
_chemical_formula_structural   DyEr3ReTcB12
_chemical_formula_sum   'Dy2 Er6 Re2 Tc2 B24'
_cell_volume   385.62314431
_cell_formula_units_Z   2
loop_
 _symmetry_equiv_pos_site_id
 _symmetry_equiv_pos_as_xyz
  1  'x, y, z'
loop_
 _atom_site_type_symbol
 _atom_site_label
 _atom_site_symmetry_multiplicity
 _atom_site_fract_x
 _atom_site_fract_y
 _atom_site_fract_z
 _atom_site_occupancy
  Dy  Dy0  1  0.000000  0.323624  0.413911  1
  Dy  Dy1  1  0.000000  0.676376  0.586089  1
  Er  Er2  1  0.000000  0.823447  0.085960  1
  Er  Er3  1  0.000000  0.176553  0.914040  1
  Er  Er4  1  0.000000  0.942322  0.369810  1
  Er  Er5  1  0.000000  0.057678  0.630190  1
  Er  Er6  1  0.000000  0.443780  0.130167  1
  Er  Er7  1  0.000000  0.556220  0.869833  1
  Re  Re8  1  0.000000  0.138600  0.179102  1
  Re  Re9  1  0.000000  0.861400  0.820898  1
  Tc  Tc10  1  0.000000  0.639305  0.320037  1
  Tc  Tc11  1  0.000000  0.360695  0.679963  1
  B  B12  1  0.500000  0.553532  0.432685  1
  B  B13  1  0.500000  0.446468  0.567315  1
  B  B14  1  0.500000  0.053059  0.066615  1
  B  B15  1  0.500000  0.946941  0.933385  1
  B  B16  1  0.500000  0.749433  0.418345  1
  B  B17  1  0.500000  0.250567  0.581655  1
  B  B18  1  0.500000  0.249634  0.080871  1
  B  B19  1  0.500000  0.750366  0.919129  1
  B  B20  1  0.500000  0.792493  0.264979  1
  B  B21  1  0.500000  0.207507  0.735021  1
  B  B22  1  0.500000  0.292492  0.234427  1
  B  B23  1  0.500000  0.707508  0.765573  1
  B  B24  1  0.500000  0.631003  0.184991  1
  B  B25  1  0.500000  0.368997  0.815009  1
  B  B26  1  0.500000  0.130253  0.314598  1
  B  B27  1  0.500000  0.869747  0.685402  1
  B  B28  1  0.500000  0.981413  0.211704  1
  B  B29  1  0.500000  0.018587  0.788296  1
  B  B30  1  0.500000  0.482284  0.287741  1
  B  B31  1  0.500000  0.517716  0.712259  1
  B  B32  1  0.500000  0.600053  0.027834  1
  B  B33  1  0.500000  0.399947  0.972166  1
  B  B34  1  0.500000  0.099128  0.472166  1
  B  B35  1  0.500000  0.900872  0.527834  1
