# generated using pymatgen
data_Tb7HoSc12Si15P
_symmetry_space_group_name_H-M   'P 1'
_cell_length_a   7.10639586
_cell_length_b   7.38493599
_cell_length_c   13.99625135
_cell_angle_alpha   89.97796903
_cell_angle_beta   89.98692786
_cell_angle_gamma   90.16689058
_symmetry_Int_Tables_number   1
_chemical_formula_structural   Tb7HoSc12Si15P
_chemical_formula_sum   'Tb7 Ho1 Sc12 Si15 P1'
_cell_volume   734.52397935
_cell_formula_units_Z   1
loop_
 _symmetry_equiv_pos_site_id
 _symmetry_equiv_pos_as_xyz
  1  'x, y, z'
loop_
 _atom_site_type_symbol
 _atom_site_label
 _atom_site_symmetry_multiplicity
 _atom_site_fract_x
 _atom_site_fract_y
 _atom_site_fract_z
 _atom_site_occupancy
  Tb  Tb0  1  0.991381  0.827270  0.900368  1
  Tb  Tb1  1  0.490093  0.674248  0.904166  1
  Tb  Tb2  1  0.991334  0.827461  0.599838  1
  Tb  Tb3  1  0.511347  0.324806  0.096545  1
  Tb  Tb4  1  0.010182  0.174612  0.403348  1
  Tb  Tb5  1  0.511275  0.325027  0.403209  1
  Tb  Tb6  1  0.490473  0.674254  0.596033  1
  Ho  Ho7  1  0.010177  0.175116  0.097082  1
  Sc  Sc8  1  0.160097  0.501335  0.750021  1
  Sc  Sc9  1  0.838369  0.497866  0.249872  1
  Sc  Sc10  1  0.338871  0.002233  0.249919  1
  Sc  Sc11  1  0.662622  0.999592  0.749963  1
  Sc  Sc12  1  0.327419  0.172342  0.627622  1
  Sc  Sc13  1  0.668238  0.823943  0.375082  1
  Sc  Sc14  1  0.167996  0.677127  0.375072  1
  Sc  Sc15  1  0.668336  0.824203  0.124669  1
  Sc  Sc16  1  0.832381  0.323627  0.626454  1
  Sc  Sc17  1  0.327052  0.172257  0.872436  1
  Sc  Sc18  1  0.832603  0.323143  0.873593  1
  Sc  Sc19  1  0.167845  0.677222  0.124781  1
  Si  Si20  1  0.964983  0.883223  0.249718  1
  Si  Si21  1  0.465364  0.616855  0.249881  1
  Si  Si22  1  0.531772  0.381029  0.750135  1
  Si  Si23  1  0.297829  0.863070  0.750056  1
  Si  Si24  1  0.714142  0.125612  0.249539  1
  Si  Si25  1  0.213401  0.374335  0.249638  1
  Si  Si26  1  0.787509  0.627424  0.750063  1
  Si  Si27  1  0.157136  0.463257  0.540115  1
  Si  Si28  1  0.842615  0.536501  0.461392  1
  Si  Si29  1  0.341270  0.964988  0.460821  1
  Si  Si30  1  0.843100  0.535454  0.038923  1
  Si  Si31  1  0.658738  0.037051  0.540335  1
  Si  Si32  1  0.156851  0.462347  0.960228  1
  Si  Si33  1  0.658898  0.036928  0.959695  1
  Si  Si34  1  0.339911  0.965647  0.039382  1
  P  P35  1  0.028392  0.128599  0.750005  1
