# generated using pymatgen
data_PrRhI18
_symmetry_space_group_name_H-M   'P 1'
_cell_length_a   10.27321023
_cell_length_b   10.27320977
_cell_length_c   10.27321101
_cell_angle_alpha   93.11079014
_cell_angle_beta   93.11078811
_cell_angle_gamma   93.11079864
_symmetry_Int_Tables_number   1
_chemical_formula_structural   PrRhI18
_chemical_formula_sum   'Pr1 Rh1 I18'
_cell_volume   1079.24874590
_cell_formula_units_Z   1
loop_
 _symmetry_equiv_pos_site_id
 _symmetry_equiv_pos_as_xyz
  1  'x, y, z'
loop_
 _atom_site_type_symbol
 _atom_site_label
 _atom_site_symmetry_multiplicity
 _atom_site_fract_x
 _atom_site_fract_y
 _atom_site_fract_z
 _atom_site_occupancy
  Pr  Pr0  1  0.000000  0.000000  0.000000  1
  Rh  Rh1  1  0.500000  0.500000  0.500000  1
  I  I2  1  0.728550  0.137946  0.596938  1
  I  I3  1  0.976723  0.033462  0.696747  1
  I  I4  1  0.596938  0.728550  0.137946  1
  I  I5  1  0.966538  0.303253  0.023277  1
  I  I6  1  0.696747  0.976723  0.033462  1
  I  I7  1  0.033462  0.696747  0.976723  1
  I  I8  1  0.023277  0.966538  0.303253  1
  I  I9  1  0.862054  0.403062  0.271450  1
  I  I10  1  0.303253  0.023277  0.966538  1
  I  I11  1  0.271450  0.862054  0.403062  1
  I  I12  1  0.137946  0.596938  0.728550  1
  I  I13  1  0.403062  0.271450  0.862054  1
  I  I14  1  0.763067  0.523396  0.506877  1
  I  I15  1  0.523396  0.506877  0.763067  1
  I  I16  1  0.236933  0.476604  0.493123  1
  I  I17  1  0.476604  0.493123  0.236933  1
  I  I18  1  0.506877  0.763067  0.523396  1
  I  I19  1  0.493123  0.236933  0.476604  1
