# generated using pymatgen
data_Pm2MnNiO6
_symmetry_space_group_name_H-M   'P 1'
_cell_length_a   5.39000000
_cell_length_b   5.58530685
_cell_length_c   7.79128364
_cell_angle_alpha   90.15025885
_cell_angle_beta   90.00000000
_cell_angle_gamma   90.00000000
_symmetry_Int_Tables_number   1
_chemical_formula_structural   Pm2MnNiO6
_chemical_formula_sum   'Pm4 Mn2 Ni2 O12'
_cell_volume   234.55425942
_cell_formula_units_Z   2
loop_
 _symmetry_equiv_pos_site_id
 _symmetry_equiv_pos_as_xyz
  1  'x, y, z'
loop_
 _atom_site_type_symbol
 _atom_site_label
 _atom_site_symmetry_multiplicity
 _atom_site_fract_x
 _atom_site_fract_y
 _atom_site_fract_z
 _atom_site_occupancy
  Pm  Pm0  1  0.985206  0.058406  0.261598  1
  Pm  Pm1  1  0.514796  0.558407  0.261598  1
  Pm  Pm2  1  0.485204  0.441594  0.738401  1
  Pm  Pm3  1  0.014795  0.941594  0.738401  1
  Mn  Mn4  1  0.499999  0.000000  0.000000  1
  Mn  Mn5  1  0.000000  0.500000  0.000000  1
  Ni  Ni6  1  0.499999  0.000000  0.500000  1
  Ni  Ni7  1  0.000000  0.500000  0.500000  1
  O  O8  1  0.705619  0.293019  0.052129  1
  O  O9  1  0.794379  0.793019  0.052129  1
  O  O10  1  0.088405  0.478296  0.237908  1
  O  O11  1  0.411596  0.978295  0.237908  1
  O  O12  1  0.701082  0.297866  0.457494  1
  O  O13  1  0.798916  0.797866  0.457494  1
  O  O14  1  0.201082  0.202134  0.542506  1
  O  O15  1  0.298919  0.702135  0.542506  1
  O  O16  1  0.588405  0.021706  0.762091  1
  O  O17  1  0.911595  0.521706  0.762091  1
  O  O18  1  0.205619  0.206981  0.947871  1
  O  O19  1  0.294382  0.706982  0.947871  1
