# generated using pymatgen
data_Np3PaGa12
_symmetry_space_group_name_H-M   'P 1'
_cell_length_a   6.11477700
_cell_length_b   6.11477606
_cell_length_c   9.67863200
_cell_angle_alpha   90.00000000
_cell_angle_beta   90.00000000
_cell_angle_gamma   119.99998886
_symmetry_Int_Tables_number   1
_chemical_formula_structural   Np3PaGa12
_chemical_formula_sum   'Np3 Pa1 Ga12'
_cell_volume   313.40494008
_cell_formula_units_Z   1
loop_
 _symmetry_equiv_pos_site_id
 _symmetry_equiv_pos_as_xyz
  1  'x, y, z'
loop_
 _atom_site_type_symbol
 _atom_site_label
 _atom_site_symmetry_multiplicity
 _atom_site_fract_x
 _atom_site_fract_y
 _atom_site_fract_z
 _atom_site_occupancy
  Np  Np0  1  0.000000  0.000000  0.500000  1
  Np  Np1  1  0.333333  0.666667  0.246654  1
  Np  Np2  1  0.666667  0.333333  0.753346  1
  Pa  Pa3  1  0.000000  0.000000  0.000000  1
  Ga  Ga4  1  0.500000  0.500000  0.500000  1
  Ga  Ga5  1  0.500000  0.000000  0.500000  1
  Ga  Ga6  1  0.000000  0.500000  0.500000  1
  Ga  Ga7  1  0.500000  0.500000  0.000000  1
  Ga  Ga8  1  0.500000  0.000000  0.000000  1
  Ga  Ga9  1  0.000000  0.500000  0.000000  1
  Ga  Ga10  1  0.818909  0.637818  0.251285  1
  Ga  Ga11  1  0.362182  0.181091  0.251285  1
  Ga  Ga12  1  0.818909  0.181091  0.251285  1
  Ga  Ga13  1  0.181091  0.362182  0.748715  1
  Ga  Ga14  1  0.637818  0.818909  0.748715  1
  Ga  Ga15  1  0.181091  0.818909  0.748715  1
