# generated using pymatgen
data_SrNb6SnSe12
_symmetry_space_group_name_H-M   'P 1'
_cell_length_a   6.11203300
_cell_length_b   6.11203165
_cell_length_c   15.49450400
_cell_angle_alpha   90.00000000
_cell_angle_beta   90.00000000
_cell_angle_gamma   120.00001272
_symmetry_Int_Tables_number   1
_chemical_formula_structural   SrNb6SnSe12
_chemical_formula_sum   'Sr1 Nb6 Sn1 Se12'
_cell_volume   501.27903263
_cell_formula_units_Z   1
loop_
 _symmetry_equiv_pos_site_id
 _symmetry_equiv_pos_as_xyz
  1  'x, y, z'
loop_
 _atom_site_type_symbol
 _atom_site_label
 _atom_site_symmetry_multiplicity
 _atom_site_fract_x
 _atom_site_fract_y
 _atom_site_fract_z
 _atom_site_occupancy
  Sr  Sr0  1  0.000000  0.000000  0.500000  1
  Nb  Nb1  1  0.333333  0.666667  0.246747  1
  Nb  Nb2  1  0.666667  0.333333  0.753253  1
  Nb  Nb3  1  0.666667  0.333333  0.246747  1
  Nb  Nb4  1  0.333333  0.666667  0.753253  1
  Nb  Nb5  1  0.000000  0.000000  0.248227  1
  Nb  Nb6  1  0.000000  0.000000  0.751773  1
  Sn  Sn7  1  0.000000  0.000000  0.000000  1
  Se  Se8  1  0.334315  0.000000  0.140388  1
  Se  Se9  1  0.000000  0.334315  0.140388  1
  Se  Se10  1  0.665685  0.665685  0.140388  1
  Se  Se11  1  0.339208  0.339208  0.645576  1
  Se  Se12  1  0.660792  0.660792  0.354424  1
  Se  Se13  1  0.660792  0.000000  0.645576  1
  Se  Se14  1  0.000000  0.660792  0.645576  1
  Se  Se15  1  0.000000  0.665685  0.859612  1
  Se  Se16  1  0.334315  0.334315  0.859612  1
  Se  Se17  1  0.000000  0.339208  0.354424  1
  Se  Se18  1  0.339208  0.000000  0.354424  1
  Se  Se19  1  0.665685  0.000000  0.859612  1
