# generated using pymatgen
data_Cs2LiV(ZnAs2)2
_symmetry_space_group_name_H-M   'P 1'
_cell_length_a   8.15842581
_cell_length_b   8.15842443
_cell_length_c   5.91542600
_cell_angle_alpha   90.00000000
_cell_angle_beta   90.00000000
_cell_angle_gamma   137.44084067
_symmetry_Int_Tables_number   1
_chemical_formula_structural   Cs2LiV(ZnAs2)2
_chemical_formula_sum   'Cs2 Li1 V1 Zn2 As4'
_cell_volume   266.29983242
_cell_formula_units_Z   1
loop_
 _symmetry_equiv_pos_site_id
 _symmetry_equiv_pos_as_xyz
  1  'x, y, z'
loop_
 _atom_site_type_symbol
 _atom_site_label
 _atom_site_symmetry_multiplicity
 _atom_site_fract_x
 _atom_site_fract_y
 _atom_site_fract_z
 _atom_site_occupancy
  Cs  Cs0  1  0.500000  0.000000  0.256316  1
  Cs  Cs1  1  0.000000  0.500000  0.743684  1
  Li  Li2  1  0.500000  0.500000  0.500000  1
  V  V3  1  0.000000  0.000000  0.000000  1
  Zn  Zn4  1  0.500000  0.500000  0.000000  1
  Zn  Zn5  1  0.000000  0.000000  0.500000  1
  As  As6  1  0.674851  0.864191  0.770316  1
  As  As7  1  0.135809  0.325149  0.229684  1
  As  As8  1  0.864191  0.674851  0.229684  1
  As  As9  1  0.325149  0.135809  0.770316  1
