# generated using pymatgen
data_DyY4Ho3Pt4
_symmetry_space_group_name_H-M   'P 1'
_cell_length_a   4.76559800
_cell_length_b   7.17023849
_cell_length_c   8.80637100
_cell_angle_alpha   89.97763254
_cell_angle_beta   90.00000000
_cell_angle_gamma   90.00000000
_symmetry_Int_Tables_number   1
_chemical_formula_structural   DyY4Ho3Pt4
_chemical_formula_sum   'Dy1 Y4 Ho3 Pt4'
_cell_volume   300.91785045
_cell_formula_units_Z   1
loop_
 _symmetry_equiv_pos_site_id
 _symmetry_equiv_pos_as_xyz
  1  'x, y, z'
loop_
 _atom_site_type_symbol
 _atom_site_label
 _atom_site_symmetry_multiplicity
 _atom_site_fract_x
 _atom_site_fract_y
 _atom_site_fract_z
 _atom_site_occupancy
  Dy  Dy0  1  0.750000  0.644683  0.420082  1
  Y  Y1  1  0.250000  0.989942  0.331145  1
  Y  Y2  1  0.250000  0.489385  0.168504  1
  Y  Y3  1  0.750000  0.010701  0.669227  1
  Y  Y4  1  0.750000  0.510397  0.831123  1
  Ho  Ho5  1  0.250000  0.855741  0.920313  1
  Ho  Ho6  1  0.250000  0.355370  0.579894  1
  Ho  Ho7  1  0.750000  0.144321  0.079703  1
  Pt  Pt8  1  0.250000  0.256550  0.906142  1
  Pt  Pt9  1  0.250000  0.756995  0.594684  1
  Pt  Pt10  1  0.750000  0.743572  0.092985  1
  Pt  Pt11  1  0.750000  0.242345  0.406199  1
