# generated using pymatgen
data_DyHo7Tc3B24Rh
_symmetry_space_group_name_H-M   'P 1'
_cell_length_a   3.67334800
_cell_length_b   9.14214368
_cell_length_c   11.52346501
_cell_angle_alpha   90.13646511
_cell_angle_beta   90.00000000
_cell_angle_gamma   90.00000000
_symmetry_Int_Tables_number   1
_chemical_formula_structural   DyHo7Tc3B24Rh
_chemical_formula_sum   'Dy1 Ho7 Tc3 B24 Rh1'
_cell_volume   386.98307553
_cell_formula_units_Z   1
loop_
 _symmetry_equiv_pos_site_id
 _symmetry_equiv_pos_as_xyz
  1  'x, y, z'
loop_
 _atom_site_type_symbol
 _atom_site_label
 _atom_site_symmetry_multiplicity
 _atom_site_fract_x
 _atom_site_fract_y
 _atom_site_fract_z
 _atom_site_occupancy
  Dy  Dy0  1  0.500000  0.318748  0.416005  1
  Ho  Ho1  1  0.500000  0.677858  0.591138  1
  Ho  Ho2  1  0.500000  0.176931  0.912816  1
  Ho  Ho3  1  0.500000  0.827257  0.080938  1
  Ho  Ho4  1  0.500000  0.440570  0.129163  1
  Ho  Ho5  1  0.500000  0.557314  0.871093  1
  Ho  Ho6  1  0.500000  0.056273  0.629798  1
  Ho  Ho7  1  0.500000  0.943365  0.369510  1
  Tc  Tc8  1  0.500000  0.138083  0.179919  1
  Tc  Tc9  1  0.500000  0.861844  0.820823  1
  Tc  Tc10  1  0.500000  0.362806  0.678016  1
  B  B11  1  0.000000  0.101419  0.471263  1
  B  B12  1  0.000000  0.895180  0.528259  1
  B  B13  1  0.000000  0.396894  0.971825  1
  B  B14  1  0.000000  0.604307  0.029469  1
  B  B15  1  0.000000  0.130361  0.314821  1
  B  B16  1  0.000000  0.868688  0.685472  1
  B  B17  1  0.000000  0.369565  0.814279  1
  B  B18  1  0.000000  0.631567  0.183934  1
  B  B19  1  0.000000  0.053466  0.066376  1
  B  B20  1  0.000000  0.947435  0.932490  1
  B  B21  1  0.000000  0.446679  0.566845  1
  B  B22  1  0.000000  0.553983  0.433861  1
  B  B23  1  0.000000  0.482954  0.287923  1
  B  B24  1  0.000000  0.518336  0.712342  1
  B  B25  1  0.000000  0.017682  0.787270  1
  B  B26  1  0.000000  0.982452  0.211567  1
  B  B27  1  0.000000  0.248827  0.081098  1
  B  B28  1  0.000000  0.752202  0.918877  1
  B  B29  1  0.000000  0.250755  0.581296  1
  B  B30  1  0.000000  0.748878  0.420259  1
  B  B31  1  0.000000  0.291209  0.235180  1
  B  B32  1  0.000000  0.708626  0.765686  1
  B  B33  1  0.000000  0.208824  0.734490  1
  B  B34  1  0.000000  0.790854  0.264734  1
  Rh  Rh35  1  0.500000  0.637810  0.321168  1
