# generated using pymatgen
data_DyEr3Np6O20
_symmetry_space_group_name_H-M   'P 1'
_cell_length_a   6.52774297
_cell_length_b   7.57400777
_cell_length_c   8.46048854
_cell_angle_alpha   103.15285783
_cell_angle_beta   97.30384451
_cell_angle_gamma   106.76920524
_symmetry_Int_Tables_number   1
_chemical_formula_structural   DyEr3Np6O20
_chemical_formula_sum   'Dy1 Er3 Np6 O20'
_cell_volume   381.57348986
_cell_formula_units_Z   1
loop_
 _symmetry_equiv_pos_site_id
 _symmetry_equiv_pos_as_xyz
  1  'x, y, z'
loop_
 _atom_site_type_symbol
 _atom_site_label
 _atom_site_symmetry_multiplicity
 _atom_site_fract_x
 _atom_site_fract_y
 _atom_site_fract_z
 _atom_site_occupancy
  Dy  Dy0  1  0.997925  0.997105  0.999669  1
  Er  Er1  1  0.003769  0.502936  0.999807  1
  Er  Er2  1  0.199600  0.899477  0.398541  1
  Er  Er3  1  0.395277  0.799948  0.799828  1
  Np  Np4  1  0.805513  0.604541  0.605266  1
  Np  Np5  1  0.600009  0.198645  0.198589  1
  Np  Np6  1  0.797446  0.098270  0.603387  1
  Np  Np7  1  0.605140  0.701550  0.197393  1
  Np  Np8  1  0.201095  0.400489  0.398592  1
  Np  Np9  1  0.397106  0.296482  0.800893  1
  O  O10  1  0.844435  0.322896  0.454992  1
  O  O11  1  0.641235  0.925701  0.056445  1
  O  O12  1  0.939406  0.770748  0.154780  1
  O  O13  1  0.845544  0.828932  0.455849  1
  O  O14  1  0.449233  0.515753  0.640556  1
  O  O15  1  0.644308  0.418532  0.049718  1
  O  O16  1  0.742356  0.372173  0.749163  1
  O  O17  1  0.263013  0.136116  0.254884  1
  O  O18  1  0.447482  0.032985  0.651487  1
  O  O19  1  0.948203  0.280915  0.161065  1
  O  O20  1  0.560015  0.980161  0.352747  1
  O  O21  1  0.043801  0.720130  0.843477  1
  O  O22  1  0.270618  0.626304  0.248552  1
  O  O23  1  0.744404  0.873156  0.743606  1
  O  O24  1  0.360756  0.567574  0.945044  1
  O  O25  1  0.047979  0.223626  0.842839  1
  O  O26  1  0.565221  0.479146  0.349524  1
  O  O27  1  0.141538  0.178465  0.549343  1
  O  O28  1  0.355833  0.082595  0.952469  1
  O  O29  1  0.141742  0.664649  0.541496  1
