# generated using pymatgen
data_Lu4Tc5Os3
_symmetry_space_group_name_H-M   'P 1'
_cell_length_a   5.27910567
_cell_length_b   5.27910693
_cell_length_c   8.92993600
_cell_angle_alpha   90.00000000
_cell_angle_beta   90.00000000
_cell_angle_gamma   120.80932061
_symmetry_Int_Tables_number   1
_chemical_formula_structural   Lu4Tc5Os3
_chemical_formula_sum   'Lu4 Tc5 Os3'
_cell_volume   213.74694958
_cell_formula_units_Z   1
loop_
 _symmetry_equiv_pos_site_id
 _symmetry_equiv_pos_as_xyz
  1  'x, y, z'
loop_
 _atom_site_type_symbol
 _atom_site_label
 _atom_site_symmetry_multiplicity
 _atom_site_fract_x
 _atom_site_fract_y
 _atom_site_fract_z
 _atom_site_occupancy
  Lu  Lu0  1  0.334003  0.665997  0.435395  1
  Lu  Lu1  1  0.666137  0.333863  0.562420  1
  Lu  Lu2  1  0.666137  0.333863  0.937580  1
  Lu  Lu3  1  0.334003  0.665997  0.064605  1
  Tc  Tc4  1  0.171110  0.342595  0.750000  1
  Tc  Tc5  1  0.171506  0.828494  0.750000  1
  Tc  Tc6  1  0.341599  0.171147  0.250000  1
  Tc  Tc7  1  0.828853  0.658401  0.250000  1
  Tc  Tc8  1  0.657405  0.828890  0.750000  1
  Os  Os9  1  0.000671  0.999329  0.000499  1
  Os  Os10  1  0.827905  0.172095  0.250000  1
  Os  Os11  1  0.000671  0.999329  0.499501  1
