# generated using pymatgen
data_CrTcI18
_symmetry_space_group_name_H-M   'P 1'
_cell_length_a   10.14306565
_cell_length_b   10.14306713
_cell_length_c   10.14306781
_cell_angle_alpha   92.61377489
_cell_angle_beta   92.61376572
_cell_angle_gamma   92.61377523
_symmetry_Int_Tables_number   1
_chemical_formula_structural   CrTcI18
_chemical_formula_sum   'Cr1 Tc1 I18'
_cell_volume   1040.17737821
_cell_formula_units_Z   1
loop_
 _symmetry_equiv_pos_site_id
 _symmetry_equiv_pos_as_xyz
  1  'x, y, z'
loop_
 _atom_site_type_symbol
 _atom_site_label
 _atom_site_symmetry_multiplicity
 _atom_site_fract_x
 _atom_site_fract_y
 _atom_site_fract_z
 _atom_site_occupancy
  Cr  Cr0  1  0.000000  0.000000  0.000000  1
  Tc  Tc1  1  0.500000  0.500000  0.500000  1
  I  I2  1  0.739295  0.133263  0.616487  1
  I  I3  1  0.978804  0.016356  0.731376  1
  I  I4  1  0.616487  0.739295  0.133263  1
  I  I5  1  0.983644  0.268624  0.021196  1
  I  I6  1  0.731376  0.978804  0.016356  1
  I  I7  1  0.016356  0.731376  0.978804  1
  I  I8  1  0.021196  0.983644  0.268624  1
  I  I9  1  0.866737  0.383513  0.260705  1
  I  I10  1  0.268624  0.021196  0.983644  1
  I  I11  1  0.260705  0.866737  0.383513  1
  I  I12  1  0.133263  0.616487  0.739295  1
  I  I13  1  0.383513  0.260705  0.866737  1
  I  I14  1  0.767078  0.537209  0.486682  1
  I  I15  1  0.537209  0.486682  0.767078  1
  I  I16  1  0.232922  0.462791  0.513318  1
  I  I17  1  0.462791  0.513318  0.232922  1
  I  I18  1  0.486682  0.767078  0.537209  1
  I  I19  1  0.513318  0.232922  0.462791  1
