# generated using pymatgen
data_Tb31Ni64
_symmetry_space_group_name_H-M   'P 1'
_cell_length_a   10.11902000
_cell_length_b   10.11901971
_cell_length_c   17.57307800
_cell_angle_alpha   73.26697399
_cell_angle_beta   90.00000000
_cell_angle_gamma   120.00000096
_symmetry_Int_Tables_number   1
_chemical_formula_structural   Tb31Ni64
_chemical_formula_sum   'Tb31 Ni64'
_cell_volume   1469.67824408
_cell_formula_units_Z   1
loop_
 _symmetry_equiv_pos_site_id
 _symmetry_equiv_pos_as_xyz
  1  'x, y, z'
loop_
 _atom_site_type_symbol
 _atom_site_label
 _atom_site_symmetry_multiplicity
 _atom_site_fract_x
 _atom_site_fract_y
 _atom_site_fract_z
 _atom_site_occupancy
  Tb  Tb0  1  0.499629  0.999258  0.999993  1
  Tb  Tb1  1  0.993062  0.986123  0.492957  1
  Tb  Tb2  1  0.750136  0.991164  0.258700  1
  Tb  Tb3  1  0.257841  0.993201  0.748958  1
  Tb  Tb4  1  0.000750  0.500378  0.999993  1
  Tb  Tb5  1  0.520919  0.513981  0.492957  1
  Tb  Tb6  1  0.750136  0.500271  0.258700  1
  Tb  Tb7  1  0.257841  0.515683  0.748958  1
  Tb  Tb8  1  0.499629  0.500378  0.999993  1
  Tb  Tb9  1  0.993062  0.513981  0.492957  1
  Tb  Tb10  1  0.241029  0.991164  0.258700  1
  Tb  Tb11  1  0.735360  0.993201  0.748958  1
  Tb  Tb12  1  0.438453  0.373739  0.187809  1
  Tb  Tb13  1  0.940147  0.373464  0.686389  1
  Tb  Tb14  1  0.438453  0.876905  0.187809  1
  Tb  Tb15  1  0.940147  0.880294  0.686389  1
  Tb  Tb16  1  0.185995  0.371989  0.442016  1
  Tb  Tb17  1  0.687830  0.375661  0.936508  1
  Tb  Tb18  1  0.935286  0.373739  0.187809  1
  Tb  Tb19  1  0.433317  0.373464  0.686389  1
  Tb  Tb20  1  0.646298  0.901829  0.451872  1
  Tb  Tb21  1  0.187257  0.876271  0.936472  1
  Tb  Tb22  1  0.646298  0.292598  0.451872  1
  Tb  Tb23  1  0.187257  0.374513  0.936472  1
  Tb  Tb24  1  0.937420  0.874841  0.187739  1
  Tb  Tb25  1  0.451796  0.903590  0.644614  1
  Tb  Tb26  1  0.255530  0.901829  0.451872  1
  Tb  Tb27  1  0.689015  0.876271  0.936472  1
  Tb  Tb28  1  0.249288  0.498577  0.252135  1
  Tb  Tb29  1  0.750626  0.501253  0.748121  1
  Tb  Tb30  1  0.999816  0.999632  0.000552  1
  Ni  Ni31  1  0.968891  0.187622  0.343815  1
  Ni  Ni32  1  0.468639  0.187498  0.843703  1
  Ni  Ni33  1  0.468564  0.687294  0.343815  1
  Ni  Ni34  1  0.968800  0.687660  0.843703  1
  Ni  Ni35  1  0.218644  0.687446  0.093910  1
  Ni  Ni36  1  0.718901  0.687435  0.593664  1
  Ni  Ni37  1  0.968891  0.437455  0.343815  1
  Ni  Ni38  1  0.468639  0.437438  0.843703  1
  Ni  Ni39  1  0.218644  0.437288  0.093910  1
  Ni  Ni40  1  0.718901  0.437801  0.593664  1
  Ni  Ni41  1  0.468564  0.437455  0.343815  1
  Ni  Ni42  1  0.968800  0.437438  0.843703  1
  Ni  Ni43  1  0.594148  0.687750  0.218649  1
  Ni  Ni44  1  0.093916  0.687718  0.718480  1
  Ni  Ni45  1  0.093601  0.187202  0.218649  1
  Ni  Ni46  1  0.593802  0.187605  0.718480  1
  Ni  Ni47  1  0.093601  0.687750  0.218649  1
  Ni  Ni48  1  0.593802  0.687718  0.718480  1
  Ni  Ni49  1  0.468802  0.687446  0.093910  1
  Ni  Ni50  1  0.968534  0.687435  0.593664  1
  Ni  Ni51  1  0.218731  0.687294  0.343815  1
  Ni  Ni52  1  0.718860  0.687660  0.843703  1
  Ni  Ni53  1  0.218731  0.187622  0.343815  1
  Ni  Ni54  1  0.718860  0.187498  0.843703  1
  Ni  Ni55  1  0.967756  0.687870  0.344373  1
  Ni  Ni56  1  0.468302  0.688737  0.842962  1
  Ni  Ni57  1  0.967756  0.935512  0.344373  1
  Ni  Ni58  1  0.468302  0.936603  0.842962  1
  Ni  Ni59  1  0.844279  0.688558  0.467163  1
  Ni  Ni60  1  0.343761  0.687522  0.968717  1
  Ni  Ni61  1  0.720114  0.687870  0.344373  1
  Ni  Ni62  1  0.220435  0.688737  0.842962  1
  Ni  Ni63  1  0.719333  0.187011  0.093657  1
  Ni  Ni64  1  0.216787  0.188357  0.594857  1
  Ni  Ni65  1  0.719333  0.438664  0.093657  1
  Ni  Ni66  1  0.216787  0.433573  0.594857  1
  Ni  Ni67  1  0.594664  0.189328  0.216008  1
  Ni  Ni68  1  0.093101  0.186201  0.720699  1
  Ni  Ni69  1  0.467679  0.187011  0.093657  1
  Ni  Ni70  1  0.971571  0.188357  0.594857  1
  Ni  Ni71  1  0.719268  0.687245  0.094228  1
  Ni  Ni72  1  0.209844  0.673883  0.595566  1
  Ni  Ni73  1  0.218527  0.186503  0.094228  1
  Ni  Ni74  1  0.730551  0.194589  0.595566  1
  Ni  Ni75  1  0.470179  0.192369  0.337452  1
  Ni  Ni76  1  0.968854  0.187611  0.843536  1
  Ni  Ni77  1  0.719268  0.937796  0.094228  1
  Ni  Ni78  1  0.209844  0.940396  0.595566  1
  Ni  Ni79  1  0.470179  0.940360  0.337452  1
  Ni  Ni80  1  0.968854  0.937707  0.843536  1
  Ni  Ni81  1  0.218527  0.937796  0.094228  1
  Ni  Ni82  1  0.730551  0.940396  0.595566  1
  Ni  Ni83  1  0.856508  0.193016  0.470475  1
  Ni  Ni84  1  0.343351  0.187281  0.968789  1
  Ni  Ni85  1  0.336509  0.673017  0.470475  1
  Ni  Ni86  1  0.843930  0.687860  0.968789  1
  Ni  Ni87  1  0.336509  0.193016  0.470475  1
  Ni  Ni88  1  0.843930  0.187281  0.968789  1
  Ni  Ni89  1  0.722189  0.192369  0.337452  1
  Ni  Ni90  1  0.218757  0.187611  0.843536  1
  Ni  Ni91  1  0.967976  0.186503  0.094228  1
  Ni  Ni92  1  0.464038  0.194589  0.595566  1
  Ni  Ni93  1  0.967976  0.687245  0.094228  1
  Ni  Ni94  1  0.464038  0.673883  0.595566  1
