# generated using pymatgen
data_LuZr7(Si4Mo3)4
_symmetry_space_group_name_H-M   'P 1'
_cell_length_a   6.62592614
_cell_length_b   6.78977347
_cell_length_c   12.71944188
_cell_angle_alpha   90.03923634
_cell_angle_beta   90.01714684
_cell_angle_gamma   90.01577375
_symmetry_Int_Tables_number   1
_chemical_formula_structural   LuZr7(Si4Mo3)4
_chemical_formula_sum   'Lu1 Zr7 Si16 Mo12'
_cell_volume   572.22890619
_cell_formula_units_Z   1
loop_
 _symmetry_equiv_pos_site_id
 _symmetry_equiv_pos_as_xyz
  1  'x, y, z'
loop_
 _atom_site_type_symbol
 _atom_site_label
 _atom_site_symmetry_multiplicity
 _atom_site_fract_x
 _atom_site_fract_y
 _atom_site_fract_z
 _atom_site_occupancy
  Lu  Lu0  1  0.996592  0.168292  0.091517  1
  Zr  Zr1  1  0.498259  0.329439  0.093374  1
  Zr  Zr2  1  0.997304  0.171709  0.406990  1
  Zr  Zr3  1  0.503528  0.671309  0.593451  1
  Zr  Zr4  1  0.003749  0.826793  0.904757  1
  Zr  Zr5  1  0.504068  0.671276  0.905788  1
  Zr  Zr6  1  0.003115  0.828936  0.593773  1
  Zr  Zr7  1  0.496375  0.328965  0.407656  1
  Si  Si8  1  0.665371  0.041514  0.543099  1
  Si  Si9  1  0.166163  0.460320  0.955834  1
  Si  Si10  1  0.337291  0.957866  0.042831  1
  Si  Si11  1  0.834809  0.541398  0.457458  1
  Si  Si12  1  0.334243  0.958449  0.457472  1
  Si  Si13  1  0.834452  0.542668  0.042927  1
  Si  Si14  1  0.664246  0.040463  0.955843  1
  Si  Si15  1  0.165236  0.458544  0.543451  1
  Si  Si16  1  0.531853  0.375670  0.749607  1
  Si  Si17  1  0.031949  0.125298  0.750465  1
  Si  Si18  1  0.467468  0.625162  0.250313  1
  Si  Si19  1  0.967512  0.873574  0.250974  1
  Si  Si20  1  0.798426  0.636341  0.749573  1
  Si  Si21  1  0.299302  0.863842  0.749480  1
  Si  Si22  1  0.201060  0.363187  0.250465  1
  Si  Si23  1  0.699561  0.137548  0.250724  1
  Mo  Mo24  1  0.830722  0.334841  0.623718  1
  Mo  Mo25  1  0.332166  0.165203  0.875975  1
  Mo  Mo26  1  0.168792  0.664844  0.123895  1
  Mo  Mo27  1  0.667582  0.834777  0.376886  1
  Mo  Mo28  1  0.169395  0.663970  0.376777  1
  Mo  Mo29  1  0.667456  0.834589  0.124392  1
  Mo  Mo30  1  0.830192  0.335936  0.875762  1
  Mo  Mo31  1  0.331021  0.165027  0.623583  1
  Mo  Mo32  1  0.666257  0.988358  0.749265  1
  Mo  Mo33  1  0.165875  0.512653  0.750165  1
  Mo  Mo34  1  0.334228  0.010149  0.250877  1
  Mo  Mo35  1  0.834386  0.491088  0.250881  1
