# generated using pymatgen
data_Ti8Al15Pd4Ru3
_symmetry_space_group_name_H-M   'P 1'
_cell_length_a   8.68601962
_cell_length_b   8.68669159
_cell_length_c   8.70453409
_cell_angle_alpha   120.05948180
_cell_angle_beta   119.89715313
_cell_angle_gamma   90.15155850
_symmetry_Int_Tables_number   1
_chemical_formula_structural   Ti8Al15Pd4Ru3
_chemical_formula_sum   'Ti8 Al15 Pd4 Ru3'
_cell_volume   464.10109664
_cell_formula_units_Z   1
loop_
 _symmetry_equiv_pos_site_id
 _symmetry_equiv_pos_as_xyz
  1  'x, y, z'
loop_
 _atom_site_type_symbol
 _atom_site_label
 _atom_site_symmetry_multiplicity
 _atom_site_fract_x
 _atom_site_fract_y
 _atom_site_fract_z
 _atom_site_occupancy
  Ti  Ti0  1  0.793634  0.287211  0.070583  1
  Ti  Ti1  1  0.215046  0.284561  0.495217  1
  Ti  Ti2  1  0.209811  0.710496  0.497885  1
  Ti  Ti3  1  0.211881  0.717467  0.926630  1
  Ti  Ti4  1  0.791783  0.721034  0.506843  1
  Ti  Ti5  1  0.783991  0.282401  0.503182  1
  Ti  Ti6  1  0.381473  0.119444  0.736518  1
  Ti  Ti7  1  0.370184  0.640015  0.254611  1
  Al  Al8  1  0.996197  0.496141  0.499164  1
  Al  Al9  1  0.153156  0.343257  0.188366  1
  Al  Al10  1  0.154513  0.966047  0.811494  1
  Al  Al11  1  0.151033  0.347225  0.805652  1
  Al  Al12  1  0.543935  0.348178  0.196257  1
  Al  Al13  1  0.848531  0.653823  0.810421  1
  Al  Al14  1  0.847913  0.041154  0.192922  1
  Al  Al15  1  0.846718  0.652286  0.190059  1
  Al  Al16  1  0.460460  0.652506  0.806922  1
  Al  Al17  1  0.373938  0.117992  0.256971  1
  Al  Al18  1  0.863563  0.124093  0.748002  1
  Al  Al19  1  0.619333  0.878620  0.260317  1
  Al  Al20  1  0.625867  0.362260  0.744736  1
  Al  Al21  1  0.626324  0.881163  0.742808  1
  Al  Al22  1  0.135259  0.876702  0.252040  1
  Pd  Pd23  1  0.997407  0.998576  0.498468  1
  Pd  Pd24  1  0.499976  0.998892  0.001015  1
  Pd  Pd25  1  0.499143  0.500290  0.000577  1
  Pd  Pd26  1  0.499039  0.499467  0.500030  1
  Ru  Ru27  1  0.002099  0.499984  0.002411  1
  Ru  Ru28  1  0.999751  0.999512  0.999724  1
  Ru  Ru29  1  0.498040  0.999199  0.500175  1
