# generated using pymatgen
data_Ba4Si3Cl2
_symmetry_space_group_name_H-M   'P 1'
_cell_length_a   8.79892500
_cell_length_b   8.77454278
_cell_length_c   15.12074403
_cell_angle_alpha   78.14951387
_cell_angle_beta   90.00000000
_cell_angle_gamma   90.00000000
_symmetry_Int_Tables_number   1
_chemical_formula_structural   Ba4Si3Cl2
_chemical_formula_sum   'Ba16 Si12 Cl8'
_cell_volume   1142.53894244
_cell_formula_units_Z   4
loop_
 _symmetry_equiv_pos_site_id
 _symmetry_equiv_pos_as_xyz
  1  'x, y, z'
loop_
 _atom_site_type_symbol
 _atom_site_label
 _atom_site_symmetry_multiplicity
 _atom_site_fract_x
 _atom_site_fract_y
 _atom_site_fract_z
 _atom_site_occupancy
  Ba  Ba0  1  0.711938  0.522879  0.954751  1
  Ba  Ba1  1  0.211938  0.977121  0.045249  1
  Ba  Ba2  1  0.288062  0.477121  0.045249  1
  Ba  Ba3  1  0.788062  0.022879  0.954751  1
  Ba  Ba4  1  0.665386  0.736136  0.337320  1
  Ba  Ba5  1  0.165386  0.763864  0.662680  1
  Ba  Ba6  1  0.334614  0.263864  0.662680  1
  Ba  Ba7  1  0.834614  0.236136  0.337320  1
  Ba  Ba8  1  0.059504  0.374083  0.850242  1
  Ba  Ba9  1  0.559504  0.125917  0.149758  1
  Ba  Ba10  1  0.940496  0.625917  0.149758  1
  Ba  Ba11  1  0.440496  0.874083  0.850242  1
  Ba  Ba12  1  0.678534  0.624278  0.647454  1
  Ba  Ba13  1  0.178534  0.875722  0.352546  1
  Ba  Ba14  1  0.321466  0.375722  0.352546  1
  Ba  Ba15  1  0.821466  0.124278  0.647454  1
  Si  Si16  1  0.063434  0.741553  0.909884  1
  Si  Si17  1  0.563434  0.758447  0.090116  1
  Si  Si18  1  0.936566  0.258447  0.090116  1
  Si  Si19  1  0.436566  0.241553  0.909884  1
  Si  Si20  1  0.432416  0.495121  0.810025  1
  Si  Si21  1  0.932416  0.004879  0.189975  1
  Si  Si22  1  0.567584  0.504879  0.189975  1
  Si  Si23  1  0.067584  0.995121  0.810025  1
  Si  Si24  1  0.632753  0.302669  0.797487  1
  Si  Si25  1  0.132753  0.197331  0.202513  1
  Si  Si26  1  0.367247  0.697331  0.202513  1
  Si  Si27  1  0.867247  0.802669  0.797487  1
  Cl  Cl28  1  0.361496  0.633570  0.507342  1
  Cl  Cl29  1  0.861496  0.866430  0.492658  1
  Cl  Cl30  1  0.638504  0.366430  0.492658  1
  Cl  Cl31  1  0.138504  0.133570  0.507342  1
  Cl  Cl32  1  0.492096  0.945201  0.640273  1
  Cl  Cl33  1  0.992096  0.554799  0.359727  1
  Cl  Cl34  1  0.507904  0.054799  0.359727  1
  Cl  Cl35  1  0.007904  0.445201  0.640273  1
