# generated using pymatgen
data_Ti8Al15Os5PtRh
_symmetry_space_group_name_H-M   'P 1'
_cell_length_a   8.67589477
_cell_length_b   8.67578051
_cell_length_c   8.67573748
_cell_angle_alpha   119.89840590
_cell_angle_beta   119.66968338
_cell_angle_gamma   90.37453439
_symmetry_Int_Tables_number   1
_chemical_formula_structural   Ti8Al15Os5PtRh
_chemical_formula_sum   'Ti8 Al15 Os5 Pt1 Rh1'
_cell_volume   463.25217602
_cell_formula_units_Z   1
loop_
 _symmetry_equiv_pos_site_id
 _symmetry_equiv_pos_as_xyz
  1  'x, y, z'
loop_
 _atom_site_type_symbol
 _atom_site_label
 _atom_site_symmetry_multiplicity
 _atom_site_fract_x
 _atom_site_fract_y
 _atom_site_fract_z
 _atom_site_occupancy
  Ti  Ti0  1  0.786300  0.291361  0.067549  1
  Ti  Ti1  1  0.223803  0.291372  0.505055  1
  Ti  Ti2  1  0.212118  0.712119  0.500006  1
  Ti  Ti3  1  0.223819  0.718742  0.932448  1
  Ti  Ti4  1  0.786297  0.718752  0.494930  1
  Ti  Ti5  1  0.779170  0.279168  0.500001  1
  Ti  Ti6  1  0.377310  0.122941  0.745605  1
  Ti  Ti7  1  0.377314  0.631703  0.254396  1
  Al  Al8  1  0.996677  0.496640  0.499983  1
  Al  Al9  1  0.155025  0.346467  0.191456  1
  Al  Al10  1  0.155031  0.963597  0.808562  1
  Al  Al11  1  0.151890  0.345435  0.806422  1
  Al  Al12  1  0.539008  0.345444  0.193554  1
  Al  Al13  1  0.845888  0.649865  0.803970  1
  Al  Al14  1  0.845910  0.041936  0.196044  1
  Al  Al15  1  0.842923  0.656586  0.186330  1
  Al  Al16  1  0.470252  0.656572  0.813654  1
  Al  Al17  1  0.382988  0.122486  0.260529  1
  Al  Al18  1  0.861959  0.122479  0.739488  1
  Al  Al19  1  0.620504  0.875289  0.254792  1
  Al  Al20  1  0.620482  0.365706  0.745210  1
  Al  Al21  1  0.615367  0.876121  0.739258  1
  Al  Al22  1  0.136866  0.876134  0.260765  1
  Os  Os23  1  0.000312  0.999322  0.501540  1
  Os  Os24  1  0.497784  0.999327  0.999012  1
  Os  Os25  1  0.497869  0.497875  0.000011  1
  Os  Os26  1  0.497794  0.498778  0.498458  1
  Os  Os27  1  0.000321  0.498782  0.000986  1
  Pt  Pt28  1  0.999139  0.999130  0.999989  1
  Rh  Rh29  1  0.499872  0.999865  0.499997  1
