# generated using pymatgen
data_Dy5Lu3Tc3B24Ru
_symmetry_space_group_name_H-M   'P 1'
_cell_length_a   3.65116700
_cell_length_b   9.10657929
_cell_length_c   11.49690904
_cell_angle_alpha   89.93205607
_cell_angle_beta   90.00000000
_cell_angle_gamma   90.00000000
_symmetry_Int_Tables_number   1
_chemical_formula_structural   Dy5Lu3Tc3B24Ru
_chemical_formula_sum   'Dy5 Lu3 Tc3 B24 Ru1'
_cell_volume   382.26783812
_cell_formula_units_Z   1
loop_
 _symmetry_equiv_pos_site_id
 _symmetry_equiv_pos_as_xyz
  1  'x, y, z'
loop_
 _atom_site_type_symbol
 _atom_site_label
 _atom_site_symmetry_multiplicity
 _atom_site_fract_x
 _atom_site_fract_y
 _atom_site_fract_z
 _atom_site_occupancy
  Dy  Dy0  1  0.000000  0.323245  0.414033  1
  Dy  Dy1  1  0.000000  0.675444  0.584550  1
  Dy  Dy2  1  0.000000  0.822363  0.086778  1
  Dy  Dy3  1  0.000000  0.178649  0.914383  1
  Dy  Dy4  1  0.000000  0.943015  0.370811  1
  Lu  Lu5  1  0.000000  0.057886  0.631263  1
  Lu  Lu6  1  0.000000  0.443282  0.129632  1
  Lu  Lu7  1  0.000000  0.557494  0.869430  1
  Tc  Tc8  1  0.000000  0.637397  0.319530  1
  Tc  Tc9  1  0.000000  0.361274  0.681162  1
  Tc  Tc10  1  0.000000  0.139586  0.178182  1
  B  B11  1  0.500000  0.552530  0.432670  1
  B  B12  1  0.500000  0.446197  0.567380  1
  B  B13  1  0.500000  0.053697  0.066532  1
  B  B14  1  0.500000  0.945701  0.932359  1
  B  B15  1  0.500000  0.748086  0.418506  1
  B  B16  1  0.500000  0.249560  0.582055  1
  B  B17  1  0.500000  0.251256  0.081134  1
  B  B18  1  0.500000  0.749888  0.918093  1
  B  B19  1  0.500000  0.791024  0.264996  1
  B  B20  1  0.500000  0.207738  0.735396  1
  B  B21  1  0.500000  0.293196  0.234271  1
  B  B22  1  0.500000  0.708353  0.765268  1
  B  B23  1  0.500000  0.629556  0.184442  1
  B  B24  1  0.500000  0.370095  0.815807  1
  B  B25  1  0.500000  0.131142  0.313935  1
  B  B26  1  0.500000  0.869664  0.685338  1
  B  B27  1  0.500000  0.982190  0.211378  1
  B  B28  1  0.500000  0.017073  0.787742  1
  B  B29  1  0.500000  0.481231  0.287013  1
  B  B30  1  0.500000  0.518372  0.712548  1
  B  B31  1  0.500000  0.599642  0.027107  1
  B  B32  1  0.500000  0.402085  0.972295  1
  B  B33  1  0.500000  0.101261  0.473964  1
  B  B34  1  0.500000  0.899983  0.529789  1
  Ru  Ru35  1  0.000000  0.860844  0.820231  1
