# generated using pymatgen
data_Rb2Mn3(AsO3)4
_symmetry_space_group_name_H-M   'P 1'
_cell_length_a   5.71901133
_cell_length_b   6.04089208
_cell_length_c   11.72949358
_cell_angle_alpha   105.05724775
_cell_angle_beta   104.11019038
_cell_angle_gamma   61.74750315
_symmetry_Int_Tables_number   1
_chemical_formula_structural   Rb2Mn3(AsO3)4
_chemical_formula_sum   'Rb2 Mn3 As4 O12'
_cell_volume   341.20477194
_cell_formula_units_Z   1
loop_
 _symmetry_equiv_pos_site_id
 _symmetry_equiv_pos_as_xyz
  1  'x, y, z'
loop_
 _atom_site_type_symbol
 _atom_site_label
 _atom_site_symmetry_multiplicity
 _atom_site_fract_x
 _atom_site_fract_y
 _atom_site_fract_z
 _atom_site_occupancy
  Rb  Rb0  1  0.629754  0.157660  0.417167  1
  Rb  Rb1  1  0.370245  0.842341  0.582833  1
  Mn  Mn2  1  0.000000  0.000000  0.000000  1
  Mn  Mn3  1  0.226812  0.791699  0.245323  1
  Mn  Mn4  1  0.773187  0.208301  0.754677  1
  As  As5  1  0.681178  0.685953  0.048310  1
  As  As6  1  0.919713  0.460324  0.299752  1
  As  As7  1  0.080286  0.539676  0.700248  1
  As  As8  1  0.318821  0.314048  0.951690  1
  O  O9  1  0.383077  0.860943  0.115336  1
  O  O10  1  0.871316  0.860943  0.115336  1
  O  O11  1  0.866658  0.406159  0.139476  1
  O  O12  1  0.107209  0.628087  0.348399  1
  O  O13  1  0.613102  0.628087  0.348399  1
  O  O14  1  0.087772  0.169479  0.345024  1
  O  O15  1  0.912227  0.830521  0.654976  1
  O  O16  1  0.386897  0.371913  0.651601  1
  O  O17  1  0.892790  0.371913  0.651601  1
  O  O18  1  0.133343  0.593840  0.860525  1
  O  O19  1  0.128684  0.139057  0.884663  1
  O  O20  1  0.616922  0.139057  0.884663  1
