# generated using pymatgen
data_Ce8Tc3B24Rh
_symmetry_space_group_name_H-M   'P 1'
_cell_length_a   3.73456900
_cell_length_b   9.45828451
_cell_length_c   11.55938068
_cell_angle_alpha   90.07616362
_cell_angle_beta   90.00000000
_cell_angle_gamma   90.00000000
_symmetry_Int_Tables_number   1
_chemical_formula_structural   Ce8Tc3B24Rh
_chemical_formula_sum   'Ce8 Tc3 B24 Rh1'
_cell_volume   408.30720571
_cell_formula_units_Z   1
loop_
 _symmetry_equiv_pos_site_id
 _symmetry_equiv_pos_as_xyz
  1  'x, y, z'
loop_
 _atom_site_type_symbol
 _atom_site_label
 _atom_site_symmetry_multiplicity
 _atom_site_fract_x
 _atom_site_fract_y
 _atom_site_fract_z
 _atom_site_occupancy
  Ce  Ce0  1  0.500000  0.334234  0.408333  1
  Ce  Ce1  1  0.500000  0.663411  0.595275  1
  Ce  Ce2  1  0.500000  0.164235  0.907263  1
  Ce  Ce3  1  0.500000  0.838726  0.090178  1
  Ce  Ce4  1  0.500000  0.451544  0.109572  1
  Ce  Ce5  1  0.500000  0.546011  0.889942  1
  Ce  Ce6  1  0.500000  0.045366  0.610314  1
  Ce  Ce7  1  0.500000  0.956199  0.389411  1
  Tc  Tc8  1  0.500000  0.144527  0.178710  1
  Tc  Tc9  1  0.500000  0.855334  0.821131  1
  Tc  Tc10  1  0.500000  0.355854  0.678564  1
  B  B11  1  0.000000  0.147386  0.458464  1
  B  B12  1  0.000000  0.850167  0.541636  1
  B  B13  1  0.000000  0.352777  0.958657  1
  B  B14  1  0.000000  0.648634  0.042749  1
  B  B15  1  0.000000  0.145653  0.309659  1
  B  B16  1  0.000000  0.854093  0.690359  1
  B  B17  1  0.000000  0.354898  0.809807  1
  B  B18  1  0.000000  0.644393  0.189608  1
  B  B19  1  0.000000  0.053127  0.069539  1
  B  B20  1  0.000000  0.947337  0.929804  1
  B  B21  1  0.000000  0.447949  0.569628  1
  B  B22  1  0.000000  0.551361  0.429964  1
  B  B23  1  0.000000  0.490061  0.282334  1
  B  B24  1  0.000000  0.508513  0.717948  1
  B  B25  1  0.000000  0.008292  0.782269  1
  B  B26  1  0.000000  0.991263  0.217135  1
  B  B27  1  0.000000  0.241500  0.076636  1
  B  B28  1  0.000000  0.758407  0.923361  1
  B  B29  1  0.000000  0.258538  0.576517  1
  B  B30  1  0.000000  0.743955  0.423027  1
  B  B31  1  0.000000  0.299184  0.224707  1
  B  B32  1  0.000000  0.700798  0.775799  1
  B  B33  1  0.000000  0.201375  0.724338  1
  B  B34  1  0.000000  0.800486  0.275548  1
  Rh  Rh35  1  0.500000  0.644415  0.321814  1
