# generated using pymatgen
data_Lu12Th4Cd4Fe3Rh
_symmetry_space_group_name_H-M   'P 1'
_cell_length_a   9.45798566
_cell_length_b   9.45798492
_cell_length_c   9.45798576
_cell_angle_alpha   59.96865618
_cell_angle_beta   59.96866535
_cell_angle_gamma   59.96865341
_symmetry_Int_Tables_number   1
_chemical_formula_structural   Lu12Th4Cd4Fe3Rh
_chemical_formula_sum   'Lu12 Th4 Cd4 Fe3 Rh1'
_cell_volume   597.82235139
_cell_formula_units_Z   1
loop_
 _symmetry_equiv_pos_site_id
 _symmetry_equiv_pos_as_xyz
  1  'x, y, z'
loop_
 _atom_site_type_symbol
 _atom_site_label
 _atom_site_symmetry_multiplicity
 _atom_site_fract_x
 _atom_site_fract_y
 _atom_site_fract_z
 _atom_site_occupancy
  Lu  Lu0  1  0.806592  0.186998  0.186998  1
  Lu  Lu1  1  0.185653  0.814439  0.814439  1
  Lu  Lu2  1  0.186998  0.806592  0.186998  1
  Lu  Lu3  1  0.814439  0.185653  0.814439  1
  Lu  Lu4  1  0.186998  0.186998  0.806592  1
  Lu  Lu5  1  0.814439  0.814439  0.185653  1
  Lu  Lu6  1  0.935751  0.565844  0.565844  1
  Lu  Lu7  1  0.566058  0.936349  0.936349  1
  Lu  Lu8  1  0.565844  0.935751  0.565844  1
  Lu  Lu9  1  0.936349  0.566058  0.936349  1
  Lu  Lu10  1  0.565844  0.565844  0.935751  1
  Lu  Lu11  1  0.936349  0.936349  0.566058  1
  Th  Th12  1  0.344609  0.344609  0.344609  1
  Th  Th13  1  0.351595  0.351595  0.957881  1
  Th  Th14  1  0.351595  0.957881  0.351595  1
  Th  Th15  1  0.957881  0.351595  0.351595  1
  Cd  Cd16  1  0.583221  0.583221  0.583221  1
  Cd  Cd17  1  0.581625  0.581625  0.253797  1
  Cd  Cd18  1  0.581625  0.253797  0.581625  1
  Cd  Cd19  1  0.253797  0.581625  0.581625  1
  Fe  Fe20  1  0.142583  0.142583  0.567097  1
  Fe  Fe21  1  0.142583  0.567097  0.142583  1
  Fe  Fe22  1  0.567097  0.142583  0.142583  1
  Rh  Rh23  1  0.140468  0.140468  0.140468  1
