# generated using pymatgen
data_Ho7Er5GaCo4Sn
_symmetry_space_group_name_H-M   'P 1'
_cell_length_a   8.28128320
_cell_length_b   8.25906675
_cell_length_c   8.25979805
_cell_angle_alpha   111.98286565
_cell_angle_beta   109.30859445
_cell_angle_gamma   107.10529397
_symmetry_Int_Tables_number   1
_chemical_formula_structural   Ho7Er5GaCo4Sn
_chemical_formula_sum   'Ho7 Er5 Ga1 Co4 Sn1'
_cell_volume   434.38332087
_cell_formula_units_Z   1
loop_
 _symmetry_equiv_pos_site_id
 _symmetry_equiv_pos_as_xyz
  1  'x, y, z'
loop_
 _atom_site_type_symbol
 _atom_site_label
 _atom_site_symmetry_multiplicity
 _atom_site_fract_x
 _atom_site_fract_y
 _atom_site_fract_z
 _atom_site_occupancy
  Ho  Ho0  1  0.675535  0.488347  0.813959  1
  Ho  Ho1  1  0.565784  0.267043  0.298545  1
  Ho  Ho2  1  0.433777  0.733083  0.701345  1
  Ho  Ho3  1  0.180863  0.781120  0.961887  1
  Ho  Ho4  1  0.819731  0.781622  0.600430  1
  Ho  Ho5  1  0.180208  0.218756  0.399527  1
  Ho  Ho6  1  0.819697  0.219075  0.038561  1
  Er  Er7  1  0.967982  0.266311  0.701409  1
  Er  Er8  1  0.032515  0.733769  0.299134  1
  Er  Er9  1  0.675424  0.860911  0.186680  1
  Er  Er10  1  0.324610  0.511069  0.185405  1
  Er  Er11  1  0.324637  0.139392  0.813608  1
  Ga  Ga12  1  0.999775  0.499824  0.500038  1
  Co  Co13  1  0.113652  0.115015  0.998526  1
  Co  Co14  1  0.886829  0.885325  0.001465  1
  Co  Co15  1  0.659736  0.500629  0.159776  1
  Co  Co16  1  0.340211  0.499871  0.841045  1
  Sn  Sn17  1  0.499034  0.998837  0.498660  1
