# generated using pymatgen
data_Dy5Tm11(CdCo)4
_symmetry_space_group_name_H-M   'P 1'
_cell_length_a   9.39383989
_cell_length_b   9.38859887
_cell_length_c   9.38859870
_cell_angle_alpha   60.00747945
_cell_angle_beta   59.98153212
_cell_angle_gamma   59.98153409
_symmetry_Int_Tables_number   1
_chemical_formula_structural   Dy5Tm11(CdCo)4
_chemical_formula_sum   'Dy5 Tm11 Cd4 Co4'
_cell_volume   585.37337519
_cell_formula_units_Z   1
loop_
 _symmetry_equiv_pos_site_id
 _symmetry_equiv_pos_as_xyz
  1  'x, y, z'
loop_
 _atom_site_type_symbol
 _atom_site_label
 _atom_site_symmetry_multiplicity
 _atom_site_fract_x
 _atom_site_fract_y
 _atom_site_fract_z
 _atom_site_occupancy
  Dy  Dy0  1  0.559494  0.940506  0.940506  1
  Dy  Dy1  1  0.561115  0.938883  0.560329  1
  Dy  Dy2  1  0.939672  0.560328  0.938883  1
  Dy  Dy3  1  0.561115  0.560329  0.938883  1
  Dy  Dy4  1  0.939672  0.938883  0.560328  1
  Tm  Tm5  1  0.345861  0.346795  0.346795  1
  Tm  Tm6  1  0.346349  0.347666  0.959637  1
  Tm  Tm7  1  0.346349  0.959637  0.347666  1
  Tm  Tm8  1  0.960551  0.346795  0.346795  1
  Tm  Tm9  1  0.813250  0.186750  0.186750  1
  Tm  Tm10  1  0.186608  0.813392  0.813392  1
  Tm  Tm11  1  0.186217  0.812977  0.187316  1
  Tm  Tm12  1  0.813490  0.187316  0.812977  1
  Tm  Tm13  1  0.186217  0.187316  0.812977  1
  Tm  Tm14  1  0.813490  0.812977  0.187316  1
  Tm  Tm15  1  0.939928  0.560072  0.560072  1
  Cd  Cd16  1  0.581798  0.580190  0.580190  1
  Cd  Cd17  1  0.580580  0.580160  0.258680  1
  Cd  Cd18  1  0.580580  0.258680  0.580160  1
  Cd  Cd19  1  0.257819  0.580190  0.580190  1
  Co  Co20  1  0.142441  0.141405  0.141405  1
  Co  Co21  1  0.141327  0.142063  0.575285  1
  Co  Co22  1  0.141327  0.575285  0.142063  1
  Co  Co23  1  0.574751  0.141405  0.141405  1
