# generated using pymatgen
data_Hf18Re8SiAs
_symmetry_space_group_name_H-M   'P 1'
_cell_length_a   8.59462200
_cell_length_b   8.59462201
_cell_length_c   8.66000900
_cell_angle_alpha   90.00000000
_cell_angle_beta   90.00000000
_cell_angle_gamma   119.99999996
_symmetry_Int_Tables_number   1
_chemical_formula_structural   Hf18Re8SiAs
_chemical_formula_sum   'Hf18 Re8 Si1 As1'
_cell_volume   553.99078047
_cell_formula_units_Z   1
loop_
 _symmetry_equiv_pos_site_id
 _symmetry_equiv_pos_as_xyz
  1  'x, y, z'
loop_
 _atom_site_type_symbol
 _atom_site_label
 _atom_site_symmetry_multiplicity
 _atom_site_fract_x
 _atom_site_fract_y
 _atom_site_fract_z
 _atom_site_occupancy
  Hf  Hf0  1  0.193963  0.806037  0.454127  1
  Hf  Hf1  1  0.193963  0.387927  0.454127  1
  Hf  Hf2  1  0.612073  0.806037  0.454127  1
  Hf  Hf3  1  0.804861  0.195139  0.547969  1
  Hf  Hf4  1  0.804861  0.609722  0.547969  1
  Hf  Hf5  1  0.390278  0.195139  0.547969  1
  Hf  Hf6  1  0.804861  0.195139  0.952031  1
  Hf  Hf7  1  0.804861  0.609722  0.952031  1
  Hf  Hf8  1  0.390278  0.195139  0.952031  1
  Hf  Hf9  1  0.193963  0.806037  0.045873  1
  Hf  Hf10  1  0.193963  0.387927  0.045873  1
  Hf  Hf11  1  0.612073  0.806037  0.045873  1
  Hf  Hf12  1  0.541064  0.458936  0.250000  1
  Hf  Hf13  1  0.541064  0.082127  0.250000  1
  Hf  Hf14  1  0.917873  0.458936  0.250000  1
  Hf  Hf15  1  0.460865  0.539135  0.750000  1
  Hf  Hf16  1  0.460865  0.921732  0.750000  1
  Hf  Hf17  1  0.078268  0.539135  0.750000  1
  Re  Re18  1  0.890640  0.109360  0.250000  1
  Re  Re19  1  0.890640  0.781279  0.250000  1
  Re  Re20  1  0.218721  0.109360  0.250000  1
  Re  Re21  1  0.109216  0.890784  0.750000  1
  Re  Re22  1  0.109216  0.218432  0.750000  1
  Re  Re23  1  0.781568  0.890784  0.750000  1
  Re  Re24  1  0.000000  0.000000  0.500211  1
  Re  Re25  1  0.000000  0.000000  0.999789  1
  Si  Si26  1  0.666667  0.333333  0.750000  1
  As  As27  1  0.333333  0.666667  0.250000  1
