# generated using pymatgen
data_Y3ErTmPb3
_symmetry_space_group_name_H-M   'P 1'
_cell_length_a   6.61156200
_cell_length_b   9.04026522
_cell_length_c   9.03905018
_cell_angle_alpha   120.00400421
_cell_angle_beta   90.00013914
_cell_angle_gamma   89.99917177
_symmetry_Int_Tables_number   1
_chemical_formula_structural   Y3ErTmPb3
_chemical_formula_sum   'Y6 Er2 Tm2 Pb6'
_cell_volume   467.86563921
_cell_formula_units_Z   2
loop_
 _symmetry_equiv_pos_site_id
 _symmetry_equiv_pos_as_xyz
  1  'x, y, z'
loop_
 _atom_site_type_symbol
 _atom_site_label
 _atom_site_symmetry_multiplicity
 _atom_site_fract_x
 _atom_site_fract_y
 _atom_site_fract_z
 _atom_site_occupancy
  Y  Y0  1  0.750231  0.238896  0.000001  1
  Y  Y1  1  0.750251  0.761070  0.761061  1
  Y  Y2  1  0.750259  0.000010  0.238940  1
  Y  Y3  1  0.249738  0.761102  0.999998  1
  Y  Y4  1  0.249757  0.238931  0.238936  1
  Y  Y5  1  0.249752  0.999997  0.761068  1
  Er  Er6  1  0.500024  0.333330  0.666684  1
  Er  Er7  1  0.500036  0.666651  0.333313  1
  Tm  Tm8  1  0.000003  0.666664  0.333326  1
  Tm  Tm9  1  0.000003  0.333350  0.666677  1
  Pb  Pb10  1  0.750795  0.604645  0.999999  1
  Pb  Pb11  1  0.750822  0.395311  0.395326  1
  Pb  Pb12  1  0.750820  0.999986  0.604667  1
  Pb  Pb13  1  0.249144  0.395353  0.000000  1
  Pb  Pb14  1  0.249182  0.604686  0.604667  1
  Pb  Pb15  1  0.249183  0.000017  0.395336  1
