# generated using pymatgen
data_LiTb6Zn22Ge
_symmetry_space_group_name_H-M   'P 1'
_cell_length_a   9.10909007
_cell_length_b   9.10908888
_cell_length_c   9.10909000
_cell_angle_alpha   60.00000318
_cell_angle_beta   60.00000751
_cell_angle_gamma   60.00000068
_symmetry_Int_Tables_number   1
_chemical_formula_structural   LiTb6Zn22Ge
_chemical_formula_sum   'Li1 Tb6 Zn22 Ge1'
_cell_volume   534.45355258
_cell_formula_units_Z   1
loop_
 _symmetry_equiv_pos_site_id
 _symmetry_equiv_pos_as_xyz
  1  'x, y, z'
loop_
 _atom_site_type_symbol
 _atom_site_label
 _atom_site_symmetry_multiplicity
 _atom_site_fract_x
 _atom_site_fract_y
 _atom_site_fract_z
 _atom_site_occupancy
  Li  Li0  1  0.000000  0.000000  0.000000  1
  Tb  Tb1  1  0.717904  0.282096  0.282096  1
  Tb  Tb2  1  0.282096  0.717904  0.717904  1
  Tb  Tb3  1  0.282096  0.717904  0.282096  1
  Tb  Tb4  1  0.717904  0.282096  0.717904  1
  Tb  Tb5  1  0.282096  0.282096  0.717904  1
  Tb  Tb6  1  0.717904  0.717904  0.282096  1
  Zn  Zn7  1  0.125349  0.125349  0.125349  1
  Zn  Zn8  1  0.874651  0.874651  0.874651  1
  Zn  Zn9  1  0.125349  0.125349  0.623955  1
  Zn  Zn10  1  0.125349  0.623955  0.125349  1
  Zn  Zn11  1  0.874651  0.874651  0.376045  1
  Zn  Zn12  1  0.874651  0.376045  0.874651  1
  Zn  Zn13  1  0.623955  0.125349  0.125349  1
  Zn  Zn14  1  0.376045  0.874651  0.874651  1
  Zn  Zn15  1  0.500000  0.000000  0.000000  1
  Zn  Zn16  1  0.000000  0.500000  0.500000  1
  Zn  Zn17  1  0.000000  0.500000  0.000000  1
  Zn  Zn18  1  0.500000  0.000000  0.500000  1
  Zn  Zn19  1  0.000000  0.000000  0.500000  1
  Zn  Zn20  1  0.500000  0.500000  0.000000  1
  Zn  Zn21  1  0.330816  0.330816  0.330816  1
  Zn  Zn22  1  0.669184  0.669184  0.669184  1
  Zn  Zn23  1  0.330816  0.330816  0.007552  1
  Zn  Zn24  1  0.330816  0.007552  0.330816  1
  Zn  Zn25  1  0.669184  0.669184  0.992448  1
  Zn  Zn26  1  0.669184  0.992448  0.669184  1
  Zn  Zn27  1  0.007552  0.330816  0.330816  1
  Zn  Zn28  1  0.992448  0.669184  0.669184  1
  Ge  Ge29  1  0.500000  0.500000  0.500000  1
