# generated using pymatgen
data_Sc4Al3FeOs4
_symmetry_space_group_name_H-M   'P 1'
_cell_length_a   5.25188294
_cell_length_b   5.20603755
_cell_length_c   8.39578000
_cell_angle_alpha   90.00000000
_cell_angle_beta   90.86097195
_cell_angle_gamma   119.71165993
_symmetry_Int_Tables_number   1
_chemical_formula_structural   Sc4Al3FeOs4
_chemical_formula_sum   'Sc4 Al3 Fe1 Os4'
_cell_volume   199.34416894
_cell_formula_units_Z   1
loop_
 _symmetry_equiv_pos_site_id
 _symmetry_equiv_pos_as_xyz
  1  'x, y, z'
loop_
 _atom_site_type_symbol
 _atom_site_label
 _atom_site_symmetry_multiplicity
 _atom_site_fract_x
 _atom_site_fract_y
 _atom_site_fract_z
 _atom_site_occupancy
  Sc  Sc0  1  0.332705  0.674067  0.066232  1
  Sc  Sc1  1  0.663689  0.339907  0.562557  1
  Sc  Sc2  1  0.667295  0.341362  0.933768  1
  Sc  Sc3  1  0.336311  0.676220  0.437443  1
  Al  Al4  1  0.000000  0.978461  0.000000  1
  Al  Al5  1  0.837107  0.170218  0.257918  1
  Al  Al6  1  0.162893  0.333109  0.742082  1
  Fe  Fe7  1  0.000000  0.985152  0.500000  1
  Os  Os8  1  0.822332  0.656601  0.254998  1
  Os  Os9  1  0.177668  0.834268  0.745002  1
  Os  Os10  1  0.656263  0.833449  0.745930  1
  Os  Os11  1  0.343737  0.177187  0.254070  1
