# generated using pymatgen
data_YbHo(MgRh)2
_symmetry_space_group_name_H-M   'P 1'
_cell_length_a   4.09567500
_cell_length_b   7.07545381
_cell_length_c   8.49063900
_cell_angle_alpha   89.97262126
_cell_angle_beta   90.00000000
_cell_angle_gamma   90.00000000
_symmetry_Int_Tables_number   1
_chemical_formula_structural   YbHo(MgRh)2
_chemical_formula_sum   'Yb2 Ho2 Mg4 Rh4'
_cell_volume   246.04815557
_cell_formula_units_Z   2
loop_
 _symmetry_equiv_pos_site_id
 _symmetry_equiv_pos_as_xyz
  1  'x, y, z'
loop_
 _atom_site_type_symbol
 _atom_site_label
 _atom_site_symmetry_multiplicity
 _atom_site_fract_x
 _atom_site_fract_y
 _atom_site_fract_z
 _atom_site_occupancy
  Yb  Yb0  1  0.750000  0.966414  0.674477  1
  Yb  Yb1  1  0.250000  0.033586  0.325523  1
  Ho  Ho2  1  0.250000  0.536319  0.174864  1
  Ho  Ho3  1  0.750000  0.463681  0.825136  1
  Mg  Mg4  1  0.250000  0.637773  0.557958  1
  Mg  Mg5  1  0.750000  0.362227  0.442042  1
  Mg  Mg6  1  0.750000  0.861804  0.060147  1
  Mg  Mg7  1  0.250000  0.138196  0.939853  1
  Rh  Rh8  1  0.250000  0.748391  0.873234  1
  Rh  Rh9  1  0.750000  0.251609  0.126766  1
  Rh  Rh10  1  0.750000  0.737927  0.364334  1
  Rh  Rh11  1  0.250000  0.262073  0.635666  1
