# generated using pymatgen
data_Ba3CeBi3
_symmetry_space_group_name_H-M   'P 1'
_cell_length_a   9.12292648
_cell_length_b   9.26440419
_cell_length_c   9.12292751
_cell_angle_alpha   109.73820386
_cell_angle_beta   109.04047283
_cell_angle_gamma   109.73819556
_symmetry_Int_Tables_number   1
_chemical_formula_structural   Ba3CeBi3
_chemical_formula_sum   'Ba6 Ce2 Bi6'
_cell_volume   592.77996850
_cell_formula_units_Z   2
loop_
 _symmetry_equiv_pos_site_id
 _symmetry_equiv_pos_as_xyz
  1  'x, y, z'
loop_
 _atom_site_type_symbol
 _atom_site_label
 _atom_site_symmetry_multiplicity
 _atom_site_fract_x
 _atom_site_fract_y
 _atom_site_fract_z
 _atom_site_occupancy
  Ba  Ba0  1  0.360501  0.356156  0.360860  1
  Ba  Ba1  1  0.000214  0.137064  0.498224  1
  Ba  Ba2  1  0.860860  0.856156  0.860501  1
  Ba  Ba3  1  0.998224  0.637064  0.500214  1
  Ba  Ba4  1  0.505966  0.006506  0.136695  1
  Ba  Ba5  1  0.636695  0.506506  0.005966  1
  Ce  Ce6  1  0.504023  0.004034  0.634908  1
  Ce  Ce7  1  0.134908  0.504034  0.004023  1
  Bi  Bi8  1  0.876446  0.253557  0.100072  1
  Bi  Bi9  1  0.142056  0.863464  0.257011  1
  Bi  Bi10  1  0.370051  0.629220  0.752974  1
  Bi  Bi11  1  0.252974  0.129220  0.870051  1
  Bi  Bi12  1  0.757011  0.363464  0.642056  1
  Bi  Bi13  1  0.600072  0.753557  0.376446  1
