# generated using pymatgen
data_Nd2Er8Tl5In3Pd4
_symmetry_space_group_name_H-M   'P 1'
_cell_length_a   3.62643700
_cell_length_b   8.24337117
_cell_length_c   18.42102540
_cell_angle_alpha   89.97626176
_cell_angle_beta   90.00000000
_cell_angle_gamma   90.00000000
_symmetry_Int_Tables_number   1
_chemical_formula_structural   Nd2Er8Tl5In3Pd4
_chemical_formula_sum   'Nd2 Er8 Tl5 In3 Pd4'
_cell_volume   550.67930612
_cell_formula_units_Z   1
loop_
 _symmetry_equiv_pos_site_id
 _symmetry_equiv_pos_as_xyz
  1  'x, y, z'
loop_
 _atom_site_type_symbol
 _atom_site_label
 _atom_site_symmetry_multiplicity
 _atom_site_fract_x
 _atom_site_fract_y
 _atom_site_fract_z
 _atom_site_occupancy
  Nd  Nd0  1  0.000000  0.499311  0.498878  1
  Nd  Nd1  1  0.000000  0.999984  0.000396  1
  Er  Er2  1  0.000000  0.741383  0.283195  1
  Er  Er3  1  0.000000  0.258847  0.716950  1
  Er  Er4  1  0.000000  0.757874  0.783627  1
  Er  Er5  1  0.000000  0.241563  0.216292  1
  Er  Er6  1  0.000000  0.621936  0.086840  1
  Er  Er7  1  0.000000  0.377981  0.913691  1
  Er  Er8  1  0.000000  0.878885  0.587276  1
  Er  Er9  1  0.000000  0.121692  0.412811  1
  Tl  Tl10  1  0.500000  0.698396  0.933874  1
  Tl  Tl11  1  0.500000  0.302695  0.066267  1
  Tl  Tl12  1  0.500000  0.802626  0.433769  1
  Tl  Tl13  1  0.500000  0.196289  0.565354  1
  Tl  Tl14  1  0.500000  0.583574  0.652786  1
  In  In15  1  0.500000  0.414759  0.345504  1
  In  In16  1  0.500000  0.914918  0.154374  1
  In  In17  1  0.500000  0.084493  0.846304  1
  Pd  Pd18  1  0.500000  0.531354  0.197969  1
  Pd  Pd19  1  0.500000  0.468153  0.803612  1
  Pd  Pd20  1  0.500000  0.972342  0.698245  1
  Pd  Pd21  1  0.500000  0.030946  0.301986  1
