# generated using pymatgen
data_Ho20Si3Bi8As
_symmetry_space_group_name_H-M   'P 1'
_cell_length_a   8.02889388
_cell_length_b   9.14823600
_cell_length_c   12.00848614
_cell_angle_alpha   90.00000000
_cell_angle_beta   89.79506147
_cell_angle_gamma   90.00000000
_symmetry_Int_Tables_number   1
_chemical_formula_structural   Ho20Si3Bi8As
_chemical_formula_sum   'Ho20 Si3 Bi8 As1'
_cell_volume   882.02025931
_cell_formula_units_Z   1
loop_
 _symmetry_equiv_pos_site_id
 _symmetry_equiv_pos_as_xyz
  1  'x, y, z'
loop_
 _atom_site_type_symbol
 _atom_site_label
 _atom_site_symmetry_multiplicity
 _atom_site_fract_x
 _atom_site_fract_y
 _atom_site_fract_z
 _atom_site_occupancy
  Ho  Ho0  1  0.820376  0.553532  0.062715  1
  Ho  Ho1  1  0.681610  0.947631  0.563550  1
  Ho  Ho2  1  0.179543  0.053195  0.937160  1
  Ho  Ho3  1  0.320358  0.443496  0.437066  1
  Ho  Ho4  1  0.179543  0.446805  0.937160  1
  Ho  Ho5  1  0.320358  0.056504  0.437066  1
  Ho  Ho6  1  0.820376  0.946468  0.062715  1
  Ho  Ho7  1  0.681610  0.552369  0.563550  1
  Ho  Ho8  1  0.163016  0.750000  0.209857  1
  Ho  Ho9  1  0.334481  0.750000  0.713608  1
  Ho  Ho10  1  0.835000  0.250000  0.788093  1
  Ho  Ho11  1  0.664779  0.250000  0.288254  1
  Ho  Ho12  1  0.461690  0.750000  0.001674  1
  Ho  Ho13  1  0.036077  0.750000  0.500763  1
  Ho  Ho14  1  0.539099  0.250000  0.998772  1
  Ho  Ho15  1  0.960845  0.250000  0.498552  1
  Ho  Ho16  1  0.638341  0.750000  0.294692  1
  Ho  Ho17  1  0.863554  0.750000  0.794743  1
  Ho  Ho18  1  0.363600  0.250000  0.704309  1
  Ho  Ho19  1  0.136248  0.250000  0.205081  1
  Si  Si20  1  0.087656  0.750000  0.978229  1
  Si  Si21  1  0.587204  0.250000  0.520572  1
  Si  Si22  1  0.911911  0.250000  0.021267  1
  Bi  Bi23  1  0.931899  0.511056  0.325944  1
  Bi  Bi24  1  0.567713  0.988888  0.825445  1
  Bi  Bi25  1  0.068764  0.010499  0.673815  1
  Bi  Bi26  1  0.431910  0.489590  0.174926  1
  Bi  Bi27  1  0.068764  0.489501  0.673815  1
  Bi  Bi28  1  0.431910  0.010410  0.174926  1
  Bi  Bi29  1  0.931899  0.988944  0.325944  1
  Bi  Bi30  1  0.567713  0.511112  0.825445  1
  As  As31  1  0.412152  0.750000  0.480291  1
