# generated using pymatgen
data_Ho8Re9Si16Mo3
_symmetry_space_group_name_H-M   'P 1'
_cell_length_a   6.76238493
_cell_length_b   6.76238526
_cell_length_c   12.87678779
_cell_angle_alpha   90.07045796
_cell_angle_beta   90.07045605
_cell_angle_gamma   89.97704306
_symmetry_Int_Tables_number   1
_chemical_formula_structural   Ho8Re9Si16Mo3
_chemical_formula_sum   'Ho8 Re9 Si16 Mo3'
_cell_volume   588.85266513
_cell_formula_units_Z   1
loop_
 _symmetry_equiv_pos_site_id
 _symmetry_equiv_pos_as_xyz
  1  'x, y, z'
loop_
 _atom_site_type_symbol
 _atom_site_label
 _atom_site_symmetry_multiplicity
 _atom_site_fract_x
 _atom_site_fract_y
 _atom_site_fract_z
 _atom_site_occupancy
  Ho  Ho0  1  0.010486  0.666680  0.030616  1
  Ho  Ho1  1  0.988768  0.333714  0.531456  1
  Ho  Ho2  1  0.333320  0.989514  0.469384  1
  Ho  Ho3  1  0.163579  0.490813  0.779821  1
  Ho  Ho4  1  0.835291  0.507516  0.279715  1
  Ho  Ho5  1  0.492484  0.164709  0.220285  1
  Ho  Ho6  1  0.509187  0.836421  0.720179  1
  Ho  Ho7  1  0.666286  0.011232  0.968544  1
  Re  Re8  1  0.008669  0.808875  0.631417  1
  Re  Re9  1  0.991982  0.187607  0.129821  1
  Re  Re10  1  0.812393  0.008018  0.370179  1
  Re  Re11  1  0.310305  0.487003  0.381922  1
  Re  Re12  1  0.690389  0.517644  0.882328  1
  Re  Re13  1  0.482356  0.309611  0.617672  1
  Re  Re14  1  0.512997  0.689695  0.118078  1
  Re  Re15  1  0.191125  0.991331  0.868583  1
  Re  Re16  1  0.837748  0.162252  0.750000  1
  Si  Si17  1  0.018554  0.719314  0.439493  1
  Si  Si18  1  0.613899  0.300024  0.432376  1
  Si  Si19  1  0.386578  0.699847  0.931576  1
  Si  Si20  1  0.194985  0.110151  0.682418  1
  Si  Si21  1  0.300153  0.613422  0.568424  1
  Si  Si22  1  0.699976  0.386101  0.067624  1
  Si  Si23  1  0.802621  0.886838  0.182446  1
  Si  Si24  1  0.113162  0.197379  0.317554  1
  Si  Si25  1  0.981247  0.279553  0.938088  1
  Si  Si26  1  0.720447  0.018753  0.561912  1
  Si  Si27  1  0.225308  0.481732  0.189391  1
  Si  Si28  1  0.770772  0.514467  0.690714  1
  Si  Si29  1  0.485533  0.229228  0.809286  1
  Si  Si30  1  0.518268  0.774692  0.310609  1
  Si  Si31  1  0.280686  0.981446  0.060507  1
  Si  Si32  1  0.889849  0.805015  0.817582  1
  Mo  Mo33  1  0.660225  0.661405  0.499951  1
  Mo  Mo34  1  0.161778  0.838222  0.250000  1
  Mo  Mo35  1  0.338595  0.339775  0.000049  1
