# generated using pymatgen
data_Tb3Cd3CuPtAu
_symmetry_space_group_name_H-M   'P 1'
_cell_length_a   7.76210700
_cell_length_b   7.76210601
_cell_length_c   3.81153800
_cell_angle_alpha   90.00000000
_cell_angle_beta   90.00000000
_cell_angle_gamma   119.99999994
_symmetry_Int_Tables_number   1
_chemical_formula_structural   Tb3Cd3CuPtAu
_chemical_formula_sum   'Tb3 Cd3 Cu1 Pt1 Au1'
_cell_volume   198.87952823
_cell_formula_units_Z   1
loop_
 _symmetry_equiv_pos_site_id
 _symmetry_equiv_pos_as_xyz
  1  'x, y, z'
loop_
 _atom_site_type_symbol
 _atom_site_label
 _atom_site_symmetry_multiplicity
 _atom_site_fract_x
 _atom_site_fract_y
 _atom_site_fract_z
 _atom_site_occupancy
  Tb  Tb0  1  0.583361  0.984777  0.000000  1
  Tb  Tb1  1  0.015223  0.598585  0.000000  1
  Tb  Tb2  1  0.401415  0.416639  0.000000  1
  Cd  Cd3  1  0.248396  0.002604  0.500000  1
  Cd  Cd4  1  0.997396  0.245791  0.500000  1
  Cd  Cd5  1  0.754209  0.751604  0.500000  1
  Cu  Cu6  1  0.000000  0.000000  0.000000  1
  Pt  Pt7  1  0.333333  0.666667  0.500000  1
  Au  Au8  1  0.666667  0.333333  0.500000  1
