# generated using pymatgen
data_La6Cd3HgPd13
_symmetry_space_group_name_H-M   'P 1'
_cell_length_a   8.64318353
_cell_length_b   8.62231103
_cell_length_c   8.64318315
_cell_angle_alpha   109.42231137
_cell_angle_beta   109.52008413
_cell_angle_gamma   109.42231286
_symmetry_Int_Tables_number   1
_chemical_formula_structural   La6Cd3HgPd13
_chemical_formula_sum   'La6 Cd3 Hg1 Pd13'
_cell_volume   496.14775650
_cell_formula_units_Z   1
loop_
 _symmetry_equiv_pos_site_id
 _symmetry_equiv_pos_as_xyz
  1  'x, y, z'
loop_
 _atom_site_type_symbol
 _atom_site_label
 _atom_site_symmetry_multiplicity
 _atom_site_fract_x
 _atom_site_fract_y
 _atom_site_fract_z
 _atom_site_occupancy
  La  La0  1  0.303339  0.303659  0.000000  1
  La  La1  1  0.696662  0.696342  0.000000  1
  La  La2  1  0.303339  0.999680  0.303339  1
  La  La3  1  0.000000  0.303659  0.303339  1
  La  La4  1  0.696662  0.000320  0.696662  1
  La  La5  1  0.000000  0.696342  0.696662  1
  Cd  Cd6  1  0.500000  0.000000  0.000000  1
  Cd  Cd7  1  0.000000  0.000000  0.500000  1
  Cd  Cd8  1  0.500000  0.500000  0.500000  1
  Hg  Hg9  1  0.000000  0.500000  0.000000  1
  Pd  Pd10  1  0.000000  0.000000  0.000000  1
  Pd  Pd11  1  0.656318  0.341906  0.000000  1
  Pd  Pd12  1  0.343682  0.658094  0.000000  1
  Pd  Pd13  1  0.657544  0.657544  0.315088  1
  Pd  Pd14  1  0.684911  0.342456  0.342456  1
  Pd  Pd15  1  0.343682  0.685586  0.343682  1
  Pd  Pd16  1  0.657544  0.000000  0.342456  1
  Pd  Pd17  1  0.000000  0.658094  0.343682  1
  Pd  Pd18  1  0.342456  0.000000  0.657544  1
  Pd  Pd19  1  0.656318  0.314413  0.656318  1
  Pd  Pd20  1  0.000000  0.341906  0.656318  1
  Pd  Pd21  1  0.315088  0.657544  0.657544  1
  Pd  Pd22  1  0.342456  0.342456  0.684911  1
