# generated using pymatgen
data_Sr5Li12CaNb4O22
_symmetry_space_group_name_H-M   'P 1'
_cell_length_a   5.82002200
_cell_length_b   8.42937000
_cell_length_c   10.63801800
_cell_angle_alpha   90.00000000
_cell_angle_beta   90.00000000
_cell_angle_gamma   90.00000000
_symmetry_Int_Tables_number   1
_chemical_formula_structural   Sr5Li12CaNb4O22
_chemical_formula_sum   'Sr5 Li12 Ca1 Nb4 O22'
_cell_volume   521.89178935
_cell_formula_units_Z   1
loop_
 _symmetry_equiv_pos_site_id
 _symmetry_equiv_pos_as_xyz
  1  'x, y, z'
loop_
 _atom_site_type_symbol
 _atom_site_label
 _atom_site_symmetry_multiplicity
 _atom_site_fract_x
 _atom_site_fract_y
 _atom_site_fract_z
 _atom_site_occupancy
  Sr  Sr0  1  0.500101  0.262810  0.501517  1
  Sr  Sr1  1  0.500101  0.737190  0.501517  1
  Sr  Sr2  1  0.500101  0.737190  0.998483  1
  Sr  Sr3  1  0.500101  0.262810  0.998483  1
  Sr  Sr4  1  0.380883  0.000000  0.250000  1
  Li  Li5  1  0.999989  0.356288  0.500079  1
  Li  Li6  1  0.999989  0.643712  0.500079  1
  Li  Li7  1  0.999989  0.643712  0.999921  1
  Li  Li8  1  0.999989  0.356288  0.999921  1
  Li  Li9  1  0.153310  0.144264  0.750000  1
  Li  Li10  1  0.850913  0.853848  0.250000  1
  Li  Li11  1  0.153310  0.855736  0.750000  1
  Li  Li12  1  0.850913  0.146152  0.250000  1
  Li  Li13  1  0.777963  0.313404  0.750000  1
  Li  Li14  1  0.220878  0.684826  0.250000  1
  Li  Li15  1  0.777963  0.686596  0.750000  1
  Li  Li16  1  0.220878  0.315174  0.250000  1
  Ca  Ca17  1  0.619848  0.000000  0.750000  1
  Nb  Nb18  1  0.261539  0.500000  0.750000  1
  Nb  Nb19  1  0.737647  0.500000  0.250000  1
  Nb  Nb20  1  0.999529  0.000000  0.502365  1
  Nb  Nb21  1  0.999529  0.000000  0.997635  1
  O  O22  1  0.132202  0.175706  0.109354  1
  O  O23  1  0.861833  0.829145  0.885470  1
  O  O24  1  0.132202  0.824294  0.390646  1
  O  O25  1  0.861833  0.170855  0.885470  1
  O  O26  1  0.861833  0.170855  0.614530  1
  O  O27  1  0.132202  0.824294  0.109354  1
  O  O28  1  0.861833  0.829145  0.614530  1
  O  O29  1  0.132202  0.175706  0.390646  1
  O  O30  1  0.938239  0.500000  0.750000  1
  O  O31  1  0.060587  0.500000  0.250000  1
  O  O32  1  0.250287  0.500000  0.558816  1
  O  O33  1  0.749557  0.500000  0.441472  1
  O  O34  1  0.250287  0.500000  0.941184  1
  O  O35  1  0.749557  0.500000  0.058528  1
  O  O36  1  0.290931  0.000000  0.610038  1
  O  O37  1  0.719278  0.000000  0.391906  1
  O  O38  1  0.290931  0.000000  0.889962  1
  O  O39  1  0.719278  0.000000  0.108094  1
  O  O40  1  0.429682  0.300013  0.750000  1
  O  O41  1  0.570051  0.699904  0.250000  1
  O  O42  1  0.429682  0.699987  0.750000  1
  O  O43  1  0.570051  0.300096  0.250000  1
