# generated using pymatgen
data_YSc4Nb3(Ni4As3)4
_symmetry_space_group_name_H-M   'P 1'
_cell_length_a   12.60002500
_cell_length_b   12.60002461
_cell_length_c   3.79900600
_cell_angle_alpha   90.00000000
_cell_angle_beta   90.00000000
_cell_angle_gamma   120.00000365
_symmetry_Int_Tables_number   1
_chemical_formula_structural   YSc4Nb3(Ni4As3)4
_chemical_formula_sum   'Y1 Sc4 Nb3 Ni16 As12'
_cell_volume   522.32810593
_cell_formula_units_Z   1
loop_
 _symmetry_equiv_pos_site_id
 _symmetry_equiv_pos_as_xyz
  1  'x, y, z'
loop_
 _atom_site_type_symbol
 _atom_site_label
 _atom_site_symmetry_multiplicity
 _atom_site_fract_x
 _atom_site_fract_y
 _atom_site_fract_z
 _atom_site_occupancy
  Y  Y0  1  0.666667  0.333333  0.000000  1
  Sc  Sc1  1  0.183320  0.183253  0.500000  1
  Sc  Sc2  1  0.816747  0.000067  0.500000  1
  Sc  Sc3  1  0.999933  0.816680  0.500000  1
  Sc  Sc4  1  0.333333  0.666667  0.000000  1
  Nb  Nb5  1  0.558126  0.559943  0.000000  1
  Nb  Nb6  1  0.440057  0.998183  0.000000  1
  Nb  Nb7  1  0.001817  0.441874  0.000000  1
  Ni  Ni8  1  0.720688  0.723826  0.500000  1
  Ni  Ni9  1  0.276174  0.996863  0.500000  1
  Ni  Ni10  1  0.003137  0.279312  0.500000  1
  Ni  Ni11  1  0.180461  0.372400  0.000000  1
  Ni  Ni12  1  0.627600  0.808061  0.000000  1
  Ni  Ni13  1  0.191939  0.819539  0.000000  1
  Ni  Ni14  1  0.809006  0.630184  0.000000  1
  Ni  Ni15  1  0.821179  0.190994  0.000000  1
  Ni  Ni16  1  0.369816  0.178821  0.000000  1
  Ni  Ni17  1  0.358457  0.482117  0.500000  1
  Ni  Ni18  1  0.517883  0.876341  0.500000  1
  Ni  Ni19  1  0.123659  0.641543  0.500000  1
  Ni  Ni20  1  0.877916  0.519141  0.500000  1
  Ni  Ni21  1  0.641226  0.122084  0.500000  1
  Ni  Ni22  1  0.480859  0.358774  0.500000  1
  Ni  Ni23  1  0.000000  0.000000  0.000000  1
  As  As24  1  0.824997  0.825907  0.000000  1
  As  As25  1  0.174093  0.999090  0.000000  1
  As  As26  1  0.000910  0.175003  0.000000  1
  As  As27  1  0.173071  0.485362  0.500000  1
  As  As28  1  0.514638  0.687709  0.500000  1
  As  As29  1  0.312291  0.826929  0.500000  1
  As  As30  1  0.687865  0.520501  0.500000  1
  As  As31  1  0.832636  0.312135  0.500000  1
  As  As32  1  0.479499  0.167364  0.500000  1
  As  As33  1  0.355261  0.355120  0.000000  1
  As  As34  1  0.644880  0.000140  0.000000  1
  As  As35  1  0.999860  0.644739  0.000000  1
