# generated using pymatgen
data_Tb5Dy3(OsI4)2
_symmetry_space_group_name_H-M   'P 1'
_cell_length_a   11.69401638
_cell_length_b   11.69254402
_cell_length_c   6.20764803
_cell_angle_alpha   90.03548023
_cell_angle_beta   90.04528520
_cell_angle_gamma   89.95054856
_symmetry_Int_Tables_number   1
_chemical_formula_structural   Tb5Dy3(OsI4)2
_chemical_formula_sum   'Tb5 Dy3 Os2 I8'
_cell_volume   848.78836144
_cell_formula_units_Z   1
loop_
 _symmetry_equiv_pos_site_id
 _symmetry_equiv_pos_as_xyz
  1  'x, y, z'
loop_
 _atom_site_type_symbol
 _atom_site_label
 _atom_site_symmetry_multiplicity
 _atom_site_fract_x
 _atom_site_fract_y
 _atom_site_fract_z
 _atom_site_occupancy
  Tb  Tb0  1  0.807095  0.079620  0.000980  1
  Tb  Tb1  1  0.079574  0.807215  0.501004  1
  Tb  Tb2  1  0.079019  0.192814  0.000992  1
  Tb  Tb3  1  0.192774  0.079080  0.501016  1
  Tb  Tb4  1  0.920835  0.807248  0.998965  1
  Dy  Dy5  1  0.920921  0.191385  0.498848  1
  Dy  Dy6  1  0.191386  0.921001  0.998852  1
  Dy  Dy7  1  0.808562  0.921515  0.498892  1
  Os  Os8  1  0.000145  0.999851  0.249953  1
  Os  Os9  1  0.999779  0.000199  0.749950  1
  I  I10  1  0.654318  0.143314  0.487988  1
  I  I11  1  0.855072  0.655894  0.507072  1
  I  I12  1  0.344441  0.144265  0.992927  1
  I  I13  1  0.144260  0.344437  0.492916  1
  I  I14  1  0.655455  0.855318  0.007205  1
  I  I15  1  0.346151  0.856458  0.512237  1
  I  I16  1  0.143785  0.654186  0.987967  1
  I  I17  1  0.856427  0.346203  0.012237  1
