# generated using pymatgen
data_Hf2Zr8Sn5Ge2Sb
_symmetry_space_group_name_H-M   'P 1'
_cell_length_a   8.70314307
_cell_length_b   8.71018360
_cell_length_c   5.90717910
_cell_angle_alpha   89.97932311
_cell_angle_beta   90.01034655
_cell_angle_gamma   120.02676825
_symmetry_Int_Tables_number   1
_chemical_formula_structural   Hf2Zr8Sn5Ge2Sb
_chemical_formula_sum   'Hf2 Zr8 Sn5 Ge2 Sb1'
_cell_volume   387.70104068
_cell_formula_units_Z   1
loop_
 _symmetry_equiv_pos_site_id
 _symmetry_equiv_pos_as_xyz
  1  'x, y, z'
loop_
 _atom_site_type_symbol
 _atom_site_label
 _atom_site_symmetry_multiplicity
 _atom_site_fract_x
 _atom_site_fract_y
 _atom_site_fract_z
 _atom_site_occupancy
  Hf  Hf0  1  0.667715  0.333670  0.999602  1
  Hf  Hf1  1  0.332285  0.665956  0.999602  1
  Zr  Zr2  1  0.332297  0.665825  0.500251  1
  Zr  Zr3  1  0.667703  0.333527  0.500251  1
  Zr  Zr4  1  0.737157  0.736745  0.750007  1
  Zr  Zr5  1  0.262843  0.999588  0.750007  1
  Zr  Zr6  1  0.000000  0.263660  0.750468  1
  Zr  Zr7  1  0.262074  0.262717  0.249962  1
  Zr  Zr8  1  0.737926  0.000643  0.249962  1
  Zr  Zr9  1  0.000000  0.736427  0.249822  1
  Sn  Sn10  1  0.393609  0.392991  0.750584  1
  Sn  Sn11  1  0.606391  0.999383  0.750584  1
  Sn  Sn12  1  0.000000  0.608232  0.750770  1
  Sn  Sn13  1  0.606843  0.606803  0.249430  1
  Sn  Sn14  1  0.393157  0.999960  0.249430  1
  Ge  Ge15  1  0.000000  0.999585  0.999626  1
  Ge  Ge16  1  0.000000  0.999536  0.500381  1
  Sb  Sb17  1  0.000000  0.394753  0.249259  1
