# generated using pymatgen
data_DyHo3Ni2C5
_symmetry_space_group_name_H-M   'P 1'
_cell_length_a   3.62264000
_cell_length_b   3.69105200
_cell_length_c   11.60693000
_cell_angle_alpha   90.00000000
_cell_angle_beta   90.00000000
_cell_angle_gamma   90.00000000
_symmetry_Int_Tables_number   1
_chemical_formula_structural   DyHo3Ni2C5
_chemical_formula_sum   'Dy1 Ho3 Ni2 C5'
_cell_volume   155.20035383
_cell_formula_units_Z   1
loop_
 _symmetry_equiv_pos_site_id
 _symmetry_equiv_pos_as_xyz
  1  'x, y, z'
loop_
 _atom_site_type_symbol
 _atom_site_label
 _atom_site_symmetry_multiplicity
 _atom_site_fract_x
 _atom_site_fract_y
 _atom_site_fract_z
 _atom_site_occupancy
  Dy  Dy0  1  0.000000  0.000521  0.000000  1
  Ho  Ho1  1  0.500000  0.503761  0.203818  1
  Ho  Ho2  1  0.500000  0.503761  0.796182  1
  Ho  Ho3  1  0.500000  0.207384  0.500000  1
  Ni  Ni4  1  0.000000  0.697481  0.384193  1
  Ni  Ni5  1  0.000000  0.697481  0.615807  1
  C  C6  1  0.000000  0.000366  0.230315  1
  C  C7  1  0.000000  0.000366  0.769685  1
  C  C8  1  0.000000  0.197068  0.332844  1
  C  C9  1  0.000000  0.197068  0.667156  1
  C  C10  1  0.500000  0.496239  0.000000  1
