# generated using pymatgen
data_CeCo2(PRh)3
_symmetry_space_group_name_H-M   'P 1'
_cell_length_a   3.82660900
_cell_length_b   10.74629400
_cell_length_c   12.25193800
_cell_angle_alpha   90.00000000
_cell_angle_beta   90.00000000
_cell_angle_gamma   90.00000000
_symmetry_Int_Tables_number   1
_chemical_formula_structural   CeCo2(PRh)3
_chemical_formula_sum   'Ce4 Co8 P12 Rh12'
_cell_volume   503.82254455
_cell_formula_units_Z   4
loop_
 _symmetry_equiv_pos_site_id
 _symmetry_equiv_pos_as_xyz
  1  'x, y, z'
loop_
 _atom_site_type_symbol
 _atom_site_label
 _atom_site_symmetry_multiplicity
 _atom_site_fract_x
 _atom_site_fract_y
 _atom_site_fract_z
 _atom_site_occupancy
  Ce  Ce0  1  0.250000  0.583396  0.708141  1
  Ce  Ce1  1  0.250000  0.916604  0.208141  1
  Ce  Ce2  1  0.750000  0.416604  0.291859  1
  Ce  Ce3  1  0.750000  0.083396  0.791859  1
  Co  Co4  1  0.250000  0.883541  0.695588  1
  Co  Co5  1  0.250000  0.616459  0.195588  1
  Co  Co6  1  0.750000  0.116459  0.304412  1
  Co  Co7  1  0.750000  0.383541  0.804412  1
  Co  Co8  1  0.250000  0.465603  0.933234  1
  Co  Co9  1  0.250000  0.034397  0.433234  1
  Co  Co10  1  0.750000  0.534397  0.066766  1
  Co  Co11  1  0.750000  0.965603  0.566766  1
  P  P12  1  0.250000  0.430305  0.109906  1
  P  P13  1  0.250000  0.069695  0.609906  1
  P  P14  1  0.750000  0.569695  0.890094  1
  P  P15  1  0.750000  0.930305  0.390094  1
  P  P16  1  0.250000  0.278562  0.871175  1
  P  P17  1  0.250000  0.221438  0.371175  1
  P  P18  1  0.750000  0.721438  0.128825  1
  P  P19  1  0.750000  0.778562  0.628825  1
  P  P20  1  0.250000  0.603289  0.381958  1
  P  P21  1  0.250000  0.896711  0.881958  1
  P  P22  1  0.750000  0.396711  0.618042  1
  P  P23  1  0.750000  0.103289  0.118042  1
  Rh  Rh24  1  0.250000  0.714857  0.990487  1
  Rh  Rh25  1  0.250000  0.785143  0.490487  1
  Rh  Rh26  1  0.750000  0.285143  0.009513  1
  Rh  Rh27  1  0.750000  0.214857  0.509513  1
  Rh  Rh28  1  0.250000  0.409105  0.477620  1
  Rh  Rh29  1  0.250000  0.090895  0.977620  1
  Rh  Rh30  1  0.750000  0.590895  0.522380  1
  Rh  Rh31  1  0.750000  0.909105  0.022380  1
  Rh  Rh32  1  0.250000  0.224101  0.178879  1
  Rh  Rh33  1  0.250000  0.275899  0.678879  1
  Rh  Rh34  1  0.750000  0.775899  0.821121  1
  Rh  Rh35  1  0.750000  0.724101  0.321121  1
