# generated using pymatgen
data_Dy3Lu(AlGa2)2
_symmetry_space_group_name_H-M   'P 1'
_cell_length_a   6.97548013
_cell_length_b   6.97548013
_cell_length_c   4.45300100
_cell_angle_alpha   90.00000000
_cell_angle_beta   90.00000000
_cell_angle_gamma   90.62312468
_symmetry_Int_Tables_number   1
_chemical_formula_structural   Dy3Lu(AlGa2)2
_chemical_formula_sum   'Dy3 Lu1 Al2 Ga4'
_cell_volume   216.65829461
_cell_formula_units_Z   1
loop_
 _symmetry_equiv_pos_site_id
 _symmetry_equiv_pos_as_xyz
  1  'x, y, z'
loop_
 _atom_site_type_symbol
 _atom_site_label
 _atom_site_symmetry_multiplicity
 _atom_site_fract_x
 _atom_site_fract_y
 _atom_site_fract_z
 _atom_site_occupancy
  Dy  Dy0  1  0.826958  0.674264  0.500000  1
  Dy  Dy1  1  0.174264  0.326958  0.500000  1
  Dy  Dy2  1  0.671963  0.171963  0.500000  1
  Lu  Lu3  1  0.326944  0.826944  0.500000  1
  Al  Al4  1  0.499653  0.500245  0.000000  1
  Al  Al5  1  0.000245  0.999653  0.000000  1
  Ga  Ga6  1  0.869393  0.369393  0.000000  1
  Ga  Ga7  1  0.368114  0.128963  0.000000  1
  Ga  Ga8  1  0.133503  0.633503  0.000000  1
  Ga  Ga9  1  0.628963  0.868114  0.000000  1
