# generated using pymatgen
data_Tm6Sc4Bi5Pb
_symmetry_space_group_name_H-M   'P 1'
_cell_length_a   6.17672700
_cell_length_b   8.92543859
_cell_length_c   8.92875001
_cell_angle_alpha   120.00047670
_cell_angle_beta   89.99971541
_cell_angle_gamma   89.99929617
_symmetry_Int_Tables_number   1
_chemical_formula_structural   Tm6Sc4Bi5Pb
_chemical_formula_sum   'Tm6 Sc4 Bi5 Pb1'
_cell_volume   426.29199952
_cell_formula_units_Z   1
loop_
 _symmetry_equiv_pos_site_id
 _symmetry_equiv_pos_as_xyz
  1  'x, y, z'
loop_
 _atom_site_type_symbol
 _atom_site_label
 _atom_site_symmetry_multiplicity
 _atom_site_fract_x
 _atom_site_fract_y
 _atom_site_fract_z
 _atom_site_occupancy
  Tm  Tm0  1  0.749988  0.237956  0.999249  1
  Tm  Tm1  1  0.749990  0.762004  0.761268  1
  Tm  Tm2  1  0.749991  0.999969  0.238316  1
  Tm  Tm3  1  0.249994  0.764209  0.003105  1
  Tm  Tm4  1  0.249995  0.235860  0.238940  1
  Tm  Tm5  1  0.249998  0.000016  0.759998  1
  Sc  Sc6  1  0.500696  0.332539  0.666097  1
  Sc  Sc7  1  0.500709  0.667433  0.333522  1
  Sc  Sc8  1  0.999300  0.667423  0.333515  1
  Sc  Sc9  1  0.999314  0.332606  0.666135  1
  Bi  Bi10  1  0.749994  0.603609  0.999233  1
  Bi  Bi11  1  0.750000  0.396376  0.395606  1
  Bi  Bi12  1  0.750001  0.999985  0.602857  1
  Bi  Bi13  1  0.249987  0.396113  0.000388  1
  Bi  Bi14  1  0.249999  0.603943  0.604314  1
  Pb  Pb15  1  0.250045  0.999959  0.397458  1
