# generated using pymatgen
data_YLu4(In2Pd)2
_symmetry_space_group_name_H-M   'P 1'
_cell_length_a   3.59498300
_cell_length_b   8.05089300
_cell_length_c   18.04322200
_cell_angle_alpha   90.00000000
_cell_angle_beta   90.00000000
_cell_angle_gamma   90.00000000
_symmetry_Int_Tables_number   1
_chemical_formula_structural   YLu4(In2Pd)2
_chemical_formula_sum   'Y2 Lu8 In8 Pd4'
_cell_volume   522.22178917
_cell_formula_units_Z   2
loop_
 _symmetry_equiv_pos_site_id
 _symmetry_equiv_pos_as_xyz
  1  'x, y, z'
loop_
 _atom_site_type_symbol
 _atom_site_label
 _atom_site_symmetry_multiplicity
 _atom_site_fract_x
 _atom_site_fract_y
 _atom_site_fract_z
 _atom_site_occupancy
  Y  Y0  1  0.000000  0.500000  0.500000  1
  Y  Y1  1  0.000000  0.000000  0.000000  1
  Lu  Lu2  1  0.000000  0.740185  0.279840  1
  Lu  Lu3  1  0.000000  0.259815  0.720160  1
  Lu  Lu4  1  0.000000  0.759815  0.779840  1
  Lu  Lu5  1  0.000000  0.240185  0.220160  1
  Lu  Lu6  1  0.000000  0.617184  0.084637  1
  Lu  Lu7  1  0.000000  0.382816  0.915363  1
  Lu  Lu8  1  0.000000  0.882816  0.584637  1
  Lu  Lu9  1  0.000000  0.117184  0.415363  1
  In  In10  1  0.500000  0.705956  0.932562  1
  In  In11  1  0.500000  0.294044  0.067438  1
  In  In12  1  0.500000  0.794044  0.432562  1
  In  In13  1  0.500000  0.205956  0.567438  1
  In  In14  1  0.500000  0.581162  0.650029  1
  In  In15  1  0.500000  0.418838  0.349971  1
  In  In16  1  0.500000  0.918838  0.150029  1
  In  In17  1  0.500000  0.081162  0.849971  1
  Pd  Pd18  1  0.500000  0.523670  0.195804  1
  Pd  Pd19  1  0.500000  0.476330  0.804196  1
  Pd  Pd20  1  0.500000  0.976330  0.695804  1
  Pd  Pd21  1  0.500000  0.023670  0.304196  1
