# generated using pymatgen
data_LaU3(In2Br5)4
_symmetry_space_group_name_H-M   'P 1'
_cell_length_a   8.69505144
_cell_length_b   9.25478200
_cell_length_c   13.67384500
_cell_angle_alpha   90.00000000
_cell_angle_beta   89.94210491
_cell_angle_gamma   90.00000000
_symmetry_Int_Tables_number   1
_chemical_formula_structural   LaU3(In2Br5)4
_chemical_formula_sum   'La1 U3 In8 Br20'
_cell_volume   1100.34476032
_cell_formula_units_Z   1
loop_
 _symmetry_equiv_pos_site_id
 _symmetry_equiv_pos_as_xyz
  1  'x, y, z'
loop_
 _atom_site_type_symbol
 _atom_site_label
 _atom_site_symmetry_multiplicity
 _atom_site_fract_x
 _atom_site_fract_y
 _atom_site_fract_z
 _atom_site_occupancy
  La  La0  1  0.923981  0.750000  0.505252  1
  U  U1  1  0.073346  0.250000  0.495548  1
  U  U2  1  0.424727  0.250000  0.995526  1
  U  U3  1  0.573102  0.750000  0.004508  1
  In  In4  1  0.952066  0.004589  0.826869  1
  In  In5  1  0.047666  0.995227  0.173252  1
  In  In6  1  0.452018  0.995570  0.673296  1
  In  In7  1  0.047666  0.504773  0.173252  1
  In  In8  1  0.547687  0.004897  0.326554  1
  In  In9  1  0.952066  0.495411  0.826869  1
  In  In10  1  0.547687  0.495103  0.326554  1
  In  In11  1  0.452018  0.504430  0.673296  1
  Br  Br12  1  0.122372  0.750000  0.684352  1
  Br  Br13  1  0.880232  0.250000  0.318087  1
  Br  Br14  1  0.619592  0.250000  0.817416  1
  Br  Br15  1  0.379967  0.750000  0.182245  1
  Br  Br16  1  0.834506  0.047752  0.577757  1
  Br  Br17  1  0.167394  0.957478  0.421885  1
  Br  Br18  1  0.335544  0.954922  0.922839  1
  Br  Br19  1  0.167394  0.542522  0.421885  1
  Br  Br20  1  0.665566  0.044945  0.077447  1
  Br  Br21  1  0.834506  0.452248  0.577757  1
  Br  Br22  1  0.665566  0.455055  0.077447  1
  Br  Br23  1  0.335544  0.545078  0.922839  1
  Br  Br24  1  0.574595  0.750000  0.507187  1
  Br  Br25  1  0.422846  0.250000  0.493082  1
  Br  Br26  1  0.077732  0.250000  0.992692  1
  Br  Br27  1  0.922667  0.750000  0.006890  1
  Br  Br28  1  0.662586  0.750000  0.795152  1
  Br  Br29  1  0.337764  0.250000  0.204731  1
  Br  Br30  1  0.162492  0.250000  0.704642  1
  Br  Br31  1  0.837104  0.750000  0.292898  1
