# generated using pymatgen
data_Lu16In4NiRh3
_symmetry_space_group_name_H-M   'P 1'
_cell_length_a   9.44281779
_cell_length_b   9.44281811
_cell_length_c   9.44281820
_cell_angle_alpha   60.01941609
_cell_angle_beta   60.01941709
_cell_angle_gamma   60.01941371
_symmetry_Int_Tables_number   1
_chemical_formula_structural   Lu16In4NiRh3
_chemical_formula_sum   'Lu16 In4 Ni1 Rh3'
_cell_volume   595.63605114
_cell_formula_units_Z   1
loop_
 _symmetry_equiv_pos_site_id
 _symmetry_equiv_pos_as_xyz
  1  'x, y, z'
loop_
 _atom_site_type_symbol
 _atom_site_label
 _atom_site_symmetry_multiplicity
 _atom_site_fract_x
 _atom_site_fract_y
 _atom_site_fract_z
 _atom_site_occupancy
  Lu  Lu0  1  0.599594  0.599594  0.599594  1
  Lu  Lu1  1  0.599051  0.599051  0.201520  1
  Lu  Lu2  1  0.599051  0.201520  0.599051  1
  Lu  Lu3  1  0.201520  0.599051  0.599051  1
  Lu  Lu4  1  0.062700  0.438470  0.438470  1
  Lu  Lu5  1  0.438989  0.061135  0.061135  1
  Lu  Lu6  1  0.438470  0.062700  0.438470  1
  Lu  Lu7  1  0.061135  0.438989  0.061135  1
  Lu  Lu8  1  0.438470  0.438470  0.062700  1
  Lu  Lu9  1  0.061135  0.061135  0.438989  1
  Lu  Lu10  1  0.188403  0.811393  0.811393  1
  Lu  Lu11  1  0.812086  0.188448  0.188448  1
  Lu  Lu12  1  0.811393  0.188403  0.811393  1
  Lu  Lu13  1  0.188448  0.812086  0.188448  1
  Lu  Lu14  1  0.811393  0.811393  0.188403  1
  Lu  Lu15  1  0.188448  0.188448  0.812086  1
  In  In16  1  0.833416  0.833416  0.833416  1
  In  In17  1  0.834163  0.834163  0.498392  1
  In  In18  1  0.834163  0.498392  0.834163  1
  In  In19  1  0.498392  0.834163  0.834163  1
  Ni  Ni20  1  0.392130  0.392130  0.392130  1
  Rh  Rh21  1  0.392737  0.392737  0.821975  1
  Rh  Rh22  1  0.392737  0.821975  0.392737  1
  Rh  Rh23  1  0.821975  0.392737  0.392737  1
