# generated using pymatgen
data_Dy19Ho(Bi3Sb)3
_symmetry_space_group_name_H-M   'P 1'
_cell_length_a   8.21473270
_cell_length_b   9.48989300
_cell_length_c   12.01343913
_cell_angle_alpha   90.00006352
_cell_angle_beta   90.03197021
_cell_angle_gamma   90.00067985
_symmetry_Int_Tables_number   1
_chemical_formula_structural   Dy19Ho(Bi3Sb)3
_chemical_formula_sum   'Dy19 Ho1 Bi9 Sb3'
_cell_volume   936.53073965
_cell_formula_units_Z   1
loop_
 _symmetry_equiv_pos_site_id
 _symmetry_equiv_pos_as_xyz
  1  'x, y, z'
loop_
 _atom_site_type_symbol
 _atom_site_label
 _atom_site_symmetry_multiplicity
 _atom_site_fract_x
 _atom_site_fract_y
 _atom_site_fract_z
 _atom_site_occupancy
  Dy  Dy0  1  0.352691  0.749977  0.212942  1
  Dy  Dy1  1  0.852894  0.749974  0.286575  1
  Dy  Dy2  1  0.647267  0.249991  0.786840  1
  Dy  Dy3  1  0.148172  0.249992  0.716413  1
  Dy  Dy4  1  0.190285  0.933959  0.442575  1
  Dy  Dy5  1  0.311142  0.062258  0.942782  1
  Dy  Dy6  1  0.808426  0.440144  0.558908  1
  Dy  Dy7  1  0.311130  0.437761  0.942779  1
  Dy  Dy8  1  0.808432  0.059863  0.558913  1
  Dy  Dy9  1  0.689067  0.937276  0.057377  1
  Dy  Dy10  1  0.190288  0.566044  0.442575  1
  Dy  Dy11  1  0.475431  0.249993  0.487910  1
  Dy  Dy12  1  0.972561  0.250012  0.011996  1
  Dy  Dy13  1  0.528718  0.750000  0.512720  1
  Dy  Dy14  1  0.027846  0.749979  0.987860  1
  Dy  Dy15  1  0.318063  0.249999  0.216317  1
  Dy  Dy16  1  0.811547  0.250003  0.278902  1
  Dy  Dy17  1  0.683220  0.749978  0.782092  1
  Dy  Dy18  1  0.183735  0.750000  0.717942  1
  Ho  Ho19  1  0.689038  0.562731  0.057365  1
  Bi  Bi20  1  0.092159  0.250000  0.456490  1
  Bi  Bi21  1  0.565388  0.995163  0.325549  1
  Bi  Bi22  1  0.065679  0.504065  0.174346  1
  Bi  Bi23  1  0.434082  0.495581  0.674607  1
  Bi  Bi24  1  0.934142  0.003976  0.825842  1
  Bi  Bi25  1  0.434072  0.004415  0.674603  1
  Bi  Bi26  1  0.934145  0.496017  0.825861  1
  Bi  Bi27  1  0.565399  0.504828  0.325531  1
  Bi  Bi28  1  0.065709  0.995931  0.174357  1
  Sb  Sb29  1  0.407802  0.749938  0.958002  1
  Sb  Sb30  1  0.908429  0.750000  0.541706  1
  Sb  Sb31  1  0.593042  0.250152  0.041322  1
