# generated using pymatgen
data_TbDy4Er3(Sc3Tl4)4
_symmetry_space_group_name_H-M   'P 1'
_cell_length_a   7.70229345
_cell_length_b   7.99638822
_cell_length_c   15.17618415
_cell_angle_alpha   90.03358943
_cell_angle_beta   89.94630543
_cell_angle_gamma   90.02174643
_symmetry_Int_Tables_number   1
_chemical_formula_structural   TbDy4Er3(Sc3Tl4)4
_chemical_formula_sum   'Tb1 Dy4 Er3 Sc12 Tl16'
_cell_volume   934.70856592
_cell_formula_units_Z   1
loop_
 _symmetry_equiv_pos_site_id
 _symmetry_equiv_pos_as_xyz
  1  'x, y, z'
loop_
 _atom_site_type_symbol
 _atom_site_label
 _atom_site_symmetry_multiplicity
 _atom_site_fract_x
 _atom_site_fract_y
 _atom_site_fract_z
 _atom_site_occupancy
  Tb  Tb0  1  0.500662  0.683287  0.592489  1
  Dy  Dy1  1  0.998477  0.184155  0.093433  1
  Dy  Dy2  1  0.001399  0.816028  0.906898  1
  Dy  Dy3  1  0.501444  0.683893  0.906883  1
  Dy  Dy4  1  0.000906  0.816432  0.592727  1
  Er  Er5  1  0.497896  0.315197  0.093752  1
  Er  Er6  1  0.997350  0.185202  0.405986  1
  Er  Er7  1  0.497596  0.314804  0.406395  1
  Sc  Sc8  1  0.166222  0.494507  0.750060  1
  Sc  Sc9  1  0.834603  0.504732  0.249959  1
  Sc  Sc10  1  0.334351  0.995956  0.250108  1
  Sc  Sc11  1  0.666115  0.005503  0.749945  1
  Sc  Sc12  1  0.335043  0.157846  0.625605  1
  Sc  Sc13  1  0.665696  0.842707  0.374086  1
  Sc  Sc14  1  0.165760  0.657498  0.374343  1
  Sc  Sc15  1  0.665079  0.842237  0.126274  1
  Sc  Sc16  1  0.835843  0.341814  0.625686  1
  Sc  Sc17  1  0.335297  0.157782  0.874637  1
  Sc  Sc18  1  0.835145  0.342006  0.874376  1
  Sc  Sc19  1  0.166010  0.657890  0.126018  1
  Tl  Tl20  1  0.027008  0.123564  0.750456  1
  Tl  Tl21  1  0.973868  0.876476  0.250001  1
  Tl  Tl22  1  0.474124  0.623288  0.250024  1
  Tl  Tl23  1  0.526961  0.376090  0.750343  1
  Tl  Tl24  1  0.299669  0.853370  0.750170  1
  Tl  Tl25  1  0.699570  0.147978  0.249988  1
  Tl  Tl26  1  0.200623  0.352763  0.250087  1
  Tl  Tl27  1  0.800064  0.646599  0.750143  1
  Tl  Tl28  1  0.181992  0.456012  0.541487  1
  Tl  Tl29  1  0.816613  0.541361  0.457379  1
  Tl  Tl30  1  0.316210  0.958992  0.457256  1
  Tl  Tl31  1  0.816417  0.542226  0.042257  1
  Tl  Tl32  1  0.682594  0.043817  0.541507  1
  Tl  Tl33  1  0.182991  0.457079  0.958401  1
  Tl  Tl34  1  0.682492  0.043330  0.958532  1
  Tl  Tl35  1  0.317911  0.957581  0.042304  1
