# generated using pymatgen
data_Sc7Sn23Ru6
_symmetry_space_group_name_H-M   'P 1'
_cell_length_a   9.69937800
_cell_length_b   9.69937908
_cell_length_c   9.92108600
_cell_angle_alpha   90.00000000
_cell_angle_beta   90.00000000
_cell_angle_gamma   119.99999630
_symmetry_Int_Tables_number   1
_chemical_formula_structural   Sc7Sn23Ru6
_chemical_formula_sum   'Sc7 Sn23 Ru6'
_cell_volume   808.30949481
_cell_formula_units_Z   1
loop_
 _symmetry_equiv_pos_site_id
 _symmetry_equiv_pos_as_xyz
  1  'x, y, z'
loop_
 _atom_site_type_symbol
 _atom_site_label
 _atom_site_symmetry_multiplicity
 _atom_site_fract_x
 _atom_site_fract_y
 _atom_site_fract_z
 _atom_site_occupancy
  Sc  Sc0  1  0.000000  0.000000  0.000000  1
  Sc  Sc1  1  0.489189  0.510811  0.302424  1
  Sc  Sc2  1  0.510811  0.489189  0.697576  1
  Sc  Sc3  1  0.489189  0.978377  0.302424  1
  Sc  Sc4  1  0.510811  0.021623  0.697576  1
  Sc  Sc5  1  0.021623  0.510811  0.302424  1
  Sc  Sc6  1  0.978377  0.489189  0.697576  1
  Sn  Sn7  1  0.348733  0.000000  0.000000  1
  Sn  Sn8  1  0.651267  0.000000  0.000000  1
  Sn  Sn9  1  0.000000  0.348733  0.000000  1
  Sn  Sn10  1  0.000000  0.651267  0.000000  1
  Sn  Sn11  1  0.651267  0.651267  0.000000  1
  Sn  Sn12  1  0.348733  0.348733  0.000000  1
  Sn  Sn13  1  0.333333  0.666667  0.825705  1
  Sn  Sn14  1  0.666667  0.333333  0.174295  1
  Sn  Sn15  1  0.000000  0.000000  0.500000  1
  Sn  Sn16  1  0.777395  0.222605  0.467051  1
  Sn  Sn17  1  0.222605  0.777395  0.532949  1
  Sn  Sn18  1  0.777395  0.554791  0.467051  1
  Sn  Sn19  1  0.222605  0.445209  0.532949  1
  Sn  Sn20  1  0.445209  0.222605  0.467051  1
  Sn  Sn21  1  0.554791  0.777395  0.532949  1
  Sn  Sn22  1  0.333333  0.666667  0.144658  1
  Sn  Sn23  1  0.666667  0.333333  0.855342  1
  Sn  Sn24  1  0.122028  0.877972  0.275315  1
  Sn  Sn25  1  0.877972  0.122028  0.724685  1
  Sn  Sn26  1  0.122028  0.244056  0.275315  1
  Sn  Sn27  1  0.877972  0.755944  0.724685  1
  Sn  Sn28  1  0.755944  0.877972  0.275315  1
  Sn  Sn29  1  0.244056  0.122028  0.724685  1
  Ru  Ru30  1  0.828432  0.171568  0.205166  1
  Ru  Ru31  1  0.171568  0.828432  0.794834  1
  Ru  Ru32  1  0.828432  0.656864  0.205166  1
  Ru  Ru33  1  0.171568  0.343136  0.794834  1
  Ru  Ru34  1  0.343136  0.171568  0.205166  1
  Ru  Ru35  1  0.656864  0.828432  0.794834  1
