# generated using pymatgen
data_Ho17Th3(Bi2Ru)4
_symmetry_space_group_name_H-M   'P 1'
_cell_length_a   8.12570499
_cell_length_b   8.90759467
_cell_length_c   12.50527112
_cell_angle_alpha   90.27072756
_cell_angle_beta   89.89976777
_cell_angle_gamma   90.08148847
_symmetry_Int_Tables_number   1
_chemical_formula_structural   Ho17Th3(Bi2Ru)4
_chemical_formula_sum   'Ho17 Th3 Bi8 Ru4'
_cell_volume   905.12521305
_cell_formula_units_Z   1
loop_
 _symmetry_equiv_pos_site_id
 _symmetry_equiv_pos_as_xyz
  1  'x, y, z'
loop_
 _atom_site_type_symbol
 _atom_site_label
 _atom_site_symmetry_multiplicity
 _atom_site_fract_x
 _atom_site_fract_y
 _atom_site_fract_z
 _atom_site_occupancy
  Ho  Ho0  1  0.838499  0.747812  0.794143  1
  Ho  Ho1  1  0.160314  0.250293  0.204183  1
  Ho  Ho2  1  0.335471  0.251612  0.707881  1
  Ho  Ho3  1  0.663934  0.747895  0.292105  1
  Ho  Ho4  1  0.375763  0.747242  0.696497  1
  Ho  Ho5  1  0.624025  0.254381  0.303793  1
  Ho  Ho6  1  0.874531  0.250815  0.805384  1
  Ho  Ho7  1  0.120683  0.747092  0.194906  1
  Ho  Ho8  1  0.950051  0.748644  0.500557  1
  Ho  Ho9  1  0.048976  0.250921  0.499148  1
  Ho  Ho10  1  0.450464  0.251300  0.998121  1
  Ho  Ho11  1  0.556637  0.749400  0.001194  1
  Ho  Ho12  1  0.327153  0.543926  0.434994  1
  Ho  Ho13  1  0.819090  0.045916  0.068420  1
  Ho  Ho14  1  0.672983  0.456063  0.564784  1
  Ho  Ho15  1  0.828066  0.456514  0.065214  1
  Ho  Ho16  1  0.173669  0.542775  0.935245  1
  Th  Th17  1  0.681346  0.040178  0.565182  1
  Th  Th18  1  0.318529  0.960271  0.434753  1
  Th  Th19  1  0.172563  0.961592  0.940210  1
  Bi  Bi20  1  0.567734  0.490491  0.826110  1
  Bi  Bi21  1  0.432134  0.510314  0.172929  1
  Bi  Bi22  1  0.066854  0.509498  0.672944  1
  Bi  Bi23  1  0.432757  0.989844  0.172598  1
  Bi  Bi24  1  0.932892  0.489897  0.326981  1
  Bi  Bi25  1  0.570690  0.009770  0.827276  1
  Bi  Bi26  1  0.926098  0.011310  0.324611  1
  Bi  Bi27  1  0.072748  0.988283  0.674258  1
  Ru  Ru28  1  0.572189  0.765132  0.511981  1
  Ru  Ru29  1  0.426777  0.235132  0.488015  1
  Ru  Ru30  1  0.076386  0.240971  0.985792  1
  Ru  Ru31  1  0.929995  0.754717  0.009790  1
