# generated using pymatgen
data_Nb6AlZn3N2
_symmetry_space_group_name_H-M   'P 1'
_cell_length_a   7.04665811
_cell_length_b   7.04838200
_cell_length_c   7.04891811
_cell_angle_alpha   90.00000000
_cell_angle_beta   89.97940769
_cell_angle_gamma   90.00000000
_symmetry_Int_Tables_number   1
_chemical_formula_structural   Nb6AlZn3N2
_chemical_formula_sum   'Nb12 Al2 Zn6 N4'
_cell_volume   350.10238714
_cell_formula_units_Z   2
loop_
 _symmetry_equiv_pos_site_id
 _symmetry_equiv_pos_as_xyz
  1  'x, y, z'
loop_
 _atom_site_type_symbol
 _atom_site_label
 _atom_site_symmetry_multiplicity
 _atom_site_fract_x
 _atom_site_fract_y
 _atom_site_fract_z
 _atom_site_occupancy
  Nb  Nb0  1  0.792431  0.957227  0.373035  1
  Nb  Nb1  1  0.707847  0.043290  0.876400  1
  Nb  Nb2  1  0.207569  0.457227  0.126965  1
  Nb  Nb3  1  0.292153  0.543290  0.623600  1
  Nb  Nb4  1  0.957346  0.374140  0.792166  1
  Nb  Nb5  1  0.042654  0.874140  0.707834  1
  Nb  Nb6  1  0.456537  0.124974  0.207221  1
  Nb  Nb7  1  0.543463  0.624974  0.292779  1
  Nb  Nb8  1  0.373678  0.792922  0.957239  1
  Nb  Nb9  1  0.875498  0.708269  0.043103  1
  Nb  Nb10  1  0.124502  0.208269  0.456897  1
  Nb  Nb11  1  0.626322  0.292922  0.542761  1
  Al  Al12  1  0.927169  0.572616  0.427855  1
  Al  Al13  1  0.072831  0.072616  0.072145  1
  Zn  Zn14  1  0.181655  0.821009  0.322255  1
  Zn  Zn15  1  0.322942  0.179597  0.819130  1
  Zn  Zn16  1  0.818345  0.321009  0.177745  1
  Zn  Zn17  1  0.677058  0.679597  0.680870  1
  Zn  Zn18  1  0.570537  0.429288  0.928760  1
  Zn  Zn19  1  0.429463  0.929288  0.571240  1
  N  N20  1  0.874308  0.122488  0.624489  1
  N  N21  1  0.622654  0.874180  0.123954  1
  N  N22  1  0.125692  0.622488  0.875511  1
  N  N23  1  0.377346  0.374180  0.376046  1
