# generated using pymatgen
data_DyEr11(GaCo2)2
_symmetry_space_group_name_H-M   'P 1'
_cell_length_a   8.18715776
_cell_length_b   8.18715769
_cell_length_c   8.17243536
_cell_angle_alpha   106.95600269
_cell_angle_beta   109.55367070
_cell_angle_gamma   112.01190949
_symmetry_Int_Tables_number   1
_chemical_formula_structural   DyEr11(GaCo2)2
_chemical_formula_sum   'Dy1 Er11 Ga2 Co4'
_cell_volume   420.51552352
_cell_formula_units_Z   1
loop_
 _symmetry_equiv_pos_site_id
 _symmetry_equiv_pos_as_xyz
  1  'x, y, z'
loop_
 _atom_site_type_symbol
 _atom_site_label
 _atom_site_symmetry_multiplicity
 _atom_site_fract_x
 _atom_site_fract_y
 _atom_site_fract_z
 _atom_site_occupancy
  Dy  Dy0  1  0.697723  0.262464  0.960186  1
  Er  Er1  1  0.300845  0.737924  0.038769  1
  Er  Er2  1  0.698292  0.738142  0.436436  1
  Er  Er3  1  0.301116  0.261867  0.562982  1
  Er  Er4  1  0.810037  0.135356  0.326199  1
  Er  Er5  1  0.809788  0.483983  0.673357  1
  Er  Er6  1  0.189374  0.863569  0.673357  1
  Er  Er7  1  0.190843  0.516162  0.326199  1
  Er  Er8  1  0.599592  0.780287  0.818914  1
  Er  Er9  1  0.962182  0.781040  0.181478  1
  Er  Er10  1  0.038628  0.219322  0.818914  1
  Er  Er11  1  0.400438  0.219295  0.181478  1
  Ga  Ga12  1  0.498805  0.501428  0.000233  1
  Ga  Ga13  1  0.499190  0.999519  0.498710  1
  Co  Co14  1  0.842002  0.500316  0.342318  1
  Co  Co15  1  0.159412  0.499857  0.659269  1
  Co  Co16  1  0.002304  0.114962  0.117266  1
  Co  Co17  1  0.999429  0.884507  0.883936  1
