# generated using pymatgen
data_CaNd4Ir3
_symmetry_space_group_name_H-M   'P 1'
_cell_length_a   11.26568400
_cell_length_b   11.26568400
_cell_length_c   6.47528700
_cell_angle_alpha   90.00000000
_cell_angle_beta   90.00000000
_cell_angle_gamma   90.00000000
_symmetry_Int_Tables_number   1
_chemical_formula_structural   CaNd4Ir3
_chemical_formula_sum   'Ca4 Nd16 Ir12'
_cell_volume   821.81516781
_cell_formula_units_Z   4
loop_
 _symmetry_equiv_pos_site_id
 _symmetry_equiv_pos_as_xyz
  1  'x, y, z'
loop_
 _atom_site_type_symbol
 _atom_site_label
 _atom_site_symmetry_multiplicity
 _atom_site_fract_x
 _atom_site_fract_y
 _atom_site_fract_z
 _atom_site_occupancy
  Ca  Ca0  1  0.000000  0.000000  0.000000  1
  Ca  Ca1  1  0.500000  0.500000  0.000000  1
  Ca  Ca2  1  0.500000  0.500000  0.500000  1
  Ca  Ca3  1  0.000000  0.000000  0.500000  1
  Nd  Nd4  1  0.089892  0.289952  0.114589  1
  Nd  Nd5  1  0.789952  0.410108  0.114589  1
  Nd  Nd6  1  0.210048  0.589892  0.114589  1
  Nd  Nd7  1  0.910108  0.710048  0.114589  1
  Nd  Nd8  1  0.410108  0.789952  0.385411  1
  Nd  Nd9  1  0.589892  0.210048  0.385411  1
  Nd  Nd10  1  0.289952  0.089892  0.385411  1
  Nd  Nd11  1  0.710048  0.910108  0.385411  1
  Nd  Nd12  1  0.410108  0.210048  0.885411  1
  Nd  Nd13  1  0.710048  0.089892  0.885411  1
  Nd  Nd14  1  0.289952  0.910108  0.885411  1
  Nd  Nd15  1  0.589892  0.789952  0.885411  1
  Nd  Nd16  1  0.089892  0.710048  0.614589  1
  Nd  Nd17  1  0.910108  0.289952  0.614589  1
  Nd  Nd18  1  0.210048  0.410108  0.614589  1
  Nd  Nd19  1  0.789952  0.589892  0.614589  1
  Ir  Ir20  1  0.157485  0.842515  0.250000  1
  Ir  Ir21  1  0.342515  0.342515  0.250000  1
  Ir  Ir22  1  0.657485  0.657485  0.250000  1
  Ir  Ir23  1  0.842515  0.157485  0.250000  1
  Ir  Ir24  1  0.342515  0.657485  0.750000  1
  Ir  Ir25  1  0.157485  0.157485  0.750000  1
  Ir  Ir26  1  0.842515  0.842515  0.750000  1
  Ir  Ir27  1  0.657485  0.342515  0.750000  1
  Ir  Ir28  1  0.000000  0.500000  0.382015  1
  Ir  Ir29  1  0.500000  0.000000  0.117985  1
  Ir  Ir30  1  0.500000  0.000000  0.617985  1
  Ir  Ir31  1  0.000000  0.500000  0.882015  1
