# generated using pymatgen
data_TbDy2Ho(Mo2O7)2
_symmetry_space_group_name_H-M   'P 1'
_cell_length_a   7.35342785
_cell_length_b   7.34225023
_cell_length_c   7.38235059
_cell_angle_alpha   60.17952241
_cell_angle_beta   60.27128754
_cell_angle_gamma   60.05026253
_symmetry_Int_Tables_number   1
_chemical_formula_structural   TbDy2Ho(Mo2O7)2
_chemical_formula_sum   'Tb1 Dy2 Ho1 Mo4 O14'
_cell_volume   282.90147482
_cell_formula_units_Z   1
loop_
 _symmetry_equiv_pos_site_id
 _symmetry_equiv_pos_as_xyz
  1  'x, y, z'
loop_
 _atom_site_type_symbol
 _atom_site_label
 _atom_site_symmetry_multiplicity
 _atom_site_fract_x
 _atom_site_fract_y
 _atom_site_fract_z
 _atom_site_occupancy
  Tb  Tb0  1  0.625000  0.125000  0.125000  1
  Dy  Dy1  1  0.125000  0.625000  0.125000  1
  Dy  Dy2  1  0.125000  0.125000  0.125000  1
  Ho  Ho3  1  0.125000  0.125000  0.625000  1
  Mo  Mo4  1  0.125000  0.625000  0.625000  1
  Mo  Mo5  1  0.625000  0.125000  0.625000  1
  Mo  Mo6  1  0.625000  0.625000  0.125000  1
  Mo  Mo7  1  0.625000  0.625000  0.625000  1
  O  O8  1  0.723229  0.707480  0.281496  1
  O  O9  1  0.289245  0.282247  0.708068  1
  O  O10  1  0.696360  0.287406  0.728828  1
  O  O11  1  0.279220  0.714134  0.292510  1
  O  O12  1  0.289245  0.720440  0.708068  1
  O  O13  1  0.723229  0.287796  0.281496  1
  O  O14  1  0.526771  0.542520  0.968504  1
  O  O15  1  0.960755  0.967753  0.541932  1
  O  O16  1  0.553640  0.962594  0.521172  1
  O  O17  1  0.970780  0.535866  0.957490  1
  O  O18  1  0.960755  0.529560  0.541932  1
  O  O19  1  0.526771  0.962204  0.968504  1
  O  O20  1  0.247634  0.248832  0.254701  1
  O  O21  1  0.002366  0.001168  0.995299  1
