# generated using pymatgen
data_K3Ga3P4
_symmetry_space_group_name_H-M   'P 1'
_cell_length_a   6.48000500
_cell_length_b   10.43473000
_cell_length_c   14.80727400
_cell_angle_alpha   90.00000000
_cell_angle_beta   90.00000000
_cell_angle_gamma   90.00000000
_symmetry_Int_Tables_number   1
_chemical_formula_structural   K3Ga3P4
_chemical_formula_sum   'K12 Ga12 P16'
_cell_volume   1001.22496489
_cell_formula_units_Z   4
loop_
 _symmetry_equiv_pos_site_id
 _symmetry_equiv_pos_as_xyz
  1  'x, y, z'
loop_
 _atom_site_type_symbol
 _atom_site_label
 _atom_site_symmetry_multiplicity
 _atom_site_fract_x
 _atom_site_fract_y
 _atom_site_fract_z
 _atom_site_occupancy
  K  K0  1  0.061772  0.379570  0.407113  1
  K  K1  1  0.061772  0.120430  0.092887  1
  K  K2  1  0.561772  0.879570  0.092887  1
  K  K3  1  0.750000  0.080384  0.500000  1
  K  K4  1  0.938228  0.879570  0.907113  1
  K  K5  1  0.561772  0.620430  0.407113  1
  K  K6  1  0.938228  0.620430  0.592887  1
  K  K7  1  0.250000  0.580384  0.000000  1
  K  K8  1  0.750000  0.419616  0.000000  1
  K  K9  1  0.438228  0.379570  0.592887  1
  K  K10  1  0.438228  0.120430  0.907113  1
  K  K11  1  0.250000  0.919616  0.500000  1
  Ga  Ga12  1  0.400588  0.110447  0.283996  1
  Ga  Ga13  1  0.900588  0.610447  0.216004  1
  Ga  Ga14  1  0.099412  0.389553  0.783996  1
  Ga  Ga15  1  0.400588  0.389553  0.216004  1
  Ga  Ga16  1  0.308588  0.750000  0.250000  1
  Ga  Ga17  1  0.808588  0.250000  0.250000  1
  Ga  Ga18  1  0.599412  0.889553  0.716004  1
  Ga  Ga19  1  0.900588  0.889553  0.283996  1
  Ga  Ga20  1  0.191412  0.750000  0.750000  1
  Ga  Ga21  1  0.691412  0.250000  0.750000  1
  Ga  Ga22  1  0.599412  0.610447  0.783996  1
  Ga  Ga23  1  0.099412  0.110447  0.716004  1
  P  P24  1  0.039562  0.094833  0.321557  1
  P  P25  1  0.040019  0.805755  0.140219  1
  P  P26  1  0.459981  0.805755  0.859781  1
  P  P27  1  0.460438  0.405167  0.821557  1
  P  P28  1  0.539562  0.594833  0.178443  1
  P  P29  1  0.539562  0.905167  0.321557  1
  P  P30  1  0.040019  0.694245  0.359781  1
  P  P31  1  0.039562  0.405167  0.178443  1
  P  P32  1  0.959981  0.194245  0.859781  1
  P  P33  1  0.540019  0.194245  0.140219  1
  P  P34  1  0.960438  0.905167  0.678443  1
  P  P35  1  0.460438  0.094833  0.678443  1
  P  P36  1  0.959981  0.305755  0.640219  1
  P  P37  1  0.540019  0.305755  0.359781  1
  P  P38  1  0.459981  0.694245  0.640219  1
  P  P39  1  0.960438  0.594833  0.821557  1
