# generated using pymatgen
data_Lu6Zn23P
_symmetry_space_group_name_H-M   'P 1'
_cell_length_a   8.93683937
_cell_length_b   8.93733975
_cell_length_c   8.93748903
_cell_angle_alpha   60.00694409
_cell_angle_beta   60.00404621
_cell_angle_gamma   60.00848832
_symmetry_Int_Tables_number   1
_chemical_formula_structural   Lu6Zn23P
_chemical_formula_sum   'Lu6 Zn23 P1'
_cell_volume   504.84338138
_cell_formula_units_Z   1
loop_
 _symmetry_equiv_pos_site_id
 _symmetry_equiv_pos_as_xyz
  1  'x, y, z'
loop_
 _atom_site_type_symbol
 _atom_site_label
 _atom_site_symmetry_multiplicity
 _atom_site_fract_x
 _atom_site_fract_y
 _atom_site_fract_z
 _atom_site_occupancy
  Lu  Lu0  1  0.709976  0.290007  0.290088  1
  Lu  Lu1  1  0.290023  0.709881  0.710079  1
  Lu  Lu2  1  0.290091  0.709986  0.290007  1
  Lu  Lu3  1  0.709944  0.290089  0.709977  1
  Lu  Lu4  1  0.290061  0.290040  0.709969  1
  Lu  Lu5  1  0.709950  0.709923  0.290051  1
  Zn  Zn6  1  0.123548  0.123515  0.123505  1
  Zn  Zn7  1  0.876432  0.876450  0.876449  1
  Zn  Zn8  1  0.123569  0.123563  0.629342  1
  Zn  Zn9  1  0.123523  0.629388  0.123555  1
  Zn  Zn10  1  0.876466  0.876461  0.370608  1
  Zn  Zn11  1  0.876496  0.370586  0.876453  1
  Zn  Zn12  1  0.629411  0.123519  0.123548  1
  Zn  Zn13  1  0.370547  0.876505  0.876476  1
  Zn  Zn14  1  0.499911  0.000069  0.000064  1
  Zn  Zn15  1  0.999944  0.500082  0.500059  1
  Zn  Zn16  1  0.000082  0.499925  0.000068  1
  Zn  Zn17  1  0.500080  0.999941  0.500054  1
  Zn  Zn18  1  0.000049  0.000090  0.499920  1
  Zn  Zn19  1  0.500065  0.500103  0.999891  1
  Zn  Zn20  1  0.330191  0.330214  0.330209  1
  Zn  Zn21  1  0.669754  0.669781  0.669825  1
  Zn  Zn22  1  0.330177  0.330213  0.009358  1
  Zn  Zn23  1  0.330197  0.009356  0.330160  1
  Zn  Zn24  1  0.669738  0.669796  0.990615  1
  Zn  Zn25  1  0.669766  0.990638  0.669741  1
  Zn  Zn26  1  0.009370  0.330178  0.330167  1
  Zn  Zn27  1  0.990633  0.669759  0.669751  1
  Zn  Zn28  1  0.000018  0.999939  0.000008  1
  P  P29  1  0.499987  0.500004  0.500004  1
