# generated using pymatgen
data_PaCo4MoP3
_symmetry_space_group_name_H-M   'P 1'
_cell_length_a   3.73940500
_cell_length_b   10.48170800
_cell_length_c   11.96023200
_cell_angle_alpha   90.00000000
_cell_angle_beta   90.00000000
_cell_angle_gamma   90.00000000
_symmetry_Int_Tables_number   1
_chemical_formula_structural   PaCo4MoP3
_chemical_formula_sum   'Pa4 Co16 Mo4 P12'
_cell_volume   468.78549491
_cell_formula_units_Z   4
loop_
 _symmetry_equiv_pos_site_id
 _symmetry_equiv_pos_as_xyz
  1  'x, y, z'
loop_
 _atom_site_type_symbol
 _atom_site_label
 _atom_site_symmetry_multiplicity
 _atom_site_fract_x
 _atom_site_fract_y
 _atom_site_fract_z
 _atom_site_occupancy
  Pa  Pa0  1  0.250000  0.580977  0.704926  1
  Pa  Pa1  1  0.250000  0.919023  0.204926  1
  Pa  Pa2  1  0.750000  0.419023  0.295074  1
  Pa  Pa3  1  0.750000  0.080977  0.795074  1
  Co  Co4  1  0.250000  0.406993  0.482822  1
  Co  Co5  1  0.250000  0.093007  0.982822  1
  Co  Co6  1  0.750000  0.593007  0.517178  1
  Co  Co7  1  0.750000  0.906993  0.017178  1
  Co  Co8  1  0.250000  0.221748  0.172990  1
  Co  Co9  1  0.250000  0.278252  0.672990  1
  Co  Co10  1  0.750000  0.778252  0.827010  1
  Co  Co11  1  0.750000  0.721748  0.327010  1
  Co  Co12  1  0.250000  0.886084  0.704386  1
  Co  Co13  1  0.250000  0.613916  0.204386  1
  Co  Co14  1  0.750000  0.113916  0.295614  1
  Co  Co15  1  0.750000  0.386084  0.795614  1
  Co  Co16  1  0.250000  0.465203  0.931039  1
  Co  Co17  1  0.250000  0.034797  0.431039  1
  Co  Co18  1  0.750000  0.534797  0.068961  1
  Co  Co19  1  0.750000  0.965203  0.568961  1
  Mo  Mo20  1  0.250000  0.707085  0.990516  1
  Mo  Mo21  1  0.250000  0.792915  0.490516  1
  Mo  Mo22  1  0.750000  0.292915  0.009484  1
  Mo  Mo23  1  0.750000  0.207085  0.509484  1
  P  P24  1  0.250000  0.421420  0.112279  1
  P  P25  1  0.250000  0.078580  0.612279  1
  P  P26  1  0.750000  0.578580  0.887721  1
  P  P27  1  0.750000  0.921420  0.387721  1
  P  P28  1  0.250000  0.272814  0.861275  1
  P  P29  1  0.250000  0.227186  0.361275  1
  P  P30  1  0.750000  0.727186  0.138725  1
  P  P31  1  0.750000  0.772814  0.638725  1
  P  P32  1  0.250000  0.600468  0.393139  1
  P  P33  1  0.250000  0.899532  0.893139  1
  P  P34  1  0.750000  0.399532  0.606861  1
  P  P35  1  0.750000  0.100468  0.106861  1
