# generated using pymatgen
data_SmHoEr(SiRh2)3
_symmetry_space_group_name_H-M   'P 1'
_cell_length_a   5.58451600
_cell_length_b   5.58451574
_cell_length_c   14.97853800
_cell_angle_alpha   90.00000000
_cell_angle_beta   90.00000000
_cell_angle_gamma   119.99998970
_symmetry_Int_Tables_number   1
_chemical_formula_structural   SmHoEr(SiRh2)3
_chemical_formula_sum   'Sm2 Ho2 Er2 Si6 Rh12'
_cell_volume   404.54902717
_cell_formula_units_Z   2
loop_
 _symmetry_equiv_pos_site_id
 _symmetry_equiv_pos_as_xyz
  1  'x, y, z'
loop_
 _atom_site_type_symbol
 _atom_site_label
 _atom_site_symmetry_multiplicity
 _atom_site_fract_x
 _atom_site_fract_y
 _atom_site_fract_z
 _atom_site_occupancy
  Sm  Sm0  1  0.333333  0.666667  0.750052  1
  Sm  Sm1  1  0.666667  0.333333  0.249948  1
  Ho  Ho2  1  0.333333  0.666667  0.537052  1
  Ho  Ho3  1  0.666667  0.333333  0.462948  1
  Er  Er4  1  0.666667  0.333333  0.036909  1
  Er  Er5  1  0.333333  0.666667  0.963091  1
  Si  Si6  1  0.000000  0.000000  0.249929  1
  Si  Si7  1  0.000000  0.000000  0.750071  1
  Si  Si8  1  0.333333  0.666667  0.249957  1
  Si  Si9  1  0.666667  0.333333  0.750043  1
  Si  Si10  1  0.000000  0.000000  0.000000  1
  Si  Si11  1  0.000000  0.000000  0.500000  1
  Rh  Rh12  1  0.166943  0.333884  0.129390  1
  Rh  Rh13  1  0.833057  0.666116  0.870610  1
  Rh  Rh14  1  0.666116  0.833057  0.129390  1
  Rh  Rh15  1  0.833103  0.666207  0.629686  1
  Rh  Rh16  1  0.333884  0.166943  0.870610  1
  Rh  Rh17  1  0.166897  0.333793  0.370314  1
  Rh  Rh18  1  0.166943  0.833057  0.129390  1
  Rh  Rh19  1  0.333793  0.166897  0.629686  1
  Rh  Rh20  1  0.833057  0.166943  0.870610  1
  Rh  Rh21  1  0.666207  0.833103  0.370314  1
  Rh  Rh22  1  0.833103  0.166897  0.629686  1
  Rh  Rh23  1  0.166897  0.833103  0.370314  1
