# generated using pymatgen
data_Lu10AlBi2Pb3
_symmetry_space_group_name_H-M   'P 1'
_cell_length_a   6.41757400
_cell_length_b   8.79840826
_cell_length_c   8.87667034
_cell_angle_alpha   119.70877027
_cell_angle_beta   90.00098741
_cell_angle_gamma   89.99799317
_symmetry_Int_Tables_number   1
_chemical_formula_structural   Lu10AlBi2Pb3
_chemical_formula_sum   'Lu10 Al1 Bi2 Pb3'
_cell_volume   435.33415643
_cell_formula_units_Z   1
loop_
 _symmetry_equiv_pos_site_id
 _symmetry_equiv_pos_as_xyz
  1  'x, y, z'
loop_
 _atom_site_type_symbol
 _atom_site_label
 _atom_site_symmetry_multiplicity
 _atom_site_fract_x
 _atom_site_fract_y
 _atom_site_fract_z
 _atom_site_occupancy
  Lu  Lu0  1  0.750035  0.239895  0.000000  1
  Lu  Lu1  1  0.750050  0.759332  0.775848  1
  Lu  Lu2  1  0.750050  0.983485  0.224152  1
  Lu  Lu3  1  0.250120  0.765730  0.000000  1
  Lu  Lu4  1  0.249887  0.234753  0.233928  1
  Lu  Lu5  1  0.249887  0.000824  0.766072  1
  Lu  Lu6  1  0.501411  0.344178  0.678731  1
  Lu  Lu7  1  0.501411  0.665447  0.321269  1
  Lu  Lu8  1  0.998567  0.665253  0.320928  1
  Lu  Lu9  1  0.998567  0.344326  0.679072  1
  Al  Al10  1  0.749776  0.598517  0.000000  1
  Bi  Bi11  1  0.749986  0.390084  0.391440  1
  Bi  Bi12  1  0.749986  0.998645  0.608560  1
  Pb  Pb13  1  0.250457  0.396729  0.000000  1
  Pb  Pb14  1  0.249906  0.607382  0.601962  1
  Pb  Pb15  1  0.249906  0.005419  0.398038  1
