# generated using pymatgen
data_Ho16Cd4OsPt2Rh
_symmetry_space_group_name_H-M   'P 1'
_cell_length_a   9.60957955
_cell_length_b   9.60958216
_cell_length_c   9.65534922
_cell_angle_alpha   59.97001046
_cell_angle_beta   59.97004705
_cell_angle_gamma   59.76785053
_symmetry_Int_Tables_number   1
_chemical_formula_structural   Ho16Cd4OsPt2Rh
_chemical_formula_sum   'Ho16 Cd4 Os1 Pt2 Rh1'
_cell_volume   629.06847643
_cell_formula_units_Z   1
loop_
 _symmetry_equiv_pos_site_id
 _symmetry_equiv_pos_as_xyz
  1  'x, y, z'
loop_
 _atom_site_type_symbol
 _atom_site_label
 _atom_site_symmetry_multiplicity
 _atom_site_fract_x
 _atom_site_fract_y
 _atom_site_fract_z
 _atom_site_occupancy
  Ho  Ho0  1  0.935425  0.935426  0.561780  1
  Ho  Ho1  1  0.562236  0.562234  0.935471  1
  Ho  Ho2  1  0.691223  0.691223  0.308890  1
  Ho  Ho3  1  0.151988  0.548901  0.148069  1
  Ho  Ho4  1  0.684739  0.312346  0.693428  1
  Ho  Ho5  1  0.151292  0.151291  0.148142  1
  Ho  Ho6  1  0.548900  0.151989  0.148069  1
  Ho  Ho7  1  0.688252  0.310520  0.308785  1
  Ho  Ho8  1  0.147681  0.147681  0.556353  1
  Ho  Ho9  1  0.310519  0.688253  0.308785  1
  Ho  Ho10  1  0.312347  0.684740  0.693429  1
  Ho  Ho11  1  0.937916  0.563880  0.563594  1
  Ho  Ho12  1  0.941994  0.561623  0.932297  1
  Ho  Ho13  1  0.563879  0.937916  0.563595  1
  Ho  Ho14  1  0.561624  0.941993  0.932297  1
  Ho  Ho15  1  0.311151  0.311150  0.691234  1
  Cd  Cd16  1  0.919273  0.919273  0.244018  1
  Cd  Cd17  1  0.245518  0.918814  0.918513  1
  Cd  Cd18  1  0.920646  0.920646  0.918356  1
  Cd  Cd19  1  0.918815  0.245517  0.918513  1
  Os  Os20  1  0.355816  0.355818  0.926823  1
  Pt  Pt21  1  0.356077  0.926933  0.359463  1
  Pt  Pt22  1  0.926931  0.356077  0.359466  1
  Rh  Rh23  1  0.355751  0.355753  0.360628  1
