# generated using pymatgen
data_Tb3Er5Ti3Si16Tc9
_symmetry_space_group_name_H-M   'P 1'
_cell_length_a   6.77397395
_cell_length_b   6.77475317
_cell_length_c   12.93575156
_cell_angle_alpha   89.95844006
_cell_angle_beta   90.08958106
_cell_angle_gamma   89.28130924
_symmetry_Int_Tables_number   1
_chemical_formula_structural   Tb3Er5Ti3Si16Tc9
_chemical_formula_sum   'Tb3 Er5 Ti3 Si16 Tc9'
_cell_volume   593.59993758
_cell_formula_units_Z   1
loop_
 _symmetry_equiv_pos_site_id
 _symmetry_equiv_pos_as_xyz
  1  'x, y, z'
loop_
 _atom_site_type_symbol
 _atom_site_label
 _atom_site_symmetry_multiplicity
 _atom_site_fract_x
 _atom_site_fract_y
 _atom_site_fract_z
 _atom_site_occupancy
  Tb  Tb0  1  0.662526  0.997483  0.971820  1
  Tb  Tb1  1  0.003304  0.336645  0.528668  1
  Tb  Tb2  1  0.997491  0.662473  0.028161  1
  Er  Er3  1  0.337986  0.001854  0.471446  1
  Er  Er4  1  0.509795  0.824130  0.716783  1
  Er  Er5  1  0.487524  0.178498  0.216745  1
  Er  Er6  1  0.824203  0.509821  0.283399  1
  Er  Er7  1  0.178656  0.487378  0.783231  1
  Ti  Ti8  1  0.155642  0.844823  0.249357  1
  Ti  Ti9  1  0.845145  0.155644  0.750871  1
  Ti  Ti10  1  0.666112  0.666009  0.499825  1
  Si  Si11  1  0.211964  0.117837  0.680791  1
  Si  Si12  1  0.397031  0.680643  0.939661  1
  Si  Si13  1  0.610488  0.308731  0.437310  1
  Si  Si14  1  0.680629  0.397114  0.060348  1
  Si  Si15  1  0.309414  0.612988  0.562391  1
  Si  Si16  1  0.786631  0.883609  0.183115  1
  Si  Si17  1  0.119117  0.210895  0.319156  1
  Si  Si18  1  0.883661  0.786584  0.816857  1
  Si  Si19  1  0.262680  0.985824  0.055716  1
  Si  Si20  1  0.525435  0.804365  0.314346  1
  Si  Si21  1  0.471319  0.198041  0.814952  1
  Si  Si22  1  0.803586  0.525803  0.685862  1
  Si  Si23  1  0.197866  0.471079  0.185105  1
  Si  Si24  1  0.729493  0.022372  0.557664  1
  Si  Si25  1  0.985847  0.262770  0.944294  1
  Si  Si26  1  0.022815  0.731785  0.442336  1
  Tc  Tc27  1  0.334103  0.333990  0.999952  1
  Tc  Tc28  1  0.182855  0.981063  0.864256  1
  Tc  Tc29  1  0.473664  0.692717  0.132520  1
  Tc  Tc30  1  0.522941  0.314975  0.632563  1
  Tc  Tc31  1  0.692793  0.473963  0.867671  1
  Tc  Tc32  1  0.315985  0.524314  0.367219  1
  Tc  Tc33  1  0.817407  0.012629  0.363893  1
  Tc  Tc34  1  0.981137  0.182975  0.135759  1
  Tc  Tc35  1  0.012758  0.818176  0.635954  1
