# generated using pymatgen
data_Lu3(CoSn2)2
_symmetry_space_group_name_H-M   'P 1'
_cell_length_a   7.34614400
_cell_length_b   7.34614372
_cell_length_c   4.06309600
_cell_angle_alpha   90.00000000
_cell_angle_beta   90.00000000
_cell_angle_gamma   120.00000126
_symmetry_Int_Tables_number   1
_chemical_formula_structural   Lu3(CoSn2)2
_chemical_formula_sum   'Lu3 Co2 Sn4'
_cell_volume   189.89195583
_cell_formula_units_Z   1
loop_
 _symmetry_equiv_pos_site_id
 _symmetry_equiv_pos_as_xyz
  1  'x, y, z'
loop_
 _atom_site_type_symbol
 _atom_site_label
 _atom_site_symmetry_multiplicity
 _atom_site_fract_x
 _atom_site_fract_y
 _atom_site_fract_z
 _atom_site_occupancy
  Lu  Lu0  1  0.305786  0.248186  0.500000  1
  Lu  Lu1  1  0.751814  0.057601  0.500000  1
  Lu  Lu2  1  0.942399  0.694214  0.500000  1
  Co  Co3  1  0.333333  0.666667  0.500000  1
  Co  Co4  1  0.000000  0.000000  0.000000  1
  Sn  Sn5  1  0.098796  0.407690  0.000000  1
  Sn  Sn6  1  0.592310  0.691108  0.000000  1
  Sn  Sn7  1  0.308892  0.901204  0.000000  1
  Sn  Sn8  1  0.666667  0.333333  0.000000  1
