# generated using pymatgen
data_ZrSc3Si6Ir6Rh
_symmetry_space_group_name_H-M   'P 1'
_cell_length_a   7.00406621
_cell_length_b   7.00406516
_cell_length_c   7.00432709
_cell_angle_alpha   109.59784546
_cell_angle_beta   109.59783449
_cell_angle_gamma   109.53593878
_symmetry_Int_Tables_number   1
_chemical_formula_structural   ZrSc3Si6Ir6Rh
_chemical_formula_sum   'Zr1 Sc3 Si6 Ir6 Rh1'
_cell_volume   263.46860222
_cell_formula_units_Z   1
loop_
 _symmetry_equiv_pos_site_id
 _symmetry_equiv_pos_as_xyz
  1  'x, y, z'
loop_
 _atom_site_type_symbol
 _atom_site_label
 _atom_site_symmetry_multiplicity
 _atom_site_fract_x
 _atom_site_fract_y
 _atom_site_fract_z
 _atom_site_occupancy
  Zr  Zr0  1  0.499904  0.500096  0.500000  1
  Sc  Sc1  1  0.000027  0.999973  0.500000  1
  Sc  Sc2  1  0.000045  0.500054  0.000077  1
  Sc  Sc3  1  0.499946  0.999955  0.999923  1
  Si  Si4  1  0.684188  0.684179  0.003404  1
  Si  Si5  1  0.316308  0.996609  0.316204  1
  Si  Si6  1  0.996549  0.316227  0.316237  1
  Si  Si7  1  0.315821  0.315812  0.996596  1
  Si  Si8  1  0.683773  0.003451  0.683763  1
  Si  Si9  1  0.003391  0.683692  0.683796  1
  Ir  Ir10  1  0.750110  0.499813  0.250459  1
  Ir  Ir11  1  0.500187  0.249890  0.749541  1
  Ir  Ir12  1  0.249656  0.499956  0.749539  1
  Ir  Ir13  1  0.250170  0.749830  0.500000  1
  Ir  Ir14  1  0.500044  0.750344  0.250461  1
  Ir  Ir15  1  0.999991  0.000009  0.000000  1
  Rh  Rh16  1  0.749889  0.250111  0.500000  1
