# generated using pymatgen
data_Tb7Ho13CoBi8Ru3
_symmetry_space_group_name_H-M   'P 1'
_cell_length_a   7.98011774
_cell_length_b   8.98960200
_cell_length_c   12.41298508
_cell_angle_alpha   90.00000000
_cell_angle_beta   89.81250054
_cell_angle_gamma   90.00000000
_symmetry_Int_Tables_number   1
_chemical_formula_structural   Tb7Ho13CoBi8Ru3
_chemical_formula_sum   'Tb7 Ho13 Co1 Bi8 Ru3'
_cell_volume   890.47897793
_cell_formula_units_Z   1
loop_
 _symmetry_equiv_pos_site_id
 _symmetry_equiv_pos_as_xyz
  1  'x, y, z'
loop_
 _atom_site_type_symbol
 _atom_site_label
 _atom_site_symmetry_multiplicity
 _atom_site_fract_x
 _atom_site_fract_y
 _atom_site_fract_z
 _atom_site_occupancy
  Tb  Tb0  1  0.345130  0.750000  0.701349  1
  Tb  Tb1  1  0.656678  0.250000  0.293433  1
  Tb  Tb2  1  0.843333  0.250000  0.792409  1
  Tb  Tb3  1  0.155202  0.750000  0.205854  1
  Tb  Tb4  1  0.879274  0.750000  0.806451  1
  Tb  Tb5  1  0.120040  0.250000  0.193030  1
  Tb  Tb6  1  0.616922  0.750000  0.311962  1
  Ho  Ho7  1  0.379516  0.250000  0.691957  1
  Ho  Ho8  1  0.675625  0.543046  0.563870  1
  Ho  Ho9  1  0.324750  0.461715  0.437200  1
  Ho  Ho10  1  0.176120  0.458013  0.935655  1
  Ho  Ho11  1  0.324750  0.038285  0.437200  1
  Ho  Ho12  1  0.823577  0.542673  0.064493  1
  Ho  Ho13  1  0.675625  0.956954  0.563870  1
  Ho  Ho14  1  0.823577  0.957327  0.064493  1
  Ho  Ho15  1  0.176120  0.041987  0.935655  1
  Ho  Ho16  1  0.054568  0.750000  0.496818  1
  Ho  Ho17  1  0.947586  0.250000  0.503367  1
  Ho  Ho18  1  0.554364  0.250000  0.003529  1
  Ho  Ho19  1  0.445575  0.750000  0.995636  1
  Co  Co20  1  0.429467  0.750000  0.491061  1
  Bi  Bi21  1  0.570344  0.508136  0.827488  1
  Bi  Bi22  1  0.428951  0.492282  0.172396  1
  Bi  Bi23  1  0.072189  0.491636  0.671612  1
  Bi  Bi24  1  0.428951  0.007718  0.172396  1
  Bi  Bi25  1  0.928876  0.508645  0.328796  1
  Bi  Bi26  1  0.570344  0.991864  0.827488  1
  Bi  Bi27  1  0.928876  0.991355  0.328796  1
  Bi  Bi28  1  0.072189  0.008364  0.671612  1
  Ru  Ru29  1  0.073765  0.750000  0.989079  1
  Ru  Ru30  1  0.925322  0.250000  0.010540  1
  Ru  Ru31  1  0.572395  0.250000  0.510502  1
