# generated using pymatgen
data_PrNd3(SeO3)6
_symmetry_space_group_name_H-M   'P 1'
_cell_length_a   7.35837671
_cell_length_b   8.40531929
_cell_length_c   9.36278785
_cell_angle_alpha   71.05095437
_cell_angle_beta   70.04070545
_cell_angle_gamma   66.05618164
_symmetry_Int_Tables_number   1
_chemical_formula_structural   PrNd3(SeO3)6
_chemical_formula_sum   'Pr1 Nd3 Se6 O18'
_cell_volume   485.63560248
_cell_formula_units_Z   1
loop_
 _symmetry_equiv_pos_site_id
 _symmetry_equiv_pos_as_xyz
  1  'x, y, z'
loop_
 _atom_site_type_symbol
 _atom_site_label
 _atom_site_symmetry_multiplicity
 _atom_site_fract_x
 _atom_site_fract_y
 _atom_site_fract_z
 _atom_site_occupancy
  Pr  Pr0  1  0.740155  0.735649  0.801593  1
  Nd  Nd1  1  0.259154  0.265103  0.198289  1
  Nd  Nd2  1  0.334908  0.730544  0.587625  1
  Nd  Nd3  1  0.665877  0.268455  0.412426  1
  Se  Se4  1  0.112770  0.240166  0.581653  1
  Se  Se5  1  0.426699  0.773528  0.201863  1
  Se  Se6  1  0.150904  0.752834  0.962380  1
  Se  Se7  1  0.848851  0.247168  0.038193  1
  Se  Se8  1  0.572018  0.227108  0.799600  1
  Se  Se9  1  0.888544  0.758960  0.417240  1
  O  O10  1  0.155913  0.019462  0.652408  1
  O  O11  1  0.168419  0.574519  0.114907  1
  O  O12  1  0.029810  0.708667  0.553429  1
  O  O13  1  0.339178  0.249707  0.440039  1
  O  O14  1  0.066792  0.699266  0.836851  1
  O  O15  1  0.597143  0.286241  0.150566  1
  O  O16  1  0.357939  0.207832  0.940949  1
  O  O17  1  0.360761  0.937559  0.304384  1
  O  O18  1  0.514591  0.594864  0.349451  1
  O  O19  1  0.485148  0.405872  0.651975  1
  O  O20  1  0.638940  0.064410  0.695407  1
  O  O21  1  0.640750  0.791530  0.060488  1
  O  O22  1  0.402081  0.713809  0.849820  1
  O  O23  1  0.932627  0.301946  0.163566  1
  O  O24  1  0.661492  0.750123  0.558149  1
  O  O25  1  0.971799  0.290476  0.445245  1
  O  O26  1  0.831227  0.424372  0.885057  1
  O  O27  1  0.845511  0.979829  0.346445  1
