# generated using pymatgen
data_LaSmEr5CoI12
_symmetry_space_group_name_H-M   'P 1'
_cell_length_a   9.77490326
_cell_length_b   9.75541545
_cell_length_c   9.74716299
_cell_angle_alpha   106.16672482
_cell_angle_beta   106.10228478
_cell_angle_gamma   106.51627854
_symmetry_Int_Tables_number   1
_chemical_formula_structural   LaSmEr5CoI12
_chemical_formula_sum   'La1 Sm1 Er5 Co1 I12'
_cell_volume   789.13395197
_cell_formula_units_Z   1
loop_
 _symmetry_equiv_pos_site_id
 _symmetry_equiv_pos_as_xyz
  1  'x, y, z'
loop_
 _atom_site_type_symbol
 _atom_site_label
 _atom_site_symmetry_multiplicity
 _atom_site_fract_x
 _atom_site_fract_y
 _atom_site_fract_z
 _atom_site_occupancy
  La  La0  1  0.997529  0.998251  0.996869  1
  Sm  Sm1  1  0.408011  0.208345  0.482272  1
  Er  Er2  1  0.516190  0.588900  0.780668  1
  Er  Er3  1  0.780518  0.516996  0.586851  1
  Er  Er4  1  0.587198  0.778942  0.515708  1
  Er  Er5  1  0.482470  0.412244  0.217825  1
  Er  Er6  1  0.217739  0.481179  0.411099  1
  Co  Co7  1  0.498763  0.498069  0.499179  1
  I  I8  1  0.275216  0.818838  0.425516  1
  I  I9  1  0.429536  0.282446  0.831105  1
  I  I10  1  0.822612  0.428258  0.277234  1
  I  I11  1  0.729601  0.177239  0.573669  1
  I  I12  1  0.570683  0.722157  0.175332  1
  I  I13  1  0.175758  0.571097  0.720890  1
  I  I14  1  0.038998  0.124900  0.350025  1
  I  I15  1  0.353065  0.046290  0.119179  1
  I  I16  1  0.124942  0.353930  0.046948  1
  I  I17  1  0.951637  0.872502  0.642301  1
  I  I18  1  0.642360  0.951313  0.871959  1
  I  I19  1  0.872541  0.643471  0.950738  1
