# generated using pymatgen
data_Y4V3Ga(WO6)4
_symmetry_space_group_name_H-M   'P 1'
_cell_length_a   5.31624841
_cell_length_b   7.48137806
_cell_length_c   11.11176000
_cell_angle_alpha   89.86737080
_cell_angle_beta   90.15079872
_cell_angle_gamma   89.95829665
_symmetry_Int_Tables_number   1
_chemical_formula_structural   Y4V3Ga(WO6)4
_chemical_formula_sum   'Y4 V3 Ga1 W4 O24'
_cell_volume   441.94368809
_cell_formula_units_Z   1
loop_
 _symmetry_equiv_pos_site_id
 _symmetry_equiv_pos_as_xyz
  1  'x, y, z'
loop_
 _atom_site_type_symbol
 _atom_site_label
 _atom_site_symmetry_multiplicity
 _atom_site_fract_x
 _atom_site_fract_y
 _atom_site_fract_z
 _atom_site_occupancy
  Y  Y0  1  0.546619  0.253251  0.044875  1
  Y  Y1  1  0.045681  0.753910  0.453473  1
  Y  Y2  1  0.954265  0.252890  0.544819  1
  Y  Y3  1  0.454006  0.751492  0.957190  1
  V  V4  1  0.551393  0.005939  0.364813  1
  V  V5  1  0.451284  0.506587  0.634619  1
  V  V6  1  0.949933  0.005500  0.865655  1
  Ga  Ga7  1  0.041466  0.509459  0.137915  1
  W  W8  1  0.056884  0.999492  0.143201  1
  W  W9  1  0.552354  0.498460  0.355336  1
  W  W10  1  0.444243  0.999058  0.643032  1
  W  W11  1  0.946746  0.498430  0.857658  1
  O  O12  1  0.758577  0.541817  0.021884  1
  O  O13  1  0.765053  0.959813  0.029882  1
  O  O14  1  0.172319  0.754792  0.118136  1
  O  O15  1  0.937074  0.246801  0.142906  1
  O  O16  1  0.373070  0.070635  0.206336  1
  O  O17  1  0.381801  0.439193  0.213106  1
  O  O18  1  0.892916  0.937931  0.287051  1
  O  O19  1  0.869400  0.567605  0.288706  1
  O  O20  1  0.437363  0.746011  0.356749  1
  O  O21  1  0.672810  0.256341  0.382727  1
  O  O22  1  0.265422  0.459339  0.469785  1
  O  O23  1  0.257751  0.044225  0.479405  1
  O  O24  1  0.743337  0.543805  0.517964  1
  O  O25  1  0.735289  0.959352  0.528898  1
  O  O26  1  0.326446  0.755375  0.615337  1
  O  O27  1  0.565604  0.246059  0.642058  1
  O  O28  1  0.130350  0.070410  0.706644  1
  O  O29  1  0.112111  0.437565  0.714469  1
  O  O30  1  0.609668  0.936720  0.786175  1
  O  O31  1  0.630471  0.569784  0.794756  1
  O  O32  1  0.065517  0.745439  0.857513  1
  O  O33  1  0.826872  0.254927  0.883090  1
  O  O34  1  0.233117  0.459728  0.973858  1
  O  O35  1  0.242776  0.042268  0.979984  1
