# generated using pymatgen
data_Na5Si10P2Ir19
_symmetry_space_group_name_H-M   'P 1'
_cell_length_a   12.77903672
_cell_length_b   12.64648010
_cell_length_c   3.97897700
_cell_angle_alpha   90.00000000
_cell_angle_beta   90.00000000
_cell_angle_gamma   119.65745438
_symmetry_Int_Tables_number   1
_chemical_formula_structural   Na5Si10P2Ir19
_chemical_formula_sum   'Na5 Si10 P2 Ir19'
_cell_volume   558.80280806
_cell_formula_units_Z   1
loop_
 _symmetry_equiv_pos_site_id
 _symmetry_equiv_pos_as_xyz
  1  'x, y, z'
loop_
 _atom_site_type_symbol
 _atom_site_label
 _atom_site_symmetry_multiplicity
 _atom_site_fract_x
 _atom_site_fract_y
 _atom_site_fract_z
 _atom_site_occupancy
  Na  Na0  1  0.332180  0.666335  0.500000  1
  Na  Na1  1  0.667820  0.334154  0.500000  1
  Na  Na2  1  0.000000  0.817175  0.000000  1
  Na  Na3  1  0.180376  0.180946  0.000000  1
  Na  Na4  1  0.819624  0.000570  0.000000  1
  Si  Si5  1  0.000000  0.630623  0.500000  1
  Si  Si6  1  0.369235  0.369756  0.500000  1
  Si  Si7  1  0.630765  0.000521  0.500000  1
  Si  Si8  1  0.517479  0.685651  0.000000  1
  Si  Si9  1  0.311955  0.832751  0.000000  1
  Si  Si10  1  0.165354  0.478397  0.000000  1
  Si  Si11  1  0.482521  0.168172  0.000000  1
  Si  Si12  1  0.688045  0.520796  0.000000  1
  Si  Si13  1  0.834646  0.313043  0.000000  1
  Si  Si14  1  0.000000  0.173503  0.500000  1
  P  P15  1  0.813351  0.821293  0.500000  1
  P  P16  1  0.186649  0.007942  0.500000  1
  Ir  Ir17  1  0.512407  0.873832  0.000000  1
  Ir  Ir18  1  0.125244  0.641236  0.000000  1
  Ir  Ir19  1  0.359479  0.484645  0.000000  1
  Ir  Ir20  1  0.487593  0.361424  0.000000  1
  Ir  Ir21  1  0.874756  0.515991  0.000000  1
  Ir  Ir22  1  0.640521  0.125165  0.000000  1
  Ir  Ir23  1  0.000000  0.445093  0.500000  1
  Ir  Ir24  1  0.555126  0.553279  0.500000  1
  Ir  Ir25  1  0.444874  0.998154  0.500000  1
  Ir  Ir26  1  0.000000  0.277912  0.000000  1
  Ir  Ir27  1  0.718245  0.721052  0.000000  1
  Ir  Ir28  1  0.281755  0.002807  0.000000  1
  Ir  Ir29  1  0.620888  0.805399  0.500000  1
  Ir  Ir30  1  0.191310  0.820453  0.500000  1
  Ir  Ir31  1  0.183582  0.376895  0.500000  1
  Ir  Ir32  1  0.379112  0.184511  0.500000  1
  Ir  Ir33  1  0.808690  0.629144  0.500000  1
  Ir  Ir34  1  0.816418  0.193313  0.500000  1
  Ir  Ir35  1  0.000000  0.988067  0.500000  1
