# generated using pymatgen
data_Hf3Ga3CoPd2
_symmetry_space_group_name_H-M   'P 1'
_cell_length_a   7.21316400
_cell_length_b   7.21316327
_cell_length_c   6.63525500
_cell_angle_alpha   90.00000000
_cell_angle_beta   90.00000000
_cell_angle_gamma   119.99999418
_symmetry_Int_Tables_number   1
_chemical_formula_structural   Hf3Ga3CoPd2
_chemical_formula_sum   'Hf6 Ga6 Co2 Pd4'
_cell_volume   298.97842118
_cell_formula_units_Z   2
loop_
 _symmetry_equiv_pos_site_id
 _symmetry_equiv_pos_as_xyz
  1  'x, y, z'
loop_
 _atom_site_type_symbol
 _atom_site_label
 _atom_site_symmetry_multiplicity
 _atom_site_fract_x
 _atom_site_fract_y
 _atom_site_fract_z
 _atom_site_occupancy
  Hf  Hf0  1  0.593049  0.611089  0.250000  1
  Hf  Hf1  1  0.025653  0.411093  0.750000  1
  Hf  Hf2  1  0.388911  0.981960  0.250000  1
  Hf  Hf3  1  0.018040  0.406951  0.250000  1
  Hf  Hf4  1  0.385440  0.974347  0.750000  1
  Hf  Hf5  1  0.588907  0.614560  0.750000  1
  Ga  Ga6  1  0.277083  0.275909  0.499700  1
  Ga  Ga7  1  0.724091  0.001174  0.499700  1
  Ga  Ga8  1  0.998826  0.722917  0.499700  1
  Ga  Ga9  1  0.724091  0.001174  0.000300  1
  Ga  Ga10  1  0.277083  0.275909  0.000300  1
  Ga  Ga11  1  0.998826  0.722917  0.000300  1
  Co  Co12  1  0.333333  0.666667  0.493891  1
  Co  Co13  1  0.333333  0.666667  0.006109  1
  Pd  Pd14  1  0.000000  0.000000  0.750000  1
  Pd  Pd15  1  0.000000  0.000000  0.250000  1
  Pd  Pd16  1  0.666667  0.333333  0.506782  1
  Pd  Pd17  1  0.666667  0.333333  0.993218  1
