# generated using pymatgen
data_Ho16Cd2AgHgIr4
_symmetry_space_group_name_H-M   'P 1'
_cell_length_a   9.58727816
_cell_length_b   9.58727856
_cell_length_c   9.57728011
_cell_angle_alpha   59.82208838
_cell_angle_beta   59.82208391
_cell_angle_gamma   59.90987319
_symmetry_Int_Tables_number   1
_chemical_formula_structural   Ho16Cd2AgHgIr4
_chemical_formula_sum   'Ho16 Cd2 Ag1 Hg1 Ir4'
_cell_volume   620.36835966
_cell_formula_units_Z   1
loop_
 _symmetry_equiv_pos_site_id
 _symmetry_equiv_pos_as_xyz
  1  'x, y, z'
loop_
 _atom_site_type_symbol
 _atom_site_label
 _atom_site_symmetry_multiplicity
 _atom_site_fract_x
 _atom_site_fract_y
 _atom_site_fract_z
 _atom_site_occupancy
  Ho  Ho0  1  0.599391  0.599391  0.599063  1
  Ho  Ho1  1  0.600199  0.600199  0.202260  1
  Ho  Ho2  1  0.600740  0.200412  0.600404  1
  Ho  Ho3  1  0.200412  0.600740  0.600404  1
  Ho  Ho4  1  0.059392  0.439743  0.439965  1
  Ho  Ho5  1  0.437519  0.060000  0.060180  1
  Ho  Ho6  1  0.439743  0.059392  0.439965  1
  Ho  Ho7  1  0.060000  0.437519  0.060180  1
  Ho  Ho8  1  0.439319  0.439319  0.059994  1
  Ho  Ho9  1  0.059366  0.059366  0.438492  1
  Ho  Ho10  1  0.186671  0.811584  0.811665  1
  Ho  Ho11  1  0.811674  0.185867  0.188370  1
  Ho  Ho12  1  0.811584  0.186671  0.811665  1
  Ho  Ho13  1  0.185867  0.811674  0.188370  1
  Ho  Ho14  1  0.811567  0.811567  0.187799  1
  Ho  Ho15  1  0.187076  0.187076  0.811788  1
  Cd  Cd16  1  0.831244  0.507870  0.831844  1
  Cd  Cd17  1  0.507870  0.831244  0.831844  1
  Ag  Ag18  1  0.832707  0.832707  0.834029  1
  Hg  Hg19  1  0.835006  0.835006  0.497769  1
  Ir  Ir20  1  0.391766  0.391766  0.391984  1
  Ir  Ir21  1  0.392882  0.392882  0.825202  1
  Ir  Ir22  1  0.392614  0.825390  0.393380  1
  Ir  Ir23  1  0.825390  0.392614  0.393380  1
