# generated using pymatgen
data_Dy3Ho2SnBi2
_symmetry_space_group_name_H-M   'P 1'
_cell_length_a   9.08226160
_cell_length_b   9.04883521
_cell_length_c   6.46522100
_cell_angle_alpha   90.00000000
_cell_angle_beta   90.00000000
_cell_angle_gamma   119.87814893
_symmetry_Int_Tables_number   1
_chemical_formula_structural   Dy3Ho2SnBi2
_chemical_formula_sum   'Dy6 Ho4 Sn2 Bi4'
_cell_volume   460.71529876
_cell_formula_units_Z   2
loop_
 _symmetry_equiv_pos_site_id
 _symmetry_equiv_pos_as_xyz
  1  'x, y, z'
loop_
 _atom_site_type_symbol
 _atom_site_label
 _atom_site_symmetry_multiplicity
 _atom_site_fract_x
 _atom_site_fract_y
 _atom_site_fract_z
 _atom_site_occupancy
  Dy  Dy0  1  0.994489  0.758399  0.750000  1
  Dy  Dy1  1  0.994490  0.236090  0.250000  1
  Dy  Dy2  1  0.756298  0.761191  0.250000  1
  Dy  Dy3  1  0.756297  0.995107  0.750000  1
  Dy  Dy4  1  0.245387  0.245605  0.750000  1
  Dy  Dy5  1  0.245388  0.999783  0.250000  1
  Ho  Ho6  1  0.340888  0.670445  0.500000  1
  Ho  Ho7  1  0.664953  0.332476  0.000000  1
  Ho  Ho8  1  0.664953  0.332476  0.500000  1
  Ho  Ho9  1  0.340888  0.670445  0.000000  1
  Sn  Sn10  1  0.608131  0.606064  0.750000  1
  Sn  Sn11  1  0.608130  0.002066  0.250000  1
  Bi  Bi12  1  0.388731  0.999001  0.750000  1
  Bi  Bi13  1  0.388732  0.389731  0.250000  1
  Bi  Bi14  1  0.001121  0.609181  0.250000  1
  Bi  Bi15  1  0.001122  0.391941  0.750000  1
