# generated using pymatgen
data_Ca3(NiSn)2
_symmetry_space_group_name_H-M   'P 1'
_cell_length_a   5.82543600
_cell_length_b   8.45257800
_cell_length_c   13.41766900
_cell_angle_alpha   90.00000000
_cell_angle_beta   90.00000000
_cell_angle_gamma   90.00000000
_symmetry_Int_Tables_number   1
_chemical_formula_structural   Ca3(NiSn)2
_chemical_formula_sum   'Ca12 Ni8 Sn8'
_cell_volume   660.68537985
_cell_formula_units_Z   4
loop_
 _symmetry_equiv_pos_site_id
 _symmetry_equiv_pos_as_xyz
  1  'x, y, z'
loop_
 _atom_site_type_symbol
 _atom_site_label
 _atom_site_symmetry_multiplicity
 _atom_site_fract_x
 _atom_site_fract_y
 _atom_site_fract_z
 _atom_site_occupancy
  Ca  Ca0  1  0.148787  0.893496  0.598412  1
  Ca  Ca1  1  0.851213  0.106504  0.098412  1
  Ca  Ca2  1  0.148787  0.606504  0.401588  1
  Ca  Ca3  1  0.851213  0.393496  0.901588  1
  Ca  Ca4  1  0.851213  0.106504  0.401588  1
  Ca  Ca5  1  0.148787  0.893496  0.901588  1
  Ca  Ca6  1  0.851213  0.393496  0.598412  1
  Ca  Ca7  1  0.148787  0.606504  0.098412  1
  Ca  Ca8  1  0.352759  0.249380  0.750000  1
  Ca  Ca9  1  0.647241  0.750620  0.250000  1
  Ca  Ca10  1  0.352759  0.250620  0.250000  1
  Ca  Ca11  1  0.647241  0.749380  0.750000  1
  Ni  Ni12  1  0.617546  0.027534  0.584731  1
  Ni  Ni13  1  0.382454  0.972466  0.084731  1
  Ni  Ni14  1  0.617546  0.472466  0.415269  1
  Ni  Ni15  1  0.382454  0.527534  0.915269  1
  Ni  Ni16  1  0.382454  0.972466  0.415269  1
  Ni  Ni17  1  0.617546  0.027534  0.915269  1
  Ni  Ni18  1  0.382454  0.527534  0.584731  1
  Ni  Ni19  1  0.617546  0.472466  0.084731  1
  Sn  Sn20  1  0.838054  0.094533  0.750000  1
  Sn  Sn21  1  0.161946  0.905467  0.250000  1
  Sn  Sn22  1  0.838054  0.405467  0.250000  1
  Sn  Sn23  1  0.161946  0.594533  0.750000  1
  Sn  Sn24  1  0.367795  0.250000  0.500000  1
  Sn  Sn25  1  0.632205  0.750000  0.000000  1
  Sn  Sn26  1  0.632205  0.750000  0.500000  1
  Sn  Sn27  1  0.367795  0.250000  0.000000  1
