# generated using pymatgen
data_NdTmLuGa8Ag3
_symmetry_space_group_name_H-M   'P 1'
_cell_length_a   4.34514352
_cell_length_b   8.36644429
_cell_length_c   8.36644577
_cell_angle_alpha   69.45225564
_cell_angle_beta   74.94910485
_cell_angle_gamma   74.94911031
_symmetry_Int_Tables_number   1
_chemical_formula_structural   NdTmLuGa8Ag3
_chemical_formula_sum   'Nd1 Tm1 Lu1 Ga8 Ag3'
_cell_volume   270.20995207
_cell_formula_units_Z   1
loop_
 _symmetry_equiv_pos_site_id
 _symmetry_equiv_pos_as_xyz
  1  'x, y, z'
loop_
 _atom_site_type_symbol
 _atom_site_label
 _atom_site_symmetry_multiplicity
 _atom_site_fract_x
 _atom_site_fract_y
 _atom_site_fract_z
 _atom_site_occupancy
  Nd  Nd0  1  0.499933  0.500067  0.500067  1
  Tm  Tm1  1  0.800204  0.199796  0.199796  1
  Lu  Lu2  1  0.199562  0.800438  0.800438  1
  Ga  Ga3  1  0.355220  0.361154  0.928405  1
  Ga  Ga4  1  0.644900  0.639134  0.071066  1
  Ga  Ga5  1  0.355220  0.928405  0.361154  1
  Ga  Ga6  1  0.644900  0.071066  0.639134  1
  Ga  Ga7  1  0.160665  0.471342  0.207328  1
  Ga  Ga8  1  0.838991  0.529094  0.792925  1
  Ga  Ga9  1  0.160665  0.207328  0.471342  1
  Ga  Ga10  1  0.838991  0.792925  0.529094  1
  Ag  Ag11  1  0.500224  0.999776  0.999776  1
  Ag  Ag12  1  0.000262  0.805477  0.193998  1
  Ag  Ag13  1  0.000262  0.193998  0.805477  1
