# generated using pymatgen
data_Cs2Mg(CdSe2)2
_symmetry_space_group_name_H-M   'P 1'
_cell_length_a   10.30990348
_cell_length_b   10.30990397
_cell_length_c   10.30990448
_cell_angle_alpha   143.42840817
_cell_angle_beta   105.28507567
_cell_angle_gamma   86.17353286
_symmetry_Int_Tables_number   1
_chemical_formula_structural   Cs2Mg(CdSe2)2
_chemical_formula_sum   'Cs4 Mg2 Cd4 Se8'
_cell_volume   609.48929816
_cell_formula_units_Z   2
loop_
 _symmetry_equiv_pos_site_id
 _symmetry_equiv_pos_as_xyz
  1  'x, y, z'
loop_
 _atom_site_type_symbol
 _atom_site_label
 _atom_site_symmetry_multiplicity
 _atom_site_fract_x
 _atom_site_fract_y
 _atom_site_fract_z
 _atom_site_occupancy
  Cs  Cs0  1  0.119332  0.236706  0.358245  1
  Cs  Cs1  1  0.380668  0.738913  0.117374  1
  Cs  Cs2  1  0.621538  0.263294  0.882626  1
  Cs  Cs3  1  0.878462  0.761087  0.641755  1
  Mg  Mg4  1  0.978737  0.750000  0.228737  1
  Mg  Mg5  1  0.521263  0.750000  0.771263  1
  Cd  Cd6  1  0.250000  0.750000  0.500000  1
  Cd  Cd7  1  0.750000  0.250000  0.500000  1
  Cd  Cd8  1  0.474128  0.250000  0.224128  1
  Cd  Cd9  1  0.025872  0.250000  0.775872  1
  Se  Se10  1  0.491622  0.642220  0.425897  1
  Se  Se11  1  0.008378  0.434275  0.150599  1
  Se  Se12  1  0.283678  0.857780  0.849401  1
  Se  Se13  1  0.216322  0.065725  0.574103  1
  Se  Se14  1  0.716544  0.121585  0.135531  1
  Se  Se15  1  0.783456  0.918987  0.405042  1
  Se  Se16  1  0.986054  0.581013  0.864469  1
  Se  Se17  1  0.513946  0.378415  0.594958  1
