# generated using pymatgen
data_La3Pr2Nd11(CdIr)4
_symmetry_space_group_name_H-M   'P 1'
_cell_length_a   10.00276964
_cell_length_b   10.01696255
_cell_length_c   10.01116400
_cell_angle_alpha   60.01914711
_cell_angle_beta   59.97223547
_cell_angle_gamma   59.99500963
_symmetry_Int_Tables_number   1
_chemical_formula_structural   La3Pr2Nd11(CdIr)4
_chemical_formula_sum   'La3 Pr2 Nd11 Cd4 Ir4'
_cell_volume   709.22017709
_cell_formula_units_Z   1
loop_
 _symmetry_equiv_pos_site_id
 _symmetry_equiv_pos_as_xyz
  1  'x, y, z'
loop_
 _atom_site_type_symbol
 _atom_site_label
 _atom_site_symmetry_multiplicity
 _atom_site_fract_x
 _atom_site_fract_y
 _atom_site_fract_z
 _atom_site_occupancy
  La  La0  1  0.347109  0.347943  0.348002  1
  La  La1  1  0.347109  0.347943  0.956946  1
  La  La2  1  0.347384  0.956428  0.348094  1
  Pr  Pr3  1  0.562008  0.562109  0.937942  1
  Pr  Pr4  1  0.938489  0.938654  0.561429  1
  Nd  Nd5  1  0.952142  0.349367  0.349245  1
  Nd  Nd6  1  0.810546  0.189864  0.190179  1
  Nd  Nd7  1  0.189908  0.809989  0.810044  1
  Nd  Nd8  1  0.189908  0.809989  0.190059  1
  Nd  Nd9  1  0.810546  0.189864  0.809410  1
  Nd  Nd10  1  0.190059  0.189901  0.810020  1
  Nd  Nd11  1  0.810442  0.809247  0.190155  1
  Nd  Nd12  1  0.938700  0.561210  0.561414  1
  Nd  Nd13  1  0.561539  0.938378  0.938177  1
  Nd  Nd14  1  0.561539  0.938378  0.561906  1
  Nd  Nd15  1  0.938700  0.561210  0.938676  1
  Cd  Cd16  1  0.580882  0.579653  0.579471  1
  Cd  Cd17  1  0.580882  0.579653  0.259992  1
  Cd  Cd18  1  0.580737  0.259836  0.579713  1
  Cd  Cd19  1  0.259676  0.579978  0.580173  1
  Ir  Ir20  1  0.142434  0.141886  0.141064  1
  Ir  Ir21  1  0.142434  0.141886  0.574616  1
  Ir  Ir22  1  0.142358  0.574639  0.141501  1
  Ir  Ir23  1  0.574469  0.141991  0.141770  1
