# generated using pymatgen
data_YbTh(ZnNi)2
_symmetry_space_group_name_H-M   'P 1'
_cell_length_a   3.92962000
_cell_length_b   6.90884951
_cell_length_c   8.07419400
_cell_angle_alpha   89.23705372
_cell_angle_beta   90.00000000
_cell_angle_gamma   90.00000000
_symmetry_Int_Tables_number   1
_chemical_formula_structural   YbTh(ZnNi)2
_chemical_formula_sum   'Yb2 Th2 Zn4 Ni4'
_cell_volume   219.18809593
_cell_formula_units_Z   2
loop_
 _symmetry_equiv_pos_site_id
 _symmetry_equiv_pos_as_xyz
  1  'x, y, z'
loop_
 _atom_site_type_symbol
 _atom_site_label
 _atom_site_symmetry_multiplicity
 _atom_site_fract_x
 _atom_site_fract_y
 _atom_site_fract_z
 _atom_site_occupancy
  Yb  Yb0  1  0.750000  0.964590  0.683762  1
  Yb  Yb1  1  0.250000  0.035410  0.316238  1
  Th  Th2  1  0.250000  0.537542  0.190432  1
  Th  Th3  1  0.750000  0.462458  0.809568  1
  Zn  Zn4  1  0.250000  0.657256  0.558251  1
  Zn  Zn5  1  0.750000  0.342744  0.441749  1
  Zn  Zn6  1  0.750000  0.876419  0.060798  1
  Zn  Zn7  1  0.250000  0.123581  0.939202  1
  Ni  Ni8  1  0.250000  0.750231  0.877284  1
  Ni  Ni9  1  0.750000  0.249769  0.122716  1
  Ni  Ni10  1  0.750000  0.730184  0.366217  1
  Ni  Ni11  1  0.250000  0.269816  0.633783  1
