# generated using pymatgen
data_Ho4Mg3InIr4
_symmetry_space_group_name_H-M   'P 1'
_cell_length_a   4.11045900
_cell_length_b   7.06949494
_cell_length_c   8.57119094
_cell_angle_alpha   89.77131495
_cell_angle_beta   90.00000000
_cell_angle_gamma   90.00000000
_symmetry_Int_Tables_number   1
_chemical_formula_structural   Ho4Mg3InIr4
_chemical_formula_sum   'Ho4 Mg3 In1 Ir4'
_cell_volume   249.06713155
_cell_formula_units_Z   1
loop_
 _symmetry_equiv_pos_site_id
 _symmetry_equiv_pos_as_xyz
  1  'x, y, z'
loop_
 _atom_site_type_symbol
 _atom_site_label
 _atom_site_symmetry_multiplicity
 _atom_site_fract_x
 _atom_site_fract_y
 _atom_site_fract_z
 _atom_site_occupancy
  Ho  Ho0  1  0.250000  0.538848  0.173278  1
  Ho  Ho1  1  0.750000  0.458135  0.826025  1
  Ho  Ho2  1  0.250000  0.041045  0.325705  1
  Ho  Ho3  1  0.750000  0.961179  0.675776  1
  Mg  Mg4  1  0.250000  0.134725  0.939117  1
  Mg  Mg5  1  0.750000  0.864345  0.059709  1
  Mg  Mg6  1  0.250000  0.636938  0.559649  1
  In  In7  1  0.750000  0.365377  0.438270  1
  Ir  Ir8  1  0.750000  0.754776  0.371040  1
  Ir  Ir9  1  0.250000  0.250773  0.632707  1
  Ir  Ir10  1  0.750000  0.246949  0.128115  1
  Ir  Ir11  1  0.250000  0.746910  0.870611  1
