# generated using pymatgen
data_Zr3ScCo16(NiP3)4
_symmetry_space_group_name_H-M   'P 1'
_cell_length_a   3.60835100
_cell_length_b   10.11997989
_cell_length_c   11.69097448
_cell_angle_alpha   90.09646500
_cell_angle_beta   90.00000000
_cell_angle_gamma   90.00000000
_symmetry_Int_Tables_number   1
_chemical_formula_structural   Zr3ScCo16(NiP3)4
_chemical_formula_sum   'Zr3 Sc1 Co16 Ni4 P12'
_cell_volume   426.91215775
_cell_formula_units_Z   1
loop_
 _symmetry_equiv_pos_site_id
 _symmetry_equiv_pos_as_xyz
  1  'x, y, z'
loop_
 _atom_site_type_symbol
 _atom_site_label
 _atom_site_symmetry_multiplicity
 _atom_site_fract_x
 _atom_site_fract_y
 _atom_site_fract_z
 _atom_site_occupancy
  Zr  Zr0  1  0.250000  0.579321  0.701680  1
  Zr  Zr1  1  0.250000  0.921511  0.202163  1
  Zr  Zr2  1  0.750000  0.420515  0.297969  1
  Sc  Sc3  1  0.750000  0.079475  0.798259  1
  Co  Co4  1  0.250000  0.409834  0.483729  1
  Co  Co5  1  0.250000  0.090970  0.984113  1
  Co  Co6  1  0.750000  0.590775  0.515973  1
  Co  Co7  1  0.750000  0.908208  0.016729  1
  Co  Co8  1  0.250000  0.223735  0.178132  1
  Co  Co9  1  0.250000  0.276879  0.677112  1
  Co  Co10  1  0.750000  0.776022  0.822754  1
  Co  Co11  1  0.750000  0.724342  0.322000  1
  Co  Co12  1  0.250000  0.880873  0.700344  1
  Co  Co13  1  0.250000  0.618184  0.200323  1
  Co  Co14  1  0.750000  0.118512  0.299582  1
  Co  Co15  1  0.750000  0.381508  0.799188  1
  Co  Co16  1  0.250000  0.465692  0.930921  1
  Co  Co17  1  0.250000  0.033956  0.431956  1
  Co  Co18  1  0.750000  0.533035  0.068674  1
  Co  Co19  1  0.750000  0.966510  0.569255  1
  Ni  Ni20  1  0.250000  0.716696  0.992260  1
  Ni  Ni21  1  0.250000  0.783947  0.492591  1
  Ni  Ni22  1  0.750000  0.283542  0.006616  1
  Ni  Ni23  1  0.750000  0.216371  0.507885  1
  P  P24  1  0.250000  0.420481  0.114897  1
  P  P25  1  0.250000  0.078692  0.616772  1
  P  P26  1  0.750000  0.578779  0.884698  1
  P  P27  1  0.750000  0.921598  0.385328  1
  P  P28  1  0.250000  0.264375  0.866261  1
  P  P29  1  0.250000  0.233802  0.367692  1
  P  P30  1  0.750000  0.733633  0.132439  1
  P  P31  1  0.750000  0.766320  0.632897  1
  P  P32  1  0.250000  0.601256  0.389732  1
  P  P33  1  0.250000  0.900479  0.889342  1
  P  P34  1  0.750000  0.399091  0.610040  1
  P  P35  1  0.750000  0.101078  0.109694  1
