# generated using pymatgen
data_Rb6PbS4
_symmetry_space_group_name_H-M   'P 1'
_cell_length_a   10.85914700
_cell_length_b   10.85914797
_cell_length_c   8.11793400
_cell_angle_alpha   90.00000000
_cell_angle_beta   90.00000000
_cell_angle_gamma   120.00000008
_symmetry_Int_Tables_number   1
_chemical_formula_structural   Rb6PbS4
_chemical_formula_sum   'Rb12 Pb2 S8'
_cell_volume   829.02496844
_cell_formula_units_Z   2
loop_
 _symmetry_equiv_pos_site_id
 _symmetry_equiv_pos_as_xyz
  1  'x, y, z'
loop_
 _atom_site_type_symbol
 _atom_site_label
 _atom_site_symmetry_multiplicity
 _atom_site_fract_x
 _atom_site_fract_y
 _atom_site_fract_z
 _atom_site_occupancy
  Rb  Rb0  1  0.145857  0.291713  0.206542  1
  Rb  Rb1  1  0.145857  0.854143  0.206542  1
  Rb  Rb2  1  0.708287  0.854143  0.206542  1
  Rb  Rb3  1  0.854143  0.708287  0.706542  1
  Rb  Rb4  1  0.854143  0.145857  0.706542  1
  Rb  Rb5  1  0.291713  0.145857  0.706542  1
  Rb  Rb6  1  0.531873  0.063745  0.377863  1
  Rb  Rb7  1  0.531873  0.468127  0.377863  1
  Rb  Rb8  1  0.936255  0.468127  0.377863  1
  Rb  Rb9  1  0.468127  0.936255  0.877863  1
  Rb  Rb10  1  0.468127  0.531873  0.877863  1
  Rb  Rb11  1  0.063745  0.531873  0.877863  1
  Pb  Pb12  1  0.333333  0.666667  0.498683  1
  Pb  Pb13  1  0.666667  0.333333  0.998683  1
  S  S14  1  0.333333  0.666667  0.149469  1
  S  S15  1  0.666667  0.333333  0.649469  1
  S  S16  1  0.812833  0.625667  0.106184  1
  S  S17  1  0.812833  0.187167  0.106184  1
  S  S18  1  0.374333  0.187167  0.106184  1
  S  S19  1  0.187167  0.374333  0.606184  1
  S  S20  1  0.187167  0.812833  0.606184  1
  S  S21  1  0.625667  0.812833  0.606184  1
