# generated using pymatgen
data_Tb3Nd5(Si3Pt)4
_symmetry_space_group_name_H-M   'P 1'
_cell_length_a   8.20017600
_cell_length_b   8.20017660
_cell_length_c   8.42566600
_cell_angle_alpha   90.00000000
_cell_angle_beta   90.00000000
_cell_angle_gamma   119.99998952
_symmetry_Int_Tables_number   1
_chemical_formula_structural   Tb3Nd5(Si3Pt)4
_chemical_formula_sum   'Tb3 Nd5 Si12 Pt4'
_cell_volume   490.66072485
_cell_formula_units_Z   1
loop_
 _symmetry_equiv_pos_site_id
 _symmetry_equiv_pos_as_xyz
  1  'x, y, z'
loop_
 _atom_site_type_symbol
 _atom_site_label
 _atom_site_symmetry_multiplicity
 _atom_site_fract_x
 _atom_site_fract_y
 _atom_site_fract_z
 _atom_site_occupancy
  Tb  Tb0  1  0.499715  0.500285  0.750000  1
  Tb  Tb1  1  0.499715  0.999427  0.750000  1
  Tb  Tb2  1  0.000573  0.500285  0.750000  1
  Nd  Nd3  1  0.000000  0.000000  0.250000  1
  Nd  Nd4  1  0.000000  0.000000  0.750000  1
  Nd  Nd5  1  0.500177  0.499823  0.250000  1
  Nd  Nd6  1  0.500177  0.000355  0.250000  1
  Nd  Nd7  1  0.999645  0.499823  0.250000  1
  Si  Si8  1  0.166075  0.833925  0.502200  1
  Si  Si9  1  0.166075  0.332152  0.502200  1
  Si  Si10  1  0.667848  0.833925  0.502200  1
  Si  Si11  1  0.833921  0.166079  0.503570  1
  Si  Si12  1  0.833921  0.667842  0.503570  1
  Si  Si13  1  0.332158  0.166079  0.503570  1
  Si  Si14  1  0.833921  0.166079  0.996430  1
  Si  Si15  1  0.833921  0.667842  0.996430  1
  Si  Si16  1  0.332158  0.166079  0.996430  1
  Si  Si17  1  0.166075  0.833925  0.997800  1
  Si  Si18  1  0.166075  0.332152  0.997800  1
  Si  Si19  1  0.667848  0.833925  0.997800  1
  Pt  Pt20  1  0.333333  0.666667  0.512022  1
  Pt  Pt21  1  0.666667  0.333333  0.512891  1
  Pt  Pt22  1  0.666667  0.333333  0.987109  1
  Pt  Pt23  1  0.333333  0.666667  0.987978  1
