# generated using pymatgen
data_Tb3Mn(Co4P3)2
_symmetry_space_group_name_H-M   'P 1'
_cell_length_a   3.69085900
_cell_length_b   10.52573600
_cell_length_c   12.18683100
_cell_angle_alpha   90.00000000
_cell_angle_beta   90.00000000
_cell_angle_gamma   90.00000000
_symmetry_Int_Tables_number   1
_chemical_formula_structural   Tb3Mn(Co4P3)2
_chemical_formula_sum   'Tb6 Mn2 Co16 P12'
_cell_volume   473.44628828
_cell_formula_units_Z   2
loop_
 _symmetry_equiv_pos_site_id
 _symmetry_equiv_pos_as_xyz
  1  'x, y, z'
loop_
 _atom_site_type_symbol
 _atom_site_label
 _atom_site_symmetry_multiplicity
 _atom_site_fract_x
 _atom_site_fract_y
 _atom_site_fract_z
 _atom_site_occupancy
  Tb  Tb0  1  0.000000  0.500000  0.521821  1
  Tb  Tb1  1  0.500000  0.000000  0.478179  1
  Tb  Tb2  1  0.500000  0.817110  0.205205  1
  Tb  Tb3  1  0.500000  0.182890  0.205205  1
  Tb  Tb4  1  0.000000  0.682890  0.794795  1
  Tb  Tb5  1  0.000000  0.317110  0.794795  1
  Mn  Mn6  1  0.500000  0.500000  0.156345  1
  Mn  Mn7  1  0.000000  0.000000  0.843655  1
  Co  Co8  1  0.500000  0.500000  0.703271  1
  Co  Co9  1  0.000000  0.000000  0.296729  1
  Co  Co10  1  0.000000  0.500000  0.987545  1
  Co  Co11  1  0.500000  0.000000  0.012455  1
  Co  Co12  1  0.500000  0.332775  0.992774  1
  Co  Co13  1  0.500000  0.667225  0.992774  1
  Co  Co14  1  0.000000  0.167225  0.007226  1
  Co  Co15  1  0.000000  0.832775  0.007226  1
  Co  Co16  1  0.500000  0.296719  0.430201  1
  Co  Co17  1  0.500000  0.703281  0.430201  1
  Co  Co18  1  0.000000  0.203281  0.569799  1
  Co  Co19  1  0.000000  0.796719  0.569799  1
  Co  Co20  1  0.500000  0.880228  0.709683  1
  Co  Co21  1  0.500000  0.119772  0.709683  1
  Co  Co22  1  0.000000  0.619772  0.290317  1
  Co  Co23  1  0.000000  0.380228  0.290317  1
  P  P24  1  0.500000  0.500000  0.882847  1
  P  P25  1  0.000000  0.000000  0.117153  1
  P  P26  1  0.500000  0.500000  0.342184  1
  P  P27  1  0.000000  0.000000  0.657816  1
  P  P28  1  0.500000  0.310995  0.615877  1
  P  P29  1  0.500000  0.689005  0.615877  1
  P  P30  1  0.000000  0.189005  0.384123  1
  P  P31  1  0.000000  0.810995  0.384123  1
  P  P32  1  0.500000  0.849150  0.892295  1
  P  P33  1  0.500000  0.150850  0.892295  1
  P  P34  1  0.000000  0.650850  0.107705  1
  P  P35  1  0.000000  0.349150  0.107705  1
