# generated using pymatgen
data_Er8CoNiB28
_symmetry_space_group_name_H-M   'P 1'
_cell_length_a   7.18707700
_cell_length_b   7.18707700
_cell_length_c   7.44745700
_cell_angle_alpha   90.00000000
_cell_angle_beta   90.00000000
_cell_angle_gamma   90.00000000
_symmetry_Int_Tables_number   1
_chemical_formula_structural   Er8CoNiB28
_chemical_formula_sum   'Er8 Co1 Ni1 B28'
_cell_volume   384.69150842
_cell_formula_units_Z   1
loop_
 _symmetry_equiv_pos_site_id
 _symmetry_equiv_pos_as_xyz
  1  'x, y, z'
loop_
 _atom_site_type_symbol
 _atom_site_label
 _atom_site_symmetry_multiplicity
 _atom_site_fract_x
 _atom_site_fract_y
 _atom_site_fract_z
 _atom_site_occupancy
  Er  Er0  1  0.193563  0.332277  0.000000  1
  Er  Er1  1  0.667723  0.193563  0.000000  1
  Er  Er2  1  0.332277  0.806437  0.000000  1
  Er  Er3  1  0.693586  0.169476  0.500000  1
  Er  Er4  1  0.306414  0.830524  0.500000  1
  Er  Er5  1  0.806437  0.667723  0.000000  1
  Er  Er6  1  0.830524  0.693586  0.500000  1
  Er  Er7  1  0.169476  0.306414  0.500000  1
  Co  Co8  1  0.500000  0.500000  0.500000  1
  Ni  Ni9  1  0.000000  0.000000  0.000000  1
  B  B10  1  0.175299  0.039150  0.232258  1
  B  B11  1  0.960850  0.175299  0.232258  1
  B  B12  1  0.039150  0.824701  0.232258  1
  B  B13  1  0.674444  0.461220  0.269543  1
  B  B14  1  0.325556  0.538780  0.269543  1
  B  B15  1  0.824701  0.960850  0.232258  1
  B  B16  1  0.538780  0.674444  0.269543  1
  B  B17  1  0.461220  0.325556  0.269543  1
  B  B18  1  0.824701  0.960850  0.767742  1
  B  B19  1  0.039150  0.824701  0.767742  1
  B  B20  1  0.960850  0.175299  0.767742  1
  B  B21  1  0.325556  0.538780  0.730457  1
  B  B22  1  0.674444  0.461220  0.730457  1
  B  B23  1  0.175299  0.039150  0.767742  1
  B  B24  1  0.461220  0.325556  0.730457  1
  B  B25  1  0.538780  0.674444  0.730457  1
  B  B26  1  0.088374  0.588448  0.249409  1
  B  B27  1  0.411552  0.088374  0.249409  1
  B  B28  1  0.588448  0.911626  0.249409  1
  B  B29  1  0.911626  0.411552  0.249409  1
  B  B30  1  0.911626  0.411552  0.750591  1
  B  B31  1  0.588448  0.911626  0.750591  1
  B  B32  1  0.411552  0.088374  0.750591  1
  B  B33  1  0.088374  0.588448  0.750591  1
  B  B34  1  0.000000  0.000000  0.388555  1
  B  B35  1  0.500000  0.500000  0.111700  1
  B  B36  1  0.000000  0.000000  0.611445  1
  B  B37  1  0.500000  0.500000  0.888300  1
