# generated using pymatgen
data_PuTh7(Si3Os)4
_symmetry_space_group_name_H-M   'P 1'
_cell_length_a   8.29337100
_cell_length_b   8.29337128
_cell_length_c   8.34398900
_cell_angle_alpha   90.00000000
_cell_angle_beta   90.00000000
_cell_angle_gamma   120.00000288
_symmetry_Int_Tables_number   1
_chemical_formula_structural   PuTh7(Si3Os)4
_chemical_formula_sum   'Pu1 Th7 Si12 Os4'
_cell_volume   497.01162167
_cell_formula_units_Z   1
loop_
 _symmetry_equiv_pos_site_id
 _symmetry_equiv_pos_as_xyz
  1  'x, y, z'
loop_
 _atom_site_type_symbol
 _atom_site_label
 _atom_site_symmetry_multiplicity
 _atom_site_fract_x
 _atom_site_fract_y
 _atom_site_fract_z
 _atom_site_occupancy
  Pu  Pu0  1  0.000000  0.000000  0.250000  1
  Th  Th1  1  0.499987  0.500013  0.750000  1
  Th  Th2  1  0.500187  0.499813  0.250000  1
  Th  Th3  1  0.000026  0.500013  0.750000  1
  Th  Th4  1  0.999624  0.499813  0.250000  1
  Th  Th5  1  0.499987  0.999974  0.750000  1
  Th  Th6  1  0.500187  0.000376  0.250000  1
  Th  Th7  1  0.000000  0.000000  0.750000  1
  Si  Si8  1  0.834914  0.165086  0.003393  1
  Si  Si9  1  0.165062  0.834938  0.003506  1
  Si  Si10  1  0.330173  0.165086  0.003393  1
  Si  Si11  1  0.165062  0.834938  0.496494  1
  Si  Si12  1  0.669874  0.834938  0.003506  1
  Si  Si13  1  0.834914  0.165086  0.496607  1
  Si  Si14  1  0.834914  0.669827  0.003393  1
  Si  Si15  1  0.669874  0.834938  0.496494  1
  Si  Si16  1  0.165062  0.330126  0.003506  1
  Si  Si17  1  0.330173  0.165086  0.496607  1
  Si  Si18  1  0.165062  0.330126  0.496494  1
  Si  Si19  1  0.834914  0.669827  0.496607  1
  Os  Os20  1  0.666667  0.333333  0.997871  1
  Os  Os21  1  0.333333  0.666667  0.998307  1
  Os  Os22  1  0.333333  0.666667  0.501693  1
  Os  Os23  1  0.666667  0.333333  0.502129  1
