# generated using pymatgen
data_Hf3ZrV4SiP3
_symmetry_space_group_name_H-M   'P 1'
_cell_length_a   3.48409400
_cell_length_b   6.65331530
_cell_length_c   7.94185516
_cell_angle_alpha   89.94043008
_cell_angle_beta   90.00000000
_cell_angle_gamma   90.00000000
_symmetry_Int_Tables_number   1
_chemical_formula_structural   Hf3ZrV4SiP3
_chemical_formula_sum   'Hf3 Zr1 V4 Si1 P3'
_cell_volume   184.09826519
_cell_formula_units_Z   1
loop_
 _symmetry_equiv_pos_site_id
 _symmetry_equiv_pos_as_xyz
  1  'x, y, z'
loop_
 _atom_site_type_symbol
 _atom_site_label
 _atom_site_symmetry_multiplicity
 _atom_site_fract_x
 _atom_site_fract_y
 _atom_site_fract_z
 _atom_site_occupancy
  Hf  Hf0  1  0.250000  0.539779  0.669444  1
  Hf  Hf1  1  0.750000  0.961898  0.166305  1
  Hf  Hf2  1  0.750000  0.455440  0.331692  1
  Zr  Zr3  1  0.250000  0.038670  0.830278  1
  V  V4  1  0.250000  0.133187  0.441973  1
  V  V5  1  0.250000  0.627474  0.055669  1
  V  V6  1  0.750000  0.872947  0.561547  1
  V  V7  1  0.750000  0.370456  0.942031  1
  Si  Si8  1  0.250000  0.761185  0.363985  1
  P  P9  1  0.250000  0.261701  0.137635  1
  P  P10  1  0.750000  0.241595  0.636192  1
  P  P11  1  0.750000  0.735667  0.863248  1
