# generated using pymatgen
data_Tb3Dy5CdNi2Hg
_symmetry_space_group_name_H-M   'P 1'
_cell_length_a   9.53763167
_cell_length_b   9.53763048
_cell_length_c   9.54291100
_cell_angle_alpha   59.98168716
_cell_angle_beta   59.98169127
_cell_angle_gamma   59.99587337
_symmetry_Int_Tables_number   1
_chemical_formula_structural   Tb3Dy5CdNi2Hg
_chemical_formula_sum   'Tb6 Dy10 Cd2 Ni4 Hg2'
_cell_volume   613.63923811
_cell_formula_units_Z   2
loop_
 _symmetry_equiv_pos_site_id
 _symmetry_equiv_pos_as_xyz
  1  'x, y, z'
loop_
 _atom_site_type_symbol
 _atom_site_label
 _atom_site_symmetry_multiplicity
 _atom_site_fract_x
 _atom_site_fract_y
 _atom_site_fract_z
 _atom_site_occupancy
  Tb  Tb0  1  0.935913  0.562746  0.563201  1
  Tb  Tb1  1  0.562746  0.935913  0.938141  1
  Tb  Tb2  1  0.562746  0.935913  0.563201  1
  Tb  Tb3  1  0.935913  0.562746  0.938141  1
  Tb  Tb4  1  0.562378  0.562378  0.937622  1
  Tb  Tb5  1  0.936384  0.936384  0.563616  1
  Dy  Dy6  1  0.348942  0.348942  0.348506  1
  Dy  Dy7  1  0.348942  0.348942  0.953611  1
  Dy  Dy8  1  0.349643  0.952034  0.349162  1
  Dy  Dy9  1  0.952034  0.349643  0.349162  1
  Dy  Dy10  1  0.810883  0.188639  0.189435  1
  Dy  Dy11  1  0.188639  0.810883  0.811043  1
  Dy  Dy12  1  0.188639  0.810883  0.189435  1
  Dy  Dy13  1  0.810883  0.188639  0.811043  1
  Dy  Dy14  1  0.188370  0.188370  0.811630  1
  Dy  Dy15  1  0.810150  0.810150  0.189850  1
  Cd  Cd16  1  0.580315  0.258259  0.580713  1
  Cd  Cd17  1  0.258259  0.580315  0.580713  1
  Ni  Ni18  1  0.142896  0.142896  0.142997  1
  Ni  Ni19  1  0.142896  0.142896  0.571211  1
  Ni  Ni20  1  0.142697  0.571677  0.142813  1
  Ni  Ni21  1  0.571677  0.142697  0.142813  1
  Hg  Hg22  1  0.584028  0.584028  0.585775  1
  Hg  Hg23  1  0.584028  0.584028  0.246169  1
