# generated using pymatgen
data_Lu12Re3Si12Tc
_symmetry_space_group_name_H-M   'P 1'
_cell_length_a   4.12691000
_cell_length_b   10.64831720
_cell_length_c   12.12732100
_cell_angle_alpha   90.16878316
_cell_angle_beta   90.00000000
_cell_angle_gamma   90.00000000
_symmetry_Int_Tables_number   1
_chemical_formula_structural   Lu12Re3Si12Tc
_chemical_formula_sum   'Lu12 Re3 Si12 Tc1'
_cell_volume   532.92852496
_cell_formula_units_Z   1
loop_
 _symmetry_equiv_pos_site_id
 _symmetry_equiv_pos_as_xyz
  1  'x, y, z'
loop_
 _atom_site_type_symbol
 _atom_site_label
 _atom_site_symmetry_multiplicity
 _atom_site_fract_x
 _atom_site_fract_y
 _atom_site_fract_z
 _atom_site_occupancy
  Lu  Lu0  1  0.250000  0.878237  0.020331  1
  Lu  Lu1  1  0.250000  0.622885  0.520296  1
  Lu  Lu2  1  0.750000  0.121808  0.980811  1
  Lu  Lu3  1  0.750000  0.378878  0.480416  1
  Lu  Lu4  1  0.250000  0.921968  0.604767  1
  Lu  Lu5  1  0.250000  0.577850  0.104887  1
  Lu  Lu6  1  0.750000  0.077931  0.394722  1
  Lu  Lu7  1  0.750000  0.421589  0.893807  1
  Lu  Lu8  1  0.250000  0.662772  0.799090  1
  Lu  Lu9  1  0.250000  0.837328  0.298992  1
  Lu  Lu10  1  0.750000  0.337903  0.200888  1
  Lu  Lu11  1  0.750000  0.158790  0.700596  1
  Re  Re12  1  0.250000  0.390337  0.680031  1
  Re  Re13  1  0.250000  0.110614  0.178718  1
  Re  Re14  1  0.750000  0.611831  0.320589  1
  Si  Si15  1  0.250000  0.013805  0.821869  1
  Si  Si16  1  0.250000  0.485627  0.321470  1
  Si  Si17  1  0.750000  0.984736  0.178811  1
  Si  Si18  1  0.750000  0.516152  0.678948  1
  Si  Si19  1  0.250000  0.248740  0.843151  1
  Si  Si20  1  0.250000  0.249456  0.343943  1
  Si  Si21  1  0.750000  0.749597  0.155353  1
  Si  Si22  1  0.750000  0.751169  0.656690  1
  Si  Si23  1  0.250000  0.198463  0.543978  1
  Si  Si24  1  0.250000  0.301953  0.043239  1
  Si  Si25  1  0.750000  0.802971  0.456490  1
  Si  Si26  1  0.750000  0.697670  0.956055  1
  Tc  Tc27  1  0.750000  0.888941  0.821061  1
