# generated using pymatgen
data_Ho5Tm4ZrIr6
_symmetry_space_group_name_H-M   'P 1'
_cell_length_a   10.79547813
_cell_length_b   10.77727500
_cell_length_c   6.27370508
_cell_angle_alpha   90.00000000
_cell_angle_beta   90.01795074
_cell_angle_gamma   90.00000000
_symmetry_Int_Tables_number   1
_chemical_formula_structural   Ho5Tm4ZrIr6
_chemical_formula_sum   'Ho10 Tm8 Zr2 Ir12'
_cell_volume   729.91942988
_cell_formula_units_Z   2
loop_
 _symmetry_equiv_pos_site_id
 _symmetry_equiv_pos_as_xyz
  1  'x, y, z'
loop_
 _atom_site_type_symbol
 _atom_site_label
 _atom_site_symmetry_multiplicity
 _atom_site_fract_x
 _atom_site_fract_y
 _atom_site_fract_z
 _atom_site_occupancy
  Ho  Ho0  1  0.288888  0.086663  0.374354  1
  Ho  Ho1  1  0.288888  0.913337  0.874354  1
  Ho  Ho2  1  0.711137  0.086717  0.874405  1
  Ho  Ho3  1  0.711137  0.913283  0.374405  1
  Ho  Ho4  1  0.588048  0.792050  0.874893  1
  Ho  Ho5  1  0.588048  0.207950  0.374893  1
  Ho  Ho6  1  0.412251  0.792339  0.374918  1
  Ho  Ho7  1  0.412251  0.207661  0.874918  1
  Ho  Ho8  1  0.207146  0.412539  0.625001  1
  Ho  Ho9  1  0.207146  0.587461  0.125001  1
  Tm  Tm10  1  0.793219  0.412849  0.124487  1
  Tm  Tm11  1  0.793219  0.587151  0.624487  1
  Tm  Tm12  1  0.913864  0.709913  0.124778  1
  Tm  Tm13  1  0.913864  0.290087  0.624778  1
  Tm  Tm14  1  0.085462  0.710084  0.624763  1
  Tm  Tm15  1  0.085462  0.289916  0.124763  1
  Tm  Tm16  1  0.500479  0.499910  0.000502  1
  Tm  Tm17  1  0.500479  0.500090  0.500502  1
  Zr  Zr18  1  0.999868  0.000067  0.500757  1
  Zr  Zr19  1  0.999868  0.999933  0.000757  1
  Ir  Ir20  1  0.855512  0.146467  0.250384  1
  Ir  Ir21  1  0.855512  0.853533  0.750384  1
  Ir  Ir22  1  0.144394  0.145930  0.750714  1
  Ir  Ir23  1  0.144394  0.854070  0.250714  1
  Ir  Ir24  1  0.655112  0.346925  0.750484  1
  Ir  Ir25  1  0.655112  0.653075  0.250484  1
  Ir  Ir26  1  0.345605  0.346178  0.249527  1
  Ir  Ir27  1  0.345605  0.653822  0.749527  1
  Ir  Ir28  1  0.500036  0.000081  0.122621  1
  Ir  Ir29  1  0.500036  0.999919  0.622621  1
  Ir  Ir30  1  0.998979  0.500010  0.877412  1
  Ir  Ir31  1  0.998979  0.499990  0.377412  1
