# generated using pymatgen
data_Ba2LaNd(Ga3O7)2
_symmetry_space_group_name_H-M   'P 1'
_cell_length_a   8.22837675
_cell_length_b   8.22837756
_cell_length_c   5.46763645
_cell_angle_alpha   90.07570560
_cell_angle_beta   90.07570423
_cell_angle_gamma   91.44684677
_symmetry_Int_Tables_number   1
_chemical_formula_structural   Ba2LaNd(Ga3O7)2
_chemical_formula_sum   'Ba2 La1 Nd1 Ga6 O14'
_cell_volume   370.07414733
_cell_formula_units_Z   1
loop_
 _symmetry_equiv_pos_site_id
 _symmetry_equiv_pos_as_xyz
  1  'x, y, z'
loop_
 _atom_site_type_symbol
 _atom_site_label
 _atom_site_symmetry_multiplicity
 _atom_site_fract_x
 _atom_site_fract_y
 _atom_site_fract_z
 _atom_site_occupancy
  Ba  Ba0  1  0.162560  0.836758  0.495037  1
  Ba  Ba1  1  0.836758  0.162560  0.495037  1
  La  La2  1  0.338951  0.338951  0.514457  1
  Nd  Nd3  1  0.660587  0.660587  0.519004  1
  Ga  Ga4  1  0.363341  0.638696  0.032547  1
  Ga  Ga5  1  0.849102  0.849102  0.971001  1
  Ga  Ga6  1  0.638696  0.363341  0.032547  1
  Ga  Ga7  1  0.149331  0.149331  0.970148  1
  Ga  Ga8  1  0.500337  0.999053  0.991154  1
  Ga  Ga9  1  0.999053  0.500337  0.991154  1
  O  O10  1  0.999156  0.999156  0.849936  1
  O  O11  1  0.502707  0.502707  0.209635  1
  O  O12  1  0.379077  0.624938  0.698316  1
  O  O13  1  0.836779  0.836779  0.301316  1
  O  O14  1  0.624938  0.379077  0.698316  1
  O  O15  1  0.160843  0.160843  0.301182  1
  O  O16  1  0.422935  0.832818  0.190459  1
  O  O17  1  0.901712  0.658336  0.792446  1
  O  O18  1  0.578082  0.168231  0.186579  1
  O  O19  1  0.095251  0.340417  0.795123  1
  O  O20  1  0.340417  0.095251  0.795123  1
  O  O21  1  0.832818  0.422935  0.190459  1
  O  O22  1  0.658336  0.901712  0.792446  1
  O  O23  1  0.168231  0.578082  0.186579  1
