# generated using pymatgen
data_Er5Tm7Co4SnPt
_symmetry_space_group_name_H-M   'P 1'
_cell_length_a   8.19334033
_cell_length_b   8.19717492
_cell_length_c   8.19717503
_cell_angle_alpha   111.10246075
_cell_angle_beta   110.78941213
_cell_angle_gamma   106.57847454
_symmetry_Int_Tables_number   1
_chemical_formula_structural   Er5Tm7Co4SnPt
_chemical_formula_sum   'Er5 Tm7 Co4 Sn1 Pt1'
_cell_volume   422.89946857
_cell_formula_units_Z   1
loop_
 _symmetry_equiv_pos_site_id
 _symmetry_equiv_pos_as_xyz
  1  'x, y, z'
loop_
 _atom_site_type_symbol
 _atom_site_label
 _atom_site_symmetry_multiplicity
 _atom_site_fract_x
 _atom_site_fract_y
 _atom_site_fract_z
 _atom_site_occupancy
  Er  Er0  1  0.982797  0.782810  0.199988  1
  Er  Er1  1  0.185816  0.288532  0.474108  1
  Er  Er2  1  0.814261  0.711890  0.526309  1
  Er  Er3  1  0.185816  0.711708  0.897284  1
  Er  Er4  1  0.814261  0.287952  0.102371  1
  Tm  Tm5  1  0.314548  0.619636  0.305513  1
  Tm  Tm6  1  0.685338  0.379972  0.694101  1
  Tm  Tm7  1  0.314548  0.009035  0.694913  1
  Tm  Tm8  1  0.685338  0.991236  0.305366  1
  Tm  Tm9  1  0.416994  0.217289  0.199706  1
  Tm  Tm10  1  0.582680  0.782822  0.799857  1
  Tm  Tm11  1  0.017282  0.217212  0.800070  1
  Co  Co12  1  0.112676  0.612371  0.500305  1
  Co  Co13  1  0.887420  0.387556  0.499864  1
  Co  Co14  1  0.377012  0.000206  0.376806  1
  Co  Co15  1  0.623246  0.999884  0.623361  1
  Sn  Sn16  1  0.499961  0.500019  0.999942  1
  Pt  Pt17  1  0.000009  0.999873  0.000136  1
