# generated using pymatgen
data_Dy2Y8FeHg3
_symmetry_space_group_name_H-M   'P 1'
_cell_length_a   9.61116211
_cell_length_b   9.61116276
_cell_length_c   9.64602748
_cell_angle_alpha   90.05496619
_cell_angle_beta   89.94503472
_cell_angle_gamma   119.99780367
_symmetry_Int_Tables_number   1
_chemical_formula_structural   Dy2Y8FeHg3
_chemical_formula_sum   'Dy4 Y16 Fe2 Hg6'
_cell_volume   771.68543863
_cell_formula_units_Z   2
loop_
 _symmetry_equiv_pos_site_id
 _symmetry_equiv_pos_as_xyz
  1  'x, y, z'
loop_
 _atom_site_type_symbol
 _atom_site_label
 _atom_site_symmetry_multiplicity
 _atom_site_fract_x
 _atom_site_fract_y
 _atom_site_fract_z
 _atom_site_occupancy
  Dy  Dy0  1  0.212302  0.787698  0.435445  1
  Dy  Dy1  1  0.212168  0.424582  0.435515  1
  Dy  Dy2  1  0.575418  0.787832  0.435515  1
  Dy  Dy3  1  0.787805  0.212195  0.564538  1
  Y  Y4  1  0.999865  0.000135  0.499851  1
  Y  Y5  1  0.999995  0.000005  0.000028  1
  Y  Y6  1  0.541693  0.458307  0.250207  1
  Y  Y7  1  0.541780  0.083485  0.250318  1
  Y  Y8  1  0.916515  0.458220  0.250318  1
  Y  Y9  1  0.458087  0.541913  0.749741  1
  Y  Y10  1  0.458251  0.916355  0.749652  1
  Y  Y11  1  0.083645  0.541749  0.749652  1
  Y  Y12  1  0.788291  0.576470  0.563901  1
  Y  Y13  1  0.423530  0.211709  0.563901  1
  Y  Y14  1  0.788275  0.211725  0.935846  1
  Y  Y15  1  0.788152  0.576325  0.935933  1
  Y  Y16  1  0.423675  0.211848  0.935933  1
  Y  Y17  1  0.211820  0.788180  0.064215  1
  Y  Y18  1  0.211785  0.423631  0.064199  1
  Y  Y19  1  0.576369  0.788215  0.064199  1
  Fe  Fe20  1  0.333362  0.666638  0.251857  1
  Fe  Fe21  1  0.667151  0.332849  0.749192  1
  Hg  Hg22  1  0.881843  0.118157  0.249919  1
  Hg  Hg23  1  0.881825  0.763604  0.249941  1
  Hg  Hg24  1  0.236396  0.118175  0.249941  1
  Hg  Hg25  1  0.118162  0.881838  0.750025  1
  Hg  Hg26  1  0.118163  0.236324  0.750109  1
  Hg  Hg27  1  0.763676  0.881837  0.750109  1
