# generated using pymatgen
data_Tm13Th3(CdCo)4
_symmetry_space_group_name_H-M   'P 1'
_cell_length_a   9.44440126
_cell_length_b   9.45401107
_cell_length_c   9.45401000
_cell_angle_alpha   59.99999676
_cell_angle_beta   59.96633192
_cell_angle_gamma   59.96633970
_symmetry_Int_Tables_number   1
_chemical_formula_structural   Tm13Th3(CdCo)4
_chemical_formula_sum   'Tm13 Th3 Cd4 Co4'
_cell_volume   596.58236926
_cell_formula_units_Z   1
loop_
 _symmetry_equiv_pos_site_id
 _symmetry_equiv_pos_as_xyz
  1  'x, y, z'
loop_
 _atom_site_type_symbol
 _atom_site_label
 _atom_site_symmetry_multiplicity
 _atom_site_fract_x
 _atom_site_fract_y
 _atom_site_fract_z
 _atom_site_occupancy
  Tm  Tm0  1  0.950983  0.349673  0.349673  1
  Tm  Tm1  1  0.813486  0.187521  0.187521  1
  Tm  Tm2  1  0.186783  0.813800  0.813800  1
  Tm  Tm3  1  0.186783  0.813800  0.185617  1
  Tm  Tm4  1  0.813486  0.187521  0.811473  1
  Tm  Tm5  1  0.186783  0.185617  0.813800  1
  Tm  Tm6  1  0.813486  0.811473  0.187521  1
  Tm  Tm7  1  0.936101  0.564246  0.564246  1
  Tm  Tm8  1  0.564737  0.935318  0.935318  1
  Tm  Tm9  1  0.564737  0.935318  0.564627  1
  Tm  Tm10  1  0.936101  0.564246  0.935407  1
  Tm  Tm11  1  0.564737  0.564627  0.935318  1
  Tm  Tm12  1  0.936101  0.935407  0.564246  1
  Th  Th13  1  0.342647  0.347321  0.347321  1
  Th  Th14  1  0.342647  0.347321  0.962711  1
  Th  Th15  1  0.342647  0.962711  0.347321  1
  Cd  Cd16  1  0.585303  0.581101  0.581101  1
  Cd  Cd17  1  0.585303  0.581101  0.252496  1
  Cd  Cd18  1  0.585303  0.252496  0.581101  1
  Cd  Cd19  1  0.251796  0.582735  0.582735  1
  Co  Co20  1  0.146927  0.140819  0.140819  1
  Co  Co21  1  0.146927  0.140819  0.571435  1
  Co  Co22  1  0.146927  0.571435  0.140819  1
  Co  Co23  1  0.569269  0.143578  0.143578  1
