# generated using pymatgen
data_Ce4Pu6Si5Ge3
_symmetry_space_group_name_H-M   'P 1'
_cell_length_a   7.78676666
_cell_length_b   7.59334088
_cell_length_c   7.82296700
_cell_angle_alpha   70.96017329
_cell_angle_beta   89.97640258
_cell_angle_gamma   89.93028520
_symmetry_Int_Tables_number   1
_chemical_formula_structural   Ce4Pu6Si5Ge3
_chemical_formula_sum   'Ce4 Pu6 Si5 Ge3'
_cell_volume   437.24740013
_cell_formula_units_Z   1
loop_
 _symmetry_equiv_pos_site_id
 _symmetry_equiv_pos_as_xyz
  1  'x, y, z'
loop_
 _atom_site_type_symbol
 _atom_site_label
 _atom_site_symmetry_multiplicity
 _atom_site_fract_x
 _atom_site_fract_y
 _atom_site_fract_z
 _atom_site_occupancy
  Ce  Ce0  1  0.675322  0.934071  0.693299  1
  Ce  Ce1  1  0.324556  0.069962  0.305844  1
  Ce  Ce2  1  0.177960  0.566809  0.304714  1
  Ce  Ce3  1  0.821873  0.431542  0.694388  1
  Pu  Pu4  1  0.688048  0.740193  0.243905  1
  Pu  Pu5  1  0.314624  0.257375  0.753997  1
  Pu  Pu6  1  0.188174  0.757603  0.755468  1
  Pu  Pu7  1  0.809800  0.243217  0.247078  1
  Pu  Pu8  1  0.000180  0.999761  0.000295  1
  Pu  Pu9  1  0.499328  0.498557  0.003294  1
  Si  Si10  1  0.530129  0.366083  0.430422  1
  Si  Si11  1  0.889216  0.616698  0.988721  1
  Si  Si12  1  0.110056  0.381736  0.009418  1
  Si  Si13  1  0.389453  0.882973  0.010367  1
  Si  Si14  1  0.611523  0.116708  0.990742  1
  Ge  Ge15  1  0.969499  0.859227  0.430061  1
  Ge  Ge16  1  0.030781  0.140735  0.570028  1
  Ge  Ge17  1  0.469475  0.636752  0.567959  1
