# generated using pymatgen
data_TbCoNi3P3W
_symmetry_space_group_name_H-M   'P 1'
_cell_length_a   3.70161200
_cell_length_b   10.54552500
_cell_length_c   12.11524000
_cell_angle_alpha   90.00000000
_cell_angle_beta   90.00000000
_cell_angle_gamma   90.00000000
_symmetry_Int_Tables_number   1
_chemical_formula_structural   TbCoNi3P3W
_chemical_formula_sum   'Tb4 Co4 Ni12 P12 W4'
_cell_volume   472.92374696
_cell_formula_units_Z   4
loop_
 _symmetry_equiv_pos_site_id
 _symmetry_equiv_pos_as_xyz
  1  'x, y, z'
loop_
 _atom_site_type_symbol
 _atom_site_label
 _atom_site_symmetry_multiplicity
 _atom_site_fract_x
 _atom_site_fract_y
 _atom_site_fract_z
 _atom_site_occupancy
  Tb  Tb0  1  0.250000  0.583656  0.706521  1
  Tb  Tb1  1  0.250000  0.916344  0.206521  1
  Tb  Tb2  1  0.750000  0.416344  0.293479  1
  Tb  Tb3  1  0.750000  0.083656  0.793479  1
  Co  Co4  1  0.250000  0.465976  0.934471  1
  Co  Co5  1  0.250000  0.034024  0.434471  1
  Co  Co6  1  0.750000  0.534024  0.065529  1
  Co  Co7  1  0.750000  0.965976  0.565529  1
  Ni  Ni8  1  0.250000  0.407951  0.488527  1
  Ni  Ni9  1  0.250000  0.092049  0.988527  1
  Ni  Ni10  1  0.750000  0.592049  0.511473  1
  Ni  Ni11  1  0.750000  0.907951  0.011473  1
  Ni  Ni12  1  0.250000  0.221725  0.176772  1
  Ni  Ni13  1  0.250000  0.278275  0.676772  1
  Ni  Ni14  1  0.750000  0.778275  0.823228  1
  Ni  Ni15  1  0.750000  0.721725  0.323228  1
  Ni  Ni16  1  0.250000  0.884740  0.702050  1
  Ni  Ni17  1  0.250000  0.615260  0.202050  1
  Ni  Ni18  1  0.750000  0.115260  0.297950  1
  Ni  Ni19  1  0.750000  0.384740  0.797950  1
  P  P20  1  0.250000  0.422013  0.114025  1
  P  P21  1  0.250000  0.077987  0.614025  1
  P  P22  1  0.750000  0.577987  0.885975  1
  P  P23  1  0.750000  0.922013  0.385975  1
  P  P24  1  0.250000  0.267816  0.867594  1
  P  P25  1  0.250000  0.232184  0.367594  1
  P  P26  1  0.750000  0.732184  0.132406  1
  P  P27  1  0.750000  0.767816  0.632406  1
  P  P28  1  0.250000  0.598168  0.390320  1
  P  P29  1  0.250000  0.901832  0.890320  1
  P  P30  1  0.750000  0.401832  0.609680  1
  P  P31  1  0.750000  0.098168  0.109680  1
  W  W32  1  0.250000  0.705939  0.989214  1
  W  W33  1  0.250000  0.794061  0.489214  1
  W  W34  1  0.750000  0.294061  0.010786  1
  W  W35  1  0.750000  0.205939  0.510786  1
