# generated using pymatgen
data_Nd2Hf2Ni10As7
_symmetry_space_group_name_H-M   'P 1'
_cell_length_a   9.75629723
_cell_length_b   9.54943624
_cell_length_c   3.92402100
_cell_angle_alpha   90.00000000
_cell_angle_beta   90.00000000
_cell_angle_gamma   120.38350201
_symmetry_Int_Tables_number   1
_chemical_formula_structural   Nd2Hf2Ni10As7
_chemical_formula_sum   'Nd2 Hf2 Ni10 As7'
_cell_volume   315.37946288
_cell_formula_units_Z   1
loop_
 _symmetry_equiv_pos_site_id
 _symmetry_equiv_pos_as_xyz
  1  'x, y, z'
loop_
 _atom_site_type_symbol
 _atom_site_label
 _atom_site_symmetry_multiplicity
 _atom_site_fract_x
 _atom_site_fract_y
 _atom_site_fract_z
 _atom_site_occupancy
  Nd  Nd0  1  0.343840  0.666895  0.000000  1
  Nd  Nd1  1  0.665508  0.339309  0.500001  1
  Hf  Hf2  1  0.215590  0.101555  0.500001  1
  Hf  Hf3  1  0.886843  0.105780  0.500001  1
  Ni  Ni4  1  0.422566  0.064331  0.000000  1
  Ni  Ni5  1  0.148332  0.280604  0.000000  1
  Ni  Ni6  1  0.938731  0.370218  0.000000  1
  Ni  Ni7  1  0.640999  0.577342  0.000000  1
  Ni  Ni8  1  0.131580  0.840612  0.000000  1
  Ni  Ni9  1  0.714772  0.874770  0.000000  1
  Ni  Ni10  1  0.383281  0.437383  0.500001  1
  Ni  Ni11  1  0.047743  0.618262  0.500001  1
  Ni  Ni12  1  0.881745  0.772372  0.500001  1
  Ni  Ni13  1  0.566719  0.942432  0.500001  1
  As  As14  1  0.992250  0.984101  0.000000  1
  As  As15  1  0.685698  0.108995  0.000000  1
  As  As16  1  0.413803  0.313365  0.000000  1
  As  As17  1  0.892262  0.595524  0.000000  1
  As  As18  1  0.119141  0.414575  0.500001  1
  As  As19  1  0.607594  0.709987  0.500001  1
  As  As20  1  0.301008  0.881587  0.500001  1
