# generated using pymatgen
data_CaY3(Si5Os3)2
_symmetry_space_group_name_H-M   'P 1'
_cell_length_a   8.13950120
_cell_length_b   8.15967037
_cell_length_c   5.79616361
_cell_angle_alpha   70.43801739
_cell_angle_beta   70.51738449
_cell_angle_gamma   93.97936477
_symmetry_Int_Tables_number   1
_chemical_formula_structural   CaY3(Si5Os3)2
_chemical_formula_sum   'Ca1 Y3 Si10 Os6'
_cell_volume   334.78771266
_cell_formula_units_Z   1
loop_
 _symmetry_equiv_pos_site_id
 _symmetry_equiv_pos_as_xyz
  1  'x, y, z'
loop_
 _atom_site_type_symbol
 _atom_site_label
 _atom_site_symmetry_multiplicity
 _atom_site_fract_x
 _atom_site_fract_y
 _atom_site_fract_z
 _atom_site_occupancy
  Ca  Ca0  1  0.601710  0.868654  0.255484  1
  Y  Y1  1  0.867867  0.602852  0.752404  1
  Y  Y2  1  0.398720  0.132065  0.746509  1
  Y  Y3  1  0.131593  0.396842  0.247463  1
  Si  Si4  1  0.066439  0.261660  0.834237  1
  Si  Si5  1  0.737385  0.933010  0.668616  1
  Si  Si6  1  0.932001  0.739171  0.164563  1
  Si  Si7  1  0.262380  0.067413  0.334064  1
  Si  Si8  1  0.206606  0.791929  0.751237  1
  Si  Si9  1  0.792033  0.206020  0.250185  1
  Si  Si10  1  0.512714  0.488141  0.747487  1
  Si  Si11  1  0.489946  0.513636  0.249101  1
  Si  Si12  1  0.773696  0.225009  0.751703  1
  Si  Si13  1  0.225035  0.773333  0.248585  1
  Os  Os14  1  0.255178  0.543096  0.629911  1
  Os  Os15  1  0.455698  0.741738  0.870980  1
  Os  Os16  1  0.745355  0.455825  0.369328  1
  Os  Os17  1  0.542469  0.257813  0.130583  1
  Os  Os18  1  0.003672  0.998867  0.748380  1
  Os  Os19  1  0.999503  0.002922  0.249179  1
