# generated using pymatgen
data_Ho2Lu2Al4NiRh3
_symmetry_space_group_name_H-M   'P 1'
_cell_length_a   4.17741700
_cell_length_b   6.76659535
_cell_length_c   7.86717642
_cell_angle_alpha   89.82932003
_cell_angle_beta   90.00000000
_cell_angle_gamma   90.00000000
_symmetry_Int_Tables_number   1
_chemical_formula_structural   Ho2Lu2Al4NiRh3
_chemical_formula_sum   'Ho2 Lu2 Al4 Ni1 Rh3'
_cell_volume   222.37962738
_cell_formula_units_Z   1
loop_
 _symmetry_equiv_pos_site_id
 _symmetry_equiv_pos_as_xyz
  1  'x, y, z'
loop_
 _atom_site_type_symbol
 _atom_site_label
 _atom_site_symmetry_multiplicity
 _atom_site_fract_x
 _atom_site_fract_y
 _atom_site_fract_z
 _atom_site_occupancy
  Ho  Ho0  1  0.750000  0.467427  0.823367  1
  Ho  Ho1  1  0.750000  0.963257  0.680161  1
  Lu  Lu2  1  0.250000  0.538794  0.177359  1
  Lu  Lu3  1  0.250000  0.035362  0.321496  1
  Al  Al4  1  0.250000  0.637637  0.562704  1
  Al  Al5  1  0.750000  0.363437  0.438548  1
  Al  Al6  1  0.750000  0.860297  0.056825  1
  Al  Al7  1  0.250000  0.131220  0.941123  1
  Ni  Ni8  1  0.250000  0.769115  0.877000  1
  Rh  Rh9  1  0.750000  0.235962  0.122463  1
  Rh  Rh10  1  0.750000  0.735985  0.377004  1
  Rh  Rh11  1  0.250000  0.261505  0.621951  1
