# generated using pymatgen
data_PrNd5(BCl3)2
_symmetry_space_group_name_H-M   'P 1'
_cell_length_a   9.86321497
_cell_length_b   9.86662980
_cell_length_c   9.86663320
_cell_angle_alpha   109.47199240
_cell_angle_beta   109.45782580
_cell_angle_gamma   109.49793098
_symmetry_Int_Tables_number   1
_chemical_formula_structural   PrNd5(BCl3)2
_chemical_formula_sum   'Pr2 Nd10 B4 Cl12'
_cell_volume   739.02453449
_cell_formula_units_Z   2
loop_
 _symmetry_equiv_pos_site_id
 _symmetry_equiv_pos_as_xyz
  1  'x, y, z'
loop_
 _atom_site_type_symbol
 _atom_site_label
 _atom_site_symmetry_multiplicity
 _atom_site_fract_x
 _atom_site_fract_y
 _atom_site_fract_z
 _atom_site_occupancy
  Pr  Pr0  1  0.262521  0.012557  0.025178  1
  Pr  Pr1  1  0.237477  0.262657  0.750035  1
  Nd  Nd2  1  0.473307  0.487037  0.237005  1
  Nd  Nd3  1  0.750075  0.236734  0.263424  1
  Nd  Nd4  1  0.749926  0.013350  0.486660  1
  Nd  Nd5  1  0.236583  0.473449  0.486599  1
  Nd  Nd6  1  0.263415  0.750015  0.236865  1
  Nd  Nd7  1  0.026693  0.263697  0.013730  1
  Nd  Nd8  1  0.013151  0.026816  0.263286  1
  Nd  Nd9  1  0.486849  0.750135  0.013665  1
  Nd  Nd10  1  0.486752  0.236787  0.473434  1
  Nd  Nd11  1  0.013248  0.486682  0.750035  1
  B  B12  1  0.250025  0.250925  0.250891  1
  B  B13  1  0.500832  0.999998  0.250890  1
  B  B14  1  0.999168  0.250057  0.499165  1
  B  B15  1  0.249975  0.500866  0.000900  1
  Cl  Cl16  1  0.250123  0.752750  0.744855  1
  Cl  Cl17  1  0.509253  0.505527  0.753885  1
  Cl  Cl18  1  0.990747  0.744632  0.996273  1
  Cl  Cl19  1  0.745988  0.249951  0.753933  1
  Cl  Cl20  1  0.993190  0.990798  0.744905  1
  Cl  Cl21  1  0.249878  0.994731  0.502629  1
  Cl  Cl22  1  0.754012  0.507945  0.503964  1
  Cl  Cl23  1  0.506811  0.251714  0.997606  1
  Cl  Cl24  1  0.753967  0.746101  0.250038  1
  Cl  Cl25  1  0.746033  0.996071  0.992133  1
  Cl  Cl26  1  0.996012  0.503995  0.250037  1
  Cl  Cl27  1  0.503987  0.754025  0.507981  1
