# generated using pymatgen
data_SmHo3Sc4In3Co
_symmetry_space_group_name_H-M   'P 1'
_cell_length_a   9.91951000
_cell_length_b   9.91950980
_cell_length_c   7.08776100
_cell_angle_alpha   90.00000000
_cell_angle_beta   90.00000000
_cell_angle_gamma   119.99999400
_symmetry_Int_Tables_number   1
_chemical_formula_structural   SmHo3Sc4In3Co
_chemical_formula_sum   'Sm2 Ho6 Sc8 In6 Co2'
_cell_volume   603.97665575
_cell_formula_units_Z   2
loop_
 _symmetry_equiv_pos_site_id
 _symmetry_equiv_pos_as_xyz
  1  'x, y, z'
loop_
 _atom_site_type_symbol
 _atom_site_label
 _atom_site_symmetry_multiplicity
 _atom_site_fract_x
 _atom_site_fract_y
 _atom_site_fract_z
 _atom_site_occupancy
  Sm  Sm0  1  0.000000  0.000000  0.504877  1
  Sm  Sm1  1  0.000000  0.000000  0.004877  1
  Ho  Ho2  1  0.533986  0.067975  0.508268  1
  Ho  Ho3  1  0.932025  0.466014  0.508268  1
  Ho  Ho4  1  0.533986  0.466014  0.508268  1
  Ho  Ho5  1  0.466014  0.932025  0.008268  1
  Ho  Ho6  1  0.067975  0.533986  0.008268  1
  Ho  Ho7  1  0.466014  0.533986  0.008268  1
  Sc  Sc8  1  0.181025  0.362051  0.715987  1
  Sc  Sc9  1  0.637949  0.818975  0.715987  1
  Sc  Sc10  1  0.181025  0.818975  0.715987  1
  Sc  Sc11  1  0.818975  0.637949  0.215987  1
  Sc  Sc12  1  0.362051  0.181025  0.215987  1
  Sc  Sc13  1  0.818975  0.181025  0.215987  1
  Sc  Sc14  1  0.666667  0.333333  0.913542  1
  Sc  Sc15  1  0.333333  0.666667  0.413542  1
  In  In16  1  0.835341  0.670681  0.771702  1
  In  In17  1  0.329319  0.164659  0.771702  1
  In  In18  1  0.835341  0.164659  0.771702  1
  In  In19  1  0.164659  0.329319  0.271702  1
  In  In20  1  0.670681  0.835341  0.271702  1
  In  In21  1  0.164659  0.835341  0.271702  1
  Co  Co22  1  0.666667  0.333333  0.272714  1
  Co  Co23  1  0.333333  0.666667  0.772714  1
