# generated using pymatgen
data_Th8Sc12Si15Pt
_symmetry_space_group_name_H-M   'P 1'
_cell_length_a   7.25001752
_cell_length_b   7.54688098
_cell_length_c   14.17079300
_cell_angle_alpha   90.00000000
_cell_angle_beta   90.00000000
_cell_angle_gamma   90.34375940
_symmetry_Int_Tables_number   1
_chemical_formula_structural   Th8Sc12Si15Pt
_chemical_formula_sum   'Th8 Sc12 Si15 Pt1'
_cell_volume   775.34125759
_cell_formula_units_Z   1
loop_
 _symmetry_equiv_pos_site_id
 _symmetry_equiv_pos_as_xyz
  1  'x, y, z'
loop_
 _atom_site_type_symbol
 _atom_site_label
 _atom_site_symmetry_multiplicity
 _atom_site_fract_x
 _atom_site_fract_y
 _atom_site_fract_z
 _atom_site_occupancy
  Th  Th0  1  0.007313  0.173585  0.095623  1
  Th  Th1  1  0.994811  0.824268  0.903837  1
  Th  Th2  1  0.493983  0.673783  0.903969  1
  Th  Th3  1  0.994811  0.824268  0.596163  1
  Th  Th4  1  0.505960  0.326565  0.096385  1
  Th  Th5  1  0.007313  0.173585  0.404377  1
  Th  Th6  1  0.505960  0.326565  0.403615  1
  Th  Th7  1  0.493983  0.673783  0.596031  1
  Sc  Sc8  1  0.158185  0.502539  0.750000  1
  Sc  Sc9  1  0.838884  0.497723  0.250000  1
  Sc  Sc10  1  0.339482  0.003616  0.250000  1
  Sc  Sc11  1  0.665274  0.001118  0.750000  1
  Sc  Sc12  1  0.329661  0.172639  0.625391  1
  Sc  Sc13  1  0.668733  0.826205  0.374107  1
  Sc  Sc14  1  0.167641  0.674711  0.374739  1
  Sc  Sc15  1  0.668733  0.826205  0.125893  1
  Sc  Sc16  1  0.830425  0.325925  0.625375  1
  Sc  Sc17  1  0.329661  0.172639  0.874609  1
  Sc  Sc18  1  0.830425  0.325925  0.874625  1
  Sc  Sc19  1  0.167641  0.674711  0.125261  1
  Si  Si20  1  0.967455  0.879128  0.250000  1
  Si  Si21  1  0.464718  0.621584  0.250000  1
  Si  Si22  1  0.532497  0.383117  0.750000  1
  Si  Si23  1  0.293866  0.872735  0.750000  1
  Si  Si24  1  0.709766  0.125810  0.250000  1
  Si  Si25  1  0.208409  0.377870  0.250000  1
  Si  Si26  1  0.787897  0.622117  0.750000  1
  Si  Si27  1  0.160741  0.464768  0.539627  1
  Si  Si28  1  0.839827  0.537398  0.460013  1
  Si  Si29  1  0.342661  0.963540  0.460410  1
  Si  Si30  1  0.839827  0.537398  0.039987  1
  Si  Si31  1  0.658840  0.036393  0.538661  1
  Si  Si32  1  0.160741  0.464768  0.960373  1
  Si  Si33  1  0.658840  0.036393  0.961339  1
  Si  Si34  1  0.342661  0.963540  0.039590  1
  Pt  Pt35  1  0.032374  0.113080  0.750000  1
