# generated using pymatgen
data_Sc12Mn2TeI16
_symmetry_space_group_name_H-M   'P 1'
_cell_length_a   9.26496107
_cell_length_b   11.91667481
_cell_length_c   12.60402596
_cell_angle_alpha   116.90472506
_cell_angle_beta   101.33396440
_cell_angle_gamma   100.83809263
_symmetry_Int_Tables_number   1
_chemical_formula_structural   Sc12Mn2TeI16
_chemical_formula_sum   'Sc12 Mn2 Te1 I16'
_cell_volume   1154.09881259
_cell_formula_units_Z   1
loop_
 _symmetry_equiv_pos_site_id
 _symmetry_equiv_pos_as_xyz
  1  'x, y, z'
loop_
 _atom_site_type_symbol
 _atom_site_label
 _atom_site_symmetry_multiplicity
 _atom_site_fract_x
 _atom_site_fract_y
 _atom_site_fract_z
 _atom_site_occupancy
  Sc  Sc0  1  0.110789  0.265097  0.355557  1
  Sc  Sc1  1  0.889211  0.734903  0.644443  1
  Sc  Sc2  1  0.756059  0.536371  0.327272  1
  Sc  Sc3  1  0.243941  0.463629  0.672728  1
  Sc  Sc4  1  0.301742  0.735400  0.643713  1
  Sc  Sc5  1  0.698258  0.264600  0.356287  1
  Sc  Sc6  1  0.169350  0.536667  0.326704  1
  Sc  Sc7  1  0.830650  0.463333  0.673296  1
  Sc  Sc8  1  0.410258  0.365418  0.285148  1
  Sc  Sc9  1  0.589742  0.634582  0.714852  1
  Sc  Sc10  1  0.462015  0.323891  0.518580  1
  Sc  Sc11  1  0.537985  0.676109  0.481420  1
  Mn  Mn12  1  0.337906  0.500218  0.499809  1
  Mn  Mn13  1  0.662095  0.499782  0.500191  1
  Te  Te14  1  0.000000  0.500000  0.500000  1
  I  I15  1  0.394209  0.739704  0.884233  1
  I  I16  1  0.605791  0.260296  0.115767  1
  I  I17  1  0.183015  0.952986  0.775264  1
  I  I18  1  0.816985  0.047014  0.224736  1
  I  I19  1  0.335512  0.093510  0.251225  1
  I  I20  1  0.664488  0.906490  0.748775  1
  I  I21  1  0.563068  0.436077  0.799444  1
  I  I22  1  0.436932  0.563923  0.200556  1
  I  I23  1  0.307851  0.827922  0.462672  1
  I  I24  1  0.692149  0.172078  0.537328  1
  I  I25  1  0.167436  0.172835  0.536149  1
  I  I26  1  0.832564  0.827165  0.463851  1
  I  I27  1  0.928745  0.574402  0.169231  1
  I  I28  1  0.071255  0.425598  0.830769  1
  I  I29  1  0.925893  0.739123  0.884834  1
  I  I30  1  0.074107  0.260877  0.115166  1
