# generated using pymatgen
data_Lu(VCo)6
_symmetry_space_group_name_H-M   'P 1'
_cell_length_a   6.35668420
_cell_length_b   6.35668449
_cell_length_c   6.35668485
_cell_angle_alpha   135.29195583
_cell_angle_beta   100.74190550
_cell_angle_gamma   95.90699878
_symmetry_Int_Tables_number   1
_chemical_formula_structural   Lu(VCo)6
_chemical_formula_sum   'Lu1 V6 Co6'
_cell_volume   166.91950671
_cell_formula_units_Z   1
loop_
 _symmetry_equiv_pos_site_id
 _symmetry_equiv_pos_as_xyz
  1  'x, y, z'
loop_
 _atom_site_type_symbol
 _atom_site_label
 _atom_site_symmetry_multiplicity
 _atom_site_fract_x
 _atom_site_fract_y
 _atom_site_fract_z
 _atom_site_occupancy
  Lu  Lu0  1  0.000000  0.000000  0.000000  1
  V  V1  1  0.641552  0.641552  0.000000  1
  V  V2  1  0.358448  0.358448  0.000000  1
  V  V3  1  0.357637  0.000000  0.357637  1
  V  V4  1  0.642363  0.000000  0.642363  1
  V  V5  1  0.208039  0.708039  0.500000  1
  V  V6  1  0.791961  0.291961  0.500000  1
  Co  Co7  1  0.500000  0.500000  0.500000  1
  Co  Co8  1  0.500000  0.000000  0.000000  1
  Co  Co9  1  0.000000  0.500000  0.000000  1
  Co  Co10  1  0.000000  0.000000  0.500000  1
  Co  Co11  1  0.775086  0.500000  0.275086  1
  Co  Co12  1  0.224914  0.500000  0.724914  1
