# generated using pymatgen
data_AcTb2Ni2Ir7
_symmetry_space_group_name_H-M   'P 1'
_cell_length_a   5.32465154
_cell_length_b   5.32464932
_cell_length_c   9.02490500
_cell_angle_alpha   72.84260397
_cell_angle_beta   72.84261135
_cell_angle_gamma   60.00001408
_symmetry_Int_Tables_number   1
_chemical_formula_structural   AcTb2Ni2Ir7
_chemical_formula_sum   'Ac1 Tb2 Ni2 Ir7'
_cell_volume   208.34061545
_cell_formula_units_Z   1
loop_
 _symmetry_equiv_pos_site_id
 _symmetry_equiv_pos_as_xyz
  1  'x, y, z'
loop_
 _atom_site_type_symbol
 _atom_site_label
 _atom_site_symmetry_multiplicity
 _atom_site_fract_x
 _atom_site_fract_y
 _atom_site_fract_z
 _atom_site_occupancy
  Ac  Ac0  1  0.000000  0.000000  0.000000  1
  Tb  Tb1  1  0.140866  0.140866  0.577402  1
  Tb  Tb2  1  0.859134  0.859134  0.422598  1
  Ni  Ni3  1  0.333415  0.333415  0.999755  1
  Ni  Ni4  1  0.666585  0.666585  0.000245  1
  Ir  Ir5  1  0.078583  0.582624  0.756167  1
  Ir  Ir6  1  0.582624  0.582624  0.756167  1
  Ir  Ir7  1  0.582624  0.078583  0.756167  1
  Ir  Ir8  1  0.921417  0.417376  0.243833  1
  Ir  Ir9  1  0.417376  0.417376  0.243833  1
  Ir  Ir10  1  0.417376  0.921417  0.243833  1
  Ir  Ir11  1  0.500000  0.500000  0.500000  1
