# generated using pymatgen
data_Dy4Al5Tc3
_symmetry_space_group_name_H-M   'P 1'
_cell_length_a   5.50399093
_cell_length_b   5.58195526
_cell_length_c   8.77611300
_cell_angle_alpha   90.00000000
_cell_angle_beta   90.00000000
_cell_angle_gamma   120.46966845
_symmetry_Int_Tables_number   1
_chemical_formula_structural   Dy4Al5Tc3
_chemical_formula_sum   'Dy4 Al5 Tc3'
_cell_volume   232.39244287
_cell_formula_units_Z   1
loop_
 _symmetry_equiv_pos_site_id
 _symmetry_equiv_pos_as_xyz
  1  'x, y, z'
loop_
 _atom_site_type_symbol
 _atom_site_label
 _atom_site_symmetry_multiplicity
 _atom_site_fract_x
 _atom_site_fract_y
 _atom_site_fract_z
 _atom_site_occupancy
  Dy  Dy0  1  0.338335  0.669168  0.443836  1
  Dy  Dy1  1  0.663947  0.331973  0.554652  1
  Dy  Dy2  1  0.663947  0.331973  0.945348  1
  Dy  Dy3  1  0.338335  0.669168  0.056164  1
  Al  Al4  1  0.837808  0.161757  0.250000  1
  Al  Al5  1  0.837808  0.676051  0.250000  1
  Al  Al6  1  0.323718  0.161859  0.250000  1
  Al  Al7  1  0.182694  0.840905  0.750000  1
  Al  Al8  1  0.182694  0.341790  0.750000  1
  Tc  Tc9  1  0.976386  0.988193  0.510324  1
  Tc  Tc10  1  0.976386  0.988193  0.989676  1
  Tc  Tc11  1  0.677943  0.838971  0.750000  1
