# generated using pymatgen
data_LiTb3Pt5
_symmetry_space_group_name_H-M   'P 1'
_cell_length_a   7.36169000
_cell_length_b   7.36169075
_cell_length_c   3.65014600
_cell_angle_alpha   90.00000000
_cell_angle_beta   90.00000000
_cell_angle_gamma   119.99998764
_symmetry_Int_Tables_number   1
_chemical_formula_structural   LiTb3Pt5
_chemical_formula_sum   'Li1 Tb3 Pt5'
_cell_volume   171.31524703
_cell_formula_units_Z   1
loop_
 _symmetry_equiv_pos_site_id
 _symmetry_equiv_pos_as_xyz
  1  'x, y, z'
loop_
 _atom_site_type_symbol
 _atom_site_label
 _atom_site_symmetry_multiplicity
 _atom_site_fract_x
 _atom_site_fract_y
 _atom_site_fract_z
 _atom_site_occupancy
  Li  Li0  1  0.000000  0.000000  0.000000  1
  Tb  Tb1  1  0.601275  0.000000  0.000000  1
  Tb  Tb2  1  0.000000  0.601275  0.000000  1
  Tb  Tb3  1  0.398725  0.398725  0.000000  1
  Pt  Pt4  1  0.236422  0.000000  0.500000  1
  Pt  Pt5  1  0.000000  0.236422  0.500000  1
  Pt  Pt6  1  0.763578  0.763578  0.500000  1
  Pt  Pt7  1  0.333333  0.666667  0.500000  1
  Pt  Pt8  1  0.666667  0.333333  0.500000  1
