# generated using pymatgen
data_Tb3Zr(Co4P3)2
_symmetry_space_group_name_H-M   'P 1'
_cell_length_a   3.73270800
_cell_length_b   10.72135800
_cell_length_c   12.45577200
_cell_angle_alpha   90.00000000
_cell_angle_beta   90.00000000
_cell_angle_gamma   90.00000000
_symmetry_Int_Tables_number   1
_chemical_formula_structural   Tb3Zr(Co4P3)2
_chemical_formula_sum   'Tb6 Zr2 Co16 P12'
_cell_volume   498.47624348
_cell_formula_units_Z   2
loop_
 _symmetry_equiv_pos_site_id
 _symmetry_equiv_pos_as_xyz
  1  'x, y, z'
loop_
 _atom_site_type_symbol
 _atom_site_label
 _atom_site_symmetry_multiplicity
 _atom_site_fract_x
 _atom_site_fract_y
 _atom_site_fract_z
 _atom_site_occupancy
  Tb  Tb0  1  0.000000  0.500000  0.529230  1
  Tb  Tb1  1  0.500000  0.000000  0.470770  1
  Tb  Tb2  1  0.500000  0.821521  0.204906  1
  Tb  Tb3  1  0.500000  0.178479  0.204906  1
  Tb  Tb4  1  0.000000  0.678479  0.795094  1
  Tb  Tb5  1  0.000000  0.321521  0.795094  1
  Zr  Zr6  1  0.500000  0.500000  0.157986  1
  Zr  Zr7  1  0.000000  0.000000  0.842014  1
  Co  Co8  1  0.500000  0.500000  0.703457  1
  Co  Co9  1  0.000000  0.000000  0.296543  1
  Co  Co10  1  0.000000  0.500000  0.985930  1
  Co  Co11  1  0.500000  0.000000  0.014070  1
  Co  Co12  1  0.500000  0.332078  0.992834  1
  Co  Co13  1  0.500000  0.667922  0.992834  1
  Co  Co14  1  0.000000  0.167922  0.007166  1
  Co  Co15  1  0.000000  0.832078  0.007166  1
  Co  Co16  1  0.500000  0.295187  0.433424  1
  Co  Co17  1  0.500000  0.704813  0.433424  1
  Co  Co18  1  0.000000  0.204813  0.566576  1
  Co  Co19  1  0.000000  0.795187  0.566576  1
  Co  Co20  1  0.500000  0.877925  0.701055  1
  Co  Co21  1  0.500000  0.122075  0.701055  1
  Co  Co22  1  0.000000  0.622075  0.298945  1
  Co  Co23  1  0.000000  0.377925  0.298945  1
  P  P24  1  0.500000  0.500000  0.883887  1
  P  P25  1  0.000000  0.000000  0.116113  1
  P  P26  1  0.500000  0.500000  0.362597  1
  P  P27  1  0.000000  0.000000  0.637403  1
  P  P28  1  0.500000  0.309393  0.615303  1
  P  P29  1  0.500000  0.690607  0.615303  1
  P  P30  1  0.000000  0.190607  0.384697  1
  P  P31  1  0.000000  0.809393  0.384697  1
  P  P32  1  0.500000  0.838479  0.894640  1
  P  P33  1  0.500000  0.161521  0.894640  1
  P  P34  1  0.000000  0.661521  0.105360  1
  P  P35  1  0.000000  0.338479  0.105360  1
