# generated using pymatgen
data_Hf9NiMoW3
_symmetry_space_group_name_H-M   'P 1'
_cell_length_a   8.70238395
_cell_length_b   8.69514206
_cell_length_c   8.51020900
_cell_angle_alpha   90.00000000
_cell_angle_beta   90.00000000
_cell_angle_gamma   119.97247380
_symmetry_Int_Tables_number   1
_chemical_formula_structural   Hf9NiMoW3
_chemical_formula_sum   'Hf18 Ni2 Mo2 W6'
_cell_volume   557.83553280
_cell_formula_units_Z   2
loop_
 _symmetry_equiv_pos_site_id
 _symmetry_equiv_pos_as_xyz
  1  'x, y, z'
loop_
 _atom_site_type_symbol
 _atom_site_label
 _atom_site_symmetry_multiplicity
 _atom_site_fract_x
 _atom_site_fract_y
 _atom_site_fract_z
 _atom_site_occupancy
  Hf  Hf0  1  0.200208  0.800573  0.442283  1
  Hf  Hf1  1  0.200208  0.399636  0.442283  1
  Hf  Hf2  1  0.599718  0.799860  0.442840  1
  Hf  Hf3  1  0.800764  0.199675  0.558304  1
  Hf  Hf4  1  0.800764  0.601089  0.558304  1
  Hf  Hf5  1  0.398980  0.199489  0.557874  1
  Hf  Hf6  1  0.800764  0.199675  0.941696  1
  Hf  Hf7  1  0.800764  0.601089  0.941696  1
  Hf  Hf8  1  0.398980  0.199489  0.942126  1
  Hf  Hf9  1  0.200208  0.800573  0.057717  1
  Hf  Hf10  1  0.200208  0.399636  0.057717  1
  Hf  Hf11  1  0.599718  0.799860  0.057160  1
  Hf  Hf12  1  0.542058  0.456455  0.250000  1
  Hf  Hf13  1  0.542058  0.085602  0.250000  1
  Hf  Hf14  1  0.914402  0.457201  0.250000  1
  Hf  Hf15  1  0.457519  0.542235  0.750000  1
  Hf  Hf16  1  0.457519  0.915285  0.750000  1
  Hf  Hf17  1  0.084863  0.542432  0.750000  1
  Ni  Ni18  1  0.333954  0.666977  0.250000  1
  Ni  Ni19  1  0.666752  0.333376  0.750000  1
  Mo  Mo20  1  0.888098  0.112712  0.250000  1
  Mo  Mo21  1  0.888098  0.775387  0.250000  1
  W  W22  1  0.224978  0.112489  0.250000  1
  W  W23  1  0.111529  0.888133  0.750000  1
  W  W24  1  0.111529  0.223396  0.750000  1
  W  W25  1  0.775931  0.887965  0.750000  1
  W  W26  1  0.999715  0.999857  0.498959  1
  W  W27  1  0.999715  0.999857  0.001041  1
