# generated using pymatgen
data_LaGd3(NiP)4
_symmetry_space_group_name_H-M   'P 1'
_cell_length_a   3.97665600
_cell_length_b   3.97665553
_cell_length_c   15.87150700
_cell_angle_alpha   90.00000000
_cell_angle_beta   90.00000000
_cell_angle_gamma   120.00002053
_symmetry_Int_Tables_number   1
_chemical_formula_structural   LaGd3(NiP)4
_chemical_formula_sum   'La1 Gd3 Ni4 P4'
_cell_volume   217.36254167
_cell_formula_units_Z   1
loop_
 _symmetry_equiv_pos_site_id
 _symmetry_equiv_pos_as_xyz
  1  'x, y, z'
loop_
 _atom_site_type_symbol
 _atom_site_label
 _atom_site_symmetry_multiplicity
 _atom_site_fract_x
 _atom_site_fract_y
 _atom_site_fract_z
 _atom_site_occupancy
  La  La0  1  0.000000  0.000000  0.750000  1
  Gd  Gd1  1  0.000000  0.000000  0.499483  1
  Gd  Gd2  1  0.000000  0.000000  0.000517  1
  Gd  Gd3  1  0.000000  0.000000  0.250000  1
  Ni  Ni4  1  0.333333  0.666667  0.374116  1
  Ni  Ni5  1  0.666667  0.333333  0.623124  1
  Ni  Ni6  1  0.666667  0.333333  0.876876  1
  Ni  Ni7  1  0.333333  0.666667  0.125884  1
  P  P8  1  0.333333  0.666667  0.878405  1
  P  P9  1  0.666667  0.333333  0.123107  1
  P  P10  1  0.666667  0.333333  0.376893  1
  P  P11  1  0.333333  0.666667  0.621595  1
