# generated using pymatgen
data_Zr6Zn6Cu17O
_symmetry_space_group_name_H-M   'P 1'
_cell_length_a   8.46404950
_cell_length_b   8.46408395
_cell_length_c   8.46404800
_cell_angle_alpha   59.99985130
_cell_angle_beta   60.08645030
_cell_angle_gamma   59.99985415
_symmetry_Int_Tables_number   1
_chemical_formula_structural   Zr6Zn6Cu17O
_chemical_formula_sum   'Zr6 Zn6 Cu17 O1'
_cell_volume   429.04540090
_cell_formula_units_Z   1
loop_
 _symmetry_equiv_pos_site_id
 _symmetry_equiv_pos_as_xyz
  1  'x, y, z'
loop_
 _atom_site_type_symbol
 _atom_site_label
 _atom_site_symmetry_multiplicity
 _atom_site_fract_x
 _atom_site_fract_y
 _atom_site_fract_z
 _atom_site_occupancy
  Zr  Zr0  1  0.697567  0.300361  0.302433  1
  Zr  Zr1  1  0.302433  0.699639  0.697567  1
  Zr  Zr2  1  0.299477  0.700523  0.299477  1
  Zr  Zr3  1  0.700523  0.299477  0.700523  1
  Zr  Zr4  1  0.302433  0.300361  0.697567  1
  Zr  Zr5  1  0.697567  0.699639  0.302433  1
  Zn  Zn6  1  0.500000  0.000000  0.000000  1
  Zn  Zn7  1  0.000000  0.500000  0.500000  1
  Zn  Zn8  1  0.000000  0.500000  0.000000  1
  Zn  Zn9  1  0.000000  0.000000  0.500000  1
  Zn  Zn10  1  0.500000  0.500000  0.000000  1
  Zn  Zn11  1  0.000000  0.000000  0.000000  1
  Cu  Cu12  1  0.118773  0.119355  0.118773  1
  Cu  Cu13  1  0.881227  0.880645  0.881227  1
  Cu  Cu14  1  0.122192  0.117496  0.642818  1
  Cu  Cu15  1  0.118773  0.643100  0.118773  1
  Cu  Cu16  1  0.877808  0.882504  0.357182  1
  Cu  Cu17  1  0.881227  0.356900  0.881227  1
  Cu  Cu18  1  0.642818  0.117496  0.122192  1
  Cu  Cu19  1  0.357182  0.882504  0.877808  1
  Cu  Cu20  1  0.500000  0.000000  0.500000  1
  Cu  Cu21  1  0.328990  0.326842  0.328990  1
  Cu  Cu22  1  0.671010  0.673158  0.671010  1
  Cu  Cu23  1  0.328551  0.328446  0.014557  1
  Cu  Cu24  1  0.328990  0.015180  0.328990  1
  Cu  Cu25  1  0.671449  0.671554  0.985443  1
  Cu  Cu26  1  0.671010  0.984820  0.671010  1
  Cu  Cu27  1  0.014557  0.328446  0.328551  1
  Cu  Cu28  1  0.985443  0.671554  0.671449  1
  O  O29  1  0.500000  0.500000  0.500000  1
