# generated using pymatgen
data_NdY3(ZnIn)4
_symmetry_space_group_name_H-M   'P 1'
_cell_length_a   4.69109200
_cell_length_b   7.37623361
_cell_length_c   8.09539300
_cell_angle_alpha   89.97675151
_cell_angle_beta   90.00000000
_cell_angle_gamma   90.00000000
_symmetry_Int_Tables_number   1
_chemical_formula_structural   NdY3(ZnIn)4
_chemical_formula_sum   'Nd1 Y3 Zn4 In4'
_cell_volume   280.12154557
_cell_formula_units_Z   1
loop_
 _symmetry_equiv_pos_site_id
 _symmetry_equiv_pos_as_xyz
  1  'x, y, z'
loop_
 _atom_site_type_symbol
 _atom_site_label
 _atom_site_symmetry_multiplicity
 _atom_site_fract_x
 _atom_site_fract_y
 _atom_site_fract_z
 _atom_site_occupancy
  Nd  Nd0  1  0.250000  0.991931  0.754752  1
  Y  Y1  1  0.250000  0.491816  0.746856  1
  Y  Y2  1  0.750000  0.989358  0.246090  1
  Y  Y3  1  0.750000  0.488889  0.252437  1
  Zn  Zn4  1  0.250000  0.796435  0.414869  1
  Zn  Zn5  1  0.250000  0.299932  0.083905  1
  Zn  Zn6  1  0.750000  0.295637  0.582900  1
  Zn  Zn7  1  0.750000  0.779290  0.918169  1
  In  In8  1  0.250000  0.215269  0.413944  1
  In  In9  1  0.250000  0.710195  0.085993  1
  In  In10  1  0.750000  0.715383  0.581096  1
  In  In11  1  0.750000  0.225860  0.918988  1
