# generated using pymatgen
data_TaFeCo20B6W
_symmetry_space_group_name_H-M   'P 1'
_cell_length_a   7.41738853
_cell_length_b   7.41751769
_cell_length_c   7.41706202
_cell_angle_alpha   59.99861264
_cell_angle_beta   60.00068927
_cell_angle_gamma   60.00043377
_symmetry_Int_Tables_number   1
_chemical_formula_structural   TaFeCo20B6W
_chemical_formula_sum   'Ta1 Fe1 Co20 B6 W1'
_cell_volume   288.55304634
_cell_formula_units_Z   1
loop_
 _symmetry_equiv_pos_site_id
 _symmetry_equiv_pos_as_xyz
  1  'x, y, z'
loop_
 _atom_site_type_symbol
 _atom_site_label
 _atom_site_symmetry_multiplicity
 _atom_site_fract_x
 _atom_site_fract_y
 _atom_site_fract_z
 _atom_site_occupancy
  Ta  Ta0  1  0.249936  0.249987  0.250011  1
  Fe  Fe1  1  0.000024  0.000001  0.000013  1
  Co  Co2  1  0.618756  0.618675  0.143883  1
  Co  Co3  1  0.618760  0.143866  0.618686  1
  Co  Co4  1  0.143907  0.618706  0.618705  1
  Co  Co5  1  0.618750  0.618676  0.618701  1
  Co  Co6  1  0.384515  0.384624  0.846222  1
  Co  Co7  1  0.384488  0.846253  0.384620  1
  Co  Co8  1  0.846262  0.384561  0.384574  1
  Co  Co9  1  0.384534  0.384613  0.384625  1
  Co  Co10  1  0.999328  0.999298  0.340247  1
  Co  Co11  1  0.661107  0.999322  0.340280  1
  Co  Co12  1  0.999327  0.661118  0.340268  1
  Co  Co13  1  0.661102  0.340259  0.999312  1
  Co  Co14  1  0.999343  0.340210  0.999313  1
  Co  Co15  1  0.999336  0.340245  0.661096  1
  Co  Co16  1  0.340245  0.661148  0.999307  1
  Co  Co17  1  0.340238  0.999326  0.661136  1
  Co  Co18  1  0.340214  0.999313  0.999305  1
  Co  Co19  1  0.999339  0.999332  0.661065  1
  Co  Co20  1  0.999344  0.661095  0.999310  1
  Co  Co21  1  0.661076  0.999344  0.999307  1
  B  B22  1  0.726744  0.726682  0.273314  1
  B  B23  1  0.273232  0.726776  0.273295  1
  B  B24  1  0.726828  0.273251  0.273269  1
  B  B25  1  0.273237  0.273294  0.726788  1
  B  B26  1  0.726761  0.273276  0.726673  1
  B  B27  1  0.273262  0.726732  0.726709  1
  W  W28  1  0.750006  0.750015  0.749966  1
