# generated using pymatgen
data_Zr16Co4Os3Pd
_symmetry_space_group_name_H-M   'P 1'
_cell_length_a   8.71599491
_cell_length_b   8.71714466
_cell_length_c   8.71753200
_cell_angle_alpha   59.79403548
_cell_angle_beta   59.81038026
_cell_angle_gamma   59.80569763
_symmetry_Int_Tables_number   1
_chemical_formula_structural   Zr16Co4Os3Pd
_chemical_formula_sum   'Zr16 Co4 Os3 Pd1'
_cell_volume   466.25866961
_cell_formula_units_Z   1
loop_
 _symmetry_equiv_pos_site_id
 _symmetry_equiv_pos_as_xyz
  1  'x, y, z'
loop_
 _atom_site_type_symbol
 _atom_site_label
 _atom_site_symmetry_multiplicity
 _atom_site_fract_x
 _atom_site_fract_y
 _atom_site_fract_z
 _atom_site_occupancy
  Zr  Zr0  1  0.055489  0.649005  0.648898  1
  Zr  Zr1  1  0.649002  0.055593  0.648982  1
  Zr  Zr2  1  0.648928  0.649018  0.055602  1
  Zr  Zr3  1  0.648744  0.648653  0.648595  1
  Zr  Zr4  1  0.799432  0.799412  0.200820  1
  Zr  Zr5  1  0.199268  0.199362  0.804032  1
  Zr  Zr6  1  0.799454  0.200774  0.799422  1
  Zr  Zr7  1  0.199251  0.804034  0.199404  1
  Zr  Zr8  1  0.200774  0.799407  0.799395  1
  Zr  Zr9  1  0.804022  0.199268  0.199329  1
  Zr  Zr10  1  0.435735  0.435693  0.055932  1
  Zr  Zr11  1  0.063747  0.063701  0.435724  1
  Zr  Zr12  1  0.435744  0.055914  0.435714  1
  Zr  Zr13  1  0.063757  0.435680  0.063716  1
  Zr  Zr14  1  0.055995  0.435678  0.435686  1
  Zr  Zr15  1  0.435809  0.063701  0.063707  1
  Co  Co16  1  0.421797  0.860047  0.860009  1
  Co  Co17  1  0.859958  0.421851  0.860056  1
  Co  Co18  1  0.859943  0.860076  0.421859  1
  Co  Co19  1  0.859306  0.859367  0.859340  1
  Os  Os20  1  0.747669  0.419005  0.418999  1
  Os  Os21  1  0.418996  0.747562  0.418997  1
  Os  Os22  1  0.418997  0.419007  0.747593  1
  Pd  Pd23  1  0.418183  0.418191  0.418189  1
