# generated using pymatgen
data_YbSc2Al3Si2Ir
_symmetry_space_group_name_H-M   'P 1'
_cell_length_a   6.67045000
_cell_length_b   6.74165728
_cell_length_c   4.15556800
_cell_angle_alpha   90.00000000
_cell_angle_beta   90.00000000
_cell_angle_gamma   119.65121332
_symmetry_Int_Tables_number   1
_chemical_formula_structural   YbSc2Al3Si2Ir
_chemical_formula_sum   'Yb1 Sc2 Al3 Si2 Ir1'
_cell_volume   162.40466452
_cell_formula_units_Z   1
loop_
 _symmetry_equiv_pos_site_id
 _symmetry_equiv_pos_as_xyz
  1  'x, y, z'
loop_
 _atom_site_type_symbol
 _atom_site_label
 _atom_site_symmetry_multiplicity
 _atom_site_fract_x
 _atom_site_fract_y
 _atom_site_fract_z
 _atom_site_occupancy
  Yb  Yb0  1  0.425451  0.000000  0.000000  1
  Sc  Sc1  1  0.003559  0.420060  0.000000  1
  Sc  Sc2  1  0.583499  0.579940  0.000000  1
  Al  Al3  1  0.762865  0.000000  0.500001  1
  Al  Al4  1  0.235539  0.238111  0.500001  1
  Al  Al5  1  0.997428  0.761890  0.500001  1
  Si  Si6  1  0.675695  0.344865  0.500001  1
  Si  Si7  1  0.330831  0.655134  0.500001  1
  Ir  Ir8  1  0.985135  0.000000  0.000000  1
