# generated using pymatgen
data_SmEr3(ScPt)4
_symmetry_space_group_name_H-M   'P 1'
_cell_length_a   4.63896300
_cell_length_b   6.97051901
_cell_length_c   8.38302689
_cell_angle_alpha   90.50551896
_cell_angle_beta   90.00000000
_cell_angle_gamma   90.00000000
_symmetry_Int_Tables_number   1
_chemical_formula_structural   SmEr3(ScPt)4
_chemical_formula_sum   'Sm1 Er3 Sc4 Pt4'
_cell_volume   271.06283730
_cell_formula_units_Z   1
loop_
 _symmetry_equiv_pos_site_id
 _symmetry_equiv_pos_as_xyz
  1  'x, y, z'
loop_
 _atom_site_type_symbol
 _atom_site_label
 _atom_site_symmetry_multiplicity
 _atom_site_fract_x
 _atom_site_fract_y
 _atom_site_fract_z
 _atom_site_occupancy
  Sm  Sm0  1  0.750000  0.513883  0.823560  1
  Er  Er1  1  0.250000  0.984732  0.322902  1
  Er  Er2  1  0.750000  0.019238  0.674748  1
  Er  Er3  1  0.250000  0.481514  0.177797  1
  Sc  Sc4  1  0.750000  0.643646  0.425203  1
  Sc  Sc5  1  0.250000  0.361362  0.570250  1
  Sc  Sc6  1  0.750000  0.138596  0.074590  1
  Sc  Sc7  1  0.250000  0.856273  0.926274  1
  Pt  Pt8  1  0.250000  0.239008  0.904224  1
  Pt  Pt9  1  0.750000  0.754522  0.102912  1
  Pt  Pt10  1  0.250000  0.751055  0.594655  1
  Pt  Pt11  1  0.750000  0.256171  0.402886  1
