# generated using pymatgen
data_Ca3Eu(YHg2)4
_symmetry_space_group_name_H-M   'P 1'
_cell_length_a   7.56073601
_cell_length_b   7.57662100
_cell_length_c   7.53460501
_cell_angle_alpha   90.00000000
_cell_angle_beta   89.99577937
_cell_angle_gamma   90.00000000
_symmetry_Int_Tables_number   1
_chemical_formula_structural   Ca3Eu(YHg2)4
_chemical_formula_sum   'Ca3 Eu1 Y4 Hg8'
_cell_volume   431.61857464
_cell_formula_units_Z   1
loop_
 _symmetry_equiv_pos_site_id
 _symmetry_equiv_pos_as_xyz
  1  'x, y, z'
loop_
 _atom_site_type_symbol
 _atom_site_label
 _atom_site_symmetry_multiplicity
 _atom_site_fract_x
 _atom_site_fract_y
 _atom_site_fract_z
 _atom_site_occupancy
  Ca  Ca0  1  0.249499  0.750000  0.499899  1
  Ca  Ca1  1  0.750480  0.250000  0.500107  1
  Ca  Ca2  1  0.250481  0.750000  0.999893  1
  Eu  Eu3  1  0.749375  0.250000  0.000108  1
  Y  Y4  1  0.250731  0.250000  0.000001  1
  Y  Y5  1  0.749277  0.750000  0.000000  1
  Y  Y6  1  0.750705  0.750000  0.499991  1
  Y  Y7  1  0.249321  0.250000  0.500011  1
  Hg  Hg8  1  0.001320  0.501286  0.250159  1
  Hg  Hg9  1  0.001320  0.998716  0.250159  1
  Hg  Hg10  1  0.499064  0.998932  0.252717  1
  Hg  Hg11  1  0.499064  0.501068  0.252717  1
  Hg  Hg12  1  0.498712  0.501260  0.747309  1
  Hg  Hg13  1  0.498712  0.998742  0.747309  1
  Hg  Hg14  1  0.000968  0.998924  0.749810  1
  Hg  Hg15  1  0.000968  0.501076  0.749810  1
