# generated using pymatgen
data_Nd3Mg3SiGePd
_symmetry_space_group_name_H-M   'P 1'
_cell_length_a   7.39577800
_cell_length_b   7.39577746
_cell_length_c   4.44131900
_cell_angle_alpha   90.00000000
_cell_angle_beta   90.00000000
_cell_angle_gamma   120.00000244
_symmetry_Int_Tables_number   1
_chemical_formula_structural   Nd3Mg3SiGePd
_chemical_formula_sum   'Nd3 Mg3 Si1 Ge1 Pd1'
_cell_volume   210.38282845
_cell_formula_units_Z   1
loop_
 _symmetry_equiv_pos_site_id
 _symmetry_equiv_pos_as_xyz
  1  'x, y, z'
loop_
 _atom_site_type_symbol
 _atom_site_label
 _atom_site_symmetry_multiplicity
 _atom_site_fract_x
 _atom_site_fract_y
 _atom_site_fract_z
 _atom_site_occupancy
  Nd  Nd0  1  0.587730  0.001557  0.000000  1
  Nd  Nd1  1  0.998443  0.586172  0.000000  1
  Nd  Nd2  1  0.413828  0.412270  0.000000  1
  Mg  Mg3  1  0.241463  0.001002  0.500000  1
  Mg  Mg4  1  0.998998  0.240460  0.500000  1
  Mg  Mg5  1  0.759540  0.758537  0.500000  1
  Si  Si6  1  0.666667  0.333333  0.500000  1
  Ge  Ge7  1  0.333333  0.666667  0.500000  1
  Pd  Pd8  1  0.000000  0.000000  0.000000  1
