# generated using pymatgen
data_Ca2Tb2ReTc3B16
_symmetry_space_group_name_H-M   'P 1'
_cell_length_a   3.59746000
_cell_length_b   5.99357321
_cell_length_c   11.59522710
_cell_angle_alpha   90.01920840
_cell_angle_beta   90.00000000
_cell_angle_gamma   90.00000000
_symmetry_Int_Tables_number   1
_chemical_formula_structural   Ca2Tb2ReTc3B16
_chemical_formula_sum   'Ca2 Tb2 Re1 Tc3 B16'
_cell_volume   250.01209703
_cell_formula_units_Z   1
loop_
 _symmetry_equiv_pos_site_id
 _symmetry_equiv_pos_as_xyz
  1  'x, y, z'
loop_
 _atom_site_type_symbol
 _atom_site_label
 _atom_site_symmetry_multiplicity
 _atom_site_fract_x
 _atom_site_fract_y
 _atom_site_fract_z
 _atom_site_occupancy
  Ca  Ca0  1  0.000000  0.626570  0.350536  1
  Ca  Ca1  1  0.000000  0.372598  0.649281  1
  Tb  Tb2  1  0.000000  0.128583  0.151503  1
  Tb  Tb3  1  0.000000  0.871658  0.848741  1
  Re  Re4  1  0.000000  0.869591  0.584202  1
  Tc  Tc5  1  0.000000  0.632278  0.085137  1
  Tc  Tc6  1  0.000000  0.368039  0.914955  1
  Tc  Tc7  1  0.000000  0.129796  0.416005  1
  B  B8  1  0.500000  0.784893  0.185069  1
  B  B9  1  0.500000  0.215212  0.815161  1
  B  B10  1  0.500000  0.285247  0.315757  1
  B  B11  1  0.500000  0.714662  0.684365  1
  B  B12  1  0.500000  0.863429  0.031638  1
  B  B13  1  0.500000  0.136676  0.968514  1
  B  B14  1  0.500000  0.364598  0.467591  1
  B  B15  1  0.500000  0.635277  0.531978  1
  B  B16  1  0.500000  0.886583  0.452768  1
  B  B17  1  0.500000  0.114178  0.546724  1
  B  B18  1  0.500000  0.387494  0.047341  1
  B  B19  1  0.500000  0.612508  0.952755  1
  B  B20  1  0.500000  0.977888  0.308015  1
  B  B21  1  0.500000  0.022561  0.691846  1
  B  B22  1  0.500000  0.476096  0.192109  1
  B  B23  1  0.500000  0.523585  0.808010  1
