# generated using pymatgen
data_Ca6NdTlN4
_symmetry_space_group_name_H-M   'P 1'
_cell_length_a   3.66222000
_cell_length_b   11.95396600
_cell_length_c   11.49894500
_cell_angle_alpha   90.00000000
_cell_angle_beta   90.00000000
_cell_angle_gamma   90.00000000
_symmetry_Int_Tables_number   1
_chemical_formula_structural   Ca6NdTlN4
_chemical_formula_sum   'Ca12 Nd2 Tl2 N8'
_cell_volume   503.40142785
_cell_formula_units_Z   2
loop_
 _symmetry_equiv_pos_site_id
 _symmetry_equiv_pos_as_xyz
  1  'x, y, z'
loop_
 _atom_site_type_symbol
 _atom_site_label
 _atom_site_symmetry_multiplicity
 _atom_site_fract_x
 _atom_site_fract_y
 _atom_site_fract_z
 _atom_site_occupancy
  Ca  Ca0  1  0.500620  0.670390  0.238986  1
  Ca  Ca1  1  0.500620  0.329610  0.761014  1
  Ca  Ca2  1  0.499380  0.170390  0.261014  1
  Ca  Ca3  1  0.499380  0.829610  0.738986  1
  Ca  Ca4  1  0.999301  0.925934  0.253679  1
  Ca  Ca5  1  0.999301  0.074066  0.746321  1
  Ca  Ca6  1  0.000699  0.425934  0.246321  1
  Ca  Ca7  1  0.000699  0.574066  0.753679  1
  Ca  Ca8  1  0.001585  0.756589  0.478330  1
  Ca  Ca9  1  0.001585  0.243411  0.521670  1
  Ca  Ca10  1  0.998415  0.256589  0.021670  1
  Ca  Ca11  1  0.998415  0.743411  0.978330  1
  Nd  Nd12  1  0.497842  0.500000  0.000000  1
  Nd  Nd13  1  0.502158  0.000000  0.500000  1
  Tl  Tl14  1  0.515410  0.500000  0.500000  1
  Tl  Tl15  1  0.484590  0.000000  0.000000  1
  N  N16  1  0.000914  0.598441  0.124806  1
  N  N17  1  0.000914  0.401559  0.875194  1
  N  N18  1  0.999086  0.098441  0.375194  1
  N  N19  1  0.999086  0.901559  0.624806  1
  N  N20  1  0.499718  0.834895  0.359698  1
  N  N21  1  0.499718  0.165105  0.640302  1
  N  N22  1  0.500282  0.334895  0.140302  1
  N  N23  1  0.500282  0.665105  0.859698  1
