# generated using pymatgen
data_Dy5Er7Rh4
_symmetry_space_group_name_H-M   'P 1'
_cell_length_a   6.29049591
_cell_length_b   7.16491548
_cell_length_c   9.35275808
_cell_angle_alpha   90.06112833
_cell_angle_beta   89.89778426
_cell_angle_gamma   89.95845517
_symmetry_Int_Tables_number   1
_chemical_formula_structural   Dy5Er7Rh4
_chemical_formula_sum   'Dy5 Er7 Rh4'
_cell_volume   421.53593564
_cell_formula_units_Z   1
loop_
 _symmetry_equiv_pos_site_id
 _symmetry_equiv_pos_as_xyz
  1  'x, y, z'
loop_
 _atom_site_type_symbol
 _atom_site_label
 _atom_site_symmetry_multiplicity
 _atom_site_fract_x
 _atom_site_fract_y
 _atom_site_fract_z
 _atom_site_occupancy
  Dy  Dy0  1  0.671914  0.178001  0.062410  1
  Dy  Dy1  1  0.867103  0.965191  0.749724  1
  Dy  Dy2  1  0.366705  0.535045  0.250305  1
  Dy  Dy3  1  0.632798  0.465479  0.749540  1
  Dy  Dy4  1  0.133267  0.034375  0.250341  1
  Er  Er5  1  0.171462  0.322276  0.936712  1
  Er  Er6  1  0.828039  0.677823  0.436865  1
  Er  Er7  1  0.328219  0.822116  0.562948  1
  Er  Er8  1  0.328146  0.821765  0.936759  1
  Er  Er9  1  0.828559  0.678075  0.063084  1
  Er  Er10  1  0.171584  0.322177  0.562974  1
  Er  Er11  1  0.671414  0.177875  0.437497  1
  Rh  Rh12  1  0.055933  0.616885  0.750276  1
  Rh  Rh13  1  0.556159  0.882516  0.250784  1
  Rh  Rh14  1  0.443871  0.116831  0.749131  1
  Rh  Rh15  1  0.944828  0.383570  0.250650  1
