# generated using pymatgen
data_HoEr7Ti5Si16Mo7
_symmetry_space_group_name_H-M   'P 1'
_cell_length_a   6.91840804
_cell_length_b   6.91024349
_cell_length_c   12.79068610
_cell_angle_alpha   89.89302915
_cell_angle_beta   89.99504204
_cell_angle_gamma   90.01989275
_symmetry_Int_Tables_number   1
_chemical_formula_structural   HoEr7Ti5Si16Mo7
_chemical_formula_sum   'Ho1 Er7 Ti5 Si16 Mo7'
_cell_volume   611.49453449
_cell_formula_units_Z   1
loop_
 _symmetry_equiv_pos_site_id
 _symmetry_equiv_pos_as_xyz
  1  'x, y, z'
loop_
 _atom_site_type_symbol
 _atom_site_label
 _atom_site_symmetry_multiplicity
 _atom_site_fract_x
 _atom_site_fract_y
 _atom_site_fract_z
 _atom_site_occupancy
  Ho  Ho0  1  0.340617  0.002768  0.467360  1
  Er  Er1  1  0.498431  0.840597  0.718931  1
  Er  Er2  1  0.501114  0.160038  0.218758  1
  Er  Er3  1  0.839704  0.497423  0.280692  1
  Er  Er4  1  0.160001  0.501588  0.782580  1
  Er  Er5  1  0.659458  0.998223  0.968507  1
  Er  Er6  1  0.002178  0.339765  0.531854  1
  Er  Er7  1  0.996991  0.661321  0.030913  1
  Ti  Ti8  1  0.329898  0.330921  0.999330  1
  Ti  Ti9  1  0.168644  0.829316  0.249972  1
  Ti  Ti10  1  0.828693  0.171407  0.750464  1
  Ti  Ti11  1  0.669934  0.666994  0.499241  1
  Ti  Ti12  1  0.994470  0.840604  0.626225  1
  Si  Si13  1  0.203063  0.129657  0.683367  1
  Si  Si14  1  0.371110  0.702421  0.933250  1
  Si  Si15  1  0.631133  0.298785  0.433262  1
  Si  Si16  1  0.700011  0.370404  0.066946  1
  Si  Si17  1  0.300088  0.628950  0.566212  1
  Si  Si18  1  0.797936  0.870737  0.182993  1
  Si  Si19  1  0.127251  0.201356  0.316800  1
  Si  Si20  1  0.872090  0.799280  0.816736  1
  Si  Si21  1  0.289794  0.959622  0.062943  1
  Si  Si22  1  0.540262  0.789243  0.312564  1
  Si  Si23  1  0.459053  0.210362  0.812716  1
  Si  Si24  1  0.790561  0.542231  0.687681  1
  Si  Si25  1  0.209497  0.459142  0.186735  1
  Si  Si26  1  0.710726  0.041865  0.563429  1
  Si  Si27  1  0.958772  0.290679  0.937373  1
  Si  Si28  1  0.042762  0.709256  0.437248  1
  Mo  Mo29  1  0.160376  0.008627  0.875184  1
  Mo  Mo30  1  0.492492  0.658879  0.124080  1
  Mo  Mo31  1  0.507567  0.340985  0.623557  1
  Mo  Mo32  1  0.657789  0.492420  0.877665  1
  Mo  Mo33  1  0.342042  0.504005  0.374739  1
  Mo  Mo34  1  0.839642  0.991115  0.373140  1
  Mo  Mo35  1  0.005855  0.159017  0.126554  1
