# generated using pymatgen
data_Rb6ScTe4I
_symmetry_space_group_name_H-M   'P 1'
_cell_length_a   11.87867800
_cell_length_b   11.87867858
_cell_length_c   8.94291600
_cell_angle_alpha   90.00000000
_cell_angle_beta   90.00000000
_cell_angle_gamma   120.00000396
_symmetry_Int_Tables_number   1
_chemical_formula_structural   Rb6ScTe4I
_chemical_formula_sum   'Rb12 Sc2 Te8 I2'
_cell_volume   1092.81338757
_cell_formula_units_Z   2
loop_
 _symmetry_equiv_pos_site_id
 _symmetry_equiv_pos_as_xyz
  1  'x, y, z'
loop_
 _atom_site_type_symbol
 _atom_site_label
 _atom_site_symmetry_multiplicity
 _atom_site_fract_x
 _atom_site_fract_y
 _atom_site_fract_z
 _atom_site_occupancy
  Rb  Rb0  1  0.136742  0.863258  0.513187  1
  Rb  Rb1  1  0.726515  0.863258  0.513187  1
  Rb  Rb2  1  0.946351  0.473176  0.321257  1
  Rb  Rb3  1  0.526824  0.473176  0.321257  1
  Rb  Rb4  1  0.863258  0.726515  0.013187  1
  Rb  Rb5  1  0.273485  0.136742  0.013187  1
  Rb  Rb6  1  0.526824  0.053649  0.321257  1
  Rb  Rb7  1  0.136742  0.273485  0.513187  1
  Rb  Rb8  1  0.863258  0.136742  0.013187  1
  Rb  Rb9  1  0.053649  0.526824  0.821257  1
  Rb  Rb10  1  0.473176  0.946351  0.821257  1
  Rb  Rb11  1  0.473176  0.526824  0.821257  1
  Sc  Sc12  1  0.666667  0.333333  0.711833  1
  Sc  Sc13  1  0.333333  0.666667  0.211833  1
  Te  Te14  1  0.410454  0.205228  0.607568  1
  Te  Te15  1  0.589546  0.794772  0.107568  1
  Te  Te16  1  0.666667  0.333333  0.030872  1
  Te  Te17  1  0.794772  0.589546  0.607568  1
  Te  Te18  1  0.205228  0.410454  0.107568  1
  Te  Te19  1  0.333333  0.666667  0.530872  1
  Te  Te20  1  0.205228  0.794772  0.107568  1
  Te  Te21  1  0.794772  0.205228  0.607568  1
  I  I22  1  0.000000  0.000000  0.271858  1
  I  I23  1  0.000000  0.000000  0.771858  1
