# generated using pymatgen
data_Er4Al18Ir5Pd
_symmetry_space_group_name_H-M   'P 1'
_cell_length_a   7.55532287
_cell_length_b   7.55532342
_cell_length_c   9.44654595
_cell_angle_alpha   89.95395817
_cell_angle_beta   89.95395741
_cell_angle_gamma   119.62530554
_symmetry_Int_Tables_number   1
_chemical_formula_structural   Er4Al18Ir5Pd
_chemical_formula_sum   'Er4 Al18 Ir5 Pd1'
_cell_volume   468.74495619
_cell_formula_units_Z   1
loop_
 _symmetry_equiv_pos_site_id
 _symmetry_equiv_pos_as_xyz
  1  'x, y, z'
loop_
 _atom_site_type_symbol
 _atom_site_label
 _atom_site_symmetry_multiplicity
 _atom_site_fract_x
 _atom_site_fract_y
 _atom_site_fract_z
 _atom_site_occupancy
  Er  Er0  1  0.995701  0.670311  0.248664  1
  Er  Er1  1  0.004299  0.329689  0.751336  1
  Er  Er2  1  0.670311  0.995701  0.248664  1
  Er  Er3  1  0.329689  0.004299  0.751336  1
  Al  Al4  1  0.128489  0.128489  0.248020  1
  Al  Al5  1  0.871511  0.871511  0.751980  1
  Al  Al6  1  0.000162  0.334245  0.074508  1
  Al  Al7  1  0.999838  0.665755  0.925492  1
  Al  Al8  1  0.998910  0.661605  0.576800  1
  Al  Al9  1  0.338395  0.001090  0.423200  1
  Al  Al10  1  0.001090  0.338395  0.423200  1
  Al  Al11  1  0.661605  0.998910  0.576800  1
  Al  Al12  1  0.665755  0.999838  0.925492  1
  Al  Al13  1  0.334245  0.000162  0.074508  1
  Al  Al14  1  0.336464  0.336464  0.556339  1
  Al  Al15  1  0.663536  0.663536  0.443661  1
  Al  Al16  1  0.666696  0.666696  0.053504  1
  Al  Al17  1  0.333304  0.333304  0.946496  1
  Al  Al18  1  0.338234  0.548143  0.249531  1
  Al  Al19  1  0.661766  0.451857  0.750469  1
  Al  Al20  1  0.548143  0.338234  0.249531  1
  Al  Al21  1  0.451857  0.661766  0.750469  1
  Ir  Ir22  1  0.672048  0.327952  0.000000  1
  Ir  Ir23  1  0.327952  0.672048  0.000000  1
  Ir  Ir24  1  0.327811  0.672189  0.500000  1
  Ir  Ir25  1  0.672189  0.327811  0.500000  1
  Ir  Ir26  1  0.000000  0.000000  0.000000  1
  Pd  Pd27  1  0.000000  0.000000  0.500000  1
