# generated using pymatgen
data_Ho12Co6Sn
_symmetry_space_group_name_H-M   'P 1'
_cell_length_a   8.33074938
_cell_length_b   8.33074895
_cell_length_c   8.33074900
_cell_angle_alpha   109.47121832
_cell_angle_beta   109.47121728
_cell_angle_gamma   109.47122503
_symmetry_Int_Tables_number   1
_chemical_formula_structural   Ho12Co6Sn
_chemical_formula_sum   'Ho12 Co6 Sn1'
_cell_volume   445.07200922
_cell_formula_units_Z   1
loop_
 _symmetry_equiv_pos_site_id
 _symmetry_equiv_pos_as_xyz
  1  'x, y, z'
loop_
 _atom_site_type_symbol
 _atom_site_label
 _atom_site_symmetry_multiplicity
 _atom_site_fract_x
 _atom_site_fract_y
 _atom_site_fract_z
 _atom_site_occupancy
  Ho  Ho0  1  0.696507  0.193986  0.890494  1
  Ho  Ho1  1  0.806014  0.502521  0.696507  1
  Ho  Ho2  1  0.497479  0.303493  0.193986  1
  Ho  Ho3  1  0.806014  0.109506  0.303493  1
  Ho  Ho4  1  0.502521  0.696507  0.806014  1
  Ho  Ho5  1  0.193986  0.497479  0.303493  1
  Ho  Ho6  1  0.109506  0.303493  0.806014  1
  Ho  Ho7  1  0.890494  0.696507  0.193986  1
  Ho  Ho8  1  0.193986  0.890494  0.696507  1
  Ho  Ho9  1  0.696507  0.806014  0.502521  1
  Ho  Ho10  1  0.303493  0.193986  0.497479  1
  Ho  Ho11  1  0.303493  0.806014  0.109506  1
  Co  Co12  1  0.613547  0.113547  0.500000  1
  Co  Co13  1  0.886453  0.500000  0.386453  1
  Co  Co14  1  0.500000  0.386453  0.886453  1
  Co  Co15  1  0.113547  0.500000  0.613547  1
  Co  Co16  1  0.500000  0.613547  0.113547  1
  Co  Co17  1  0.386453  0.886453  0.500000  1
  Sn  Sn18  1  0.000000  0.000000  0.000000  1
