# generated using pymatgen
data_Ho2Er3P12Pd3Ru16
_symmetry_space_group_name_H-M   'P 1'
_cell_length_a   12.59741800
_cell_length_b   12.59742742
_cell_length_c   3.96380500
_cell_angle_alpha   90.00000000
_cell_angle_beta   90.00000000
_cell_angle_gamma   120.00002427
_symmetry_Int_Tables_number   1
_chemical_formula_structural   Ho2Er3P12Pd3Ru16
_chemical_formula_sum   'Ho2 Er3 P12 Pd3 Ru16'
_cell_volume   544.76125483
_cell_formula_units_Z   1
loop_
 _symmetry_equiv_pos_site_id
 _symmetry_equiv_pos_as_xyz
  1  'x, y, z'
loop_
 _atom_site_type_symbol
 _atom_site_label
 _atom_site_symmetry_multiplicity
 _atom_site_fract_x
 _atom_site_fract_y
 _atom_site_fract_z
 _atom_site_occupancy
  Ho  Ho0  1  0.181149  0.181111  0.500000  1
  Ho  Ho1  1  0.818851  0.999962  0.500000  1
  Er  Er2  1  0.000000  0.818922  0.500000  1
  Er  Er3  1  0.333351  0.666669  0.000000  1
  Er  Er4  1  0.666649  0.333317  0.000000  1
  P  P5  1  0.815113  0.815053  0.000000  1
  P  P6  1  0.184887  0.999940  0.000000  1
  P  P7  1  0.000000  0.184959  0.000000  1
  P  P8  1  0.178841  0.480373  0.500000  1
  P  P9  1  0.519652  0.698461  0.500000  1
  P  P10  1  0.301550  0.821183  0.500000  1
  P  P11  1  0.698450  0.519634  0.500000  1
  P  P12  1  0.821159  0.301533  0.500000  1
  P  P13  1  0.480348  0.178810  0.500000  1
  P  P14  1  0.366382  0.366386  0.000000  1
  P  P15  1  0.633618  0.000004  0.000000  1
  P  P16  1  0.000000  0.633734  0.000000  1
  Pd  Pd17  1  0.553702  0.553706  0.000000  1
  Pd  Pd18  1  0.446298  0.000004  0.000000  1
  Pd  Pd19  1  0.000000  0.446317  0.000000  1
  Ru  Ru20  1  0.713745  0.713661  0.500000  1
  Ru  Ru21  1  0.286255  0.999916  0.500000  1
  Ru  Ru22  1  0.000000  0.286373  0.500000  1
  Ru  Ru23  1  0.185716  0.378276  0.000000  1
  Ru  Ru24  1  0.621729  0.807429  0.000000  1
  Ru  Ru25  1  0.192375  0.814269  0.000000  1
  Ru  Ru26  1  0.807625  0.621894  0.000000  1
  Ru  Ru27  1  0.814284  0.192560  0.000000  1
  Ru  Ru28  1  0.378271  0.185700  0.000000  1
  Ru  Ru29  1  0.368474  0.493035  0.500000  1
  Ru  Ru30  1  0.506957  0.875435  0.500000  1
  Ru  Ru31  1  0.124557  0.631545  0.500000  1
  Ru  Ru32  1  0.875443  0.506987  0.500000  1
  Ru  Ru33  1  0.631526  0.124560  0.500000  1
  Ru  Ru34  1  0.493043  0.368476  0.500000  1
  Ru  Ru35  1  0.000000  0.999807  0.000000  1
