# generated using pymatgen
data_Ho3Al12FeIr3
_symmetry_space_group_name_H-M   'P 1'
_cell_length_a   8.77645400
_cell_length_b   8.77645440
_cell_length_c   9.42328500
_cell_angle_alpha   90.00000000
_cell_angle_beta   90.00000000
_cell_angle_gamma   120.00000604
_symmetry_Int_Tables_number   1
_chemical_formula_structural   Ho3Al12FeIr3
_chemical_formula_sum   'Ho6 Al24 Fe2 Ir6'
_cell_volume   628.59527603
_cell_formula_units_Z   2
loop_
 _symmetry_equiv_pos_site_id
 _symmetry_equiv_pos_as_xyz
  1  'x, y, z'
loop_
 _atom_site_type_symbol
 _atom_site_label
 _atom_site_symmetry_multiplicity
 _atom_site_fract_x
 _atom_site_fract_y
 _atom_site_fract_z
 _atom_site_occupancy
  Ho  Ho0  1  0.193963  0.387925  0.250000  1
  Ho  Ho1  1  0.806037  0.612075  0.750000  1
  Ho  Ho2  1  0.612075  0.806037  0.250000  1
  Ho  Ho3  1  0.387925  0.193963  0.750000  1
  Ho  Ho4  1  0.193963  0.806037  0.250000  1
  Ho  Ho5  1  0.806037  0.193963  0.750000  1
  Al  Al6  1  0.333333  0.666667  0.024255  1
  Al  Al7  1  0.666667  0.333333  0.975745  1
  Al  Al8  1  0.666667  0.333333  0.524255  1
  Al  Al9  1  0.333333  0.666667  0.475745  1
  Al  Al10  1  0.159776  0.319552  0.577064  1
  Al  Al11  1  0.840224  0.680448  0.422936  1
  Al  Al12  1  0.680448  0.840224  0.577064  1
  Al  Al13  1  0.840224  0.680448  0.077064  1
  Al  Al14  1  0.319552  0.159776  0.422936  1
  Al  Al15  1  0.159776  0.319552  0.922936  1
  Al  Al16  1  0.159776  0.840224  0.577064  1
  Al  Al17  1  0.319552  0.159776  0.077064  1
  Al  Al18  1  0.840224  0.159776  0.422936  1
  Al  Al19  1  0.680448  0.840224  0.922936  1
  Al  Al20  1  0.840224  0.159776  0.077064  1
  Al  Al21  1  0.159776  0.840224  0.922936  1
  Al  Al22  1  0.562501  0.125002  0.250000  1
  Al  Al23  1  0.437499  0.874998  0.750000  1
  Al  Al24  1  0.874998  0.437499  0.250000  1
  Al  Al25  1  0.125002  0.562501  0.750000  1
  Al  Al26  1  0.562501  0.437499  0.250000  1
  Al  Al27  1  0.437499  0.562501  0.750000  1
  Al  Al28  1  0.000000  0.000000  0.250000  1
  Al  Al29  1  0.000000  0.000000  0.750000  1
  Fe  Fe30  1  0.000000  0.000000  0.000000  1
  Fe  Fe31  1  0.000000  0.000000  0.500000  1
  Ir  Ir32  1  0.500000  0.000000  0.000000  1
  Ir  Ir33  1  0.000000  0.500000  0.000000  1
  Ir  Ir34  1  0.500000  0.000000  0.500000  1
  Ir  Ir35  1  0.500000  0.500000  0.000000  1
  Ir  Ir36  1  0.000000  0.500000  0.500000  1
  Ir  Ir37  1  0.500000  0.500000  0.500000  1
