# generated using pymatgen
data_LaGa4Cu9
_symmetry_space_group_name_H-M   'P 1'
_cell_length_a   8.35032495
_cell_length_b   8.35032363
_cell_length_c   8.35032414
_cell_angle_alpha   120.56540318
_cell_angle_beta   120.56540104
_cell_angle_gamma   89.02345443
_symmetry_Int_Tables_number   1
_chemical_formula_structural   LaGa4Cu9
_chemical_formula_sum   'La2 Ga8 Cu18'
_cell_volume   408.13060476
_cell_formula_units_Z   2
loop_
 _symmetry_equiv_pos_site_id
 _symmetry_equiv_pos_as_xyz
  1  'x, y, z'
loop_
 _atom_site_type_symbol
 _atom_site_label
 _atom_site_symmetry_multiplicity
 _atom_site_fract_x
 _atom_site_fract_y
 _atom_site_fract_z
 _atom_site_occupancy
  La  La0  1  0.750000  0.750000  0.000000  1
  La  La1  1  0.250000  0.250000  0.000000  1
  Ga  Ga2  1  0.804061  0.304060  0.862717  1
  Ga  Ga3  1  0.441343  0.941344  0.137284  1
  Ga  Ga4  1  0.695941  0.558657  0.500000  1
  Ga  Ga5  1  0.058656  0.195940  0.500000  1
  Ga  Ga6  1  0.195941  0.695941  0.137284  1
  Ga  Ga7  1  0.558656  0.058656  0.862717  1
  Ga  Ga8  1  0.941344  0.804060  0.500000  1
  Ga  Ga9  1  0.304060  0.441344  0.500000  1
  Cu  Cu10  1  0.202832  0.062276  0.265107  1
  Cu  Cu11  1  0.797166  0.937725  0.734894  1
  Cu  Cu12  1  0.297167  0.562275  0.859442  1
  Cu  Cu13  1  0.702831  0.437724  0.140557  1
  Cu  Cu14  1  0.437726  0.297167  0.734894  1
  Cu  Cu15  1  0.562275  0.702831  0.265107  1
  Cu  Cu16  1  0.937725  0.202832  0.140559  1
  Cu  Cu17  1  0.062276  0.797167  0.859443  1
  Cu  Cu18  1  0.499999  0.000000  0.499999  1
  Cu  Cu19  1  0.000000  0.499999  0.499999  1
  Cu  Cu20  1  0.293514  0.793513  0.730388  1
  Cu  Cu21  1  0.063125  0.563126  0.269613  1
  Cu  Cu22  1  0.206487  0.936875  0.499999  1
  Cu  Cu23  1  0.436876  0.706488  0.500002  1
  Cu  Cu24  1  0.706488  0.206487  0.269613  1
  Cu  Cu25  1  0.936875  0.436876  0.730388  1
  Cu  Cu26  1  0.563126  0.293514  0.500002  1
  Cu  Cu27  1  0.793513  0.063125  0.499999  1
