# generated using pymatgen
data_Pr4Zn4IrPt3
_symmetry_space_group_name_H-M   'P 1'
_cell_length_a   4.36005500
_cell_length_b   7.17536230
_cell_length_c   8.16102735
_cell_angle_alpha   88.84284869
_cell_angle_beta   90.00000000
_cell_angle_gamma   90.00000000
_symmetry_Int_Tables_number   1
_chemical_formula_structural   Pr4Zn4IrPt3
_chemical_formula_sum   'Pr4 Zn4 Ir1 Pt3'
_cell_volume   255.26546280
_cell_formula_units_Z   1
loop_
 _symmetry_equiv_pos_site_id
 _symmetry_equiv_pos_as_xyz
  1  'x, y, z'
loop_
 _atom_site_type_symbol
 _atom_site_label
 _atom_site_symmetry_multiplicity
 _atom_site_fract_x
 _atom_site_fract_y
 _atom_site_fract_z
 _atom_site_occupancy
  Pr  Pr0  1  0.750000  0.476890  0.809592  1
  Pr  Pr1  1  0.250000  0.024865  0.306290  1
  Pr  Pr2  1  0.750000  0.972142  0.697982  1
  Pr  Pr3  1  0.250000  0.529991  0.185607  1
  Zn  Zn4  1  0.250000  0.655272  0.571860  1
  Zn  Zn5  1  0.250000  0.147931  0.931056  1
  Zn  Zn6  1  0.750000  0.347691  0.430386  1
  Zn  Zn7  1  0.750000  0.846616  0.068128  1
  Ir  Ir8  1  0.250000  0.766439  0.888300  1
  Pt  Pt9  1  0.250000  0.271607  0.606471  1
  Pt  Pt10  1  0.750000  0.728938  0.393068  1
  Pt  Pt11  1  0.750000  0.231617  0.111261  1
