# generated using pymatgen
data_Tb6Ho(ErSi2)3
_symmetry_space_group_name_H-M   'P 1'
_cell_length_a   8.45316900
_cell_length_b   8.45316867
_cell_length_c   6.34473200
_cell_angle_alpha   90.00000000
_cell_angle_beta   90.00000000
_cell_angle_gamma   119.99999739
_symmetry_Int_Tables_number   1
_chemical_formula_structural   Tb6Ho(ErSi2)3
_chemical_formula_sum   'Tb6 Ho1 Er3 Si6'
_cell_volume   392.62957659
_cell_formula_units_Z   1
loop_
 _symmetry_equiv_pos_site_id
 _symmetry_equiv_pos_as_xyz
  1  'x, y, z'
loop_
 _atom_site_type_symbol
 _atom_site_label
 _atom_site_symmetry_multiplicity
 _atom_site_fract_x
 _atom_site_fract_y
 _atom_site_fract_z
 _atom_site_occupancy
  Tb  Tb0  1  0.999944  0.756166  0.750051  1
  Tb  Tb1  1  0.999944  0.243778  0.249949  1
  Tb  Tb2  1  0.756222  0.756166  0.249949  1
  Tb  Tb3  1  0.756222  0.000056  0.750051  1
  Tb  Tb4  1  0.243834  0.243778  0.750051  1
  Tb  Tb5  1  0.243834  0.000056  0.249949  1
  Ho  Ho6  1  0.333333  0.666667  0.500000  1
  Er  Er7  1  0.666667  0.333333  0.000000  1
  Er  Er8  1  0.666667  0.333333  0.500000  1
  Er  Er9  1  0.333333  0.666667  0.000000  1
  Si  Si10  1  0.395110  0.000152  0.750134  1
  Si  Si11  1  0.395110  0.394958  0.249866  1
  Si  Si12  1  0.999848  0.604890  0.249866  1
  Si  Si13  1  0.999848  0.394958  0.750134  1
  Si  Si14  1  0.605042  0.604890  0.750134  1
  Si  Si15  1  0.605042  0.000152  0.249866  1
