# generated using pymatgen
data_Ta3V2Ga2SiB
_symmetry_space_group_name_H-M   'P 1'
_cell_length_a   7.61072600
_cell_length_b   7.64051317
_cell_length_c   5.08816000
_cell_angle_alpha   90.00000000
_cell_angle_beta   90.00000000
_cell_angle_gamma   119.87111951
_symmetry_Int_Tables_number   1
_chemical_formula_structural   Ta3V2Ga2SiB
_chemical_formula_sum   'Ta6 V4 Ga4 Si2 B2'
_cell_volume   256.56803907
_cell_formula_units_Z   2
loop_
 _symmetry_equiv_pos_site_id
 _symmetry_equiv_pos_as_xyz
  1  'x, y, z'
loop_
 _atom_site_type_symbol
 _atom_site_label
 _atom_site_symmetry_multiplicity
 _atom_site_fract_x
 _atom_site_fract_y
 _atom_site_fract_z
 _atom_site_occupancy
  Ta  Ta0  1  0.249459  0.000000  0.250000  1
  Ta  Ta1  1  0.750541  0.000000  0.750000  1
  Ta  Ta2  1  0.993020  0.240085  0.250000  1
  Ta  Ta3  1  0.006980  0.759915  0.750000  1
  Ta  Ta4  1  0.752935  0.759915  0.250000  1
  Ta  Ta5  1  0.247065  0.240085  0.750000  1
  V  V6  1  0.338177  0.676355  0.000000  1
  V  V7  1  0.661823  0.323645  0.000000  1
  V  V8  1  0.661823  0.323645  0.500000  1
  V  V9  1  0.338177  0.676355  0.500000  1
  Ga  Ga10  1  0.996492  0.591700  0.250000  1
  Ga  Ga11  1  0.003508  0.408300  0.750000  1
  Ga  Ga12  1  0.404791  0.408300  0.250000  1
  Ga  Ga13  1  0.595209  0.591700  0.750000  1
  Si  Si14  1  0.592751  0.000000  0.250000  1
  Si  Si15  1  0.407249  0.000000  0.750000  1
  B  B16  1  0.000000  0.000000  0.000000  1
  B  B17  1  0.000000  0.000000  0.500000  1
