# generated using pymatgen
data_Sc8Ru3Pt4Rh
_symmetry_space_group_name_H-M   'P 1'
_cell_length_a   6.44468200
_cell_length_b   6.44443600
_cell_length_c   6.64575300
_cell_angle_alpha   90.00014010
_cell_angle_beta   89.99897596
_cell_angle_gamma   90.00016003
_symmetry_Int_Tables_number   1
_chemical_formula_structural   Sc8Ru3Pt4Rh
_chemical_formula_sum   'Sc8 Ru3 Pt4 Rh1'
_cell_volume   276.01367771
_cell_formula_units_Z   1
loop_
 _symmetry_equiv_pos_site_id
 _symmetry_equiv_pos_as_xyz
  1  'x, y, z'
loop_
 _atom_site_type_symbol
 _atom_site_label
 _atom_site_symmetry_multiplicity
 _atom_site_fract_x
 _atom_site_fract_y
 _atom_site_fract_z
 _atom_site_occupancy
  Sc  Sc0  1  0.500177  0.999969  0.249360  1
  Sc  Sc1  1  0.500179  0.500049  0.249359  1
  Sc  Sc2  1  0.000208  0.999921  0.249505  1
  Sc  Sc3  1  0.000208  0.500059  0.249505  1
  Sc  Sc4  1  0.999817  0.999961  0.750492  1
  Sc  Sc5  1  0.999819  0.500060  0.750491  1
  Sc  Sc6  1  0.499792  0.999919  0.750631  1
  Sc  Sc7  1  0.499796  0.500060  0.750631  1
  Ru  Ru8  1  0.250037  0.749999  0.499930  1
  Ru  Ru9  1  0.749965  0.250001  0.500081  1
  Ru  Ru10  1  0.249962  0.749999  0.999938  1
  Pt  Pt11  1  0.249953  0.249999  0.999990  1
  Pt  Pt12  1  0.750038  0.750002  0.999991  1
  Pt  Pt13  1  0.749959  0.749999  0.499978  1
  Pt  Pt14  1  0.250040  0.250000  0.500015  1
  Rh  Rh15  1  0.750049  0.250007  0.000094  1
