# generated using pymatgen
data_Li6Sc12RuPt5
_symmetry_space_group_name_H-M   'P 1'
_cell_length_a   4.66693200
_cell_length_b   6.66754700
_cell_length_c   13.82606900
_cell_angle_alpha   90.00000000
_cell_angle_beta   90.00230209
_cell_angle_gamma   90.00000000
_symmetry_Int_Tables_number   1
_chemical_formula_structural   Li6Sc12RuPt5
_chemical_formula_sum   'Li6 Sc12 Ru1 Pt5'
_cell_volume   430.22562929
_cell_formula_units_Z   1
loop_
 _symmetry_equiv_pos_site_id
 _symmetry_equiv_pos_as_xyz
  1  'x, y, z'
loop_
 _atom_site_type_symbol
 _atom_site_label
 _atom_site_symmetry_multiplicity
 _atom_site_fract_x
 _atom_site_fract_y
 _atom_site_fract_z
 _atom_site_occupancy
  Li  Li0  1  0.000004  0.500000  0.000910  1
  Li  Li1  1  0.499877  0.000000  0.166001  1
  Li  Li2  1  0.999828  0.500000  0.333329  1
  Li  Li3  1  0.500002  0.000000  0.500688  1
  Li  Li4  1  0.000144  0.500000  0.665761  1
  Li  Li5  1  0.500100  0.000000  0.833335  1
  Sc  Sc6  1  0.500004  0.253593  0.997458  1
  Sc  Sc7  1  0.500004  0.746407  0.997458  1
  Sc  Sc8  1  0.999841  0.248868  0.166841  1
  Sc  Sc9  1  0.999841  0.751133  0.166841  1
  Sc  Sc10  1  0.499864  0.251007  0.333357  1
  Sc  Sc11  1  0.499864  0.748992  0.333357  1
  Sc  Sc12  1  0.999989  0.248882  0.499829  1
  Sc  Sc13  1  0.999989  0.751115  0.499829  1
  Sc  Sc14  1  0.500144  0.253599  0.669151  1
  Sc  Sc15  1  0.500144  0.746400  0.669151  1
  Sc  Sc16  1  0.000145  0.254999  0.833323  1
  Sc  Sc17  1  0.000145  0.745002  0.833323  1
  Ru  Ru18  1  0.500273  0.500000  0.833341  1
  Pt  Pt19  1  0.999983  0.000000  0.001708  1
  Pt  Pt20  1  0.499801  0.500000  0.167468  1
  Pt  Pt21  1  0.999839  0.000000  0.333357  1
  Pt  Pt22  1  0.499983  0.500000  0.499219  1
  Pt  Pt23  1  0.000203  0.000000  0.664968  1
