# generated using pymatgen
data_K4NpPaTe6
_symmetry_space_group_name_H-M   'P 1'
_cell_length_a   8.11787030
_cell_length_b   8.11837761
_cell_length_c   8.65045200
_cell_angle_alpha   80.84928425
_cell_angle_beta   80.85120962
_cell_angle_gamma   120.02343452
_symmetry_Int_Tables_number   1
_chemical_formula_structural   K4NpPaTe6
_chemical_formula_sum   'K4 Np1 Pa1 Te6'
_cell_volume   467.95707075
_cell_formula_units_Z   1
loop_
 _symmetry_equiv_pos_site_id
 _symmetry_equiv_pos_as_xyz
  1  'x, y, z'
loop_
 _atom_site_type_symbol
 _atom_site_label
 _atom_site_symmetry_multiplicity
 _atom_site_fract_x
 _atom_site_fract_y
 _atom_site_fract_z
 _atom_site_occupancy
  K  K0  1  0.345318  0.654873  0.499975  1
  K  K1  1  0.654966  0.345039  0.499953  1
  K  K2  1  0.999931  0.999990  0.499892  1
  K  K3  1  0.499739  0.499979  0.000166  1
  Np  Np4  1  0.831538  0.167499  0.000441  1
  Pa  Pa5  1  0.168256  0.831794  0.000327  1
  Te  Te6  1  0.802779  0.792901  0.210357  1
  Te  Te7  1  0.416403  0.051531  0.213118  1
  Te  Te8  1  0.062645  0.437608  0.213499  1
  Te  Te9  1  0.562597  0.937429  0.785902  1
  Te  Te10  1  0.948625  0.583337  0.786691  1
  Te  Te11  1  0.207206  0.198021  0.789679  1
