# generated using pymatgen
data_TbY11(TcRh)2
_symmetry_space_group_name_H-M   'P 1'
_cell_length_a   6.36778464
_cell_length_b   7.38201133
_cell_length_c   9.27862900
_cell_angle_alpha   90.00000000
_cell_angle_beta   90.00000000
_cell_angle_gamma   89.79950483
_symmetry_Int_Tables_number   1
_chemical_formula_structural   TbY11(TcRh)2
_chemical_formula_sum   'Tb1 Y11 Tc2 Rh2'
_cell_volume   436.15838483
_cell_formula_units_Z   1
loop_
 _symmetry_equiv_pos_site_id
 _symmetry_equiv_pos_as_xyz
  1  'x, y, z'
loop_
 _atom_site_type_symbol
 _atom_site_label
 _atom_site_symmetry_multiplicity
 _atom_site_fract_x
 _atom_site_fract_y
 _atom_site_fract_z
 _atom_site_occupancy
  Tb  Tb0  1  0.637227  0.041055  0.250000  1
  Y  Y1  1  0.363226  0.959554  0.750000  1
  Y  Y2  1  0.128850  0.460394  0.750000  1
  Y  Y3  1  0.871124  0.539441  0.250000  1
  Y  Y4  1  0.173531  0.179074  0.066028  1
  Y  Y5  1  0.826246  0.820976  0.933945  1
  Y  Y6  1  0.665648  0.326012  0.937684  1
  Y  Y7  1  0.826246  0.820976  0.566055  1
  Y  Y8  1  0.334204  0.674058  0.062422  1
  Y  Y9  1  0.173531  0.179074  0.433972  1
  Y  Y10  1  0.334204  0.674058  0.437578  1
  Y  Y11  1  0.665648  0.326012  0.562316  1
  Tc  Tc12  1  0.463912  0.382310  0.250000  1
  Tc  Tc13  1  0.537252  0.616529  0.750000  1
  Rh  Rh14  1  0.956802  0.114538  0.750000  1
  Rh  Rh15  1  0.042351  0.885940  0.250000  1
