# generated using pymatgen
data_Tb2ThAlAu5
_symmetry_space_group_name_H-M   'P 1'
_cell_length_a   8.57202505
_cell_length_b   8.57202531
_cell_length_c   13.65596300
_cell_angle_alpha   90.00000000
_cell_angle_beta   90.00000000
_cell_angle_gamma   128.43166473
_symmetry_Int_Tables_number   1
_chemical_formula_structural   Tb2ThAlAu5
_chemical_formula_sum   'Tb8 Th4 Al4 Au20'
_cell_volume   786.04079756
_cell_formula_units_Z   4
loop_
 _symmetry_equiv_pos_site_id
 _symmetry_equiv_pos_as_xyz
  1  'x, y, z'
loop_
 _atom_site_type_symbol
 _atom_site_label
 _atom_site_symmetry_multiplicity
 _atom_site_fract_x
 _atom_site_fract_y
 _atom_site_fract_z
 _atom_site_occupancy
  Tb  Tb0  1  0.632155  0.367845  0.464322  1
  Tb  Tb1  1  0.367845  0.632155  0.535678  1
  Tb  Tb2  1  0.632155  0.367845  0.035678  1
  Tb  Tb3  1  0.367845  0.632155  0.964322  1
  Tb  Tb4  1  0.883682  0.116318  0.952433  1
  Tb  Tb5  1  0.116318  0.883682  0.047567  1
  Tb  Tb6  1  0.883682  0.116318  0.547567  1
  Tb  Tb7  1  0.116318  0.883682  0.452433  1
  Th  Th8  1  0.932530  0.067470  0.250000  1
  Th  Th9  1  0.067470  0.932530  0.750000  1
  Th  Th10  1  0.316466  0.683534  0.250000  1
  Th  Th11  1  0.683534  0.316466  0.750000  1
  Al  Al12  1  0.720727  0.279273  0.250000  1
  Al  Al13  1  0.279273  0.720727  0.750000  1
  Al  Al14  1  0.532994  0.467006  0.250000  1
  Al  Al15  1  0.467006  0.532994  0.750000  1
  Au  Au16  1  0.322617  0.069772  0.250000  1
  Au  Au17  1  0.069772  0.322617  0.750000  1
  Au  Au18  1  0.677383  0.930228  0.750000  1
  Au  Au19  1  0.930228  0.677383  0.250000  1
  Au  Au20  1  0.574848  0.007651  0.398235  1
  Au  Au21  1  0.007651  0.574848  0.601765  1
  Au  Au22  1  0.574848  0.007651  0.101765  1
  Au  Au23  1  0.007651  0.574848  0.898235  1
  Au  Au24  1  0.425152  0.992349  0.601765  1
  Au  Au25  1  0.992349  0.425152  0.398235  1
  Au  Au26  1  0.425152  0.992349  0.898235  1
  Au  Au27  1  0.992349  0.425152  0.101765  1
  Au  Au28  1  0.681080  0.735653  0.395961  1
  Au  Au29  1  0.735653  0.681080  0.604039  1
  Au  Au30  1  0.681080  0.735653  0.104039  1
  Au  Au31  1  0.735653  0.681080  0.895961  1
  Au  Au32  1  0.318920  0.264347  0.604039  1
  Au  Au33  1  0.264347  0.318920  0.395961  1
  Au  Au34  1  0.318920  0.264347  0.895961  1
  Au  Au35  1  0.264347  0.318920  0.104039  1
