# generated using pymatgen
data_Y6Lu4(InSb)3
_symmetry_space_group_name_H-M   'P 1'
_cell_length_a   8.93271400
_cell_length_b   8.91016161
_cell_length_c   6.50572600
_cell_angle_alpha   90.00000000
_cell_angle_beta   90.00000000
_cell_angle_gamma   120.08376304
_symmetry_Int_Tables_number   1
_chemical_formula_structural   Y6Lu4(InSb)3
_chemical_formula_sum   'Y6 Lu4 In3 Sb3'
_cell_volume   448.05179793
_cell_formula_units_Z   1
loop_
 _symmetry_equiv_pos_site_id
 _symmetry_equiv_pos_as_xyz
  1  'x, y, z'
loop_
 _atom_site_type_symbol
 _atom_site_label
 _atom_site_symmetry_multiplicity
 _atom_site_fract_x
 _atom_site_fract_y
 _atom_site_fract_z
 _atom_site_occupancy
  Y  Y0  1  0.002331  0.760649  0.750000  1
  Y  Y1  1  0.003217  0.242787  0.250000  1
  Y  Y2  1  0.760431  0.757213  0.250000  1
  Y  Y3  1  0.758503  0.000000  0.750000  1
  Y  Y4  1  0.241682  0.239351  0.750000  1
  Y  Y5  1  0.239732  0.000000  0.250000  1
  Lu  Lu6  1  0.331333  0.666014  0.498362  1
  Lu  Lu7  1  0.665321  0.333986  0.001638  1
  Lu  Lu8  1  0.665321  0.333986  0.498362  1
  Lu  Lu9  1  0.331333  0.666014  0.001638  1
  In  In10  1  0.398674  0.000000  0.750000  1
  In  In11  1  0.396778  0.398478  0.250000  1
  In  In12  1  0.998300  0.601522  0.250000  1
  Sb  Sb13  1  0.997786  0.393715  0.750000  1
  Sb  Sb14  1  0.604071  0.606285  0.750000  1
  Sb  Sb15  1  0.605184  0.000000  0.250000  1
