# generated using pymatgen
data_Tc(SF9)2
_symmetry_space_group_name_H-M   'P 1'
_cell_length_a   8.69352579
_cell_length_b   8.69352515
_cell_length_c   5.13741037
_cell_angle_alpha   85.21394165
_cell_angle_beta   85.21394555
_cell_angle_gamma   60.69718742
_symmetry_Int_Tables_number   1
_chemical_formula_structural   Tc(SF9)2
_chemical_formula_sum   'Tc1 S2 F18'
_cell_volume   337.00452676
_cell_formula_units_Z   1
loop_
 _symmetry_equiv_pos_site_id
 _symmetry_equiv_pos_as_xyz
  1  'x, y, z'
loop_
 _atom_site_type_symbol
 _atom_site_label
 _atom_site_symmetry_multiplicity
 _atom_site_fract_x
 _atom_site_fract_y
 _atom_site_fract_z
 _atom_site_occupancy
  Tc  Tc0  1  0.668420  0.668420  0.409619  1
  S  S1  1  0.331579  0.331579  0.590367  1
  S  S2  1  0.999983  0.999983  0.999640  1
  F  F3  1  0.257594  0.514928  0.423017  1
  F  F4  1  0.934674  0.934674  0.264708  1
  F  F5  1  0.065342  0.065342  0.735444  1
  F  F6  1  0.811420  0.068560  0.883140  1
  F  F7  1  0.931546  0.188558  0.117093  1
  F  F8  1  0.188558  0.931546  0.117093  1
  F  F9  1  0.068560  0.811420  0.883140  1
  F  F10  1  0.455236  0.754161  0.603484  1
  F  F11  1  0.754161  0.455236  0.603484  1
  F  F12  1  0.257460  0.257460  0.387148  1
  F  F13  1  0.755159  0.755159  0.646042  1
  F  F14  1  0.405676  0.405676  0.793655  1
  F  F15  1  0.581637  0.581637  0.173277  1
  F  F16  1  0.405571  0.148248  0.757785  1
  F  F17  1  0.881517  0.582728  0.215531  1
  F  F18  1  0.582728  0.881517  0.215531  1
  F  F19  1  0.148248  0.405571  0.757785  1
  F  F20  1  0.514928  0.257594  0.423017  1
