# generated using pymatgen
data_Tm6MnCoSi6
_symmetry_space_group_name_H-M   'P 1'
_cell_length_a   5.58869587
_cell_length_b   5.58869672
_cell_length_c   13.33692982
_cell_angle_alpha   70.78100578
_cell_angle_beta   70.78100390
_cell_angle_gamma   43.31161993
_symmetry_Int_Tables_number   1
_chemical_formula_structural   Tm6MnCoSi6
_chemical_formula_sum   'Tm6 Mn1 Co1 Si6'
_cell_volume   267.22287641
_cell_formula_units_Z   1
loop_
 _symmetry_equiv_pos_site_id
 _symmetry_equiv_pos_as_xyz
  1  'x, y, z'
loop_
 _atom_site_type_symbol
 _atom_site_label
 _atom_site_symmetry_multiplicity
 _atom_site_fract_x
 _atom_site_fract_y
 _atom_site_fract_z
 _atom_site_occupancy
  Tm  Tm0  1  0.747846  0.747846  0.771245  1
  Tm  Tm1  1  0.253533  0.253533  0.229236  1
  Tm  Tm2  1  0.521776  0.521776  0.623060  1
  Tm  Tm3  1  0.477029  0.477029  0.379783  1
  Tm  Tm4  1  0.399912  0.399912  0.918487  1
  Tm  Tm5  1  0.601627  0.601627  0.079529  1
  Mn  Mn6  1  0.753848  0.753848  0.413972  1
  Co  Co7  1  0.246177  0.246177  0.583978  1
  Si  Si8  1  0.131418  0.131418  0.459621  1
  Si  Si9  1  0.861463  0.861463  0.546079  1
  Si  Si10  1  0.115681  0.115681  0.923708  1
  Si  Si11  1  0.885226  0.885226  0.074483  1
  Si  Si12  1  0.053644  0.053644  0.758724  1
  Si  Si13  1  0.950820  0.950820  0.238095  1
