# generated using pymatgen
data_TbTm2Cd3Sn2Au
_symmetry_space_group_name_H-M   'P 1'
_cell_length_a   7.46257343
_cell_length_b   7.46257400
_cell_length_c   4.51873500
_cell_angle_alpha   90.00000000
_cell_angle_beta   90.00000000
_cell_angle_gamma   120.28095587
_symmetry_Int_Tables_number   1
_chemical_formula_structural   TbTm2Cd3Sn2Au
_chemical_formula_sum   'Tb1 Tm2 Cd3 Sn2 Au1'
_cell_volume   217.31428129
_cell_formula_units_Z   1
loop_
 _symmetry_equiv_pos_site_id
 _symmetry_equiv_pos_as_xyz
  1  'x, y, z'
loop_
 _atom_site_type_symbol
 _atom_site_label
 _atom_site_symmetry_multiplicity
 _atom_site_fract_x
 _atom_site_fract_y
 _atom_site_fract_z
 _atom_site_occupancy
  Tb  Tb0  1  0.409180  0.409180  0.000000  1
  Tm  Tm1  1  0.593824  0.000407  0.000000  1
  Tm  Tm2  1  0.000407  0.593824  0.000000  1
  Cd  Cd3  1  0.240610  0.000322  0.500000  1
  Cd  Cd4  1  0.000322  0.240610  0.500000  1
  Cd  Cd5  1  0.758196  0.758196  0.500000  1
  Sn  Sn6  1  0.332144  0.668742  0.500000  1
  Sn  Sn7  1  0.668742  0.332144  0.500000  1
  Au  Au8  1  0.996576  0.996576  0.000000  1
