# generated using pymatgen
data_Tb3In2GaRuPt2
_symmetry_space_group_name_H-M   'P 1'
_cell_length_a   7.72098061
_cell_length_b   7.72097897
_cell_length_c   3.68842000
_cell_angle_alpha   90.00000000
_cell_angle_beta   90.00000000
_cell_angle_gamma   119.61047896
_symmetry_Int_Tables_number   1
_chemical_formula_structural   Tb3In2GaRuPt2
_chemical_formula_sum   'Tb3 In2 Ga1 Ru1 Pt2'
_cell_volume   191.16444558
_cell_formula_units_Z   1
loop_
 _symmetry_equiv_pos_site_id
 _symmetry_equiv_pos_as_xyz
  1  'x, y, z'
loop_
 _atom_site_type_symbol
 _atom_site_label
 _atom_site_symmetry_multiplicity
 _atom_site_fract_x
 _atom_site_fract_y
 _atom_site_fract_z
 _atom_site_occupancy
  Tb  Tb0  1  0.395776  0.005809  0.000000  1
  Tb  Tb1  1  0.005809  0.395776  0.000000  1
  Tb  Tb2  1  0.580283  0.580283  0.000000  1
  In  In3  1  0.991540  0.737626  0.500000  1
  In  In4  1  0.737626  0.991540  0.500000  1
  Ga  Ga5  1  0.265509  0.265509  0.500000  1
  Ru  Ru6  1  0.031599  0.031599  0.000000  1
  Pt  Pt7  1  0.662750  0.329109  0.500000  1
  Pt  Pt8  1  0.329109  0.662750  0.500000  1
