# generated using pymatgen
data_Ca8As5Br
_symmetry_space_group_name_H-M   'P 1'
_cell_length_a   7.81393874
_cell_length_b   7.81393960
_cell_length_c   7.81393864
_cell_angle_alpha   109.43155077
_cell_angle_beta   109.43154687
_cell_angle_gamma   109.55059369
_symmetry_Int_Tables_number   1
_chemical_formula_structural   Ca8As5Br
_chemical_formula_sum   'Ca8 As5 Br1'
_cell_volume   367.27175581
_cell_formula_units_Z   1
loop_
 _symmetry_equiv_pos_site_id
 _symmetry_equiv_pos_as_xyz
  1  'x, y, z'
loop_
 _atom_site_type_symbol
 _atom_site_label
 _atom_site_symmetry_multiplicity
 _atom_site_fract_x
 _atom_site_fract_y
 _atom_site_fract_z
 _atom_site_occupancy
  Ca  Ca0  1  0.737738  0.361397  0.240478  1
  Ca  Ca1  1  0.977898  0.734976  0.095044  1
  Ca  Ca2  1  0.639934  0.882854  0.904956  1
  Ca  Ca3  1  0.120919  0.497260  0.759522  1
  Ca  Ca4  1  0.638603  0.879081  0.376342  1
  Ca  Ca5  1  0.502740  0.262262  0.623658  1
  Ca  Ca6  1  0.265024  0.360066  0.242921  1
  Ca  Ca7  1  0.117146  0.022102  0.757079  1
  As  As8  1  0.746089  0.632757  0.618155  1
  As  As9  1  0.367243  0.985398  0.113332  1
  As  As10  1  0.014602  0.127933  0.381845  1
  As  As11  1  0.500000  0.500000  0.000000  1
  As  As12  1  0.872067  0.253911  0.886668  1
  Br  Br13  1  0.250000  0.750000  0.500000  1
