# generated using pymatgen
data_CaTm5Pa2(ReB6)4
_symmetry_space_group_name_H-M   'P 1'
_cell_length_a   3.67911900
_cell_length_b   9.13066524
_cell_length_c   11.50394380
_cell_angle_alpha   90.35542837
_cell_angle_beta   90.00000000
_cell_angle_gamma   90.00000000
_symmetry_Int_Tables_number   1
_chemical_formula_structural   CaTm5Pa2(ReB6)4
_chemical_formula_sum   'Ca1 Tm5 Pa2 Re4 B24'
_cell_volume   386.44229302
_cell_formula_units_Z   1
loop_
 _symmetry_equiv_pos_site_id
 _symmetry_equiv_pos_as_xyz
  1  'x, y, z'
loop_
 _atom_site_type_symbol
 _atom_site_label
 _atom_site_symmetry_multiplicity
 _atom_site_fract_x
 _atom_site_fract_y
 _atom_site_fract_z
 _atom_site_occupancy
  Ca  Ca0  1  0.000000  0.822902  0.085678  1
  Tm  Tm1  1  0.000000  0.174930  0.915381  1
  Tm  Tm2  1  0.000000  0.944047  0.371033  1
  Tm  Tm3  1  0.000000  0.055390  0.627501  1
  Tm  Tm4  1  0.000000  0.443662  0.127186  1
  Tm  Tm5  1  0.000000  0.557430  0.873195  1
  Pa  Pa6  1  0.000000  0.320588  0.412829  1
  Pa  Pa7  1  0.000000  0.679701  0.586887  1
  Re  Re8  1  0.000000  0.634501  0.325287  1
  Re  Re9  1  0.000000  0.364240  0.676219  1
  Re  Re10  1  0.000000  0.142769  0.182402  1
  Re  Re11  1  0.000000  0.859478  0.816710  1
  B  B12  1  0.500000  0.553280  0.433187  1
  B  B13  1  0.500000  0.446151  0.567691  1
  B  B14  1  0.500000  0.054532  0.066788  1
  B  B15  1  0.500000  0.947371  0.932300  1
  B  B16  1  0.500000  0.749243  0.419094  1
  B  B17  1  0.500000  0.250352  0.581186  1
  B  B18  1  0.500000  0.249210  0.079919  1
  B  B19  1  0.500000  0.751488  0.918683  1
  B  B20  1  0.500000  0.791346  0.266267  1
  B  B21  1  0.500000  0.207808  0.734793  1
  B  B22  1  0.500000  0.292821  0.233783  1
  B  B23  1  0.500000  0.707998  0.765630  1
  B  B24  1  0.500000  0.630293  0.185819  1
  B  B25  1  0.500000  0.368714  0.815425  1
  B  B26  1  0.500000  0.132156  0.314169  1
  B  B27  1  0.500000  0.868767  0.685267  1
  B  B28  1  0.500000  0.983139  0.212081  1
  B  B29  1  0.500000  0.018395  0.787690  1
  B  B30  1  0.500000  0.482258  0.287389  1
  B  B31  1  0.500000  0.517281  0.713504  1
  B  B32  1  0.500000  0.599551  0.028037  1
  B  B33  1  0.500000  0.398001  0.971368  1
  B  B34  1  0.500000  0.108326  0.470079  1
  B  B35  1  0.500000  0.891880  0.529545  1
