# generated using pymatgen
data_Sc12AlNi4Sb
_symmetry_space_group_name_H-M   'P 1'
_cell_length_a   7.80716675
_cell_length_b   7.80716529
_cell_length_c   7.80716612
_cell_angle_alpha   111.49944572
_cell_angle_beta   110.93093418
_cell_angle_gamma   106.03744275
_symmetry_Int_Tables_number   1
_chemical_formula_structural   Sc12AlNi4Sb
_chemical_formula_sum   'Sc12 Al1 Ni4 Sb1'
_cell_volume   365.32929652
_cell_formula_units_Z   1
loop_
 _symmetry_equiv_pos_site_id
 _symmetry_equiv_pos_as_xyz
  1  'x, y, z'
loop_
 _atom_site_type_symbol
 _atom_site_label
 _atom_site_symmetry_multiplicity
 _atom_site_fract_x
 _atom_site_fract_y
 _atom_site_fract_z
 _atom_site_occupancy
  Sc  Sc0  1  0.438023  0.230652  0.207370  1
  Sc  Sc1  1  0.561977  0.769348  0.792630  1
  Sc  Sc2  1  0.023283  0.230652  0.792630  1
  Sc  Sc3  1  0.976717  0.769348  0.207370  1
  Sc  Sc4  1  0.319015  0.619035  0.300018  1
  Sc  Sc5  1  0.680985  0.380965  0.699982  1
  Sc  Sc6  1  0.319015  0.018996  0.699982  1
  Sc  Sc7  1  0.680985  0.981004  0.300018  1
  Sc  Sc8  1  0.182901  0.284807  0.467711  1
  Sc  Sc9  1  0.817099  0.715192  0.532289  1
  Sc  Sc10  1  0.182901  0.715192  0.898094  1
  Sc  Sc11  1  0.817099  0.284807  0.101906  1
  Al  Al12  1  0.000000  0.000000  0.000000  1
  Ni  Ni13  1  0.351640  0.000000  0.351640  1
  Ni  Ni14  1  0.648360  0.000000  0.648360  1
  Ni  Ni15  1  0.127880  0.627880  0.500000  1
  Ni  Ni16  1  0.872120  0.372120  0.500000  1
  Sb  Sb17  1  0.500000  0.500000  0.000000  1
