# generated using pymatgen
data_NaAc(UBr6)2
_symmetry_space_group_name_H-M   'P 1'
_cell_length_a   7.52222721
_cell_length_b   7.52222635
_cell_length_c   14.37113800
_cell_angle_alpha   84.13660688
_cell_angle_beta   84.13659989
_cell_angle_gamma   119.39664149
_symmetry_Int_Tables_number   1
_chemical_formula_structural   NaAc(UBr6)2
_chemical_formula_sum   'Na1 Ac1 U2 Br12'
_cell_volume   693.79904693
_cell_formula_units_Z   1
loop_
 _symmetry_equiv_pos_site_id
 _symmetry_equiv_pos_as_xyz
  1  'x, y, z'
loop_
 _atom_site_type_symbol
 _atom_site_label
 _atom_site_symmetry_multiplicity
 _atom_site_fract_x
 _atom_site_fract_y
 _atom_site_fract_z
 _atom_site_occupancy
  Na  Na0  1  0.915727  0.084273  0.750000  1
  Ac  Ac1  1  0.084471  0.915529  0.250000  1
  U  U2  1  0.419583  0.580417  0.250000  1
  U  U3  1  0.580853  0.419147  0.750000  1
  Br  Br4  1  0.322833  0.456128  0.639080  1
  Br  Br5  1  0.453056  0.308297  0.132544  1
  Br  Br6  1  0.241336  0.085555  0.862892  1
  Br  Br7  1  0.070800  0.222375  0.369105  1
  Br  Br8  1  0.164683  0.642214  0.130240  1
  Br  Br9  1  0.633186  0.171959  0.636967  1
  Br  Br10  1  0.357786  0.835317  0.369760  1
  Br  Br11  1  0.828041  0.366814  0.863033  1
  Br  Br12  1  0.777625  0.929200  0.130895  1
  Br  Br13  1  0.914445  0.758664  0.637108  1
  Br  Br14  1  0.543872  0.677167  0.860920  1
  Br  Br15  1  0.691703  0.546944  0.367456  1
