# generated using pymatgen
data_HfGa2SiRu4
_symmetry_space_group_name_H-M   'P 1'
_cell_length_a   6.14286300
_cell_length_b   4.35749400
_cell_length_c   8.61375000
_cell_angle_alpha   90.00000000
_cell_angle_beta   90.00000000
_cell_angle_gamma   90.00000000
_symmetry_Int_Tables_number   1
_chemical_formula_structural   HfGa2SiRu4
_chemical_formula_sum   'Hf2 Ga4 Si2 Ru8'
_cell_volume   230.56845549
_cell_formula_units_Z   2
loop_
 _symmetry_equiv_pos_site_id
 _symmetry_equiv_pos_as_xyz
  1  'x, y, z'
loop_
 _atom_site_type_symbol
 _atom_site_label
 _atom_site_symmetry_multiplicity
 _atom_site_fract_x
 _atom_site_fract_y
 _atom_site_fract_z
 _atom_site_occupancy
  Hf  Hf0  1  0.249993  0.250000  0.117991  1
  Hf  Hf1  1  0.749994  0.750001  0.382010  1
  Ga  Ga2  1  0.750064  0.250000  0.135635  1
  Ga  Ga3  1  0.250063  0.750001  0.364365  1
  Ga  Ga4  1  0.749998  0.250000  0.616567  1
  Ga  Ga5  1  0.249998  0.750001  0.883433  1
  Si  Si6  1  0.249985  0.250000  0.632500  1
  Si  Si7  1  0.749985  0.750001  0.867500  1
  Ru  Ru8  1  0.515034  0.750001  0.111853  1
  Ru  Ru9  1  0.984977  0.750001  0.111856  1
  Ru  Ru10  1  0.484977  0.250000  0.388143  1
  Ru  Ru11  1  0.015034  0.250000  0.388148  1
  Ru  Ru12  1  0.012598  0.750001  0.637670  1
  Ru  Ru13  1  0.487353  0.750001  0.637699  1
  Ru  Ru14  1  0.987353  0.250000  0.862301  1
  Ru  Ru15  1  0.512597  0.250000  0.862330  1
