# generated using pymatgen
data_Cu4Ni3Pt5S16
_symmetry_space_group_name_H-M   'P 1'
_cell_length_a   10.52015169
_cell_length_b   6.96020000
_cell_length_c   6.65571253
_cell_angle_alpha   89.99940248
_cell_angle_beta   90.71929825
_cell_angle_gamma   90.00009745
_symmetry_Int_Tables_number   1
_chemical_formula_structural   Cu4Ni3Pt5S16
_chemical_formula_sum   'Cu4 Ni3 Pt5 S16'
_cell_volume   487.30857378
_cell_formula_units_Z   1
loop_
 _symmetry_equiv_pos_site_id
 _symmetry_equiv_pos_as_xyz
  1  'x, y, z'
loop_
 _atom_site_type_symbol
 _atom_site_label
 _atom_site_symmetry_multiplicity
 _atom_site_fract_x
 _atom_site_fract_y
 _atom_site_fract_z
 _atom_site_occupancy
  Cu  Cu0  1  0.655059  0.999956  0.011596  1
  Cu  Cu1  1  0.844937  0.999957  0.488392  1
  Cu  Cu2  1  0.156614  0.000050  0.511360  1
  Cu  Cu3  1  0.343379  0.000041  0.988640  1
  Ni  Ni4  1  0.749998  0.499957  0.249998  1
  Ni  Ni5  1  0.250037  0.500152  0.250071  1
  Ni  Ni6  1  0.250000  0.500038  0.749996  1
  Pt  Pt7  1  0.003258  0.748631  0.002070  1
  Pt  Pt8  1  0.496738  0.748631  0.497926  1
  Pt  Pt9  1  0.496736  0.251357  0.497927  1
  Pt  Pt10  1  0.749999  0.499969  0.749998  1
  Pt  Pt11  1  0.003262  0.251357  0.002068  1
  S  S12  1  0.775108  0.274186  0.018142  1
  S  S13  1  0.775102  0.725741  0.018145  1
  S  S14  1  0.029176  0.499996  0.246290  1
  S  S15  1  0.007736  0.999995  0.250070  1
  S  S16  1  0.492262  0.999996  0.249926  1
  S  S17  1  0.470824  0.499999  0.253704  1
  S  S18  1  0.724895  0.725742  0.481850  1
  S  S19  1  0.724890  0.274186  0.481858  1
  S  S20  1  0.269882  0.719028  0.509295  1
  S  S21  1  0.269879  0.281023  0.509301  1
  S  S22  1  0.519043  0.499988  0.743479  1
  S  S23  1  0.505004  0.999991  0.747985  1
  S  S24  1  0.994990  0.999993  0.752013  1
  S  S25  1  0.980955  0.499992  0.756517  1
  S  S26  1  0.230118  0.281022  0.990689  1
  S  S27  1  0.230115  0.719026  0.990695  1
