# generated using pymatgen
data_Er2Ta3Ni9P7
_symmetry_space_group_name_H-M   'P 1'
_cell_length_a   9.29244000
_cell_length_b   9.29243954
_cell_length_c   3.69252200
_cell_angle_alpha   90.00000000
_cell_angle_beta   90.00000000
_cell_angle_gamma   120.00000874
_symmetry_Int_Tables_number   1
_chemical_formula_structural   Er2Ta3Ni9P7
_chemical_formula_sum   'Er2 Ta3 Ni9 P7'
_cell_volume   276.12974693
_cell_formula_units_Z   1
loop_
 _symmetry_equiv_pos_site_id
 _symmetry_equiv_pos_as_xyz
  1  'x, y, z'
loop_
 _atom_site_type_symbol
 _atom_site_label
 _atom_site_symmetry_multiplicity
 _atom_site_fract_x
 _atom_site_fract_y
 _atom_site_fract_z
 _atom_site_occupancy
  Er  Er0  1  0.333333  0.666667  0.000000  1
  Er  Er1  1  0.666667  0.333333  0.500000  1
  Ta  Ta2  1  0.225502  0.119962  0.500000  1
  Ta  Ta3  1  0.880038  0.105541  0.500000  1
  Ta  Ta4  1  0.894459  0.774498  0.500000  1
  Ni  Ni5  1  0.128596  0.284682  0.000000  1
  Ni  Ni6  1  0.715318  0.843914  0.000000  1
  Ni  Ni7  1  0.156086  0.871404  0.000000  1
  Ni  Ni8  1  0.433695  0.368374  0.000000  1
  Ni  Ni9  1  0.631626  0.065323  0.000000  1
  Ni  Ni10  1  0.934677  0.566305  0.000000  1
  Ni  Ni11  1  0.058233  0.443804  0.500000  1
  Ni  Ni12  1  0.556196  0.614428  0.500000  1
  Ni  Ni13  1  0.385572  0.941767  0.500000  1
  P  P14  1  0.291127  0.411982  0.500000  1
  P  P15  1  0.588018  0.879145  0.500000  1
  P  P16  1  0.120855  0.708873  0.500000  1
  P  P17  1  0.416724  0.112580  0.000000  1
  P  P18  1  0.887420  0.304145  0.000000  1
  P  P19  1  0.695855  0.583276  0.000000  1
  P  P20  1  0.000000  0.000000  0.000000  1
