# generated using pymatgen
data_NdAl8SiAu4
_symmetry_space_group_name_H-M   'P 1'
_cell_length_a   6.07726937
_cell_length_b   6.07726932
_cell_length_c   14.97067575
_cell_angle_alpha   101.71083116
_cell_angle_beta   101.71083339
_cell_angle_gamma   90.00000584
_symmetry_Int_Tables_number   1
_chemical_formula_structural   NdAl8SiAu4
_chemical_formula_sum   'Nd2 Al16 Si2 Au8'
_cell_volume   529.64650742
_cell_formula_units_Z   2
loop_
 _symmetry_equiv_pos_site_id
 _symmetry_equiv_pos_as_xyz
  1  'x, y, z'
loop_
 _atom_site_type_symbol
 _atom_site_label
 _atom_site_symmetry_multiplicity
 _atom_site_fract_x
 _atom_site_fract_y
 _atom_site_fract_z
 _atom_site_occupancy
  Nd  Nd0  1  0.750001  0.250000  0.500000  1
  Nd  Nd1  1  0.250000  0.750001  0.500000  1
  Al  Al2  1  0.302404  0.302404  0.104808  1
  Al  Al3  1  0.802404  0.302404  0.104808  1
  Al  Al4  1  0.302404  0.802404  0.104808  1
  Al  Al5  1  0.802404  0.802404  0.104808  1
  Al  Al6  1  0.405859  0.405859  0.313516  1
  Al  Al7  1  0.907656  0.405859  0.313516  1
  Al  Al8  1  0.405859  0.907656  0.313516  1
  Al  Al9  1  0.907656  0.907656  0.313516  1
  Al  Al10  1  0.092343  0.092343  0.686484  1
  Al  Al11  1  0.594141  0.092343  0.686484  1
  Al  Al12  1  0.092343  0.594141  0.686484  1
  Al  Al13  1  0.594141  0.594141  0.686484  1
  Al  Al14  1  0.197597  0.197597  0.895192  1
  Al  Al15  1  0.697595  0.197597  0.895192  1
  Al  Al16  1  0.197597  0.697595  0.895192  1
  Al  Al17  1  0.697595  0.697595  0.895192  1
  Si  Si18  1  0.208002  0.208002  0.416004  1
  Si  Si19  1  0.791998  0.791998  0.583997  1
  Au  Au20  1  0.000000  0.000000  0.000000  1
  Au  Au21  1  0.500001  0.500001  0.000000  1
  Au  Au22  1  0.605116  0.105116  0.210232  1
  Au  Au23  1  0.105116  0.605116  0.210232  1
  Au  Au24  1  0.706523  0.706523  0.413043  1
  Au  Au25  1  0.293478  0.293478  0.586957  1
  Au  Au26  1  0.894885  0.394884  0.789767  1
  Au  Au27  1  0.394884  0.894885  0.789767  1
