# generated using pymatgen
data_MgTl5IO12
_symmetry_space_group_name_H-M   'P 1'
_cell_length_a   6.52065618
_cell_length_b   6.34419324
_cell_length_c   6.54895400
_cell_angle_alpha   99.21459143
_cell_angle_beta   99.13504188
_cell_angle_gamma   97.05712318
_symmetry_Int_Tables_number   1
_chemical_formula_structural   MgTl5IO12
_chemical_formula_sum   'Mg1 Tl5 I1 O12'
_cell_volume   260.95727718
_cell_formula_units_Z   1
loop_
 _symmetry_equiv_pos_site_id
 _symmetry_equiv_pos_as_xyz
  1  'x, y, z'
loop_
 _atom_site_type_symbol
 _atom_site_label
 _atom_site_symmetry_multiplicity
 _atom_site_fract_x
 _atom_site_fract_y
 _atom_site_fract_z
 _atom_site_occupancy
  Mg  Mg0  1  0.326562  0.148608  0.589131  1
  Tl  Tl1  1  0.389980  0.687709  0.853374  1
  Tl  Tl2  1  0.862422  0.386959  0.686805  1
  Tl  Tl3  1  0.679061  0.861326  0.397777  1
  Tl  Tl4  1  0.603766  0.302949  0.129308  1
  Tl  Tl5  1  0.146084  0.612500  0.325682  1
  I  I6  1  0.006259  0.002072  0.007448  1
  O  O7  1  0.172823  0.410488  0.602925  1
  O  O8  1  0.584087  0.177261  0.416961  1
  O  O9  1  0.418751  0.603510  0.165704  1
  O  O10  1  0.825423  0.578699  0.395405  1
  O  O11  1  0.396763  0.839460  0.583803  1
  O  O12  1  0.572603  0.377165  0.812842  1
  O  O13  1  0.918138  0.022129  0.717302  1
  O  O14  1  0.976425  0.300452  0.076088  1
  O  O15  1  0.286904  0.066185  0.961369  1
  O  O16  1  0.092304  0.986411  0.298282  1
  O  O17  1  0.025055  0.702354  0.938439  1
  O  O18  1  0.716592  0.933764  0.041353  1
