# generated using pymatgen
data_Sc21PaOs7Pt
_symmetry_space_group_name_H-M   'P 1'
_cell_length_a   9.52458043
_cell_length_b   9.53159598
_cell_length_c   9.52457991
_cell_angle_alpha   59.73993600
_cell_angle_beta   59.66569371
_cell_angle_gamma   59.73994081
_symmetry_Int_Tables_number   1
_chemical_formula_structural   Sc21PaOs7Pt
_chemical_formula_sum   'Sc21 Pa1 Os7 Pt1'
_cell_volume   607.46788392
_cell_formula_units_Z   1
loop_
 _symmetry_equiv_pos_site_id
 _symmetry_equiv_pos_as_xyz
  1  'x, y, z'
loop_
 _atom_site_type_symbol
 _atom_site_label
 _atom_site_symmetry_multiplicity
 _atom_site_fract_x
 _atom_site_fract_y
 _atom_site_fract_z
 _atom_site_occupancy
  Sc  Sc0  1  0.530440  0.161809  0.155224  1
  Sc  Sc1  1  0.155224  0.161809  0.530440  1
  Sc  Sc2  1  0.156551  0.535742  0.156551  1
  Sc  Sc3  1  0.847592  0.839784  0.463651  1
  Sc  Sc4  1  0.845979  0.458847  0.845979  1
  Sc  Sc5  1  0.463651  0.839784  0.847592  1
  Sc  Sc6  1  0.159055  0.160414  0.159055  1
  Sc  Sc7  1  0.197649  0.806134  0.197649  1
  Sc  Sc8  1  0.194902  0.802505  0.800586  1
  Sc  Sc9  1  0.806031  0.197270  0.199118  1
  Sc  Sc10  1  0.800586  0.802505  0.194902  1
  Sc  Sc11  1  0.199118  0.197270  0.806031  1
  Sc  Sc12  1  0.801880  0.195656  0.801880  1
  Sc  Sc13  1  0.378993  0.389352  0.378993  1
  Sc  Sc14  1  0.153403  0.609378  0.612993  1
  Sc  Sc15  1  0.612887  0.155792  0.612887  1
  Sc  Sc16  1  0.612993  0.609378  0.153403  1
  Sc  Sc17  1  0.383424  0.849955  0.383424  1
  Sc  Sc18  1  0.384120  0.388065  0.851707  1
  Sc  Sc19  1  0.851707  0.388065  0.384120  1
  Sc  Sc20  1  0.621057  0.612377  0.621057  1
  Pa  Pa21  1  0.838491  0.837909  0.838491  1
  Os  Os22  1  0.500096  0.498607  0.003665  1
  Os  Os23  1  0.995237  0.995234  0.508345  1
  Os  Os24  1  0.003665  0.498607  0.500096  1
  Os  Os25  1  0.508345  0.995234  0.995237  1
  Os  Os26  1  0.995505  0.509036  0.995505  1
  Os  Os27  1  0.500960  0.501284  0.500960  1
  Os  Os28  1  0.000535  0.000800  0.000535  1
  Pt  Pt29  1  0.499924  0.001395  0.499924  1
