# generated using pymatgen
data_Li8UPa3Cl24
_symmetry_space_group_name_H-M   'P 1'
_cell_length_a   6.47901900
_cell_length_b   6.47901871
_cell_length_c   26.11783200
_cell_angle_alpha   90.00000000
_cell_angle_beta   90.00000000
_cell_angle_gamma   119.99999637
_symmetry_Int_Tables_number   1
_chemical_formula_structural   Li8UPa3Cl24
_chemical_formula_sum   'Li8 U1 Pa3 Cl24'
_cell_volume   949.48095783
_cell_formula_units_Z   1
loop_
 _symmetry_equiv_pos_site_id
 _symmetry_equiv_pos_as_xyz
  1  'x, y, z'
loop_
 _atom_site_type_symbol
 _atom_site_label
 _atom_site_symmetry_multiplicity
 _atom_site_fract_x
 _atom_site_fract_y
 _atom_site_fract_z
 _atom_site_occupancy
  Li  Li0  1  0.000000  0.000000  0.249999  1
  Li  Li1  1  0.000000  0.000000  0.749996  1
  Li  Li2  1  0.333333  0.666667  0.000115  1
  Li  Li3  1  0.333333  0.666667  0.499917  1
  Li  Li4  1  0.333333  0.666667  0.249986  1
  Li  Li5  1  0.666667  0.333333  0.750013  1
  Li  Li6  1  0.666667  0.333333  0.999487  1
  Li  Li7  1  0.666667  0.333333  0.500524  1
  U  U8  1  0.333333  0.666667  0.750032  1
  Pa  Pa9  1  0.000000  0.000000  0.999624  1
  Pa  Pa10  1  0.000000  0.000000  0.500281  1
  Pa  Pa11  1  0.666667  0.333333  0.250011  1
  Cl  Cl12  1  0.325024  0.991724  0.305681  1
  Cl  Cl13  1  0.333294  0.007560  0.805427  1
  Cl  Cl14  1  0.000425  0.341038  0.055674  1
  Cl  Cl15  1  0.999663  0.341477  0.555510  1
  Cl  Cl16  1  0.008276  0.333300  0.305681  1
  Cl  Cl17  1  0.992440  0.325736  0.805427  1
  Cl  Cl18  1  0.324856  0.333299  0.194365  1
  Cl  Cl19  1  0.333322  0.326007  0.694564  1
  Cl  Cl20  1  0.340878  0.341271  0.444283  1
  Cl  Cl21  1  0.341820  0.341448  0.944501  1
  Cl  Cl22  1  0.658729  0.999607  0.444283  1
  Cl  Cl23  1  0.340613  0.999575  0.055674  1
  Cl  Cl24  1  0.341815  0.000337  0.555510  1
  Cl  Cl25  1  0.658962  0.659387  0.055674  1
  Cl  Cl26  1  0.658523  0.658185  0.555510  1
  Cl  Cl27  1  0.666700  0.674976  0.305681  1
  Cl  Cl28  1  0.674264  0.666706  0.805427  1
  Cl  Cl29  1  0.008443  0.675144  0.194365  1
  Cl  Cl30  1  0.992683  0.666678  0.694564  1
  Cl  Cl31  1  0.000393  0.659122  0.444283  1
  Cl  Cl32  1  0.999628  0.658180  0.944501  1
  Cl  Cl33  1  0.658552  0.000372  0.944501  1
  Cl  Cl34  1  0.666701  0.991557  0.194365  1
  Cl  Cl35  1  0.673993  0.007317  0.694564  1
