# generated using pymatgen
data_DyTm19(Bi3Sb)3
_symmetry_space_group_name_H-M   'P 1'
_cell_length_a   8.11390467
_cell_length_b   9.39681700
_cell_length_c   11.84425483
_cell_angle_alpha   90.00000000
_cell_angle_beta   90.05821727
_cell_angle_gamma   90.00000000
_symmetry_Int_Tables_number   1
_chemical_formula_structural   DyTm19(Bi3Sb)3
_chemical_formula_sum   'Dy1 Tm19 Bi9 Sb3'
_cell_volume   903.06329071
_cell_formula_units_Z   1
loop_
 _symmetry_equiv_pos_site_id
 _symmetry_equiv_pos_as_xyz
  1  'x, y, z'
loop_
 _atom_site_type_symbol
 _atom_site_label
 _atom_site_symmetry_multiplicity
 _atom_site_fract_x
 _atom_site_fract_y
 _atom_site_fract_z
 _atom_site_occupancy
  Dy  Dy0  1  0.810796  0.250000  0.279058  1
  Tm  Tm1  1  0.352877  0.750000  0.213886  1
  Tm  Tm2  1  0.853335  0.750000  0.285396  1
  Tm  Tm3  1  0.646860  0.250000  0.785647  1
  Tm  Tm4  1  0.147973  0.250000  0.717780  1
  Tm  Tm5  1  0.689426  0.564530  0.057665  1
  Tm  Tm6  1  0.190592  0.932141  0.442070  1
  Tm  Tm7  1  0.310707  0.064058  0.942365  1
  Tm  Tm8  1  0.808032  0.438213  0.559669  1
  Tm  Tm9  1  0.310707  0.435942  0.942365  1
  Tm  Tm10  1  0.808032  0.061787  0.559669  1
  Tm  Tm11  1  0.689426  0.935470  0.057665  1
  Tm  Tm12  1  0.190592  0.567859  0.442070  1
  Tm  Tm13  1  0.476455  0.250000  0.488805  1
  Tm  Tm14  1  0.974067  0.250000  0.010873  1
  Tm  Tm15  1  0.527821  0.750000  0.512274  1
  Tm  Tm16  1  0.026872  0.750000  0.988525  1
  Tm  Tm17  1  0.317506  0.250000  0.215251  1
  Tm  Tm18  1  0.684171  0.750000  0.783043  1
  Tm  Tm19  1  0.184614  0.750000  0.717020  1
  Bi  Bi20  1  0.094623  0.250000  0.457483  1
  Bi  Bi21  1  0.564495  0.994620  0.325505  1
  Bi  Bi22  1  0.066670  0.504249  0.174339  1
  Bi  Bi23  1  0.433815  0.495942  0.675017  1
  Bi  Bi24  1  0.933927  0.003586  0.825573  1
  Bi  Bi25  1  0.433815  0.004058  0.675017  1
  Bi  Bi26  1  0.933927  0.496414  0.825573  1
  Bi  Bi27  1  0.564495  0.505380  0.325505  1
  Bi  Bi28  1  0.066670  0.995751  0.174339  1
  Sb  Sb29  1  0.405668  0.750000  0.958032  1
  Sb  Sb30  1  0.906436  0.750000  0.541630  1
  Sb  Sb31  1  0.594598  0.250000  0.040887  1
