# generated using pymatgen
data_Eu2InPtRh
_symmetry_space_group_name_H-M   'P 1'
_cell_length_a   5.92388639
_cell_length_b   5.92388629
_cell_length_c   8.26102979
_cell_angle_alpha   76.98117353
_cell_angle_beta   76.98117266
_cell_angle_gamma   58.54854625
_symmetry_Int_Tables_number   1
_chemical_formula_structural   Eu2InPtRh
_chemical_formula_sum   'Eu4 In2 Pt2 Rh2'
_cell_volume   238.91893992
_cell_formula_units_Z   2
loop_
 _symmetry_equiv_pos_site_id
 _symmetry_equiv_pos_as_xyz
  1  'x, y, z'
loop_
 _atom_site_type_symbol
 _atom_site_label
 _atom_site_symmetry_multiplicity
 _atom_site_fract_x
 _atom_site_fract_y
 _atom_site_fract_z
 _atom_site_occupancy
  Eu  Eu0  1  0.797299  0.499998  0.352836  1
  Eu  Eu1  1  0.500002  0.202701  0.147164  1
  Eu  Eu2  1  0.205544  0.503203  0.648396  1
  Eu  Eu3  1  0.496797  0.794456  0.851604  1
  In  In4  1  0.146864  0.853136  0.250000  1
  In  In5  1  0.859883  0.140117  0.750000  1
  Pt  Pt6  1  0.996444  0.284773  0.996651  1
  Pt  Pt7  1  0.715227  0.003556  0.503349  1
  Rh  Rh8  1  0.005469  0.723531  0.006556  1
  Rh  Rh9  1  0.276469  0.994531  0.493444  1
