# generated using pymatgen
data_TaTi2(GaIr2)3
_symmetry_space_group_name_H-M   'P 1'
_cell_length_a   4.07499300
_cell_length_b   7.18395400
_cell_length_c   12.22944501
_cell_angle_alpha   89.99981060
_cell_angle_beta   90.00328952
_cell_angle_gamma   89.99974585
_symmetry_Int_Tables_number   1
_chemical_formula_structural   TaTi2(GaIr2)3
_chemical_formula_sum   'Ta2 Ti4 Ga6 Ir12'
_cell_volume   358.01164879
_cell_formula_units_Z   2
loop_
 _symmetry_equiv_pos_site_id
 _symmetry_equiv_pos_as_xyz
  1  'x, y, z'
loop_
 _atom_site_type_symbol
 _atom_site_label
 _atom_site_symmetry_multiplicity
 _atom_site_fract_x
 _atom_site_fract_y
 _atom_site_fract_z
 _atom_site_occupancy
  Ta  Ta0  1  0.000001  0.500000  0.998070  1
  Ta  Ta1  1  0.500072  0.000000  0.168613  1
  Ti  Ti2  1  0.000075  0.500000  0.336317  1
  Ti  Ti3  1  0.499998  0.000000  0.501240  1
  Ti  Ti4  1  0.999928  0.500000  0.665388  1
  Ti  Ti5  1  0.499926  0.000000  0.830383  1
  Ga  Ga6  1  0.000001  0.000000  0.996716  1
  Ga  Ga7  1  0.500092  0.500000  0.169915  1
  Ga  Ga8  1  0.000084  0.000000  0.337766  1
  Ga  Ga9  1  0.500002  0.500000  0.501112  1
  Ga  Ga10  1  0.999908  0.000000  0.665542  1
  Ga  Ga11  1  0.499918  0.500000  0.828912  1
  Ir  Ir12  1  0.500001  0.248178  0.999599  1
  Ir  Ir13  1  0.500001  0.751821  0.999599  1
  Ir  Ir14  1  0.000062  0.251854  0.167122  1
  Ir  Ir15  1  0.000062  0.748146  0.167122  1
  Ir  Ir16  1  0.500062  0.251856  0.334057  1
  Ir  Ir17  1  0.500062  0.748144  0.334057  1
  Ir  Ir18  1  0.999998  0.249876  0.500208  1
  Ir  Ir19  1  0.999998  0.750122  0.500208  1
  Ir  Ir20  1  0.499935  0.250118  0.666411  1
  Ir  Ir21  1  0.499935  0.749882  0.666411  1
  Ir  Ir22  1  0.999937  0.248167  0.832615  1
  Ir  Ir23  1  0.999937  0.751834  0.832615  1
