# generated using pymatgen
data_Ti5BeSn2Bi
_symmetry_space_group_name_H-M   'P 1'
_cell_length_a   8.20528798
_cell_length_b   8.20528819
_cell_length_c   5.48052200
_cell_angle_alpha   90.00000000
_cell_angle_beta   90.00000000
_cell_angle_gamma   119.44029993
_symmetry_Int_Tables_number   1
_chemical_formula_structural   Ti5BeSn2Bi
_chemical_formula_sum   'Ti10 Be2 Sn4 Bi2'
_cell_volume   321.33799565
_cell_formula_units_Z   2
loop_
 _symmetry_equiv_pos_site_id
 _symmetry_equiv_pos_as_xyz
  1  'x, y, z'
loop_
 _atom_site_type_symbol
 _atom_site_label
 _atom_site_symmetry_multiplicity
 _atom_site_fract_x
 _atom_site_fract_y
 _atom_site_fract_z
 _atom_site_occupancy
  Ti  Ti0  1  0.246829  0.990811  0.750000  1
  Ti  Ti1  1  0.753171  0.009189  0.250000  1
  Ti  Ti2  1  0.990811  0.246829  0.750000  1
  Ti  Ti3  1  0.009189  0.753171  0.250000  1
  Ti  Ti4  1  0.753098  0.753098  0.750000  1
  Ti  Ti5  1  0.246902  0.246902  0.250000  1
  Ti  Ti6  1  0.330090  0.669910  0.500000  1
  Ti  Ti7  1  0.669910  0.330090  0.500000  1
  Ti  Ti8  1  0.669910  0.330090  0.000000  1
  Ti  Ti9  1  0.330090  0.669910  0.000000  1
  Be  Be10  1  0.000000  0.000000  0.500000  1
  Be  Be11  1  0.000000  0.000000  0.000000  1
  Sn  Sn12  1  0.608292  0.997298  0.750000  1
  Sn  Sn13  1  0.391708  0.002702  0.250000  1
  Sn  Sn14  1  0.997298  0.608292  0.750000  1
  Sn  Sn15  1  0.002702  0.391708  0.250000  1
  Bi  Bi16  1  0.382961  0.382961  0.750000  1
  Bi  Bi17  1  0.617039  0.617039  0.250000  1
