# generated using pymatgen
data_Tb3ZnIn3CuRh
_symmetry_space_group_name_H-M   'P 1'
_cell_length_a   7.59779400
_cell_length_b   7.59779397
_cell_length_c   3.90679700
_cell_angle_alpha   90.00000000
_cell_angle_beta   90.00000000
_cell_angle_gamma   120.00000886
_symmetry_Int_Tables_number   1
_chemical_formula_structural   Tb3ZnIn3CuRh
_chemical_formula_sum   'Tb3 Zn1 In3 Cu1 Rh1'
_cell_volume   195.31089274
_cell_formula_units_Z   1
loop_
 _symmetry_equiv_pos_site_id
 _symmetry_equiv_pos_as_xyz
  1  'x, y, z'
loop_
 _atom_site_type_symbol
 _atom_site_label
 _atom_site_symmetry_multiplicity
 _atom_site_fract_x
 _atom_site_fract_y
 _atom_site_fract_z
 _atom_site_occupancy
  Tb  Tb0  1  0.019941  0.599753  0.500000  1
  Tb  Tb1  1  0.400247  0.420188  0.500000  1
  Tb  Tb2  1  0.579812  0.980059  0.500000  1
  Zn  Zn3  1  0.666667  0.333333  0.000000  1
  In  In4  1  0.749423  0.747242  0.000000  1
  In  In5  1  0.997819  0.250577  0.000000  1
  In  In6  1  0.252758  0.002181  0.000000  1
  Cu  Cu7  1  0.000000  0.000000  0.500000  1
  Rh  Rh8  1  0.333333  0.666667  0.000000  1
