# generated using pymatgen
data_Y8Zr11Si16Au
_symmetry_space_group_name_H-M   'P 1'
_cell_length_a   7.09718253
_cell_length_b   7.31346291
_cell_length_c   13.99011400
_cell_angle_alpha   90.00000000
_cell_angle_beta   90.00000000
_cell_angle_gamma   90.31789581
_symmetry_Int_Tables_number   1
_chemical_formula_structural   Y8Zr11Si16Au
_chemical_formula_sum   'Y8 Zr11 Si16 Au1'
_cell_volume   726.14542780
_cell_formula_units_Z   1
loop_
 _symmetry_equiv_pos_site_id
 _symmetry_equiv_pos_as_xyz
  1  'x, y, z'
loop_
 _atom_site_type_symbol
 _atom_site_label
 _atom_site_symmetry_multiplicity
 _atom_site_fract_x
 _atom_site_fract_y
 _atom_site_fract_z
 _atom_site_occupancy
  Y  Y0  1  0.518214  0.672632  0.598668  1
  Y  Y1  1  0.015582  0.818431  0.902699  1
  Y  Y2  1  0.485403  0.324645  0.096032  1
  Y  Y3  1  0.985842  0.175352  0.400458  1
  Y  Y4  1  0.485403  0.324645  0.403968  1
  Y  Y5  1  0.985842  0.175352  0.099542  1
  Y  Y6  1  0.518214  0.672632  0.901332  1
  Y  Y7  1  0.015582  0.818431  0.597301  1
  Zr  Zr8  1  0.681127  0.182070  0.627540  1
  Zr  Zr9  1  0.158570  0.322658  0.873387  1
  Zr  Zr10  1  0.328235  0.823142  0.123416  1
  Zr  Zr11  1  0.826849  0.681431  0.375126  1
  Zr  Zr12  1  0.328235  0.823142  0.376584  1
  Zr  Zr13  1  0.826849  0.681431  0.124874  1
  Zr  Zr14  1  0.681127  0.182070  0.872460  1
  Zr  Zr15  1  0.158570  0.322658  0.626613  1
  Zr  Zr16  1  0.347326  0.998678  0.750000  1
  Zr  Zr17  1  0.155351  0.505120  0.250000  1
  Zr  Zr18  1  0.656106  0.999197  0.250000  1
  Si  Si19  1  0.654854  0.969811  0.461069  1
  Si  Si20  1  0.154906  0.531788  0.039794  1
  Si  Si21  1  0.348549  0.033592  0.956038  1
  Si  Si22  1  0.838410  0.460786  0.529837  1
  Si  Si23  1  0.348549  0.033592  0.543962  1
  Si  Si24  1  0.838410  0.460786  0.970163  1
  Si  Si25  1  0.654854  0.969811  0.038931  1
  Si  Si26  1  0.154906  0.531788  0.460206  1
  Si  Si27  1  0.462114  0.378141  0.750000  1
  Si  Si28  1  0.975229  0.092254  0.750000  1
  Si  Si29  1  0.530603  0.619310  0.250000  1
  Si  Si30  1  0.033443  0.883702  0.250000  1
  Si  Si31  1  0.717127  0.876496  0.750000  1
  Si  Si32  1  0.225646  0.623572  0.750000  1
  Si  Si33  1  0.282446  0.126754  0.250000  1
  Si  Si34  1  0.778951  0.375603  0.250000  1
  Au  Au35  1  0.842577  0.528499  0.750000  1
