# generated using pymatgen
data_Sc8Mn3Fe4Si14Ni
_symmetry_space_group_name_H-M   'P 1'
_cell_length_a   5.08220133
_cell_length_b   9.59724958
_cell_length_c   9.59675168
_cell_angle_alpha   85.96223626
_cell_angle_beta   74.46728975
_cell_angle_gamma   74.88965437
_symmetry_Int_Tables_number   1
_chemical_formula_structural   Sc8Mn3Fe4Si14Ni
_chemical_formula_sum   'Sc8 Mn3 Fe4 Si14 Ni1'
_cell_volume   435.39486209
_cell_formula_units_Z   1
loop_
 _symmetry_equiv_pos_site_id
 _symmetry_equiv_pos_as_xyz
  1  'x, y, z'
loop_
 _atom_site_type_symbol
 _atom_site_label
 _atom_site_symmetry_multiplicity
 _atom_site_fract_x
 _atom_site_fract_y
 _atom_site_fract_z
 _atom_site_occupancy
  Sc  Sc0  1  0.195917  0.802278  0.804896  1
  Sc  Sc1  1  0.801466  0.197266  0.196444  1
  Sc  Sc2  1  0.000145  0.197927  0.803951  1
  Sc  Sc3  1  0.001077  0.802848  0.195829  1
  Sc  Sc4  1  0.358593  0.999694  0.277285  1
  Sc  Sc5  1  0.641053  0.999811  0.723407  1
  Sc  Sc6  1  0.636591  0.724345  0.999725  1
  Sc  Sc7  1  0.363181  0.275738  0.000119  1
  Mn  Mn8  1  0.397513  0.208273  0.498159  1
  Mn  Mn9  1  0.899345  0.201455  0.502061  1
  Mn  Mn10  1  0.103038  0.793959  0.498043  1
  Fe  Fe11  1  0.600875  0.500063  0.798603  1
  Fe  Fe12  1  0.103923  0.500278  0.791875  1
  Fe  Fe13  1  0.600423  0.795301  0.501497  1
  Fe  Fe14  1  0.897793  0.500375  0.204688  1
  Si  Si15  1  0.414795  0.590492  0.589947  1
  Si  Si16  1  0.611057  0.409511  0.408801  1
  Si  Si17  1  0.995737  0.410566  0.589170  1
  Si  Si18  1  0.981070  0.591307  0.407867  1
  Si  Si19  1  0.248732  0.000552  0.000426  1
  Si  Si20  1  0.750796  0.999399  0.000323  1
  Si  Si21  1  0.192663  0.299547  0.297873  1
  Si  Si22  1  0.792853  0.702404  0.702238  1
  Si  Si23  1  0.510595  0.699801  0.298350  1
  Si  Si24  1  0.502704  0.297737  0.702585  1
  Si  Si25  1  0.216974  0.999856  0.580856  1
  Si  Si26  1  0.782574  0.999883  0.419521  1
  Si  Si27  1  0.799948  0.420922  0.000551  1
  Si  Si28  1  0.200225  0.578848  0.000415  1
  Ni  Ni29  1  0.398344  0.499562  0.204498  1
