# generated using pymatgen
data_Ho4Al18VPd5
_symmetry_space_group_name_H-M   'P 1'
_cell_length_a   7.59447107
_cell_length_b   7.59447125
_cell_length_c   9.52006541
_cell_angle_alpha   89.49361545
_cell_angle_beta   89.49361209
_cell_angle_gamma   118.58607353
_symmetry_Int_Tables_number   1
_chemical_formula_structural   Ho4Al18VPd5
_chemical_formula_sum   'Ho4 Al18 V1 Pd5'
_cell_volume   482.07386092
_cell_formula_units_Z   1
loop_
 _symmetry_equiv_pos_site_id
 _symmetry_equiv_pos_as_xyz
  1  'x, y, z'
loop_
 _atom_site_type_symbol
 _atom_site_label
 _atom_site_symmetry_multiplicity
 _atom_site_fract_x
 _atom_site_fract_y
 _atom_site_fract_z
 _atom_site_occupancy
  Ho  Ho0  1  0.995067  0.678608  0.246865  1
  Ho  Ho1  1  0.004933  0.321392  0.753135  1
  Ho  Ho2  1  0.678608  0.995067  0.246865  1
  Ho  Ho3  1  0.321392  0.004933  0.753135  1
  Al  Al4  1  0.131261  0.131261  0.246061  1
  Al  Al5  1  0.868739  0.868739  0.753939  1
  Al  Al6  1  0.004616  0.333555  0.074863  1
  Al  Al7  1  0.995384  0.666445  0.925137  1
  Al  Al8  1  0.998488  0.661265  0.577163  1
  Al  Al9  1  0.338735  0.001512  0.422837  1
  Al  Al10  1  0.001512  0.338735  0.422837  1
  Al  Al11  1  0.661265  0.998488  0.577163  1
  Al  Al12  1  0.666445  0.995384  0.925137  1
  Al  Al13  1  0.333555  0.004616  0.074863  1
  Al  Al14  1  0.332787  0.332787  0.553360  1
  Al  Al15  1  0.667213  0.667214  0.446640  1
  Al  Al16  1  0.669842  0.669843  0.050504  1
  Al  Al17  1  0.330158  0.330158  0.949496  1
  Al  Al18  1  0.340794  0.549102  0.250330  1
  Al  Al19  1  0.659206  0.450898  0.749670  1
  Al  Al20  1  0.549102  0.340794  0.250330  1
  Al  Al21  1  0.450898  0.659206  0.749670  1
  V  V22  1  0.000000  0.000000  0.000000  1
  Pd  Pd23  1  0.673538  0.326462  0.000000  1
  Pd  Pd24  1  0.326462  0.673538  0.000000  1
  Pd  Pd25  1  0.328177  0.671823  0.500000  1
  Pd  Pd26  1  0.671823  0.328177  0.500000  1
  Pd  Pd27  1  0.000000  0.000000  0.500000  1
