# generated using pymatgen
data_Cs4YbNi3F12
_symmetry_space_group_name_H-M   'P 1'
_cell_length_a   10.75143781
_cell_length_b   10.75143786
_cell_length_c   10.75143872
_cell_angle_alpha   33.92262945
_cell_angle_beta   33.92263031
_cell_angle_gamma   33.92263203
_symmetry_Int_Tables_number   1
_chemical_formula_structural   Cs4YbNi3F12
_chemical_formula_sum   'Cs4 Yb1 Ni3 F12'
_cell_volume   344.97425724
_cell_formula_units_Z   1
loop_
 _symmetry_equiv_pos_site_id
 _symmetry_equiv_pos_as_xyz
  1  'x, y, z'
loop_
 _atom_site_type_symbol
 _atom_site_label
 _atom_site_symmetry_multiplicity
 _atom_site_fract_x
 _atom_site_fract_y
 _atom_site_fract_z
 _atom_site_occupancy
  Cs  Cs0  1  0.714926  0.714926  0.714926  1
  Cs  Cs1  1  0.869757  0.869757  0.869757  1
  Cs  Cs2  1  0.285074  0.285074  0.285074  1
  Cs  Cs3  1  0.130243  0.130243  0.130243  1
  Yb  Yb4  1  0.000000  0.000000  0.000000  1
  Ni  Ni5  1  0.409652  0.409652  0.409652  1
  Ni  Ni6  1  0.590348  0.590348  0.590348  1
  Ni  Ni7  1  0.500000  0.500000  0.500000  1
  F  F8  1  0.173693  0.597479  0.597479  1
  F  F9  1  0.597479  0.597479  0.173693  1
  F  F10  1  0.695432  0.214252  0.214252  1
  F  F11  1  0.304568  0.785748  0.785748  1
  F  F12  1  0.214252  0.214252  0.695432  1
  F  F13  1  0.826307  0.402521  0.402521  1
  F  F14  1  0.785748  0.785748  0.304568  1
  F  F15  1  0.402521  0.402521  0.826307  1
  F  F16  1  0.402521  0.826307  0.402521  1
  F  F17  1  0.214252  0.695432  0.214252  1
  F  F18  1  0.785748  0.304568  0.785748  1
  F  F19  1  0.597479  0.173693  0.597479  1
