# generated using pymatgen
data_Nd2FeSbO7
_symmetry_space_group_name_H-M   'P 1'
_cell_length_a   7.46040193
_cell_length_b   7.46040119
_cell_length_c   7.46040152
_cell_angle_alpha   120.33124542
_cell_angle_beta   119.47003518
_cell_angle_gamma   90.17379742
_symmetry_Int_Tables_number   1
_chemical_formula_structural   Nd2FeSbO7
_chemical_formula_sum   'Nd4 Fe2 Sb2 O14'
_cell_volume   294.02931735
_cell_formula_units_Z   2
loop_
 _symmetry_equiv_pos_site_id
 _symmetry_equiv_pos_as_xyz
  1  'x, y, z'
loop_
 _atom_site_type_symbol
 _atom_site_label
 _atom_site_symmetry_multiplicity
 _atom_site_fract_x
 _atom_site_fract_y
 _atom_site_fract_z
 _atom_site_occupancy
  Nd  Nd0  1  0.500000  0.000000  0.000000  1
  Nd  Nd1  1  0.500000  0.500000  0.500000  1
  Nd  Nd2  1  0.500000  0.000000  0.500000  1
  Nd  Nd3  1  0.000000  0.000000  0.000000  1
  Fe  Fe4  1  0.000000  0.500000  0.000000  1
  Fe  Fe5  1  0.000000  0.000000  0.500000  1
  Sb  Sb6  1  0.000000  0.500000  0.500000  1
  Sb  Sb7  1  0.500000  0.500000  0.000000  1
  O  O8  1  0.326097  0.576097  0.750000  1
  O  O9  1  0.915819  0.165819  0.750000  1
  O  O10  1  0.335433  0.175329  0.760725  1
  O  O11  1  0.914604  0.574707  0.739275  1
  O  O12  1  0.335433  0.574707  0.160104  1
  O  O13  1  0.914604  0.175329  0.339896  1
  O  O14  1  0.673903  0.423903  0.250000  1
  O  O15  1  0.084181  0.834181  0.250000  1
  O  O16  1  0.664567  0.824671  0.239275  1
  O  O17  1  0.085396  0.425293  0.260725  1
  O  O18  1  0.664567  0.425293  0.839896  1
  O  O19  1  0.085396  0.824671  0.660104  1
  O  O20  1  0.624019  0.874019  0.750000  1
  O  O21  1  0.375981  0.125981  0.250000  1
