# generated using pymatgen
data_Yb5HoPa2(Pt2Pb)4
_symmetry_space_group_name_H-M   'P 1'
_cell_length_a   7.91649958
_cell_length_b   7.91649879
_cell_length_c   7.29765100
_cell_angle_alpha   90.00000000
_cell_angle_beta   90.00000000
_cell_angle_gamma   92.42427397
_symmetry_Int_Tables_number   1
_chemical_formula_structural   Yb5HoPa2(Pt2Pb)4
_chemical_formula_sum   'Yb5 Ho1 Pa2 Pt8 Pb4'
_cell_volume   456.94146026
_cell_formula_units_Z   1
loop_
 _symmetry_equiv_pos_site_id
 _symmetry_equiv_pos_as_xyz
  1  'x, y, z'
loop_
 _atom_site_type_symbol
 _atom_site_label
 _atom_site_symmetry_multiplicity
 _atom_site_fract_x
 _atom_site_fract_y
 _atom_site_fract_z
 _atom_site_occupancy
  Yb  Yb0  1  0.665051  0.665751  0.000000  1
  Yb  Yb1  1  0.334249  0.334949  0.000000  1
  Yb  Yb2  1  0.168290  0.831710  0.500000  1
  Yb  Yb3  1  0.831967  0.168033  0.000000  1
  Yb  Yb4  1  0.168706  0.831294  0.000000  1
  Ho  Ho5  1  0.832104  0.167896  0.500000  1
  Pa  Pa6  1  0.326793  0.328730  0.500000  1
  Pa  Pa7  1  0.671270  0.673207  0.500000  1
  Pt  Pt8  1  0.867020  0.868192  0.737383  1
  Pt  Pt9  1  0.131808  0.132980  0.737383  1
  Pt  Pt10  1  0.626363  0.373637  0.729559  1
  Pt  Pt11  1  0.626363  0.373637  0.270441  1
  Pt  Pt12  1  0.376741  0.623259  0.269374  1
  Pt  Pt13  1  0.131808  0.132980  0.262617  1
  Pt  Pt14  1  0.867020  0.868192  0.262617  1
  Pt  Pt15  1  0.376741  0.623259  0.730626  1
  Pb  Pb16  1  0.498307  0.999454  0.757219  1
  Pb  Pb17  1  0.498307  0.999454  0.242781  1
  Pb  Pb18  1  0.000546  0.501693  0.757219  1
  Pb  Pb19  1  0.000546  0.501693  0.242781  1
