# generated using pymatgen
data_LuHf2Sc(SiW)4
_symmetry_space_group_name_H-M   'P 1'
_cell_length_a   3.53802300
_cell_length_b   7.03016989
_cell_length_c   8.24463459
_cell_angle_alpha   90.03582926
_cell_angle_beta   90.00000000
_cell_angle_gamma   90.00000000
_symmetry_Int_Tables_number   1
_chemical_formula_structural   LuHf2Sc(SiW)4
_chemical_formula_sum   'Lu1 Hf2 Sc1 Si4 W4'
_cell_volume   205.06795446
_cell_formula_units_Z   1
loop_
 _symmetry_equiv_pos_site_id
 _symmetry_equiv_pos_as_xyz
  1  'x, y, z'
loop_
 _atom_site_type_symbol
 _atom_site_label
 _atom_site_symmetry_multiplicity
 _atom_site_fract_x
 _atom_site_fract_y
 _atom_site_fract_z
 _atom_site_occupancy
  Lu  Lu0  1  0.250000  0.540615  0.163783  1
  Hf  Hf1  1  0.250000  0.041014  0.336289  1
  Hf  Hf2  1  0.750000  0.959623  0.665680  1
  Sc  Sc3  1  0.750000  0.458291  0.831297  1
  Si  Si4  1  0.250000  0.759849  0.858562  1
  Si  Si5  1  0.250000  0.257805  0.640805  1
  Si  Si6  1  0.750000  0.235507  0.141148  1
  Si  Si7  1  0.750000  0.744767  0.362322  1
  W  W8  1  0.250000  0.632177  0.560737  1
  W  W9  1  0.250000  0.129614  0.939610  1
  W  W10  1  0.750000  0.367394  0.441652  1
  W  W11  1  0.750000  0.873345  0.058116  1
