# generated using pymatgen
data_Zr4InPd4Pb
_symmetry_space_group_name_H-M   'P 1'
_cell_length_a   7.56732800
_cell_length_b   7.56732800
_cell_length_c   6.95554500
_cell_angle_alpha   90.00000000
_cell_angle_beta   90.00000000
_cell_angle_gamma   90.00000000
_symmetry_Int_Tables_number   1
_chemical_formula_structural   Zr4InPd4Pb
_chemical_formula_sum   'Zr8 In2 Pd8 Pb2'
_cell_volume   398.30548016
_cell_formula_units_Z   2
loop_
 _symmetry_equiv_pos_site_id
 _symmetry_equiv_pos_as_xyz
  1  'x, y, z'
loop_
 _atom_site_type_symbol
 _atom_site_label
 _atom_site_symmetry_multiplicity
 _atom_site_fract_x
 _atom_site_fract_y
 _atom_site_fract_z
 _atom_site_occupancy
  Zr  Zr0  1  0.650986  0.650986  0.500000  1
  Zr  Zr1  1  0.812848  0.187152  0.500000  1
  Zr  Zr2  1  0.687152  0.687152  0.000000  1
  Zr  Zr3  1  0.849014  0.150986  0.000000  1
  Zr  Zr4  1  0.187152  0.812848  0.500000  1
  Zr  Zr5  1  0.312848  0.312848  0.000000  1
  Zr  Zr6  1  0.150986  0.849014  0.000000  1
  Zr  Zr7  1  0.349014  0.349014  0.500000  1
  In  In8  1  0.500000  0.000000  0.250000  1
  In  In9  1  0.000000  0.500000  0.750000  1
  Pd  Pd10  1  0.624706  0.366769  0.213265  1
  Pd  Pd11  1  0.366769  0.624706  0.786735  1
  Pd  Pd12  1  0.875294  0.866769  0.713265  1
  Pd  Pd13  1  0.633231  0.375294  0.786735  1
  Pd  Pd14  1  0.375294  0.633231  0.213265  1
  Pd  Pd15  1  0.133231  0.124706  0.286735  1
  Pd  Pd16  1  0.866769  0.875294  0.286735  1
  Pd  Pd17  1  0.124706  0.133231  0.713265  1
  Pb  Pb18  1  0.000000  0.500000  0.250000  1
  Pb  Pb19  1  0.500000  0.000000  0.750000  1
