# generated using pymatgen
data_Ho2Si3(PPd7)3
_symmetry_space_group_name_H-M   'P 1'
_cell_length_a   8.69087249
_cell_length_b   8.69087203
_cell_length_c   8.67944300
_cell_angle_alpha   59.95643168
_cell_angle_beta   59.95643344
_cell_angle_gamma   59.99999310
_symmetry_Int_Tables_number   1
_chemical_formula_structural   Ho2Si3(PPd7)3
_chemical_formula_sum   'Ho2 Si3 P3 Pd21'
_cell_volume   463.25195592
_cell_formula_units_Z   1
loop_
 _symmetry_equiv_pos_site_id
 _symmetry_equiv_pos_as_xyz
  1  'x, y, z'
loop_
 _atom_site_type_symbol
 _atom_site_label
 _atom_site_symmetry_multiplicity
 _atom_site_fract_x
 _atom_site_fract_y
 _atom_site_fract_z
 _atom_site_occupancy
  Ho  Ho0  1  0.748882  0.748882  0.753355  1
  Ho  Ho1  1  0.248988  0.248988  0.253038  1
  Si  Si2  1  0.261595  0.261595  0.740219  1
  Si  Si3  1  0.736591  0.261595  0.740219  1
  Si  Si4  1  0.261595  0.736591  0.740219  1
  P  P5  1  0.736313  0.736313  0.266019  1
  P  P6  1  0.261356  0.736313  0.266019  1
  P  P7  1  0.736313  0.261356  0.266019  1
  Pd  Pd8  1  0.002999  0.002999  0.991003  1
  Pd  Pd9  1  0.614187  0.614187  0.157442  1
  Pd  Pd10  1  0.616307  0.151803  0.615585  1
  Pd  Pd11  1  0.151803  0.616307  0.615585  1
  Pd  Pd12  1  0.616307  0.616307  0.615585  1
  Pd  Pd13  1  0.383193  0.383193  0.850421  1
  Pd  Pd14  1  0.384930  0.845614  0.384526  1
  Pd  Pd15  1  0.845614  0.384930  0.384526  1
  Pd  Pd16  1  0.384930  0.384930  0.384526  1
  Pd  Pd17  1  0.001829  0.001829  0.339511  1
  Pd  Pd18  1  0.656831  0.001829  0.339511  1
  Pd  Pd19  1  0.001829  0.656831  0.339511  1
  Pd  Pd20  1  0.656972  0.346605  0.000857  1
  Pd  Pd21  1  0.995566  0.346605  0.000857  1
  Pd  Pd22  1  0.001556  0.346214  0.650673  1
  Pd  Pd23  1  0.346605  0.656972  0.000857  1
  Pd  Pd24  1  0.346214  0.001556  0.650673  1
  Pd  Pd25  1  0.346605  0.995566  0.000857  1
  Pd  Pd26  1  0.001556  0.001556  0.650673  1
  Pd  Pd27  1  0.995566  0.656972  0.000857  1
  Pd  Pd28  1  0.656972  0.995566  0.000857  1
