# generated using pymatgen
data_Ho5ZnIn4Ru
_symmetry_space_group_name_H-M   'P 1'
_cell_length_a   3.62000300
_cell_length_b   8.12985898
_cell_length_c   18.21362456
_cell_angle_alpha   89.58068785
_cell_angle_beta   90.00000000
_cell_angle_gamma   90.00000000
_symmetry_Int_Tables_number   1
_chemical_formula_structural   Ho5ZnIn4Ru
_chemical_formula_sum   'Ho10 Zn2 In8 Ru2'
_cell_volume   536.01469089
_cell_formula_units_Z   2
loop_
 _symmetry_equiv_pos_site_id
 _symmetry_equiv_pos_as_xyz
  1  'x, y, z'
loop_
 _atom_site_type_symbol
 _atom_site_label
 _atom_site_symmetry_multiplicity
 _atom_site_fract_x
 _atom_site_fract_y
 _atom_site_fract_z
 _atom_site_occupancy
  Ho  Ho0  1  0.000000  0.119857  0.419889  1
  Ho  Ho1  1  0.000000  0.880143  0.580111  1
  Ho  Ho2  1  0.000000  0.384145  0.913804  1
  Ho  Ho3  1  0.000000  0.615855  0.086196  1
  Ho  Ho4  1  0.000000  0.261130  0.217751  1
  Ho  Ho5  1  0.000000  0.738870  0.782249  1
  Ho  Ho6  1  0.000000  0.285566  0.721989  1
  Ho  Ho7  1  0.000000  0.714434  0.278011  1
  Ho  Ho8  1  0.000000  0.000000  0.000000  1
  Ho  Ho9  1  0.000000  0.500000  0.500000  1
  Zn  Zn10  1  0.500000  0.018017  0.300905  1
  Zn  Zn11  1  0.500000  0.981983  0.699095  1
  In  In12  1  0.500000  0.418501  0.351152  1
  In  In13  1  0.500000  0.581499  0.648848  1
  In  In14  1  0.500000  0.079332  0.849747  1
  In  In15  1  0.500000  0.920668  0.150253  1
  In  In16  1  0.500000  0.292366  0.068151  1
  In  In17  1  0.500000  0.707634  0.931849  1
  In  In18  1  0.500000  0.210234  0.569956  1
  In  In19  1  0.500000  0.789766  0.430044  1
  Ru  Ru20  1  0.500000  0.478997  0.804954  1
  Ru  Ru21  1  0.500000  0.521003  0.195046  1
