# generated using pymatgen
data_LuMg3(GaPt)4
_symmetry_space_group_name_H-M   'P 1'
_cell_length_a   4.13890500
_cell_length_b   6.65408736
_cell_length_c   7.78997525
_cell_angle_alpha   92.58298316
_cell_angle_beta   90.00000000
_cell_angle_gamma   90.00000000
_symmetry_Int_Tables_number   1
_chemical_formula_structural   LuMg3(GaPt)4
_chemical_formula_sum   'Lu1 Mg3 Ga4 Pt4'
_cell_volume   214.32289452
_cell_formula_units_Z   1
loop_
 _symmetry_equiv_pos_site_id
 _symmetry_equiv_pos_as_xyz
  1  'x, y, z'
loop_
 _atom_site_type_symbol
 _atom_site_label
 _atom_site_symmetry_multiplicity
 _atom_site_fract_x
 _atom_site_fract_y
 _atom_site_fract_z
 _atom_site_occupancy
  Lu  Lu0  1  0.750000  0.526124  0.822523  1
  Mg  Mg1  1  0.250000  0.972736  0.328352  1
  Mg  Mg2  1  0.250000  0.467677  0.179437  1
  Mg  Mg3  1  0.750000  0.032807  0.667869  1
  Ga  Ga4  1  0.250000  0.346661  0.557540  1
  Ga  Ga5  1  0.250000  0.850914  0.945503  1
  Ga  Ga6  1  0.750000  0.652721  0.439082  1
  Ga  Ga7  1  0.750000  0.147659  0.059174  1
  Pt  Pt8  1  0.250000  0.224498  0.867385  1
  Pt  Pt9  1  0.250000  0.740766  0.626872  1
  Pt  Pt10  1  0.750000  0.770235  0.132949  1
  Pt  Pt11  1  0.750000  0.267201  0.373313  1
