# generated using pymatgen
data_Yb2InNi7B2
_symmetry_space_group_name_H-M   'P 1'
_cell_length_a   7.51660906
_cell_length_b   7.51660903
_cell_length_c   7.51660775
_cell_angle_alpha   39.03110524
_cell_angle_beta   39.03110304
_cell_angle_gamma   39.03110191
_symmetry_Int_Tables_number   1
_chemical_formula_structural   Yb2InNi7B2
_chemical_formula_sum   'Yb2 In1 Ni7 B2'
_cell_volume   151.47081090
_cell_formula_units_Z   1
loop_
 _symmetry_equiv_pos_site_id
 _symmetry_equiv_pos_as_xyz
  1  'x, y, z'
loop_
 _atom_site_type_symbol
 _atom_site_label
 _atom_site_symmetry_multiplicity
 _atom_site_fract_x
 _atom_site_fract_y
 _atom_site_fract_z
 _atom_site_occupancy
  Yb  Yb0  1  0.499308  0.499308  0.499308  1
  Yb  Yb1  1  0.645717  0.645717  0.645717  1
  In  In2  1  0.355166  0.355166  0.355166  1
  Ni  Ni3  1  0.999514  0.999514  0.999514  1
  Ni  Ni4  1  0.066328  0.569555  0.066327  1
  Ni  Ni5  1  0.569555  0.066328  0.066327  1
  Ni  Ni6  1  0.934033  0.934033  0.429827  1
  Ni  Ni7  1  0.066328  0.066328  0.569554  1
  Ni  Ni8  1  0.429826  0.934033  0.934034  1
  Ni  Ni9  1  0.934033  0.429826  0.934034  1
  B  B10  1  0.167388  0.167388  0.167388  1
  B  B11  1  0.832805  0.832805  0.832805  1
