# generated using pymatgen
data_YErBe2In2F12
_symmetry_space_group_name_H-M   'P 1'
_cell_length_a   5.89738100
_cell_length_b   6.53387492
_cell_length_c   7.31128183
_cell_angle_alpha   66.07929248
_cell_angle_beta   90.00000000
_cell_angle_gamma   90.00000000
_symmetry_Int_Tables_number   1
_chemical_formula_structural   YErBe2In2F12
_chemical_formula_sum   'Y1 Er1 Be2 In2 F12'
_cell_volume   257.52582464
_cell_formula_units_Z   1
loop_
 _symmetry_equiv_pos_site_id
 _symmetry_equiv_pos_as_xyz
  1  'x, y, z'
loop_
 _atom_site_type_symbol
 _atom_site_label
 _atom_site_symmetry_multiplicity
 _atom_site_fract_x
 _atom_site_fract_y
 _atom_site_fract_z
 _atom_site_occupancy
  Y  Y0  1  0.750000  0.607661  0.815656  1
  Er  Er1  1  0.250000  0.391388  0.186052  1
  Be  Be2  1  0.250000  0.768341  0.463680  1
  Be  Be3  1  0.750000  0.232288  0.533759  1
  In  In4  1  0.250000  0.072523  0.809447  1
  In  In5  1  0.750000  0.927488  0.191099  1
  F  F6  1  0.463131  0.750955  0.596799  1
  F  F7  1  0.535653  0.250397  0.401123  1
  F  F8  1  0.964347  0.250397  0.401123  1
  F  F9  1  0.036869  0.750955  0.596799  1
  F  F10  1  0.250000  0.581647  0.383898  1
  F  F11  1  0.750000  0.417862  0.614261  1
  F  F12  1  0.496468  0.678635  0.026325  1
  F  F13  1  0.498843  0.319323  0.977107  1
  F  F14  1  0.001157  0.319323  0.977107  1
  F  F15  1  0.003532  0.678635  0.026325  1
  F  F16  1  0.250000  0.002949  0.278214  1
  F  F17  1  0.750000  0.999233  0.721226  1
