# generated using pymatgen
data_SrLa(Cu4Pd)2
_symmetry_space_group_name_H-M   'P 1'
_cell_length_a   4.10147100
_cell_length_b   5.38829724
_cell_length_c   8.93490542
_cell_angle_alpha   93.82742906
_cell_angle_beta   90.00000000
_cell_angle_gamma   90.00000000
_symmetry_Int_Tables_number   1
_chemical_formula_structural   SrLa(Cu4Pd)2
_chemical_formula_sum   'Sr1 La1 Cu8 Pd2'
_cell_volume   197.02050572
_cell_formula_units_Z   1
loop_
 _symmetry_equiv_pos_site_id
 _symmetry_equiv_pos_as_xyz
  1  'x, y, z'
loop_
 _atom_site_type_symbol
 _atom_site_label
 _atom_site_symmetry_multiplicity
 _atom_site_fract_x
 _atom_site_fract_y
 _atom_site_fract_z
 _atom_site_occupancy
  Sr  Sr0  1  0.000000  0.500000  0.500000  1
  La  La1  1  0.000000  0.000000  0.000000  1
  Cu  Cu2  1  0.000000  0.977262  0.338138  1
  Cu  Cu3  1  0.000000  0.478717  0.840990  1
  Cu  Cu4  1  0.000000  0.521283  0.159010  1
  Cu  Cu5  1  0.000000  0.022738  0.661862  1
  Cu  Cu6  1  0.500000  0.000000  0.500000  1
  Cu  Cu7  1  0.500000  0.500000  0.000000  1
  Cu  Cu8  1  0.500000  0.748465  0.248131  1
  Cu  Cu9  1  0.500000  0.251535  0.751869  1
  Pd  Pd10  1  0.500000  0.242196  0.242732  1
  Pd  Pd11  1  0.500000  0.757804  0.757268  1
