# generated using pymatgen
data_Hf9TaRe3Pt
_symmetry_space_group_name_H-M   'P 1'
_cell_length_a   8.77626400
_cell_length_b   8.77626350
_cell_length_c   8.49731200
_cell_angle_alpha   90.00000000
_cell_angle_beta   90.00000000
_cell_angle_gamma   120.00000187
_symmetry_Int_Tables_number   1
_chemical_formula_structural   Hf9TaRe3Pt
_chemical_formula_sum   'Hf18 Ta2 Re6 Pt2'
_cell_volume   566.80219222
_cell_formula_units_Z   2
loop_
 _symmetry_equiv_pos_site_id
 _symmetry_equiv_pos_as_xyz
  1  'x, y, z'
loop_
 _atom_site_type_symbol
 _atom_site_label
 _atom_site_symmetry_multiplicity
 _atom_site_fract_x
 _atom_site_fract_y
 _atom_site_fract_z
 _atom_site_occupancy
  Hf  Hf0  1  0.196362  0.803638  0.448333  1
  Hf  Hf1  1  0.196362  0.392724  0.448333  1
  Hf  Hf2  1  0.607276  0.803638  0.448333  1
  Hf  Hf3  1  0.803638  0.196362  0.551667  1
  Hf  Hf4  1  0.803638  0.607276  0.551667  1
  Hf  Hf5  1  0.392724  0.196362  0.551667  1
  Hf  Hf6  1  0.803638  0.196362  0.948333  1
  Hf  Hf7  1  0.803638  0.607276  0.948333  1
  Hf  Hf8  1  0.392724  0.196362  0.948333  1
  Hf  Hf9  1  0.196362  0.803638  0.051667  1
  Hf  Hf10  1  0.196362  0.392724  0.051667  1
  Hf  Hf11  1  0.607276  0.803638  0.051667  1
  Hf  Hf12  1  0.541384  0.458616  0.250000  1
  Hf  Hf13  1  0.541384  0.082766  0.250000  1
  Hf  Hf14  1  0.917234  0.458616  0.250000  1
  Hf  Hf15  1  0.458616  0.541384  0.750000  1
  Hf  Hf16  1  0.458616  0.917234  0.750000  1
  Hf  Hf17  1  0.082766  0.541384  0.750000  1
  Ta  Ta18  1  0.000000  0.000000  0.500000  1
  Ta  Ta19  1  0.000000  0.000000  0.000000  1
  Re  Re20  1  0.886077  0.113923  0.250000  1
  Re  Re21  1  0.886077  0.772153  0.250000  1
  Re  Re22  1  0.227847  0.113923  0.250000  1
  Re  Re23  1  0.113923  0.886077  0.750000  1
  Re  Re24  1  0.113923  0.227847  0.750000  1
  Re  Re25  1  0.772153  0.886077  0.750000  1
  Pt  Pt26  1  0.333333  0.666667  0.250000  1
  Pt  Pt27  1  0.666667  0.333333  0.750000  1
