# generated using pymatgen
data_CePr(NiAs)4
_symmetry_space_group_name_H-M   'P 1'
_cell_length_a   4.22269900
_cell_length_b   4.22269900
_cell_length_c   9.44410900
_cell_angle_alpha   90.00000000
_cell_angle_beta   90.00000000
_cell_angle_gamma   90.00000000
_symmetry_Int_Tables_number   1
_chemical_formula_structural   CePr(NiAs)4
_chemical_formula_sum   'Ce1 Pr1 Ni4 As4'
_cell_volume   168.39967216
_cell_formula_units_Z   1
loop_
 _symmetry_equiv_pos_site_id
 _symmetry_equiv_pos_as_xyz
  1  'x, y, z'
loop_
 _atom_site_type_symbol
 _atom_site_label
 _atom_site_symmetry_multiplicity
 _atom_site_fract_x
 _atom_site_fract_y
 _atom_site_fract_z
 _atom_site_occupancy
  Ce  Ce0  1  0.000000  0.500000  0.246025  1
  Pr  Pr1  1  0.500000  0.000000  0.753078  1
  Ni  Ni2  1  0.000000  0.000000  0.002884  1
  Ni  Ni3  1  0.500000  0.500000  0.002884  1
  Ni  Ni4  1  0.000000  0.500000  0.617629  1
  Ni  Ni5  1  0.500000  0.000000  0.379017  1
  As  As6  1  0.000000  0.000000  0.497868  1
  As  As7  1  0.500000  0.500000  0.497868  1
  As  As8  1  0.000000  0.500000  0.872903  1
  As  As9  1  0.500000  0.000000  0.129842  1
