# generated using pymatgen
data_Dy5Ho3Re3B24Ru
_symmetry_space_group_name_H-M   'P 1'
_cell_length_a   3.67539400
_cell_length_b   9.16110183
_cell_length_c   11.54623404
_cell_angle_alpha   90.11103180
_cell_angle_beta   90.00000000
_cell_angle_gamma   90.00000000
_symmetry_Int_Tables_number   1
_chemical_formula_structural   Dy5Ho3Re3B24Ru
_chemical_formula_sum   'Dy5 Ho3 Re3 B24 Ru1'
_cell_volume   388.76857554
_cell_formula_units_Z   1
loop_
 _symmetry_equiv_pos_site_id
 _symmetry_equiv_pos_as_xyz
  1  'x, y, z'
loop_
 _atom_site_type_symbol
 _atom_site_label
 _atom_site_symmetry_multiplicity
 _atom_site_fract_x
 _atom_site_fract_y
 _atom_site_fract_z
 _atom_site_occupancy
  Dy  Dy0  1  0.000000  0.322076  0.414222  1
  Dy  Dy1  1  0.000000  0.677163  0.587667  1
  Dy  Dy2  1  0.000000  0.824714  0.084174  1
  Dy  Dy3  1  0.000000  0.176728  0.913710  1
  Dy  Dy4  1  0.000000  0.941766  0.369703  1
  Ho  Ho5  1  0.000000  0.056478  0.629559  1
  Ho  Ho6  1  0.000000  0.443164  0.130471  1
  Ho  Ho7  1  0.000000  0.556870  0.870923  1
  Re  Re8  1  0.000000  0.361979  0.678360  1
  Re  Re9  1  0.000000  0.138772  0.179612  1
  Re  Re10  1  0.000000  0.861446  0.820690  1
  B  B11  1  0.500000  0.553928  0.432578  1
  B  B12  1  0.500000  0.446941  0.566893  1
  B  B13  1  0.500000  0.053357  0.066823  1
  B  B14  1  0.500000  0.946874  0.932785  1
  B  B15  1  0.500000  0.748156  0.418377  1
  B  B16  1  0.500000  0.250586  0.581246  1
  B  B17  1  0.500000  0.249597  0.081421  1
  B  B18  1  0.500000  0.751171  0.918665  1
  B  B19  1  0.500000  0.790534  0.265430  1
  B  B20  1  0.500000  0.208012  0.734239  1
  B  B21  1  0.500000  0.292007  0.234851  1
  B  B22  1  0.500000  0.707876  0.765843  1
  B  B23  1  0.500000  0.631266  0.185753  1
  B  B24  1  0.500000  0.369489  0.814089  1
  B  B25  1  0.500000  0.131191  0.314765  1
  B  B26  1  0.500000  0.868847  0.685587  1
  B  B27  1  0.500000  0.982720  0.211663  1
  B  B28  1  0.500000  0.017492  0.787646  1
  B  B29  1  0.500000  0.483628  0.288140  1
  B  B30  1  0.500000  0.518027  0.712096  1
  B  B31  1  0.500000  0.601579  0.028789  1
  B  B32  1  0.500000  0.398944  0.972248  1
  B  B33  1  0.500000  0.100734  0.471728  1
  B  B34  1  0.500000  0.897714  0.528420  1
  Ru  Ru35  1  0.000000  0.638176  0.320839  1
