# generated using pymatgen
data_TbU2Al2ZnIr3
_symmetry_space_group_name_H-M   'P 1'
_cell_length_a   7.09781833
_cell_length_b   7.09782014
_cell_length_c   4.00215800
_cell_angle_alpha   90.00000000
_cell_angle_beta   90.00000000
_cell_angle_gamma   121.38681788
_symmetry_Int_Tables_number   1
_chemical_formula_structural   TbU2Al2ZnIr3
_chemical_formula_sum   'Tb1 U2 Al2 Zn1 Ir3'
_cell_volume   172.12123223
_cell_formula_units_Z   1
loop_
 _symmetry_equiv_pos_site_id
 _symmetry_equiv_pos_as_xyz
  1  'x, y, z'
loop_
 _atom_site_type_symbol
 _atom_site_label
 _atom_site_symmetry_multiplicity
 _atom_site_fract_x
 _atom_site_fract_y
 _atom_site_fract_z
 _atom_site_occupancy
  Tb  Tb0  1  0.421537  0.421537  0.500000  1
  U  U1  1  0.579453  0.998189  0.500000  1
  U  U2  1  0.998189  0.579453  0.500000  1
  Al  Al3  1  0.233143  0.006601  0.000000  1
  Al  Al4  1  0.006601  0.233143  0.000000  1
  Zn  Zn5  1  0.749970  0.749970  0.000000  1
  Ir  Ir6  1  0.691385  0.319316  0.000000  1
  Ir  Ir7  1  0.319316  0.691385  0.000000  1
  Ir  Ir8  1  0.000406  0.000406  0.500000  1
