# generated using pymatgen
data_Tb20Co4SnSb7
_symmetry_space_group_name_H-M   'P 1'
_cell_length_a   7.94952227
_cell_length_b   8.80089845
_cell_length_c   12.24140259
_cell_angle_alpha   90.02934830
_cell_angle_beta   89.97983472
_cell_angle_gamma   90.02204760
_symmetry_Int_Tables_number   1
_chemical_formula_structural   Tb20Co4SnSb7
_chemical_formula_sum   'Tb20 Co4 Sn1 Sb7'
_cell_volume   856.44426466
_cell_formula_units_Z   1
loop_
 _symmetry_equiv_pos_site_id
 _symmetry_equiv_pos_as_xyz
  1  'x, y, z'
loop_
 _atom_site_type_symbol
 _atom_site_label
 _atom_site_symmetry_multiplicity
 _atom_site_fract_x
 _atom_site_fract_y
 _atom_site_fract_z
 _atom_site_occupancy
  Tb  Tb0  1  0.154439  0.750575  0.203815  1
  Tb  Tb1  1  0.656094  0.249785  0.296096  1
  Tb  Tb2  1  0.845425  0.250115  0.797061  1
  Tb  Tb3  1  0.345120  0.750249  0.703293  1
  Tb  Tb4  1  0.454381  0.749904  0.997523  1
  Tb  Tb5  1  0.953670  0.249147  0.501958  1
  Tb  Tb6  1  0.544649  0.250170  0.002232  1
  Tb  Tb7  1  0.044868  0.751062  0.497009  1
  Tb  Tb8  1  0.623176  0.750431  0.305758  1
  Tb  Tb9  1  0.120645  0.249548  0.194288  1
  Tb  Tb10  1  0.378140  0.249856  0.694469  1
  Tb  Tb11  1  0.878474  0.750123  0.805844  1
  Tb  Tb12  1  0.821566  0.964336  0.066122  1
  Tb  Tb13  1  0.319501  0.035135  0.434789  1
  Tb  Tb14  1  0.178927  0.464385  0.935031  1
  Tb  Tb15  1  0.678901  0.535198  0.564810  1
  Tb  Tb16  1  0.179142  0.035066  0.934942  1
  Tb  Tb17  1  0.679613  0.963512  0.564235  1
  Tb  Tb18  1  0.820383  0.536114  0.064788  1
  Tb  Tb19  1  0.321421  0.465043  0.435294  1
  Co  Co20  1  0.432502  0.748962  0.489968  1
  Co  Co21  1  0.932119  0.250257  0.009831  1
  Co  Co22  1  0.567833  0.250686  0.510867  1
  Co  Co23  1  0.068195  0.749528  0.989243  1
  Sn  Sn24  1  0.926915  0.992366  0.327553  1
  Sb  Sb25  1  0.427121  0.008058  0.172602  1
  Sb  Sb26  1  0.072982  0.491958  0.672988  1
  Sb  Sb27  1  0.572644  0.508054  0.826959  1
  Sb  Sb28  1  0.073252  0.008376  0.673325  1
  Sb  Sb29  1  0.572609  0.992033  0.827244  1
  Sb  Sb30  1  0.927735  0.507820  0.327091  1
  Sb  Sb31  1  0.427557  0.492147  0.172970  1
