# generated using pymatgen
data_Mg2Co9Tc3P7
_symmetry_space_group_name_H-M   'P 1'
_cell_length_a   3.64359300
_cell_length_b   8.98441197
_cell_length_c   8.98441400
_cell_angle_alpha   120.00000010
_cell_angle_beta   90.00000000
_cell_angle_gamma   90.00000000
_symmetry_Int_Tables_number   1
_chemical_formula_structural   Mg2Co9Tc3P7
_chemical_formula_sum   'Mg2 Co9 Tc3 P7'
_cell_volume   254.70642734
_cell_formula_units_Z   1
loop_
 _symmetry_equiv_pos_site_id
 _symmetry_equiv_pos_as_xyz
  1  'x, y, z'
loop_
 _atom_site_type_symbol
 _atom_site_label
 _atom_site_symmetry_multiplicity
 _atom_site_fract_x
 _atom_site_fract_y
 _atom_site_fract_z
 _atom_site_occupancy
  Mg  Mg0  1  0.000000  0.666667  0.333333  1
  Mg  Mg1  1  0.500000  0.333333  0.666667  1
  Co  Co2  1  0.000000  0.562219  0.935191  1
  Co  Co3  1  0.000000  0.372972  0.437781  1
  Co  Co4  1  0.000000  0.064809  0.627028  1
  Co  Co5  1  0.000000  0.876784  0.160975  1
  Co  Co6  1  0.000000  0.284189  0.123216  1
  Co  Co7  1  0.000000  0.839025  0.715811  1
  Co  Co8  1  0.500000  0.945108  0.387054  1
  Co  Co9  1  0.500000  0.441945  0.054892  1
  Co  Co10  1  0.500000  0.612946  0.558055  1
  Tc  Tc11  1  0.500000  0.780586  0.904204  1
  Tc  Tc12  1  0.500000  0.123618  0.219414  1
  Tc  Tc13  1  0.500000  0.095796  0.876382  1
  P  P14  1  0.000000  0.000000  0.000000  1
  P  P15  1  0.500000  0.709583  0.122571  1
  P  P16  1  0.500000  0.412989  0.290417  1
  P  P17  1  0.500000  0.877429  0.587011  1
  P  P18  1  0.000000  0.585808  0.701972  1
  P  P19  1  0.000000  0.116164  0.414192  1
  P  P20  1  0.000000  0.298028  0.883836  1
