# generated using pymatgen
data_Tm4Cu3Ni
_symmetry_space_group_name_H-M   'P 1'
_cell_length_a   4.38656900
_cell_length_b   5.29431633
_cell_length_c   6.97889372
_cell_angle_alpha   89.87662975
_cell_angle_beta   90.00000000
_cell_angle_gamma   90.00000000
_symmetry_Int_Tables_number   1
_chemical_formula_structural   Tm4Cu3Ni
_chemical_formula_sum   'Tm4 Cu3 Ni1'
_cell_volume   162.07664156
_cell_formula_units_Z   1
loop_
 _symmetry_equiv_pos_site_id
 _symmetry_equiv_pos_as_xyz
  1  'x, y, z'
loop_
 _atom_site_type_symbol
 _atom_site_label
 _atom_site_symmetry_multiplicity
 _atom_site_fract_x
 _atom_site_fract_y
 _atom_site_fract_z
 _atom_site_occupancy
  Tm  Tm0  1  0.250000  0.130973  0.187322  1
  Tm  Tm1  1  0.750000  0.862846  0.809625  1
  Tm  Tm2  1  0.750000  0.640906  0.324446  1
  Tm  Tm3  1  0.250000  0.365570  0.677352  1
  Cu  Cu4  1  0.250000  0.625405  0.034079  1
  Cu  Cu5  1  0.750000  0.371227  0.969593  1
  Cu  Cu6  1  0.750000  0.133160  0.463825  1
  Ni  Ni7  1  0.250000  0.869914  0.533758  1
