# generated using pymatgen
data_TmLu2In3Ir2Rh
_symmetry_space_group_name_H-M   'P 1'
_cell_length_a   7.51174400
_cell_length_b   7.52210393
_cell_length_c   3.83669200
_cell_angle_alpha   90.00000000
_cell_angle_beta   90.00000000
_cell_angle_gamma   119.95445090
_symmetry_Int_Tables_number   1
_chemical_formula_structural   TmLu2In3Ir2Rh
_chemical_formula_sum   'Tm1 Lu2 In3 Ir2 Rh1'
_cell_volume   187.83080824
_cell_formula_units_Z   1
loop_
 _symmetry_equiv_pos_site_id
 _symmetry_equiv_pos_as_xyz
  1  'x, y, z'
loop_
 _atom_site_type_symbol
 _atom_site_label
 _atom_site_symmetry_multiplicity
 _atom_site_fract_x
 _atom_site_fract_y
 _atom_site_fract_z
 _atom_site_occupancy
  Tm  Tm0  1  0.408060  0.000000  0.500000  1
  Lu  Lu1  1  0.999959  0.407706  0.500000  1
  Lu  Lu2  1  0.592253  0.592294  0.500000  1
  In  In3  1  0.259539  0.260072  0.000000  1
  In  In4  1  0.999467  0.739928  0.000000  1
  In  In5  1  0.740614  0.000000  0.000000  1
  Ir  Ir6  1  0.333085  0.665587  0.000000  1
  Ir  Ir7  1  0.667498  0.334413  0.000000  1
  Rh  Rh8  1  0.999525  0.000000  0.500000  1
