# generated using pymatgen
data_Y13Th3Cd2(HgIr2)2
_symmetry_space_group_name_H-M   'P 1'
_cell_length_a   9.73275352
_cell_length_b   9.74143766
_cell_length_c   9.76169000
_cell_angle_alpha   59.93120374
_cell_angle_beta   59.90160171
_cell_angle_gamma   59.87505207
_symmetry_Int_Tables_number   1
_chemical_formula_structural   Y13Th3Cd2(HgIr2)2
_chemical_formula_sum   'Y13 Th3 Cd2 Hg2 Ir4'
_cell_volume   652.99232046
_cell_formula_units_Z   1
loop_
 _symmetry_equiv_pos_site_id
 _symmetry_equiv_pos_as_xyz
  1  'x, y, z'
loop_
 _atom_site_type_symbol
 _atom_site_label
 _atom_site_symmetry_multiplicity
 _atom_site_fract_x
 _atom_site_fract_y
 _atom_site_fract_z
 _atom_site_occupancy
  Y  Y0  1  0.944189  0.352789  0.351511  1
  Y  Y1  1  0.810897  0.188907  0.190560  1
  Y  Y2  1  0.186509  0.812173  0.812594  1
  Y  Y3  1  0.186509  0.812173  0.188724  1
  Y  Y4  1  0.810897  0.188907  0.809636  1
  Y  Y5  1  0.187704  0.188161  0.812067  1
  Y  Y6  1  0.810687  0.809544  0.189885  1
  Y  Y7  1  0.937317  0.562664  0.563197  1
  Y  Y8  1  0.563729  0.935903  0.936116  1
  Y  Y9  1  0.563729  0.935903  0.564251  1
  Y  Y10  1  0.937317  0.562664  0.936822  1
  Y  Y11  1  0.563708  0.563859  0.936216  1
  Y  Y12  1  0.937612  0.936275  0.563056  1
  Th  Th13  1  0.347986  0.349868  0.348842  1
  Th  Th14  1  0.347986  0.349868  0.953304  1
  Th  Th15  1  0.349507  0.950008  0.350243  1
  Cd  Cd16  1  0.582283  0.253918  0.581900  1
  Cd  Cd17  1  0.252204  0.581145  0.583326  1
  Hg  Hg18  1  0.587250  0.583993  0.586759  1
  Hg  Hg19  1  0.587250  0.583993  0.242000  1
  Ir  Ir20  1  0.145193  0.141774  0.142795  1
  Ir  Ir21  1  0.145193  0.141774  0.570238  1
  Ir  Ir22  1  0.145189  0.570447  0.142182  1
  Ir  Ir23  1  0.569160  0.143287  0.143776  1
