# generated using pymatgen
data_Li6Lu7Zr5Os6
_symmetry_space_group_name_H-M   'P 1'
_cell_length_a   4.77811366
_cell_length_b   6.70289682
_cell_length_c   14.17855508
_cell_angle_alpha   89.51408222
_cell_angle_beta   90.04243095
_cell_angle_gamma   89.91489972
_symmetry_Int_Tables_number   1
_chemical_formula_structural   Li6Lu7Zr5Os6
_chemical_formula_sum   'Li6 Lu7 Zr5 Os6'
_cell_volume   454.08249932
_cell_formula_units_Z   1
loop_
 _symmetry_equiv_pos_site_id
 _symmetry_equiv_pos_as_xyz
  1  'x, y, z'
loop_
 _atom_site_type_symbol
 _atom_site_label
 _atom_site_symmetry_multiplicity
 _atom_site_fract_x
 _atom_site_fract_y
 _atom_site_fract_z
 _atom_site_occupancy
  Li  Li0  1  0.000002  0.499431  0.995527  1
  Li  Li1  1  0.499719  0.999727  0.166435  1
  Li  Li2  1  0.999823  0.503244  0.335944  1
  Li  Li3  1  0.500073  0.995207  0.503952  1
  Li  Li4  1  0.000220  0.502971  0.668330  1
  Li  Li5  1  0.500267  0.000171  0.829883  1
  Lu  Lu6  1  0.500255  0.251613  0.997607  1
  Lu  Lu7  1  0.499833  0.748894  0.998069  1
  Lu  Lu8  1  0.999487  0.248987  0.166781  1
  Lu  Lu9  1  0.000115  0.749550  0.165848  1
  Lu  Lu10  1  0.499837  0.249458  0.334843  1
  Lu  Lu11  1  0.499684  0.748295  0.335040  1
  Lu  Lu12  1  0.999911  0.249224  0.502307  1
  Zr  Zr13  1  0.000342  0.752759  0.501392  1
  Zr  Zr14  1  0.500065  0.254612  0.666408  1
  Zr  Zr15  1  0.500064  0.748103  0.667919  1
  Zr  Zr16  1  0.000202  0.246899  0.831773  1
  Zr  Zr17  1  0.000294  0.752319  0.832005  1
  Os  Os18  1  0.000014  0.000401  0.987399  1
  Os  Os19  1  0.499768  0.497977  0.166629  1
  Os  Os20  1  0.999726  0.992201  0.339613  1
  Os  Os21  1  0.500139  0.514526  0.511210  1
  Os  Os22  1  0.000005  0.994919  0.672115  1
  Os  Os23  1  0.500151  0.498512  0.822977  1
