# generated using pymatgen
data_NdErGa2(SiIr2)2
_symmetry_space_group_name_H-M   'P 1'
_cell_length_a   4.13622700
_cell_length_b   4.13622700
_cell_length_c   10.34369100
_cell_angle_alpha   90.00000000
_cell_angle_beta   90.00000000
_cell_angle_gamma   90.00000000
_symmetry_Int_Tables_number   1
_chemical_formula_structural   NdErGa2(SiIr2)2
_chemical_formula_sum   'Nd1 Er1 Ga2 Si2 Ir4'
_cell_volume   176.96373205
_cell_formula_units_Z   1
loop_
 _symmetry_equiv_pos_site_id
 _symmetry_equiv_pos_as_xyz
  1  'x, y, z'
loop_
 _atom_site_type_symbol
 _atom_site_label
 _atom_site_symmetry_multiplicity
 _atom_site_fract_x
 _atom_site_fract_y
 _atom_site_fract_z
 _atom_site_occupancy
  Nd  Nd0  1  0.500000  0.000000  0.751557  1
  Er  Er1  1  0.000000  0.500000  0.246608  1
  Ga  Ga2  1  0.000000  0.000000  0.497170  1
  Ga  Ga3  1  0.500000  0.500000  0.497170  1
  Si  Si4  1  0.000000  0.500000  0.877973  1
  Si  Si5  1  0.500000  0.000000  0.125226  1
  Ir  Ir6  1  0.000000  0.000000  0.003212  1
  Ir  Ir7  1  0.500000  0.500000  0.003212  1
  Ir  Ir8  1  0.000000  0.500000  0.646409  1
  Ir  Ir9  1  0.500000  0.000000  0.351462  1
