# generated using pymatgen
data_Er8Tm2Ir5Pt
_symmetry_space_group_name_H-M   'P 1'
_cell_length_a   10.83072419
_cell_length_b   10.83197600
_cell_length_c   6.29729111
_cell_angle_alpha   90.00000000
_cell_angle_beta   89.97832321
_cell_angle_gamma   90.00000000
_symmetry_Int_Tables_number   1
_chemical_formula_structural   Er8Tm2Ir5Pt
_chemical_formula_sum   'Er16 Tm4 Ir10 Pt2'
_cell_volume   738.78645603
_cell_formula_units_Z   2
loop_
 _symmetry_equiv_pos_site_id
 _symmetry_equiv_pos_as_xyz
  1  'x, y, z'
loop_
 _atom_site_type_symbol
 _atom_site_label
 _atom_site_symmetry_multiplicity
 _atom_site_fract_x
 _atom_site_fract_y
 _atom_site_fract_z
 _atom_site_occupancy
  Er  Er0  1  0.291011  0.087807  0.376022  1
  Er  Er1  1  0.291011  0.912193  0.876022  1
  Er  Er2  1  0.705878  0.089300  0.874606  1
  Er  Er3  1  0.705878  0.910700  0.374606  1
  Er  Er4  1  0.584880  0.790733  0.877807  1
  Er  Er5  1  0.584880  0.209267  0.377807  1
  Er  Er6  1  0.411873  0.790968  0.377121  1
  Er  Er7  1  0.411873  0.209032  0.877121  1
  Er  Er8  1  0.208932  0.412150  0.622784  1
  Er  Er9  1  0.208932  0.587850  0.122784  1
  Er  Er10  1  0.790673  0.414763  0.122273  1
  Er  Er11  1  0.790673  0.585237  0.622273  1
  Er  Er12  1  0.913419  0.707301  0.126537  1
  Er  Er13  1  0.913419  0.292699  0.626537  1
  Er  Er14  1  0.090341  0.707655  0.622845  1
  Er  Er15  1  0.090341  0.292345  0.122845  1
  Tm  Tm16  1  0.003145  0.999710  0.500035  1
  Tm  Tm17  1  0.003145  0.000290  0.000035  1
  Tm  Tm18  1  0.499840  0.499864  0.000026  1
  Tm  Tm19  1  0.499840  0.500136  0.500026  1
  Ir  Ir20  1  0.152370  0.153098  0.750032  1
  Ir  Ir21  1  0.152370  0.846902  0.250032  1
  Ir  Ir22  1  0.654098  0.345943  0.749898  1
  Ir  Ir23  1  0.654098  0.654057  0.249898  1
  Ir  Ir24  1  0.346707  0.346634  0.250125  1
  Ir  Ir25  1  0.346707  0.653366  0.750125  1
  Ir  Ir26  1  0.501026  0.999868  0.123442  1
  Ir  Ir27  1  0.501026  0.000132  0.623442  1
  Ir  Ir28  1  0.999446  0.499947  0.876605  1
  Ir  Ir29  1  0.999446  0.500053  0.376605  1
  Pt  Pt30  1  0.846361  0.153015  0.249842  1
  Pt  Pt31  1  0.846361  0.846985  0.749842  1
