# generated using pymatgen
data_PmCuSi2Pt
_symmetry_space_group_name_H-M   'P 1'
_cell_length_a   5.83562452
_cell_length_b   5.83562365
_cell_length_c   5.83562426
_cell_angle_alpha   138.68698966
_cell_angle_beta   138.68697910
_cell_angle_gamma   59.85246429
_symmetry_Int_Tables_number   1
_chemical_formula_structural   PmCuSi2Pt
_chemical_formula_sum   'Pm1 Cu1 Si2 Pt1'
_cell_volume   85.73241482
_cell_formula_units_Z   1
loop_
 _symmetry_equiv_pos_site_id
 _symmetry_equiv_pos_as_xyz
  1  'x, y, z'
loop_
 _atom_site_type_symbol
 _atom_site_label
 _atom_site_symmetry_multiplicity
 _atom_site_fract_x
 _atom_site_fract_y
 _atom_site_fract_z
 _atom_site_occupancy
  Pm  Pm0  1  0.000000  0.000000  0.000000  1
  Cu  Cu1  1  0.750000  0.250000  0.500000  1
  Si  Si2  1  0.381739  0.381739  0.000000  1
  Si  Si3  1  0.618260  0.618260  0.000000  1
  Pt  Pt4  1  0.250000  0.750000  0.500000  1
