# generated using pymatgen
data_Er7Th(CdNi)2
_symmetry_space_group_name_H-M   'P 1'
_cell_length_a   9.53025031
_cell_length_b   9.53025071
_cell_length_c   9.53926600
_cell_angle_alpha   59.96870277
_cell_angle_beta   59.96870140
_cell_angle_gamma   60.04609460
_symmetry_Int_Tables_number   1
_chemical_formula_structural   Er7Th(CdNi)2
_chemical_formula_sum   'Er14 Th2 Cd4 Ni4'
_cell_volume   612.56742845
_cell_formula_units_Z   2
loop_
 _symmetry_equiv_pos_site_id
 _symmetry_equiv_pos_as_xyz
  1  'x, y, z'
loop_
 _atom_site_type_symbol
 _atom_site_label
 _atom_site_symmetry_multiplicity
 _atom_site_fract_x
 _atom_site_fract_y
 _atom_site_fract_z
 _atom_site_occupancy
  Er  Er0  1  0.350123  0.949045  0.350416  1
  Er  Er1  1  0.949045  0.350123  0.350416  1
  Er  Er2  1  0.812545  0.189963  0.187029  1
  Er  Er3  1  0.189963  0.812545  0.810463  1
  Er  Er4  1  0.189963  0.812545  0.187029  1
  Er  Er5  1  0.812545  0.189963  0.810463  1
  Er  Er6  1  0.187645  0.187645  0.812355  1
  Er  Er7  1  0.812541  0.812541  0.187459  1
  Er  Er8  1  0.936165  0.565321  0.565845  1
  Er  Er9  1  0.565321  0.936165  0.932669  1
  Er  Er10  1  0.565321  0.936165  0.565845  1
  Er  Er11  1  0.936165  0.565321  0.932669  1
  Er  Er12  1  0.564894  0.564894  0.935106  1
  Er  Er13  1  0.937031  0.937031  0.562969  1
  Th  Th14  1  0.343358  0.343358  0.351038  1
  Th  Th15  1  0.343358  0.343358  0.962246  1
  Cd  Cd16  1  0.582848  0.582848  0.579984  1
  Cd  Cd17  1  0.582848  0.582848  0.254320  1
  Cd  Cd18  1  0.583919  0.254466  0.580806  1
  Cd  Cd19  1  0.254466  0.583919  0.580806  1
  Ni  Ni20  1  0.141858  0.141858  0.144726  1
  Ni  Ni21  1  0.141858  0.141858  0.571559  1
  Ni  Ni22  1  0.144821  0.571401  0.141888  1
  Ni  Ni23  1  0.571401  0.144821  0.141888  1
