# generated using pymatgen
data_Mg2Ta3Nb(SbIr)6
_symmetry_space_group_name_H-M   'P 1'
_cell_length_a   7.65789881
_cell_length_b   7.65706728
_cell_length_c   7.66323928
_cell_angle_alpha   99.61213526
_cell_angle_beta   99.62683931
_cell_angle_gamma   119.95245668
_symmetry_Int_Tables_number   1
_chemical_formula_structural   Mg2Ta3Nb(SbIr)6
_chemical_formula_sum   'Mg2 Ta3 Nb1 Sb6 Ir6'
_cell_volume   366.98066234
_cell_formula_units_Z   1
loop_
 _symmetry_equiv_pos_site_id
 _symmetry_equiv_pos_as_xyz
  1  'x, y, z'
loop_
 _atom_site_type_symbol
 _atom_site_label
 _atom_site_symmetry_multiplicity
 _atom_site_fract_x
 _atom_site_fract_y
 _atom_site_fract_z
 _atom_site_occupancy
  Mg  Mg0  1  0.837446  0.666933  0.003576  1
  Mg  Mg1  1  0.667038  0.837437  0.503605  1
  Ta  Ta2  1  0.331493  0.165425  0.499177  1
  Ta  Ta3  1  0.001284  0.498276  0.499185  1
  Ta  Ta4  1  0.165092  0.331367  0.998726  1
  Nb  Nb5  1  0.498616  0.001188  0.999007  1
  Sb  Sb6  1  0.255184  0.749198  0.246272  1
  Sb  Sb7  1  0.587911  0.432300  0.247393  1
  Sb  Sb8  1  0.906711  0.067492  0.255279  1
  Sb  Sb9  1  0.748672  0.254740  0.746748  1
  Sb  Sb10  1  0.432716  0.588422  0.747774  1
  Sb  Sb11  1  0.067871  0.907013  0.755594  1
  Ir  Ir12  1  0.621927  0.141106  0.369204  1
  Ir  Ir13  1  0.272821  0.439514  0.367603  1
  Ir  Ir14  1  0.981430  0.794880  0.389357  1
  Ir  Ir15  1  0.138078  0.618964  0.866035  1
  Ir  Ir16  1  0.439012  0.274086  0.866567  1
  Ir  Ir17  1  0.796698  0.981657  0.888897  1
