# generated using pymatgen
data_Ba4ErReIrO12
_symmetry_space_group_name_H-M   'P 1'
_cell_length_a   10.12299343
_cell_length_b   10.12299336
_cell_length_c   10.12299476
_cell_angle_alpha   33.84376870
_cell_angle_beta   33.84376598
_cell_angle_gamma   33.84377067
_symmetry_Int_Tables_number   1
_chemical_formula_structural   Ba4ErReIrO12
_chemical_formula_sum   'Ba4 Er1 Re1 Ir1 O12'
_cell_volume   286.73244753
_cell_formula_units_Z   1
loop_
 _symmetry_equiv_pos_site_id
 _symmetry_equiv_pos_as_xyz
  1  'x, y, z'
loop_
 _atom_site_type_symbol
 _atom_site_label
 _atom_site_symmetry_multiplicity
 _atom_site_fract_x
 _atom_site_fract_y
 _atom_site_fract_z
 _atom_site_occupancy
  Ba  Ba0  1  0.708861  0.708861  0.708861  1
  Ba  Ba1  1  0.286667  0.286667  0.286667  1
  Ba  Ba2  1  0.870979  0.870979  0.870979  1
  Ba  Ba3  1  0.137032  0.137032  0.137032  1
  Er  Er4  1  0.999727  0.999727  0.999727  1
  Re  Re5  1  0.420963  0.420963  0.420963  1
  Ir  Ir6  1  0.579913  0.579913  0.579913  1
  O  O7  1  0.385253  0.385253  0.863605  1
  O  O8  1  0.863605  0.385253  0.385253  1
  O  O9  1  0.385253  0.863605  0.385253  1
  O  O10  1  0.608674  0.608674  0.143544  1
  O  O11  1  0.143544  0.608674  0.608674  1
  O  O12  1  0.608674  0.143544  0.608674  1
  O  O13  1  0.224474  0.224474  0.685000  1
  O  O14  1  0.685000  0.224474  0.224474  1
  O  O15  1  0.224474  0.685000  0.224474  1
  O  O16  1  0.779899  0.779899  0.307109  1
  O  O17  1  0.307109  0.779899  0.779899  1
  O  O18  1  0.779899  0.307109  0.779899  1
