# generated using pymatgen
data_Sc4NiRu2Pt
_symmetry_space_group_name_H-M   'P 1'
_cell_length_a   6.38747800
_cell_length_b   6.38804400
_cell_length_c   6.57539200
_cell_angle_alpha   89.99966403
_cell_angle_beta   90.00000000
_cell_angle_gamma   90.00000000
_symmetry_Int_Tables_number   1
_chemical_formula_structural   Sc4NiRu2Pt
_chemical_formula_sum   'Sc8 Ni2 Ru4 Pt2'
_cell_volume   268.29894509
_cell_formula_units_Z   2
loop_
 _symmetry_equiv_pos_site_id
 _symmetry_equiv_pos_as_xyz
  1  'x, y, z'
loop_
 _atom_site_type_symbol
 _atom_site_label
 _atom_site_symmetry_multiplicity
 _atom_site_fract_x
 _atom_site_fract_y
 _atom_site_fract_z
 _atom_site_occupancy
  Sc  Sc0  1  0.000818  0.000062  0.250082  1
  Sc  Sc1  1  0.000825  0.499941  0.250088  1
  Sc  Sc2  1  0.500820  0.999938  0.249919  1
  Sc  Sc3  1  0.500827  0.500059  0.249913  1
  Sc  Sc4  1  0.499214  0.000063  0.749698  1
  Sc  Sc5  1  0.499212  0.499959  0.749703  1
  Sc  Sc6  1  0.999214  0.999937  0.750303  1
  Sc  Sc7  1  0.999212  0.500041  0.750298  1
  Ni  Ni8  1  0.249627  0.750001  0.500070  1
  Ni  Ni9  1  0.749627  0.249999  0.999929  1
  Ru  Ru10  1  0.749986  0.750000  0.000075  1
  Ru  Ru11  1  0.249985  0.250000  0.499926  1
  Ru  Ru12  1  0.750119  0.750001  0.500060  1
  Ru  Ru13  1  0.250117  0.249999  0.999940  1
  Pt  Pt14  1  0.250198  0.750000  0.000009  1
  Pt  Pt15  1  0.750199  0.250000  0.499991  1
