# generated using pymatgen
data_LiY9S10
_symmetry_space_group_name_H-M   'P 1'
_cell_length_a   6.75760680
_cell_length_b   7.81132067
_cell_length_c   8.77013618
_cell_angle_alpha   103.15471573
_cell_angle_beta   97.22383721
_cell_angle_gamma   106.76934484
_symmetry_Int_Tables_number   1
_chemical_formula_structural   LiY9S10
_chemical_formula_sum   'Li1 Y9 S10'
_cell_volume   422.42710534
_cell_formula_units_Z   1
loop_
 _symmetry_equiv_pos_site_id
 _symmetry_equiv_pos_as_xyz
  1  'x, y, z'
loop_
 _atom_site_type_symbol
 _atom_site_label
 _atom_site_symmetry_multiplicity
 _atom_site_fract_x
 _atom_site_fract_y
 _atom_site_fract_z
 _atom_site_occupancy
  Li  Li0  1  0.000000  0.500000  0.000000  1
  Y  Y1  1  0.799648  0.600217  0.599389  1
  Y  Y2  1  0.600900  0.200946  0.204130  1
  Y  Y3  1  0.399100  0.799054  0.795870  1
  Y  Y4  1  0.600533  0.702338  0.203639  1
  Y  Y5  1  0.200352  0.399783  0.400611  1
  Y  Y6  1  0.399467  0.297662  0.796361  1
  Y  Y7  1  0.000000  0.000000  0.000000  1
  Y  Y8  1  0.201448  0.901053  0.403474  1
  Y  Y9  1  0.798552  0.098947  0.596526  1
  S  S10  1  0.704555  0.647173  0.903378  1
  S  S11  1  0.500386  0.251079  0.499821  1
  S  S12  1  0.705271  0.157024  0.903598  1
  S  S13  1  0.294729  0.842976  0.096402  1
  S  S14  1  0.499614  0.748921  0.500179  1
  S  S15  1  0.097052  0.451068  0.706817  1
  S  S16  1  0.295445  0.352827  0.096622  1
  S  S17  1  0.902120  0.050043  0.298702  1
  S  S18  1  0.097880  0.949957  0.701298  1
  S  S19  1  0.902948  0.548932  0.293183  1
