# generated using pymatgen
data_Cs4Li2HoInBi4
_symmetry_space_group_name_H-M   'P 1'
_cell_length_a   10.52245124
_cell_length_b   10.52244965
_cell_length_c   10.52244907
_cell_angle_alpha   138.86162053
_cell_angle_beta   59.28116514
_cell_angle_gamma   139.26208574
_symmetry_Int_Tables_number   1
_chemical_formula_structural   Cs4Li2HoInBi4
_chemical_formula_sum   'Cs4 Li2 Ho1 In1 Bi4'
_cell_volume   495.32188078
_cell_formula_units_Z   1
loop_
 _symmetry_equiv_pos_site_id
 _symmetry_equiv_pos_as_xyz
  1  'x, y, z'
loop_
 _atom_site_type_symbol
 _atom_site_label
 _atom_site_symmetry_multiplicity
 _atom_site_fract_x
 _atom_site_fract_y
 _atom_site_fract_z
 _atom_site_occupancy
  Cs  Cs0  1  0.335220  0.775130  0.097111  1
  Cs  Cs1  1  0.164780  0.261891  0.439909  1
  Cs  Cs2  1  0.821983  0.724872  0.560091  1
  Cs  Cs3  1  0.678017  0.238110  0.902889  1
  Li  Li4  1  0.750000  0.250000  0.500000  1
  Li  Li5  1  0.250000  0.750001  0.500001  1
  Ho  Ho6  1  0.250000  0.250000  0.000000  1
  In  In7  1  0.749999  0.749999  0.000000  1
  Bi  Bi8  1  0.906474  0.243295  0.155975  1
  Bi  Bi9  1  0.593526  0.749502  0.336821  1
  Bi  Bi10  1  0.412681  0.256706  0.663180  1
  Bi  Bi11  1  0.087319  0.750499  0.844025  1
