# generated using pymatgen
data_Nd8Si12IrPdRh2
_symmetry_space_group_name_H-M   'P 1'
_cell_length_a   8.26641300
_cell_length_b   8.26641391
_cell_length_c   8.43652200
_cell_angle_alpha   90.00000000
_cell_angle_beta   90.00000000
_cell_angle_gamma   119.99999234
_symmetry_Int_Tables_number   1
_chemical_formula_structural   Nd8Si12IrPdRh2
_chemical_formula_sum   'Nd8 Si12 Ir1 Pd1 Rh2'
_cell_volume   499.26181971
_cell_formula_units_Z   1
loop_
 _symmetry_equiv_pos_site_id
 _symmetry_equiv_pos_as_xyz
  1  'x, y, z'
loop_
 _atom_site_type_symbol
 _atom_site_label
 _atom_site_symmetry_multiplicity
 _atom_site_fract_x
 _atom_site_fract_y
 _atom_site_fract_z
 _atom_site_occupancy
  Nd  Nd0  1  0.496244  0.503756  0.752944  1
  Nd  Nd1  1  0.500005  0.499995  0.247660  1
  Nd  Nd2  1  0.007512  0.503756  0.752944  1
  Nd  Nd3  1  0.999989  0.499995  0.247660  1
  Nd  Nd4  1  0.496244  0.992488  0.752944  1
  Nd  Nd5  1  0.500005  0.000011  0.247660  1
  Nd  Nd6  1  0.000000  0.000000  0.750353  1
  Nd  Nd7  1  0.000000  0.000000  0.248846  1
  Si  Si8  1  0.833109  0.166891  0.001332  1
  Si  Si9  1  0.166024  0.833976  0.998552  1
  Si  Si10  1  0.333782  0.166891  0.001332  1
  Si  Si11  1  0.167090  0.832910  0.501871  1
  Si  Si12  1  0.667952  0.833976  0.998552  1
  Si  Si13  1  0.835286  0.164714  0.497592  1
  Si  Si14  1  0.833109  0.666218  0.001332  1
  Si  Si15  1  0.665820  0.832910  0.501871  1
  Si  Si16  1  0.166024  0.332048  0.998552  1
  Si  Si17  1  0.329429  0.164714  0.497592  1
  Si  Si18  1  0.167090  0.334180  0.501871  1
  Si  Si19  1  0.835286  0.670571  0.497592  1
  Ir  Ir20  1  0.333333  0.666667  0.491983  1
  Pd  Pd21  1  0.666667  0.333333  0.509032  1
  Rh  Rh22  1  0.666667  0.333333  0.992340  1
  Rh  Rh23  1  0.333333  0.666667  0.007594  1
