# generated using pymatgen
data_Tm7LuSc12Ga7Si9
_symmetry_space_group_name_H-M   'P 1'
_cell_length_a   7.11879512
_cell_length_b   7.37648649
_cell_length_c   14.17571319
_cell_angle_alpha   89.97835859
_cell_angle_beta   89.92637659
_cell_angle_gamma   90.00899722
_symmetry_Int_Tables_number   1
_chemical_formula_structural   Tm7LuSc12Ga7Si9
_chemical_formula_sum   'Tm7 Lu1 Sc12 Ga7 Si9'
_cell_volume   744.39006571
_cell_formula_units_Z   1
loop_
 _symmetry_equiv_pos_site_id
 _symmetry_equiv_pos_as_xyz
  1  'x, y, z'
loop_
 _atom_site_type_symbol
 _atom_site_label
 _atom_site_symmetry_multiplicity
 _atom_site_fract_x
 _atom_site_fract_y
 _atom_site_fract_z
 _atom_site_occupancy
  Tm  Tm0  1  0.989799  0.822875  0.901751  1
  Tm  Tm1  1  0.488389  0.677071  0.901845  1
  Tm  Tm2  1  0.989664  0.823254  0.599359  1
  Tm  Tm3  1  0.510387  0.322138  0.098820  1
  Tm  Tm4  1  0.010111  0.176299  0.400518  1
  Tm  Tm5  1  0.510498  0.323013  0.400306  1
  Tm  Tm6  1  0.489643  0.676722  0.599282  1
  Lu  Lu7  1  0.012350  0.174759  0.098753  1
  Sc  Sc8  1  0.163931  0.503296  0.749987  1
  Sc  Sc9  1  0.836905  0.497555  0.249741  1
  Sc  Sc10  1  0.335741  0.003317  0.248892  1
  Sc  Sc11  1  0.663539  0.997149  0.749709  1
  Sc  Sc12  1  0.330307  0.173435  0.625853  1
  Sc  Sc13  1  0.669254  0.826889  0.373825  1
  Sc  Sc14  1  0.169482  0.673730  0.373727  1
  Sc  Sc15  1  0.668186  0.825433  0.126181  1
  Sc  Sc16  1  0.830093  0.326531  0.626075  1
  Sc  Sc17  1  0.329784  0.174046  0.875021  1
  Sc  Sc18  1  0.829330  0.326542  0.874470  1
  Sc  Sc19  1  0.171851  0.675595  0.125046  1
  Ga  Ga20  1  0.161914  0.464010  0.539549  1
  Ga  Ga21  1  0.838046  0.535942  0.460261  1
  Ga  Ga22  1  0.337822  0.963625  0.460417  1
  Ga  Ga23  1  0.838302  0.536968  0.040232  1
  Ga  Ga24  1  0.662046  0.036197  0.539355  1
  Ga  Ga25  1  0.161169  0.463030  0.960758  1
  Ga  Ga26  1  0.660898  0.036872  0.961046  1
  Si  Si27  1  0.031750  0.112013  0.750812  1
  Si  Si28  1  0.967864  0.887289  0.249453  1
  Si  Si29  1  0.467685  0.611791  0.249541  1
  Si  Si30  1  0.531941  0.387559  0.750216  1
  Si  Si31  1  0.284369  0.872516  0.750657  1
  Si  Si32  1  0.716158  0.127869  0.249058  1
  Si  Si33  1  0.215028  0.371592  0.249387  1
  Si  Si34  1  0.784286  0.628037  0.750470  1
  Si  Si35  1  0.341476  0.965041  0.039631  1
