# generated using pymatgen
data_Hf2ZrSc7(In2Rh)4
_symmetry_space_group_name_H-M   'P 1'
_cell_length_a   3.33541300
_cell_length_b   7.75858371
_cell_length_c   17.66056568
_cell_angle_alpha   89.72842476
_cell_angle_beta   90.00000000
_cell_angle_gamma   90.00000000
_symmetry_Int_Tables_number   1
_chemical_formula_structural   Hf2ZrSc7(In2Rh)4
_chemical_formula_sum   'Hf2 Zr1 Sc7 In8 Rh4'
_cell_volume   457.01641494
_cell_formula_units_Z   1
loop_
 _symmetry_equiv_pos_site_id
 _symmetry_equiv_pos_as_xyz
  1  'x, y, z'
loop_
 _atom_site_type_symbol
 _atom_site_label
 _atom_site_symmetry_multiplicity
 _atom_site_fract_x
 _atom_site_fract_y
 _atom_site_fract_z
 _atom_site_occupancy
  Hf  Hf0  1  0.000000  0.745824  0.778274  1
  Hf  Hf1  1  0.000000  0.254967  0.221326  1
  Zr  Zr2  1  0.000000  0.247816  0.720903  1
  Sc  Sc3  1  0.000000  0.999998  0.000554  1
  Sc  Sc4  1  0.000000  0.499194  0.499983  1
  Sc  Sc5  1  0.000000  0.753033  0.279521  1
  Sc  Sc6  1  0.000000  0.873989  0.583329  1
  Sc  Sc7  1  0.000000  0.125363  0.415722  1
  Sc  Sc8  1  0.000000  0.374861  0.916682  1
  Sc  Sc9  1  0.000000  0.625287  0.084015  1
  In  In10  1  0.500000  0.797849  0.432976  1
  In  In11  1  0.500000  0.202028  0.566387  1
  In  In12  1  0.500000  0.296559  0.066665  1
  In  In13  1  0.500000  0.703688  0.933480  1
  In  In14  1  0.500000  0.928003  0.149820  1
  In  In15  1  0.500000  0.070876  0.851172  1
  In  In16  1  0.500000  0.430193  0.351815  1
  In  In17  1  0.500000  0.570990  0.647583  1
  Rh  Rh18  1  0.500000  0.958481  0.695717  1
  Rh  Rh19  1  0.500000  0.043326  0.304284  1
  Rh  Rh20  1  0.500000  0.466874  0.805496  1
  Rh  Rh21  1  0.500000  0.530799  0.194294  1
