# generated using pymatgen
data_Dy2YSi2(PPd5)4
_symmetry_space_group_name_H-M   'P 1'
_cell_length_a   8.70474909
_cell_length_b   8.68938115
_cell_length_c   8.68938001
_cell_angle_alpha   60.11704206
_cell_angle_beta   59.94147884
_cell_angle_gamma   59.94147259
_symmetry_Int_Tables_number   1
_chemical_formula_structural   Dy2YSi2(PPd5)4
_chemical_formula_sum   'Dy2 Y1 Si2 P4 Pd20'
_cell_volume   464.74652867
_cell_formula_units_Z   1
loop_
 _symmetry_equiv_pos_site_id
 _symmetry_equiv_pos_as_xyz
  1  'x, y, z'
loop_
 _atom_site_type_symbol
 _atom_site_label
 _atom_site_symmetry_multiplicity
 _atom_site_fract_x
 _atom_site_fract_y
 _atom_site_fract_z
 _atom_site_occupancy
  Dy  Dy0  1  0.750000  0.750000  0.750000  1
  Dy  Dy1  1  0.000000  0.000000  0.000000  1
  Y  Y2  1  0.250000  0.250000  0.250000  1
  Si  Si3  1  0.734244  0.265756  0.265756  1
  Si  Si4  1  0.265756  0.734244  0.734244  1
  P  P5  1  0.264695  0.735305  0.264695  1
  P  P6  1  0.735305  0.264695  0.735305  1
  P  P7  1  0.264695  0.264695  0.735305  1
  P  P8  1  0.735305  0.735305  0.264695  1
  Pd  Pd9  1  0.383136  0.385011  0.385011  1
  Pd  Pd10  1  0.617167  0.615361  0.615361  1
  Pd  Pd11  1  0.385011  0.383136  0.846845  1
  Pd  Pd12  1  0.385011  0.846845  0.383136  1
  Pd  Pd13  1  0.615361  0.617167  0.152109  1
  Pd  Pd14  1  0.615361  0.152109  0.617167  1
  Pd  Pd15  1  0.846845  0.385011  0.385011  1
  Pd  Pd16  1  0.152109  0.615361  0.615361  1
  Pd  Pd17  1  0.343750  0.999915  0.999915  1
  Pd  Pd18  1  0.656419  0.999915  0.999915  1
  Pd  Pd19  1  0.999915  0.343750  0.656419  1
  Pd  Pd20  1  0.999915  0.656419  0.343750  1
  Pd  Pd21  1  0.000645  0.346028  0.999171  1
  Pd  Pd22  1  0.654155  0.999171  0.346028  1
  Pd  Pd23  1  0.999171  0.654155  0.000645  1
  Pd  Pd24  1  0.346028  0.000645  0.654155  1
  Pd  Pd25  1  0.000645  0.999171  0.346028  1
  Pd  Pd26  1  0.999171  0.000645  0.654155  1
  Pd  Pd27  1  0.654155  0.346028  0.999171  1
  Pd  Pd28  1  0.346028  0.654155  0.000645  1
