# generated using pymatgen
data_K3Pr(U2S5)4
_symmetry_space_group_name_H-M   'P 1'
_cell_length_a   7.40429452
_cell_length_b   8.27926365
_cell_length_c   11.61595200
_cell_angle_alpha   89.80053304
_cell_angle_beta   90.02137286
_cell_angle_gamma   90.05965210
_symmetry_Int_Tables_number   1
_chemical_formula_structural   K3Pr(U2S5)4
_chemical_formula_sum   'K3 Pr1 U8 S20'
_cell_volume   712.07757595
_cell_formula_units_Z   1
loop_
 _symmetry_equiv_pos_site_id
 _symmetry_equiv_pos_as_xyz
  1  'x, y, z'
loop_
 _atom_site_type_symbol
 _atom_site_label
 _atom_site_symmetry_multiplicity
 _atom_site_fract_x
 _atom_site_fract_y
 _atom_site_fract_z
 _atom_site_occupancy
  K  K0  1  0.553068  0.509295  0.164312  1
  K  K1  1  0.949496  0.507741  0.673589  1
  K  K2  1  0.450551  0.490311  0.825230  1
  Pr  Pr3  1  0.050736  0.495184  0.339363  1
  U  U4  1  0.023896  0.999056  0.319561  1
  U  U5  1  0.518001  0.998797  0.179599  1
  U  U6  1  0.975707  0.000668  0.680625  1
  U  U7  1  0.474614  0.999846  0.818883  1
  U  U8  1  0.071776  0.748801  0.008166  1
  U  U9  1  0.574360  0.249575  0.485720  1
  U  U10  1  0.927291  0.247934  0.995780  1
  U  U11  1  0.432596  0.756682  0.509427  1
  S  S12  1  0.663614  0.954491  0.400737  1
  S  S13  1  0.160782  0.043119  0.098530  1
  S  S14  1  0.335735  0.047935  0.593182  1
  S  S15  1  0.837317  0.954737  0.904787  1
  S  S16  1  0.448502  0.792828  0.002841  1
  S  S17  1  0.956047  0.213978  0.493284  1
  S  S18  1  0.550186  0.205249  0.998869  1
  S  S19  1  0.047882  0.788169  0.498593  1
  S  S20  1  0.848580  0.774255  0.193257  1
  S  S21  1  0.329454  0.217510  0.311620  1
  S  S22  1  0.161621  0.210383  0.817148  1
  S  S23  1  0.664424  0.789812  0.685722  1
  S  S24  1  0.306889  0.766679  0.287489  1
  S  S25  1  0.811606  0.231480  0.221688  1
  S  S26  1  0.689437  0.219426  0.709448  1
  S  S27  1  0.191796  0.779909  0.782732  1
  S  S28  1  0.157324  0.462633  0.097766  1
  S  S29  1  0.690716  0.543508  0.428028  1
  S  S30  1  0.834213  0.538781  0.926134  1
  S  S31  1  0.311780  0.461230  0.547892  1
