# generated using pymatgen
data_Sm8Si12Ir3Au
_symmetry_space_group_name_H-M   'P 1'
_cell_length_a   8.23395100
_cell_length_b   8.23394974
_cell_length_c   8.40289000
_cell_angle_alpha   90.00000000
_cell_angle_beta   90.00000000
_cell_angle_gamma   120.00000907
_symmetry_Int_Tables_number   1
_chemical_formula_structural   Sm8Si12Ir3Au
_chemical_formula_sum   'Sm8 Si12 Ir3 Au1'
_cell_volume   493.37343350
_cell_formula_units_Z   1
loop_
 _symmetry_equiv_pos_site_id
 _symmetry_equiv_pos_as_xyz
  1  'x, y, z'
loop_
 _atom_site_type_symbol
 _atom_site_label
 _atom_site_symmetry_multiplicity
 _atom_site_fract_x
 _atom_site_fract_y
 _atom_site_fract_z
 _atom_site_occupancy
  Sm  Sm0  1  0.503244  0.006479  0.255158  1
  Sm  Sm1  1  0.502624  0.005259  0.744950  1
  Sm  Sm2  1  0.993523  0.496757  0.255158  1
  Sm  Sm3  1  0.994745  0.497379  0.744949  1
  Sm  Sm4  1  0.503238  0.496762  0.255153  1
  Sm  Sm5  1  0.502635  0.497366  0.744949  1
  Sm  Sm6  1  0.000000  0.999999  0.250329  1
  Sm  Sm7  1  0.999999  0.999999  0.749193  1
  Si  Si8  1  0.160995  0.321995  0.999498  1
  Si  Si9  1  0.831748  0.663497  0.000031  1
  Si  Si10  1  0.678004  0.839003  0.999498  1
  Si  Si11  1  0.833647  0.667296  0.500850  1
  Si  Si12  1  0.336504  0.168252  0.000031  1
  Si  Si13  1  0.167514  0.335032  0.499221  1
  Si  Si14  1  0.160996  0.839002  0.999498  1
  Si  Si15  1  0.332704  0.166352  0.500850  1
  Si  Si16  1  0.831748  0.168251  0.000031  1
  Si  Si17  1  0.664967  0.832485  0.499221  1
  Si  Si18  1  0.833647  0.166352  0.500849  1
  Si  Si19  1  0.167514  0.832485  0.499222  1
  Ir  Ir20  1  0.666669  0.333334  0.000103  1
  Ir  Ir21  1  0.666670  0.333331  0.500311  1
  Ir  Ir22  1  0.333329  0.666669  0.499644  1
  Au  Au23  1  0.333331  0.666668  0.001306  1
