# generated using pymatgen
data_Zr10Si(Sn2Sb)2
_symmetry_space_group_name_H-M   'P 1'
_cell_length_a   5.92118732
_cell_length_b   8.67662449
_cell_length_c   8.67289800
_cell_angle_alpha   119.98882809
_cell_angle_beta   89.93932896
_cell_angle_gamma   90.02992246
_symmetry_Int_Tables_number   1
_chemical_formula_structural   Zr10Si(Sn2Sb)2
_chemical_formula_sum   'Zr10 Si1 Sn4 Sb2'
_cell_volume   385.92517505
_cell_formula_units_Z   1
loop_
 _symmetry_equiv_pos_site_id
 _symmetry_equiv_pos_as_xyz
  1  'x, y, z'
loop_
 _atom_site_type_symbol
 _atom_site_label
 _atom_site_symmetry_multiplicity
 _atom_site_fract_x
 _atom_site_fract_y
 _atom_site_fract_z
 _atom_site_occupancy
  Zr  Zr0  1  0.499913  0.334847  0.666825  1
  Zr  Zr1  1  0.499918  0.665151  0.331986  1
  Zr  Zr2  1  0.001366  0.665656  0.332635  1
  Zr  Zr3  1  0.001361  0.334339  0.666983  1
  Zr  Zr4  1  0.757806  0.253176  0.000115  1
  Zr  Zr5  1  0.757777  0.746828  0.746937  1
  Zr  Zr6  1  0.757360  0.000005  0.251978  1
  Zr  Zr7  1  0.242803  0.744361  0.000212  1
  Zr  Zr8  1  0.242803  0.255637  0.255856  1
  Zr  Zr9  1  0.241740  0.999996  0.746047  1
  Si  Si10  1  0.497321  0.000005  0.999826  1
  Sn  Sn11  1  0.747347  0.000000  0.607067  1
  Sn  Sn12  1  0.252238  0.389317  0.999440  1
  Sn  Sn13  1  0.252187  0.610676  0.610123  1
  Sn  Sn14  1  0.251485  0.999996  0.392054  1
  Sb  Sb15  1  0.748285  0.607966  0.999936  1
  Sb  Sb16  1  0.748291  0.392045  0.391978  1
