# generated using pymatgen
data_YTh7(WC2)4
_symmetry_space_group_name_H-M   'P 1'
_cell_length_a   5.35097100
_cell_length_b   6.78538865
_cell_length_c   10.20169679
_cell_angle_alpha   89.76755582
_cell_angle_beta   90.00000000
_cell_angle_gamma   90.00000000
_symmetry_Int_Tables_number   1
_chemical_formula_structural   YTh7(WC2)4
_chemical_formula_sum   'Y1 Th7 W4 C8'
_cell_volume   370.40442224
_cell_formula_units_Z   1
loop_
 _symmetry_equiv_pos_site_id
 _symmetry_equiv_pos_as_xyz
  1  'x, y, z'
loop_
 _atom_site_type_symbol
 _atom_site_label
 _atom_site_symmetry_multiplicity
 _atom_site_fract_x
 _atom_site_fract_y
 _atom_site_fract_z
 _atom_site_occupancy
  Y  Y0  1  0.750000  0.179589  0.945674  1
  Th  Th1  1  0.250000  0.464592  0.783569  1
  Th  Th2  1  0.750000  0.033277  0.275773  1
  Th  Th3  1  0.250000  0.968058  0.722862  1
  Th  Th4  1  0.750000  0.531767  0.219185  1
  Th  Th5  1  0.250000  0.818158  0.049709  1
  Th  Th6  1  0.750000  0.686059  0.550800  1
  Th  Th7  1  0.250000  0.312756  0.449287  1
  W  W8  1  0.250000  0.277233  0.131926  1
  W  W9  1  0.750000  0.224656  0.636968  1
  W  W10  1  0.250000  0.776336  0.365076  1
  W  W11  1  0.750000  0.724739  0.866611  1
  C  C12  1  0.250000  0.668160  0.554209  1
  C  C13  1  0.750000  0.831338  0.053989  1
  C  C14  1  0.250000  0.170754  0.945509  1
  C  C15  1  0.750000  0.332913  0.446707  1
  C  C16  1  0.250000  0.040516  0.257148  1
  C  C17  1  0.750000  0.457958  0.761773  1
  C  C18  1  0.250000  0.539779  0.240489  1
  C  C19  1  0.750000  0.961361  0.742735  1
