# generated using pymatgen
data_DyLu2Co8P6Ru
_symmetry_space_group_name_H-M   'P 1'
_cell_length_a   3.67827800
_cell_length_b   10.47681500
_cell_length_c   12.17934900
_cell_angle_alpha   90.00000000
_cell_angle_beta   90.00000000
_cell_angle_gamma   90.00000000
_symmetry_Int_Tables_number   1
_chemical_formula_structural   DyLu2Co8P6Ru
_chemical_formula_sum   'Dy2 Lu4 Co16 P12 Ru2'
_cell_volume   469.35116501
_cell_formula_units_Z   2
loop_
 _symmetry_equiv_pos_site_id
 _symmetry_equiv_pos_as_xyz
  1  'x, y, z'
loop_
 _atom_site_type_symbol
 _atom_site_label
 _atom_site_symmetry_multiplicity
 _atom_site_fract_x
 _atom_site_fract_y
 _atom_site_fract_z
 _atom_site_occupancy
  Dy  Dy0  1  0.000000  0.500000  0.525075  1
  Dy  Dy1  1  0.500000  0.000000  0.474925  1
  Lu  Lu2  1  0.500000  0.817387  0.206715  1
  Lu  Lu3  1  0.500000  0.182613  0.206715  1
  Lu  Lu4  1  0.000000  0.682613  0.793285  1
  Lu  Lu5  1  0.000000  0.317387  0.793285  1
  Co  Co6  1  0.500000  0.500000  0.704724  1
  Co  Co7  1  0.000000  0.000000  0.295276  1
  Co  Co8  1  0.000000  0.500000  0.985609  1
  Co  Co9  1  0.500000  0.000000  0.014391  1
  Co  Co10  1  0.500000  0.332360  0.990202  1
  Co  Co11  1  0.500000  0.667640  0.990202  1
  Co  Co12  1  0.000000  0.167640  0.009798  1
  Co  Co13  1  0.000000  0.832360  0.009798  1
  Co  Co14  1  0.500000  0.296909  0.430699  1
  Co  Co15  1  0.500000  0.703091  0.430699  1
  Co  Co16  1  0.000000  0.203091  0.569301  1
  Co  Co17  1  0.000000  0.796909  0.569301  1
  Co  Co18  1  0.500000  0.877891  0.708515  1
  Co  Co19  1  0.500000  0.122109  0.708515  1
  Co  Co20  1  0.000000  0.622109  0.291485  1
  Co  Co21  1  0.000000  0.377891  0.291485  1
  P  P22  1  0.500000  0.500000  0.880794  1
  P  P23  1  0.000000  0.000000  0.119206  1
  P  P24  1  0.500000  0.500000  0.350472  1
  P  P25  1  0.000000  0.000000  0.649528  1
  P  P26  1  0.500000  0.311922  0.617447  1
  P  P27  1  0.500000  0.688078  0.617447  1
  P  P28  1  0.000000  0.188078  0.382553  1
  P  P29  1  0.000000  0.811922  0.382553  1
  P  P30  1  0.500000  0.845664  0.892575  1
  P  P31  1  0.500000  0.154336  0.892575  1
  P  P32  1  0.000000  0.654336  0.107425  1
  P  P33  1  0.000000  0.345664  0.107425  1
  Ru  Ru34  1  0.500000  0.500000  0.159063  1
  Ru  Ru35  1  0.000000  0.000000  0.840937  1
