# generated using pymatgen
data_Li4UIn3(PO4)6
_symmetry_space_group_name_H-M   'P 1'
_cell_length_a   9.09220700
_cell_length_b   8.88707199
_cell_length_c   15.48235167
_cell_angle_alpha   54.98995127
_cell_angle_beta   90.00000000
_cell_angle_gamma   90.00000000
_symmetry_Int_Tables_number   1
_chemical_formula_structural   Li4UIn3(PO4)6
_chemical_formula_sum   'Li8 U2 In6 P12 O48'
_cell_volume   1024.65135055
_cell_formula_units_Z   2
loop_
 _symmetry_equiv_pos_site_id
 _symmetry_equiv_pos_as_xyz
  1  'x, y, z'
loop_
 _atom_site_type_symbol
 _atom_site_label
 _atom_site_symmetry_multiplicity
 _atom_site_fract_x
 _atom_site_fract_y
 _atom_site_fract_z
 _atom_site_occupancy
  Li  Li0  1  0.033997  0.972093  0.816447  1
  Li  Li1  1  0.971398  0.599127  0.180897  1
  Li  Li2  1  0.473478  0.400256  0.319419  1
  Li  Li3  1  0.527831  0.032937  0.672898  1
  Li  Li4  1  0.966003  0.972093  0.316447  1
  Li  Li5  1  0.028602  0.599127  0.680897  1
  Li  Li6  1  0.526522  0.400256  0.819419  1
  Li  Li7  1  0.472169  0.032937  0.172898  1
  U  U8  1  0.707508  0.863035  0.886977  1
  U  U9  1  0.292492  0.863035  0.386977  1
  In  In10  1  0.288217  0.633330  0.113043  1
  In  In11  1  0.791946  0.366275  0.387286  1
  In  In12  1  0.208265  0.138858  0.611236  1
  In  In13  1  0.711783  0.633330  0.613043  1
  In  In14  1  0.208054  0.366275  0.887286  1
  In  In15  1  0.791735  0.138858  0.111236  1
  P  P16  1  0.509639  0.443822  0.504008  1
  P  P17  1  0.642932  0.742282  0.153706  1
  P  P18  1  0.347939  0.048120  0.850488  1
  P  P19  1  0.857158  0.955043  0.646965  1
  P  P20  1  0.143514  0.259936  0.351598  1
  P  P21  1  0.002294  0.541549  0.001942  1
  P  P22  1  0.490361  0.443822  0.004008  1
  P  P23  1  0.357068  0.742282  0.653706  1
  P  P24  1  0.652061  0.048120  0.350488  1
  P  P25  1  0.142842  0.955043  0.146965  1
  P  P26  1  0.856486  0.259936  0.851598  1
  P  P27  1  0.997706  0.541549  0.501942  1
  O  O28  1  0.892397  0.530401  0.429616  1
  O  O29  1  0.117523  0.396878  0.554412  1
  O  O30  1  0.131223  0.775874  0.153053  1
  O  O31  1  0.851740  0.102466  0.831508  1
  O  O32  1  0.582289  0.450422  0.411764  1
  O  O33  1  0.672733  0.822395  0.033726  1
  O  O34  1  0.229120  0.066329  0.773383  1
  O  O35  1  0.491513  0.646088  0.184204  1
  O  O36  1  0.503435  0.016639  0.814872  1
  O  O37  1  0.425927  0.260196  0.573172  1
  O  O38  1  0.314325  0.882804  0.961533  1
  O  O39  1  0.768715  0.606643  0.217761  1
  O  O40  1  0.267280  0.398529  0.284461  1
  O  O41  1  0.805209  0.118104  0.540403  1
  O  O42  1  0.920526  0.737215  0.925588  1
  O  O43  1  0.002598  0.989325  0.685322  1
  O  O44  1  0.990747  0.352864  0.314681  1
  O  O45  1  0.731678  0.923386  0.728801  1
  O  O46  1  0.167657  0.164774  0.469090  1
  O  O47  1  0.077790  0.557300  0.085702  1
  O  O48  1  0.359421  0.904768  0.664120  1
  O  O49  1  0.636381  0.227706  0.343885  1
  O  O50  1  0.384940  0.463034  0.073274  1
  O  O51  1  0.604168  0.609195  0.948759  1
  O  O52  1  0.882477  0.396878  0.054412  1
  O  O53  1  0.107603  0.530401  0.929616  1
  O  O54  1  0.868777  0.775874  0.653053  1
  O  O55  1  0.148260  0.102466  0.331508  1
  O  O56  1  0.417711  0.450422  0.911764  1
  O  O57  1  0.327267  0.822395  0.533726  1
  O  O58  1  0.770880  0.066329  0.273383  1
  O  O59  1  0.508487  0.646088  0.684204  1
  O  O60  1  0.496565  0.016639  0.314872  1
  O  O61  1  0.574073  0.260196  0.073172  1
  O  O62  1  0.685675  0.882804  0.461533  1
  O  O63  1  0.231285  0.606643  0.717761  1
  O  O64  1  0.732720  0.398529  0.784461  1
  O  O65  1  0.194791  0.118104  0.040403  1
  O  O66  1  0.079474  0.737215  0.425588  1
  O  O67  1  0.997402  0.989325  0.185322  1
  O  O68  1  0.009253  0.352864  0.814681  1
  O  O69  1  0.268322  0.923386  0.228801  1
  O  O70  1  0.832343  0.164774  0.969090  1
  O  O71  1  0.922210  0.557300  0.585702  1
  O  O72  1  0.640579  0.904768  0.164120  1
  O  O73  1  0.363619  0.227706  0.843885  1
  O  O74  1  0.395832  0.609195  0.448759  1
  O  O75  1  0.615060  0.463034  0.573274  1
