# generated using pymatgen
data_CeY2Sn3Ir2Rh
_symmetry_space_group_name_H-M   'P 1'
_cell_length_a   7.60910800
_cell_length_b   7.54156058
_cell_length_c   3.92331000
_cell_angle_alpha   90.00000000
_cell_angle_beta   90.00000000
_cell_angle_gamma   120.29672988
_symmetry_Int_Tables_number   1
_chemical_formula_structural   CeY2Sn3Ir2Rh
_chemical_formula_sum   'Ce1 Y2 Sn3 Ir2 Rh1'
_cell_volume   194.38909017
_cell_formula_units_Z   1
loop_
 _symmetry_equiv_pos_site_id
 _symmetry_equiv_pos_as_xyz
  1  'x, y, z'
loop_
 _atom_site_type_symbol
 _atom_site_label
 _atom_site_symmetry_multiplicity
 _atom_site_fract_x
 _atom_site_fract_y
 _atom_site_fract_z
 _atom_site_occupancy
  Ce  Ce0  1  0.414239  0.000000  0.000000  1
  Y  Y1  1  0.999903  0.407255  0.000000  1
  Y  Y2  1  0.592648  0.592745  0.000000  1
  Sn  Sn3  1  0.258153  0.266418  0.500000  1
  Sn  Sn4  1  0.991735  0.733582  0.500000  1
  Sn  Sn5  1  0.750421  0.000000  0.500000  1
  Ir  Ir6  1  0.652286  0.316987  0.500000  1
  Ir  Ir7  1  0.335298  0.683013  0.500000  1
  Rh  Rh8  1  0.005317  0.000000  0.000000  1
