# generated using pymatgen
data_Ho8Tm4InCuNi4
_symmetry_space_group_name_H-M   'P 1'
_cell_length_a   8.25902503
_cell_length_b   8.25909514
_cell_length_c   8.25902523
_cell_angle_alpha   112.11169763
_cell_angle_beta   109.48667248
_cell_angle_gamma   106.85755736
_symmetry_Int_Tables_number   1
_chemical_formula_structural   Ho8Tm4InCuNi4
_chemical_formula_sum   'Ho8 Tm4 In1 Cu1 Ni4'
_cell_volume   432.76903020
_cell_formula_units_Z   1
loop_
 _symmetry_equiv_pos_site_id
 _symmetry_equiv_pos_as_xyz
  1  'x, y, z'
loop_
 _atom_site_type_symbol
 _atom_site_label
 _atom_site_symmetry_multiplicity
 _atom_site_fract_x
 _atom_site_fract_y
 _atom_site_fract_z
 _atom_site_occupancy
  Ho  Ho0  1  0.182186  0.292705  0.474888  1
  Ho  Ho1  1  0.817814  0.707295  0.525112  1
  Ho  Ho2  1  0.182183  0.707295  0.889480  1
  Ho  Ho3  1  0.817817  0.292705  0.110520  1
  Ho  Ho4  1  0.414946  0.219741  0.195200  1
  Ho  Ho5  1  0.585054  0.780259  0.804800  1
  Ho  Ho6  1  0.024542  0.219741  0.804796  1
  Ho  Ho7  1  0.975458  0.780259  0.195204  1
  Tm  Tm8  1  0.322747  0.628613  0.305867  1
  Tm  Tm9  1  0.677253  0.371387  0.694133  1
  Tm  Tm10  1  0.322751  0.016895  0.694146  1
  Tm  Tm11  1  0.677249  0.983105  0.305854  1
  In  In12  1  0.500000  0.500000  0.000000  1
  Cu  Cu13  1  0.000000  0.000000  0.000000  1
  Ni  Ni14  1  0.125628  0.625665  0.500037  1
  Ni  Ni15  1  0.874372  0.374335  0.499963  1
  Ni  Ni16  1  0.362273  0.000000  0.362273  1
  Ni  Ni17  1  0.637727  0.000000  0.637727  1
