# generated using pymatgen
data_SrAc2(AgSn)3
_symmetry_space_group_name_H-M   'P 1'
_cell_length_a   4.93218200
_cell_length_b   4.93218158
_cell_length_c   12.47075100
_cell_angle_alpha   90.00000000
_cell_angle_beta   90.00000000
_cell_angle_gamma   119.99998941
_symmetry_Int_Tables_number   1
_chemical_formula_structural   SrAc2(AgSn)3
_chemical_formula_sum   'Sr1 Ac2 Ag3 Sn3'
_cell_volume   262.72502179
_cell_formula_units_Z   1
loop_
 _symmetry_equiv_pos_site_id
 _symmetry_equiv_pos_as_xyz
  1  'x, y, z'
loop_
 _atom_site_type_symbol
 _atom_site_label
 _atom_site_symmetry_multiplicity
 _atom_site_fract_x
 _atom_site_fract_y
 _atom_site_fract_z
 _atom_site_occupancy
  Sr  Sr0  1  0.000000  0.000000  0.995133  1
  Ac  Ac1  1  0.000000  0.000000  0.665581  1
  Ac  Ac2  1  0.000000  0.000000  0.324667  1
  Ag  Ag3  1  0.333333  0.666667  0.828455  1
  Ag  Ag4  1  0.666667  0.333333  0.495320  1
  Ag  Ag5  1  0.333333  0.666667  0.161796  1
  Sn  Sn6  1  0.666667  0.333333  0.830227  1
  Sn  Sn7  1  0.666667  0.333333  0.160022  1
  Sn  Sn8  1  0.333333  0.666667  0.494801  1
