# generated using pymatgen
data_Tm4Ta2(IrOs)3
_symmetry_space_group_name_H-M   'P 1'
_cell_length_a   5.58503701
_cell_length_b   5.58503636
_cell_length_c   8.29897300
_cell_angle_alpha   90.00000000
_cell_angle_beta   90.00000000
_cell_angle_gamma   119.99777106
_symmetry_Int_Tables_number   1
_chemical_formula_structural   Tm4Ta2(IrOs)3
_chemical_formula_sum   'Tm4 Ta2 Ir3 Os3'
_cell_volume   224.19028920
_cell_formula_units_Z   1
loop_
 _symmetry_equiv_pos_site_id
 _symmetry_equiv_pos_as_xyz
  1  'x, y, z'
loop_
 _atom_site_type_symbol
 _atom_site_label
 _atom_site_symmetry_multiplicity
 _atom_site_fract_x
 _atom_site_fract_y
 _atom_site_fract_z
 _atom_site_occupancy
  Tm  Tm0  1  0.666665  0.333335  0.564489  1
  Tm  Tm1  1  0.333342  0.666658  0.441323  1
  Tm  Tm2  1  0.333342  0.666658  0.058677  1
  Tm  Tm3  1  0.666665  0.333335  0.935511  1
  Ta  Ta4  1  0.999992  0.000008  0.496005  1
  Ta  Ta5  1  0.999992  0.000008  0.003995  1
  Ir  Ir6  1  0.171503  0.343025  0.750000  1
  Ir  Ir7  1  0.171515  0.828485  0.750000  1
  Ir  Ir8  1  0.656975  0.828497  0.750000  1
  Os  Os9  1  0.825438  0.650854  0.250000  1
  Os  Os10  1  0.825424  0.174576  0.250000  1
  Os  Os11  1  0.349146  0.174562  0.250000  1
