# generated using pymatgen
data_Hf16NbNi4Rh3
_symmetry_space_group_name_H-M   'P 1'
_cell_length_a   8.68692339
_cell_length_b   8.62379849
_cell_length_c   8.62379900
_cell_angle_alpha   59.99999422
_cell_angle_beta   60.24008365
_cell_angle_gamma   60.24008363
_symmetry_Int_Tables_number   1
_chemical_formula_structural   Hf16NbNi4Rh3
_chemical_formula_sum   'Hf16 Nb1 Ni4 Rh3'
_cell_volume   458.47398759
_cell_formula_units_Z   1
loop_
 _symmetry_equiv_pos_site_id
 _symmetry_equiv_pos_as_xyz
  1  'x, y, z'
loop_
 _atom_site_type_symbol
 _atom_site_label
 _atom_site_symmetry_multiplicity
 _atom_site_fract_x
 _atom_site_fract_y
 _atom_site_fract_z
 _atom_site_occupancy
  Hf  Hf0  1  0.668781  0.110406  0.110406  1
  Hf  Hf1  1  0.103170  0.693815  0.101506  1
  Hf  Hf2  1  0.103170  0.101506  0.693815  1
  Hf  Hf3  1  0.103170  0.101506  0.101506  1
  Hf  Hf4  1  0.316699  0.315257  0.684022  1
  Hf  Hf5  1  0.693932  0.677886  0.314092  1
  Hf  Hf6  1  0.316699  0.684022  0.315257  1
  Hf  Hf7  1  0.693932  0.314092  0.677886  1
  Hf  Hf8  1  0.693932  0.314092  0.314092  1
  Hf  Hf9  1  0.316699  0.684022  0.684022  1
  Hf  Hf10  1  0.943664  0.948881  0.553728  1
  Hf  Hf11  1  0.551845  0.551438  0.948359  1
  Hf  Hf12  1  0.943664  0.553728  0.948881  1
  Hf  Hf13  1  0.551845  0.948359  0.551438  1
  Hf  Hf14  1  0.551845  0.948359  0.948359  1
  Hf  Hf15  1  0.943664  0.553728  0.553728  1
  Nb  Nb16  1  0.011606  0.329464  0.329464  1
  Ni  Ni17  1  0.327036  0.890988  0.890988  1
  Ni  Ni18  1  0.886336  0.319364  0.897150  1
  Ni  Ni19  1  0.886336  0.897150  0.319364  1
  Ni  Ni20  1  0.886336  0.897150  0.897150  1
  Rh  Rh21  1  0.335213  0.987654  0.338566  1
  Rh  Rh22  1  0.335213  0.338566  0.987654  1
  Rh  Rh23  1  0.335213  0.338566  0.338566  1
