# generated using pymatgen
data_Tb2ThCo4Ni7B4
_symmetry_space_group_name_H-M   'P 1'
_cell_length_a   5.01641320
_cell_length_b   5.01810745
_cell_length_c   10.01951900
_cell_angle_alpha   89.99974069
_cell_angle_beta   90.00028552
_cell_angle_gamma   120.15818134
_symmetry_Int_Tables_number   1
_chemical_formula_structural   Tb2ThCo4Ni7B4
_chemical_formula_sum   'Tb2 Th1 Co4 Ni7 B4'
_cell_volume   218.08023930
_cell_formula_units_Z   1
loop_
 _symmetry_equiv_pos_site_id
 _symmetry_equiv_pos_as_xyz
  1  'x, y, z'
loop_
 _atom_site_type_symbol
 _atom_site_label
 _atom_site_symmetry_multiplicity
 _atom_site_fract_x
 _atom_site_fract_y
 _atom_site_fract_z
 _atom_site_occupancy
  Tb  Tb0  1  0.999989  0.000003  0.346381  1
  Tb  Tb1  1  0.999994  0.000003  0.654404  1
  Th  Th2  1  0.999999  0.999998  0.997106  1
  Co  Co3  1  0.499979  0.999983  0.499368  1
  Co  Co4  1  0.499981  0.500013  0.500442  1
  Co  Co5  1  0.000009  0.500013  0.499384  1
  Co  Co6  1  0.500007  0.499990  0.791629  1
  Ni  Ni7  1  0.334833  0.665041  0.999882  1
  Ni  Ni8  1  0.665162  0.334949  0.999885  1
  Ni  Ni9  1  0.499999  0.000011  0.206512  1
  Ni  Ni10  1  0.499997  0.499989  0.205579  1
  Ni  Ni11  1  0.999983  0.499996  0.206517  1
  Ni  Ni12  1  0.500004  0.000022  0.794630  1
  Ni  Ni13  1  0.999982  0.499998  0.794597  1
  B  B14  1  0.333908  0.665972  0.352467  1
  B  B15  1  0.666077  0.334023  0.352508  1
  B  B16  1  0.664992  0.335054  0.649334  1
  B  B17  1  0.335006  0.664942  0.649379  1
