# generated using pymatgen
data_Lu4Zr2PbO12
_symmetry_space_group_name_H-M   'P 1'
_cell_length_a   6.34116856
_cell_length_b   6.37919865
_cell_length_c   6.49212915
_cell_angle_alpha   100.01594662
_cell_angle_beta   99.16877360
_cell_angle_gamma   99.68062013
_symmetry_Int_Tables_number   1
_chemical_formula_structural   Lu4Zr2PbO12
_chemical_formula_sum   'Lu4 Zr2 Pb1 O12'
_cell_volume   250.07467990
_cell_formula_units_Z   1
loop_
 _symmetry_equiv_pos_site_id
 _symmetry_equiv_pos_as_xyz
  1  'x, y, z'
loop_
 _atom_site_type_symbol
 _atom_site_label
 _atom_site_symmetry_multiplicity
 _atom_site_fract_x
 _atom_site_fract_y
 _atom_site_fract_z
 _atom_site_occupancy
  Lu  Lu0  1  0.392962  0.694856  0.862010  1
  Lu  Lu1  1  0.691765  0.863749  0.392896  1
  Lu  Lu2  1  0.607038  0.305144  0.137990  1
  Lu  Lu3  1  0.308235  0.136251  0.607104  1
  Zr  Zr4  1  0.850246  0.395672  0.676026  1
  Zr  Zr5  1  0.149754  0.604328  0.323974  1
  Pb  Pb6  1  0.000000  0.000000  0.000000  1
  O  O7  1  0.046244  0.669440  0.899624  1
  O  O8  1  0.677836  0.929317  0.064537  1
  O  O9  1  0.920298  0.082621  0.678005  1
  O  O10  1  0.953756  0.330560  0.100376  1
  O  O11  1  0.322164  0.070683  0.935463  1
  O  O12  1  0.079702  0.917379  0.321995  1
  O  O13  1  0.580732  0.183715  0.428632  1
  O  O14  1  0.176474  0.427087  0.571149  1
  O  O15  1  0.416783  0.579716  0.178195  1
  O  O16  1  0.419268  0.816285  0.571368  1
  O  O17  1  0.823526  0.572913  0.428851  1
  O  O18  1  0.583217  0.420284  0.821805  1
