# generated using pymatgen
data_Nd2Mn5P4Rh
_symmetry_space_group_name_H-M   'P 1'
_cell_length_a   3.73541900
_cell_length_b   11.11896402
_cell_length_c   12.90548211
_cell_angle_alpha   90.22927333
_cell_angle_beta   90.00000000
_cell_angle_gamma   90.00000000
_symmetry_Int_Tables_number   1
_chemical_formula_structural   Nd2Mn5P4Rh
_chemical_formula_sum   'Nd6 Mn15 P12 Rh3'
_cell_volume   536.01186628
_cell_formula_units_Z   3
loop_
 _symmetry_equiv_pos_site_id
 _symmetry_equiv_pos_as_xyz
  1  'x, y, z'
loop_
 _atom_site_type_symbol
 _atom_site_label
 _atom_site_symmetry_multiplicity
 _atom_site_fract_x
 _atom_site_fract_y
 _atom_site_fract_z
 _atom_site_occupancy
  Nd  Nd0  1  0.000000  0.496964  0.527282  1
  Nd  Nd1  1  0.500000  0.997559  0.472100  1
  Nd  Nd2  1  0.500000  0.821522  0.205547  1
  Nd  Nd3  1  0.500000  0.180888  0.206219  1
  Nd  Nd4  1  0.000000  0.680117  0.793769  1
  Nd  Nd5  1  0.000000  0.318540  0.795040  1
  Mn  Mn6  1  0.500000  0.513933  0.163082  1
  Mn  Mn7  1  0.000000  0.999499  0.833250  1
  Mn  Mn8  1  0.000000  0.501438  0.995778  1
  Mn  Mn9  1  0.500000  0.999790  0.004343  1
  Mn  Mn10  1  0.500000  0.330716  0.997573  1
  Mn  Mn11  1  0.500000  0.669311  0.999008  1
  Mn  Mn12  1  0.000000  0.165990  0.999072  1
  Mn  Mn13  1  0.000000  0.832090  0.999808  1
  Mn  Mn14  1  0.500000  0.294712  0.436672  1
  Mn  Mn15  1  0.500000  0.701946  0.432256  1
  Mn  Mn16  1  0.000000  0.197944  0.570394  1
  Mn  Mn17  1  0.000000  0.799405  0.568452  1
  Mn  Mn18  1  0.500000  0.885893  0.705159  1
  Mn  Mn19  1  0.500000  0.111510  0.704912  1
  Mn  Mn20  1  0.000000  0.620792  0.295096  1
  P  P21  1  0.500000  0.499803  0.892536  1
  P  P22  1  0.000000  0.999863  0.107751  1
  P  P23  1  0.500000  0.506500  0.352765  1
  P  P24  1  0.000000  0.998950  0.645230  1
  P  P25  1  0.500000  0.303426  0.617838  1
  P  P26  1  0.500000  0.692944  0.614827  1
  P  P27  1  0.000000  0.187425  0.389848  1
  P  P28  1  0.000000  0.808727  0.385699  1
  P  P29  1  0.500000  0.847775  0.887508  1
  P  P30  1  0.500000  0.150979  0.886811  1
  P  P31  1  0.000000  0.655551  0.111818  1
  P  P32  1  0.000000  0.346356  0.107032  1
  Rh  Rh33  1  0.500000  0.499222  0.706613  1
  Rh  Rh34  1  0.000000  0.001361  0.293037  1
  Rh  Rh35  1  0.000000  0.380561  0.295875  1
