# generated using pymatgen
data_Eu6TcSbO14
_symmetry_space_group_name_H-M   'P 1'
_cell_length_a   6.61302296
_cell_length_b   6.61302256
_cell_length_c   7.68727406
_cell_angle_alpha   90.40361233
_cell_angle_beta   89.59638573
_cell_angle_gamma   109.74895333
_symmetry_Int_Tables_number   1
_chemical_formula_structural   Eu6TcSbO14
_chemical_formula_sum   'Eu6 Tc1 Sb1 O14'
_cell_volume   316.39527606
_cell_formula_units_Z   1
loop_
 _symmetry_equiv_pos_site_id
 _symmetry_equiv_pos_as_xyz
  1  'x, y, z'
loop_
 _atom_site_type_symbol
 _atom_site_label
 _atom_site_symmetry_multiplicity
 _atom_site_fract_x
 _atom_site_fract_y
 _atom_site_fract_z
 _atom_site_occupancy
  Eu  Eu0  1  0.500000  0.500000  0.500000  1
  Eu  Eu1  1  0.500000  0.500000  0.000000  1
  Eu  Eu2  1  0.529602  0.998126  0.753007  1
  Eu  Eu3  1  0.998126  0.529602  0.246993  1
  Eu  Eu4  1  0.470398  0.001874  0.246993  1
  Eu  Eu5  1  0.001874  0.470398  0.753007  1
  Tc  Tc6  1  0.000000  0.000000  0.500000  1
  Sb  Sb7  1  0.000000  0.000000  0.000000  1
  O  O8  1  0.698846  0.938227  0.468435  1
  O  O9  1  0.938227  0.698846  0.531565  1
  O  O10  1  0.683632  0.930898  0.027467  1
  O  O11  1  0.930898  0.683632  0.972533  1
  O  O12  1  0.301154  0.061773  0.531565  1
  O  O13  1  0.061773  0.301154  0.468435  1
  O  O14  1  0.316368  0.069102  0.972533  1
  O  O15  1  0.069102  0.316368  0.027467  1
  O  O16  1  0.941395  0.058605  0.746877  1
  O  O17  1  0.058605  0.941395  0.253123  1
  O  O18  1  0.369183  0.630817  0.746777  1
  O  O19  1  0.630817  0.369183  0.253223  1
  O  O20  1  0.637375  0.362625  0.745004  1
  O  O21  1  0.362625  0.637375  0.254996  1
