# generated using pymatgen
data_HoAlCu5
_symmetry_space_group_name_H-M   'P 1'
_cell_length_a   5.15341052
_cell_length_b   5.15341012
_cell_length_c   5.15341113
_cell_angle_alpha   103.16227295
_cell_angle_beta   103.16227926
_cell_angle_gamma   122.99599109
_symmetry_Int_Tables_number   1
_chemical_formula_structural   HoAlCu5
_chemical_formula_sum   'Ho1 Al1 Cu5'
_cell_volume   100.87548473
_cell_formula_units_Z   1
loop_
 _symmetry_equiv_pos_site_id
 _symmetry_equiv_pos_as_xyz
  1  'x, y, z'
loop_
 _atom_site_type_symbol
 _atom_site_label
 _atom_site_symmetry_multiplicity
 _atom_site_fract_x
 _atom_site_fract_y
 _atom_site_fract_z
 _atom_site_occupancy
  Ho  Ho0  1  0.000000  0.000000  0.000000  1
  Al  Al1  1  0.250000  0.750000  0.500000  1
  Cu  Cu2  1  0.692039  0.307961  0.000000  1
  Cu  Cu3  1  0.307961  0.692039  0.000000  1
  Cu  Cu4  1  0.307961  0.307961  0.615923  1
  Cu  Cu5  1  0.692039  0.692039  0.384077  1
  Cu  Cu6  1  0.750000  0.250000  0.500000  1
