# generated using pymatgen
data_V6GaSi2Tc3
_symmetry_space_group_name_H-M   'P 1'
_cell_length_a   4.77611974
_cell_length_b   4.74195456
_cell_length_c   14.15287021
_cell_angle_alpha   89.97098333
_cell_angle_beta   89.92262743
_cell_angle_gamma   90.06849036
_symmetry_Int_Tables_number   1
_chemical_formula_structural   V6GaSi2Tc3
_chemical_formula_sum   'V12 Ga2 Si4 Tc6'
_cell_volume   320.53566293
_cell_formula_units_Z   2
loop_
 _symmetry_equiv_pos_site_id
 _symmetry_equiv_pos_as_xyz
  1  'x, y, z'
loop_
 _atom_site_type_symbol
 _atom_site_label
 _atom_site_symmetry_multiplicity
 _atom_site_fract_x
 _atom_site_fract_y
 _atom_site_fract_z
 _atom_site_occupancy
  V  V0  1  0.998524  0.498550  0.583950  1
  V  V1  1  0.500400  0.243958  0.999810  1
  V  V2  1  0.501149  0.246961  0.335542  1
  V  V3  1  0.999556  0.498543  0.745115  1
  V  V4  1  0.997884  0.500458  0.082637  1
  V  V5  1  0.999816  0.501387  0.420770  1
  V  V6  1  0.497843  0.749906  0.663694  1
  V  V7  1  0.500431  0.757517  0.999927  1
  V  V8  1  0.500640  0.754575  0.335377  1
  V  V9  1  0.250340  0.000074  0.832499  1
  V  V10  1  0.250074  0.999616  0.167064  1
  V  V11  1  0.250198  0.999360  0.500282  1
  Ga  Ga12  1  0.496286  0.502174  0.832360  1
  Ga  Ga13  1  0.494981  0.499990  0.165642  1
  Si  Si14  1  0.492485  0.502030  0.497999  1
  Si  Si15  1  0.002308  0.994213  0.666371  1
  Si  Si16  1  0.006147  0.000536  0.001075  1
  Si  Si17  1  0.007053  0.000675  0.335110  1
  Tc  Tc18  1  0.999738  0.501175  0.917723  1
  Tc  Tc19  1  0.999876  0.500237  0.253702  1
  Tc  Tc20  1  0.497965  0.248578  0.663979  1
  Tc  Tc21  1  0.751839  0.999927  0.832714  1
  Tc  Tc22  1  0.751962  0.000284  0.167179  1
  Tc  Tc23  1  0.752505  0.999278  0.499479  1
