# generated using pymatgen
data_YbTi2(SnPd2)3
_symmetry_space_group_name_H-M   'P 1'
_cell_length_a   4.55232917
_cell_length_b   6.72062200
_cell_length_c   13.88779151
_cell_angle_alpha   90.00000000
_cell_angle_beta   90.03135858
_cell_angle_gamma   90.00000000
_symmetry_Int_Tables_number   1
_chemical_formula_structural   YbTi2(SnPd2)3
_chemical_formula_sum   'Yb2 Ti4 Sn6 Pd12'
_cell_volume   424.88974591
_cell_formula_units_Z   2
loop_
 _symmetry_equiv_pos_site_id
 _symmetry_equiv_pos_as_xyz
  1  'x, y, z'
loop_
 _atom_site_type_symbol
 _atom_site_label
 _atom_site_symmetry_multiplicity
 _atom_site_fract_x
 _atom_site_fract_y
 _atom_site_fract_z
 _atom_site_occupancy
  Yb  Yb0  1  0.999913  0.000000  0.997049  1
  Yb  Yb1  1  0.500392  0.499999  0.169644  1
  Ti  Ti2  1  0.000323  0.000000  0.338800  1
  Ti  Ti3  1  0.500034  0.499999  0.498762  1
  Ti  Ti4  1  0.999612  0.000000  0.667876  1
  Ti  Ti5  1  0.499766  0.499999  0.827838  1
  Sn  Sn6  1  0.999894  0.499999  0.001104  1
  Sn  Sn7  1  0.500545  0.000000  0.165373  1
  Sn  Sn8  1  0.000338  0.499999  0.341273  1
  Sn  Sn9  1  0.499948  0.000000  0.511093  1
  Sn  Sn10  1  0.999694  0.499999  0.655617  1
  Sn  Sn11  1  0.499567  0.000000  0.825469  1
  Pd  Pd12  1  0.499885  0.270554  0.983723  1
  Pd  Pd13  1  0.499885  0.729445  0.983723  1
  Pd  Pd14  1  0.000484  0.229567  0.182937  1
  Pd  Pd15  1  0.000484  0.770433  0.182937  1
  Pd  Pd16  1  0.500455  0.230362  0.344635  1
  Pd  Pd17  1  0.500455  0.769639  0.344635  1
  Pd  Pd18  1  0.999960  0.240387  0.499007  1
  Pd  Pd19  1  0.999960  0.759613  0.499007  1
  Pd  Pd20  1  0.499568  0.259566  0.667754  1
  Pd  Pd21  1  0.499568  0.740435  0.667754  1
  Pd  Pd22  1  0.999634  0.269677  0.821996  1
  Pd  Pd23  1  0.999634  0.730323  0.821996  1
