# generated using pymatgen
data_K(GdB8)3
_symmetry_space_group_name_H-M   'P 1'
_cell_length_a   7.13647671
_cell_length_b   7.13647602
_cell_length_c   5.85113800
_cell_angle_alpha   90.00000000
_cell_angle_beta   90.00000000
_cell_angle_gamma   109.26218913
_symmetry_Int_Tables_number   1
_chemical_formula_structural   K(GdB8)3
_chemical_formula_sum   'K1 Gd3 B24'
_cell_volume   281.31227040
_cell_formula_units_Z   1
loop_
 _symmetry_equiv_pos_site_id
 _symmetry_equiv_pos_as_xyz
  1  'x, y, z'
loop_
 _atom_site_type_symbol
 _atom_site_label
 _atom_site_symmetry_multiplicity
 _atom_site_fract_x
 _atom_site_fract_y
 _atom_site_fract_z
 _atom_site_occupancy
  K  K0  1  0.000000  0.000000  0.000000  1
  Gd  Gd1  1  0.752997  0.247003  0.500000  1
  Gd  Gd2  1  0.500000  0.500000  0.000000  1
  Gd  Gd3  1  0.247003  0.752997  0.500000  1
  B  B4  1  0.176499  0.326449  0.649765  1
  B  B5  1  0.923725  0.574129  0.149116  1
  B  B6  1  0.673551  0.823501  0.649765  1
  B  B7  1  0.425871  0.076275  0.149116  1
  B  B8  1  0.176499  0.326449  0.350235  1
  B  B9  1  0.923725  0.574129  0.850884  1
  B  B10  1  0.673551  0.823501  0.350235  1
  B  B11  1  0.425871  0.076275  0.850884  1
  B  B12  1  0.400770  0.400770  0.500000  1
  B  B13  1  0.148549  0.651095  0.000000  1
  B  B14  1  0.898965  0.898965  0.500000  1
  B  B15  1  0.651095  0.148549  0.000000  1
  B  B16  1  0.326449  0.176499  0.649765  1
  B  B17  1  0.076275  0.425871  0.149116  1
  B  B18  1  0.823501  0.673551  0.649765  1
  B  B19  1  0.574129  0.923725  0.149116  1
  B  B20  1  0.101035  0.101035  0.500000  1
  B  B21  1  0.851451  0.348905  0.000000  1
  B  B22  1  0.599230  0.599230  0.500000  1
  B  B23  1  0.348905  0.851451  0.000000  1
  B  B24  1  0.326449  0.176499  0.350235  1
  B  B25  1  0.076275  0.425871  0.850884  1
  B  B26  1  0.823501  0.673551  0.350235  1
  B  B27  1  0.574129  0.923725  0.850884  1
