# generated using pymatgen
data_Ti12Mn5Ir6Os
_symmetry_space_group_name_H-M   'P 1'
_cell_length_a   4.30415400
_cell_length_b   6.11976800
_cell_length_c   13.00451800
_cell_angle_alpha   89.99999559
_cell_angle_beta   90.00002643
_cell_angle_gamma   89.99718459
_symmetry_Int_Tables_number   1
_chemical_formula_structural   Ti12Mn5Ir6Os
_chemical_formula_sum   'Ti12 Mn5 Ir6 Os1'
_cell_volume   342.54451674
_cell_formula_units_Z   1
loop_
 _symmetry_equiv_pos_site_id
 _symmetry_equiv_pos_as_xyz
  1  'x, y, z'
loop_
 _atom_site_type_symbol
 _atom_site_label
 _atom_site_symmetry_multiplicity
 _atom_site_fract_x
 _atom_site_fract_y
 _atom_site_fract_z
 _atom_site_occupancy
  Ti  Ti0  1  0.500000  0.255639  0.000025  1
  Ti  Ti1  1  0.500000  0.744361  0.000025  1
  Ti  Ti2  1  0.000005  0.252787  0.169872  1
  Ti  Ti3  1  0.000003  0.747213  0.169872  1
  Ti  Ti4  1  0.500009  0.249498  0.334131  1
  Ti  Ti5  1  0.500007  0.750502  0.334131  1
  Ti  Ti6  1  0.000001  0.250008  0.500017  1
  Ti  Ti7  1  0.999999  0.749991  0.500017  1
  Ti  Ti8  1  0.499993  0.249425  0.665850  1
  Ti  Ti9  1  0.499992  0.750574  0.665851  1
  Ti  Ti10  1  0.999997  0.252689  0.830113  1
  Ti  Ti11  1  0.999995  0.747311  0.830113  1
  Mn  Mn12  1  0.500005  0.499997  0.166543  1
  Mn  Mn13  1  0.000007  0.000004  0.333125  1
  Mn  Mn14  1  0.500000  0.500006  0.499999  1
  Mn  Mn15  1  0.999994  0.000002  0.666871  1
  Mn  Mn16  1  0.499994  0.499996  0.833451  1
  Ir  Ir17  1  0.000000  0.500000  0.000007  1
  Ir  Ir18  1  0.500003  0.999999  0.167351  1
  Ir  Ir19  1  0.000008  0.500001  0.334166  1
  Ir  Ir20  1  0.500000  0.999998  0.500002  1
  Ir  Ir21  1  0.999992  0.500000  0.665828  1
  Ir  Ir22  1  0.499997  0.999999  0.832644  1
  Os  Os23  1  0.000000  0.000000  0.999996  1
