# generated using pymatgen
data_Eu4Al18(IrPd)3
_symmetry_space_group_name_H-M   'P 1'
_cell_length_a   7.64790216
_cell_length_b   7.64821488
_cell_length_c   9.66560600
_cell_angle_alpha   90.00612395
_cell_angle_beta   90.00884965
_cell_angle_gamma   119.44566571
_symmetry_Int_Tables_number   1
_chemical_formula_structural   Eu4Al18(IrPd)3
_chemical_formula_sum   'Eu4 Al18 Ir3 Pd3'
_cell_volume   492.33533613
_cell_formula_units_Z   1
loop_
 _symmetry_equiv_pos_site_id
 _symmetry_equiv_pos_as_xyz
  1  'x, y, z'
loop_
 _atom_site_type_symbol
 _atom_site_label
 _atom_site_symmetry_multiplicity
 _atom_site_fract_x
 _atom_site_fract_y
 _atom_site_fract_z
 _atom_site_occupancy
  Eu  Eu0  1  0.002927  0.328097  0.750110  1
  Eu  Eu1  1  0.995653  0.670699  0.249605  1
  Eu  Eu2  1  0.329312  0.004382  0.750406  1
  Eu  Eu3  1  0.671912  0.997074  0.249879  1
  Al  Al4  1  0.661691  0.664634  0.446325  1
  Al  Al5  1  0.337103  0.337383  0.950806  1
  Al  Al6  1  0.662580  0.662854  0.049271  1
  Al  Al7  1  0.335361  0.338290  0.553613  1
  Al  Al8  1  0.006946  0.338942  0.425936  1
  Al  Al9  1  0.998774  0.661012  0.928093  1
  Al  Al10  1  0.339005  0.001213  0.071983  1
  Al  Al11  1  0.661071  0.993065  0.574005  1
  Al  Al12  1  0.000931  0.665181  0.573858  1
  Al  Al13  1  0.001673  0.338965  0.072532  1
  Al  Al14  1  0.661047  0.998317  0.927519  1
  Al  Al15  1  0.334843  0.999066  0.426092  1
  Al  Al16  1  0.133852  0.132794  0.249543  1
  Al  Al17  1  0.867218  0.866171  0.750479  1
  Al  Al18  1  0.662226  0.455339  0.753009  1
  Al  Al19  1  0.338634  0.547762  0.249445  1
  Al  Al20  1  0.452292  0.661396  0.750561  1
  Al  Al21  1  0.544732  0.337821  0.246960  1
  Ir  Ir22  1  0.329427  0.670585  0.000008  1
  Ir  Ir23  1  0.329409  0.670617  0.500000  1
  Ir  Ir24  1  0.670539  0.329484  0.999996  1
  Pd  Pd25  1  0.999776  0.000061  0.499911  1
  Pd  Pd26  1  0.999914  0.999898  0.000122  1
  Pd  Pd27  1  0.671153  0.328900  0.499935  1
