# generated using pymatgen
data_HoCo2(Sn3Ru)2
_symmetry_space_group_name_H-M   'P 1'
_cell_length_a   6.88220503
_cell_length_b   6.88220507
_cell_length_c   6.74666621
_cell_angle_alpha   119.90178950
_cell_angle_beta   119.90179932
_cell_angle_gamma   91.29533418
_symmetry_Int_Tables_number   1
_chemical_formula_structural   HoCo2(Sn3Ru)2
_chemical_formula_sum   'Ho1 Co2 Sn6 Ru2'
_cell_volume   223.96593080
_cell_formula_units_Z   1
loop_
 _symmetry_equiv_pos_site_id
 _symmetry_equiv_pos_as_xyz
  1  'x, y, z'
loop_
 _atom_site_type_symbol
 _atom_site_label
 _atom_site_symmetry_multiplicity
 _atom_site_fract_x
 _atom_site_fract_y
 _atom_site_fract_z
 _atom_site_occupancy
  Ho  Ho0  1  0.008123  0.008123  0.000000  1
  Co  Co1  1  0.391319  0.755039  0.000000  1
  Co  Co2  1  0.755039  0.391319  0.000000  1
  Sn  Sn3  1  0.473331  0.108569  0.000000  1
  Sn  Sn4  1  0.108569  0.473331  0.000000  1
  Sn  Sn5  1  0.872386  0.872386  0.332658  1
  Sn  Sn6  1  0.539729  0.539729  0.667342  1
  Sn  Sn7  1  0.001363  0.501363  0.500000  1
  Sn  Sn8  1  0.501363  0.001363  0.500000  1
  Ru  Ru9  1  0.258365  0.258365  0.667952  1
  Ru  Ru10  1  0.590413  0.590413  0.332048  1
