# generated using pymatgen
data_SmDyY2(B4W)4
_symmetry_space_group_name_H-M   'P 1'
_cell_length_a   6.06120502
_cell_length_b   11.71279228
_cell_length_c   3.64010300
_cell_angle_alpha   90.00000000
_cell_angle_beta   90.00000000
_cell_angle_gamma   89.93178039
_symmetry_Int_Tables_number   1
_chemical_formula_structural   SmDyY2(B4W)4
_chemical_formula_sum   'Sm1 Dy1 Y2 B16 W4'
_cell_volume   258.42396174
_cell_formula_units_Z   1
loop_
 _symmetry_equiv_pos_site_id
 _symmetry_equiv_pos_as_xyz
  1  'x, y, z'
loop_
 _atom_site_type_symbol
 _atom_site_label
 _atom_site_symmetry_multiplicity
 _atom_site_fract_x
 _atom_site_fract_y
 _atom_site_fract_z
 _atom_site_occupancy
  Sm  Sm0  1  0.626610  0.349927  0.000000  1
  Dy  Dy1  1  0.373290  0.649890  0.000000  1
  Y  Y2  1  0.126703  0.149276  0.000000  1
  Y  Y3  1  0.873360  0.850374  0.000000  1
  B  B4  1  0.786921  0.185226  0.500000  1
  B  B5  1  0.213466  0.813665  0.500000  1
  B  B6  1  0.284748  0.313427  0.500000  1
  B  B7  1  0.713319  0.686758  0.500000  1
  B  B8  1  0.866321  0.031525  0.500000  1
  B  B9  1  0.133865  0.967692  0.500000  1
  B  B10  1  0.365404  0.468879  0.500000  1
  B  B11  1  0.634230  0.533194  0.500000  1
  B  B12  1  0.887827  0.453810  0.500000  1
  B  B13  1  0.114297  0.548022  0.500000  1
  B  B14  1  0.385928  0.046697  0.500000  1
  B  B15  1  0.613613  0.952390  0.500000  1
  B  B16  1  0.977061  0.306979  0.500000  1
  B  B17  1  0.024051  0.693569  0.500000  1
  B  B18  1  0.474976  0.191825  0.500000  1
  B  B19  1  0.523690  0.806751  0.500000  1
  W  W20  1  0.630412  0.083514  0.000000  1
  W  W21  1  0.369336  0.915280  0.000000  1
  W  W22  1  0.130687  0.416181  0.000000  1
  W  W23  1  0.869883  0.585149  0.000000  1
