# generated using pymatgen
data_CeMg3(B6Ru)2
_symmetry_space_group_name_H-M   'P 1'
_cell_length_a   3.55042300
_cell_length_b   8.90600175
_cell_length_c   11.20176585
_cell_angle_alpha   89.84424189
_cell_angle_beta   90.00000000
_cell_angle_gamma   90.00000000
_symmetry_Int_Tables_number   1
_chemical_formula_structural   CeMg3(B6Ru)2
_chemical_formula_sum   'Ce2 Mg6 B24 Ru4'
_cell_volume   354.19935014
_cell_formula_units_Z   2
loop_
 _symmetry_equiv_pos_site_id
 _symmetry_equiv_pos_as_xyz
  1  'x, y, z'
loop_
 _atom_site_type_symbol
 _atom_site_label
 _atom_site_symmetry_multiplicity
 _atom_site_fract_x
 _atom_site_fract_y
 _atom_site_fract_z
 _atom_site_occupancy
  Ce  Ce0  1  0.000000  0.320173  0.411366  1
  Ce  Ce1  1  0.000000  0.679827  0.588634  1
  Mg  Mg2  1  0.000000  0.829093  0.084290  1
  Mg  Mg3  1  0.000000  0.170907  0.915710  1
  Mg  Mg4  1  0.000000  0.944420  0.366890  1
  Mg  Mg5  1  0.000000  0.055580  0.633110  1
  Mg  Mg6  1  0.000000  0.443186  0.124497  1
  Mg  Mg7  1  0.000000  0.556814  0.875503  1
  B  B8  1  0.500000  0.556523  0.430137  1
  B  B9  1  0.500000  0.443477  0.569863  1
  B  B10  1  0.500000  0.055010  0.063956  1
  B  B11  1  0.500000  0.944990  0.936044  1
  B  B12  1  0.500000  0.756031  0.414611  1
  B  B13  1  0.500000  0.243969  0.585389  1
  B  B14  1  0.500000  0.254256  0.076690  1
  B  B15  1  0.500000  0.745744  0.923310  1
  B  B16  1  0.500000  0.795860  0.258387  1
  B  B17  1  0.500000  0.204140  0.741613  1
  B  B18  1  0.500000  0.292823  0.233150  1
  B  B19  1  0.500000  0.707177  0.766850  1
  B  B20  1  0.500000  0.630335  0.178177  1
  B  B21  1  0.500000  0.369665  0.821823  1
  B  B22  1  0.500000  0.127386  0.314791  1
  B  B23  1  0.500000  0.872614  0.685209  1
  B  B24  1  0.500000  0.980037  0.208331  1
  B  B25  1  0.500000  0.019963  0.791669  1
  B  B26  1  0.500000  0.482862  0.283908  1
  B  B27  1  0.500000  0.517138  0.716092  1
  B  B28  1  0.500000  0.592800  0.025032  1
  B  B29  1  0.500000  0.407200  0.974968  1
  B  B30  1  0.500000  0.091461  0.474629  1
  B  B31  1  0.500000  0.908539  0.525371  1
  Ru  Ru32  1  0.000000  0.641861  0.315477  1
  Ru  Ru33  1  0.000000  0.358139  0.684523  1
  Ru  Ru34  1  0.000000  0.142002  0.178733  1
  Ru  Ru35  1  0.000000  0.857998  0.821267  1
