# generated using pymatgen
data_Er4ReTc2Os5
_symmetry_space_group_name_H-M   'P 1'
_cell_length_a   5.28667199
_cell_length_b   5.22189304
_cell_length_c   8.89949600
_cell_angle_alpha   90.00000000
_cell_angle_beta   90.00000000
_cell_angle_gamma   117.90804602
_symmetry_Int_Tables_number   1
_chemical_formula_structural   Er4ReTc2Os5
_chemical_formula_sum   'Er4 Re1 Tc2 Os5'
_cell_volume   217.11036650
_cell_formula_units_Z   1
loop_
 _symmetry_equiv_pos_site_id
 _symmetry_equiv_pos_as_xyz
  1  'x, y, z'
loop_
 _atom_site_type_symbol
 _atom_site_label
 _atom_site_symmetry_multiplicity
 _atom_site_fract_x
 _atom_site_fract_y
 _atom_site_fract_z
 _atom_site_occupancy
  Er  Er0  1  0.330001  0.669347  0.435024  1
  Er  Er1  1  0.667699  0.334062  0.563229  1
  Er  Er2  1  0.667699  0.334062  0.936771  1
  Er  Er3  1  0.330001  0.669347  0.064976  1
  Re  Re4  1  0.833246  0.166220  0.250000  1
  Tc  Tc5  1  0.174880  0.823284  0.750000  1
  Tc  Tc6  1  0.171920  0.339967  0.750000  1
  Os  Os7  1  0.994533  0.007750  0.499714  1
  Os  Os8  1  0.994533  0.007750  0.000286  1
  Os  Os9  1  0.827694  0.649200  0.250000  1
  Os  Os10  1  0.347590  0.171017  0.250000  1
  Os  Os11  1  0.660204  0.827994  0.750000  1
