# generated using pymatgen
data_TiBe3CoPt
_symmetry_space_group_name_H-M   'P 1'
_cell_length_a   4.53388097
_cell_length_b   4.53387983
_cell_length_c   4.40431800
_cell_angle_alpha   59.02203447
_cell_angle_beta   59.02202834
_cell_angle_gamma   60.00000096
_symmetry_Int_Tables_number   1
_chemical_formula_structural   TiBe3CoPt
_chemical_formula_sum   'Ti1 Be3 Co1 Pt1'
_cell_volume   63.05555267
_cell_formula_units_Z   1
loop_
 _symmetry_equiv_pos_site_id
 _symmetry_equiv_pos_as_xyz
  1  'x, y, z'
loop_
 _atom_site_type_symbol
 _atom_site_label
 _atom_site_symmetry_multiplicity
 _atom_site_fract_x
 _atom_site_fract_y
 _atom_site_fract_z
 _atom_site_occupancy
  Ti  Ti0  1  0.001191  0.001191  0.996426  1
  Be  Be1  1  0.623994  0.127954  0.624057  1
  Be  Be2  1  0.127954  0.623994  0.624057  1
  Be  Be3  1  0.623994  0.623994  0.624057  1
  Co  Co4  1  0.628367  0.628367  0.114899  1
  Pt  Pt5  1  0.244499  0.244499  0.266503  1
