# generated using pymatgen
data_Th4Sb4As3Se
_symmetry_space_group_name_H-M   'P 1'
_cell_length_a   4.26138609
_cell_length_b   4.26315406
_cell_length_c   17.72630143
_cell_angle_alpha   89.99011095
_cell_angle_beta   89.99805523
_cell_angle_gamma   89.97983579
_symmetry_Int_Tables_number   1
_chemical_formula_structural   Th4Sb4As3Se
_chemical_formula_sum   'Th4 Sb4 As3 Se1'
_cell_volume   322.03272550
_cell_formula_units_Z   1
loop_
 _symmetry_equiv_pos_site_id
 _symmetry_equiv_pos_as_xyz
  1  'x, y, z'
loop_
 _atom_site_type_symbol
 _atom_site_label
 _atom_site_symmetry_multiplicity
 _atom_site_fract_x
 _atom_site_fract_y
 _atom_site_fract_z
 _atom_site_occupancy
  Th  Th0  1  0.749954  0.244261  0.851965  1
  Th  Th1  1  0.749983  0.255658  0.349870  1
  Th  Th2  1  0.249901  0.756131  0.151226  1
  Th  Th3  1  0.250141  0.744663  0.646749  1
  Sb  Sb4  1  0.249936  0.248771  0.499487  1
  Sb  Sb5  1  0.249972  0.250460  0.999658  1
  Sb  Sb6  1  0.750245  0.750876  0.499551  1
  Sb  Sb7  1  0.749895  0.748724  0.999595  1
  As  As8  1  0.750020  0.243991  0.683420  1
  As  As9  1  0.749917  0.256671  0.179847  1
  As  As10  1  0.250081  0.756178  0.320388  1
  Se  Se11  1  0.249956  0.743615  0.818246  1
