# generated using pymatgen
data_Y9Ho7Cd4OsPt3
_symmetry_space_group_name_H-M   'P 1'
_cell_length_a   9.69704539
_cell_length_b   9.69451369
_cell_length_c   9.70882996
_cell_angle_alpha   59.48749951
_cell_angle_beta   59.61475776
_cell_angle_gamma   59.66591743
_symmetry_Int_Tables_number   1
_chemical_formula_structural   Y9Ho7Cd4OsPt3
_chemical_formula_sum   'Y9 Ho7 Cd4 Os1 Pt3'
_cell_volume   639.35590120
_cell_formula_units_Z   1
loop_
 _symmetry_equiv_pos_site_id
 _symmetry_equiv_pos_as_xyz
  1  'x, y, z'
loop_
 _atom_site_type_symbol
 _atom_site_label
 _atom_site_symmetry_multiplicity
 _atom_site_fract_x
 _atom_site_fract_y
 _atom_site_fract_z
 _atom_site_occupancy
  Y  Y0  1  0.809525  0.188815  0.809284  1
  Y  Y1  1  0.189209  0.188813  0.814170  1
  Y  Y2  1  0.809634  0.809587  0.188792  1
  Y  Y3  1  0.936162  0.565170  0.564454  1
  Y  Y4  1  0.557798  0.937809  0.938259  1
  Y  Y5  1  0.564252  0.936531  0.564570  1
  Y  Y6  1  0.938010  0.558296  0.938041  1
  Y  Y7  1  0.563888  0.564935  0.936722  1
  Y  Y8  1  0.938604  0.938182  0.557249  1
  Ho  Ho9  1  0.351268  0.352038  0.351529  1
  Ho  Ho10  1  0.349172  0.349372  0.949873  1
  Ho  Ho11  1  0.349715  0.948824  0.349398  1
  Ho  Ho12  1  0.949349  0.349678  0.349186  1
  Ho  Ho13  1  0.814179  0.188984  0.189464  1
  Ho  Ho14  1  0.189113  0.809634  0.809482  1
  Ho  Ho15  1  0.188947  0.814425  0.189096  1
  Cd  Cd16  1  0.580230  0.579770  0.579889  1
  Cd  Cd17  1  0.581215  0.581000  0.254869  1
  Cd  Cd18  1  0.580955  0.254893  0.581123  1
  Cd  Cd19  1  0.254856  0.580771  0.581139  1
  Os  Os20  1  0.142322  0.142578  0.145337  1
  Pt  Pt21  1  0.144908  0.142378  0.570599  1
  Pt  Pt22  1  0.145640  0.572117  0.142606  1
  Pt  Pt23  1  0.571054  0.145406  0.144875  1
