# generated using pymatgen
data_Tm8Lu8AlCd3Pt4
_symmetry_space_group_name_H-M   'P 1'
_cell_length_a   9.47882742
_cell_length_b   9.47882706
_cell_length_c   9.48286841
_cell_angle_alpha   60.17612521
_cell_angle_beta   60.17613088
_cell_angle_gamma   60.26310799
_symmetry_Int_Tables_number   1
_chemical_formula_structural   Tm8Lu8AlCd3Pt4
_chemical_formula_sum   'Tm8 Lu8 Al1 Cd3 Pt4'
_cell_volume   605.26521700
_cell_formula_units_Z   1
loop_
 _symmetry_equiv_pos_site_id
 _symmetry_equiv_pos_as_xyz
  1  'x, y, z'
loop_
 _atom_site_type_symbol
 _atom_site_label
 _atom_site_symmetry_multiplicity
 _atom_site_fract_x
 _atom_site_fract_y
 _atom_site_fract_z
 _atom_site_occupancy
  Tm  Tm0  1  0.189695  0.189695  0.810602  1
  Tm  Tm1  1  0.808617  0.808617  0.193891  1
  Tm  Tm2  1  0.931800  0.566632  0.566740  1
  Tm  Tm3  1  0.562964  0.937546  0.937489  1
  Tm  Tm4  1  0.566632  0.931800  0.566740  1
  Tm  Tm5  1  0.937546  0.562964  0.937489  1
  Tm  Tm6  1  0.566631  0.566631  0.931835  1
  Tm  Tm7  1  0.937668  0.937668  0.562768  1
  Lu  Lu8  1  0.349346  0.349346  0.349009  1
  Lu  Lu9  1  0.357288  0.357288  0.936037  1
  Lu  Lu10  1  0.357105  0.936045  0.357216  1
  Lu  Lu11  1  0.936045  0.357105  0.357216  1
  Lu  Lu12  1  0.810242  0.189811  0.189994  1
  Lu  Lu13  1  0.194381  0.808319  0.808338  1
  Lu  Lu14  1  0.189811  0.810242  0.189994  1
  Lu  Lu15  1  0.808319  0.194381  0.808338  1
  Al  Al16  1  0.581830  0.581830  0.582017  1
  Cd  Cd17  1  0.580817  0.580817  0.255172  1
  Cd  Cd18  1  0.580927  0.255280  0.580907  1
  Cd  Cd19  1  0.255280  0.580927  0.580907  1
  Pt  Pt20  1  0.144493  0.144493  0.145967  1
  Pt  Pt21  1  0.140159  0.140159  0.570837  1
  Pt  Pt22  1  0.141553  0.570854  0.140251  1
  Pt  Pt23  1  0.570854  0.141553  0.140251  1
