# generated using pymatgen
data_Tb2Ga6CoNiAu2
_symmetry_space_group_name_H-M   'P 1'
_cell_length_a   4.03886525
_cell_length_b   6.61681400
_cell_length_c   8.04319573
_cell_angle_alpha   90.00000000
_cell_angle_beta   104.54104766
_cell_angle_gamma   90.00000000
_symmetry_Int_Tables_number   1
_chemical_formula_structural   Tb2Ga6CoNiAu2
_chemical_formula_sum   'Tb2 Ga6 Co1 Ni1 Au2'
_cell_volume   208.06447522
_cell_formula_units_Z   1
loop_
 _symmetry_equiv_pos_site_id
 _symmetry_equiv_pos_as_xyz
  1  'x, y, z'
loop_
 _atom_site_type_symbol
 _atom_site_label
 _atom_site_symmetry_multiplicity
 _atom_site_fract_x
 _atom_site_fract_y
 _atom_site_fract_z
 _atom_site_occupancy
  Tb  Tb0  1  0.876082  0.750000  0.752166  1
  Tb  Tb1  1  0.123873  0.250000  0.247746  1
  Ga  Ga2  1  0.072490  0.750000  0.144980  1
  Ga  Ga3  1  0.928395  0.250000  0.856791  1
  Ga  Ga4  1  0.686313  0.551950  0.372625  1
  Ga  Ga5  1  0.313111  0.449756  0.626221  1
  Ga  Ga6  1  0.686313  0.948050  0.372625  1
  Ga  Ga7  1  0.313111  0.050244  0.626221  1
  Co  Co8  1  0.225664  0.750000  0.451330  1
  Ni  Ni9  1  0.774682  0.250000  0.549362  1
  Au  Au10  1  0.499983  0.499741  0.999966  1
  Au  Au11  1  0.499983  0.000259  0.999966  1
