# generated using pymatgen
data_YHo2Er5(CdPt)2
_symmetry_space_group_name_H-M   'P 1'
_cell_length_a   9.62799641
_cell_length_b   9.62799555
_cell_length_c   9.62810100
_cell_angle_alpha   59.99963427
_cell_angle_beta   59.99963722
_cell_angle_gamma   60.00071973
_symmetry_Int_Tables_number   1
_chemical_formula_structural   YHo2Er5(CdPt)2
_chemical_formula_sum   'Y2 Ho4 Er10 Cd4 Pt4'
_cell_volume   631.09888306
_cell_formula_units_Z   2
loop_
 _symmetry_equiv_pos_site_id
 _symmetry_equiv_pos_as_xyz
  1  'x, y, z'
loop_
 _atom_site_type_symbol
 _atom_site_label
 _atom_site_symmetry_multiplicity
 _atom_site_fract_x
 _atom_site_fract_y
 _atom_site_fract_z
 _atom_site_occupancy
  Y  Y0  1  0.563998  0.563998  0.936002  1
  Y  Y1  1  0.936002  0.936002  0.563998  1
  Ho  Ho2  1  0.936053  0.563947  0.563947  1
  Ho  Ho3  1  0.563947  0.936053  0.936053  1
  Ho  Ho4  1  0.563947  0.936053  0.563947  1
  Ho  Ho5  1  0.936053  0.563947  0.936053  1
  Er  Er6  1  0.352304  0.352304  0.352367  1
  Er  Er7  1  0.352304  0.352304  0.943025  1
  Er  Er8  1  0.352367  0.943025  0.352304  1
  Er  Er9  1  0.943025  0.352367  0.352304  1
  Er  Er10  1  0.810847  0.189153  0.189153  1
  Er  Er11  1  0.189153  0.810847  0.810847  1
  Er  Er12  1  0.189153  0.810847  0.189153  1
  Er  Er13  1  0.810847  0.189153  0.810847  1
  Er  Er14  1  0.189155  0.189155  0.810845  1
  Er  Er15  1  0.810845  0.810845  0.189155  1
  Cd  Cd16  1  0.581718  0.581718  0.581770  1
  Cd  Cd17  1  0.581718  0.581718  0.254794  1
  Cd  Cd18  1  0.581770  0.254794  0.581718  1
  Cd  Cd19  1  0.254794  0.581770  0.581718  1
  Pt  Pt20  1  0.143372  0.143372  0.143326  1
  Pt  Pt21  1  0.143372  0.143372  0.569930  1
  Pt  Pt22  1  0.143326  0.569930  0.143372  1
  Pt  Pt23  1  0.569930  0.143326  0.143372  1
