# generated using pymatgen
data_Tb2Nd2Ga4Ni3Ru
_symmetry_space_group_name_H-M   'P 1'
_cell_length_a   4.33553200
_cell_length_b   6.94373621
_cell_length_c   7.57703898
_cell_angle_alpha   90.87014543
_cell_angle_beta   90.00000000
_cell_angle_gamma   90.00000000
_symmetry_Int_Tables_number   1
_chemical_formula_structural   Tb2Nd2Ga4Ni3Ru
_chemical_formula_sum   'Tb2 Nd2 Ga4 Ni3 Ru1'
_cell_volume   228.07886639
_cell_formula_units_Z   1
loop_
 _symmetry_equiv_pos_site_id
 _symmetry_equiv_pos_as_xyz
  1  'x, y, z'
loop_
 _atom_site_type_symbol
 _atom_site_label
 _atom_site_symmetry_multiplicity
 _atom_site_fract_x
 _atom_site_fract_y
 _atom_site_fract_z
 _atom_site_occupancy
  Tb  Tb0  1  0.250000  0.524608  0.688466  1
  Tb  Tb1  1  0.750000  0.477746  0.307700  1
  Nd  Nd2  1  0.250000  0.029662  0.811494  1
  Nd  Nd3  1  0.750000  0.976754  0.194778  1
  Ga  Ga4  1  0.250000  0.173120  0.427918  1
  Ga  Ga5  1  0.250000  0.657688  0.066658  1
  Ga  Ga6  1  0.750000  0.828018  0.581066  1
  Ga  Ga7  1  0.750000  0.341179  0.926959  1
  Ni  Ni8  1  0.250000  0.293570  0.103789  1
  Ni  Ni9  1  0.750000  0.217543  0.601031  1
  Ni  Ni10  1  0.750000  0.706318  0.893206  1
  Ru  Ru11  1  0.250000  0.773794  0.396932  1
