# generated using pymatgen
data_Li6Sm3Y3(WO6)4
_symmetry_space_group_name_H-M   'P 1'
_cell_length_a   10.76486211
_cell_length_b   10.76486162
_cell_length_c   10.76536500
_cell_angle_alpha   109.47219990
_cell_angle_beta   109.47219986
_cell_angle_gamma   109.46737051
_symmetry_Int_Tables_number   1
_chemical_formula_structural   Li6Sm3Y3(WO6)4
_chemical_formula_sum   'Li12 Sm6 Y6 W8 O48'
_cell_volume   960.35970292
_cell_formula_units_Z   2
loop_
 _symmetry_equiv_pos_site_id
 _symmetry_equiv_pos_as_xyz
  1  'x, y, z'
loop_
 _atom_site_type_symbol
 _atom_site_label
 _atom_site_symmetry_multiplicity
 _atom_site_fract_x
 _atom_site_fract_y
 _atom_site_fract_z
 _atom_site_occupancy
  Li  Li0  1  0.750069  0.375677  0.126124  1
  Li  Li1  1  0.876055  0.750446  0.126124  1
  Li  Li2  1  0.125370  0.375370  0.250000  1
  Li  Li3  1  0.624630  0.874630  0.250000  1
  Li  Li4  1  0.249554  0.123945  0.373876  1
  Li  Li5  1  0.624323  0.249931  0.373876  1
  Li  Li6  1  0.374331  0.749935  0.623882  1
  Li  Li7  1  0.749551  0.873947  0.623883  1
  Li  Li8  1  0.374631  0.124632  0.750000  1
  Li  Li9  1  0.875368  0.625369  0.750000  1
  Li  Li10  1  0.126053  0.250448  0.876118  1
  Li  Li11  1  0.250065  0.625669  0.876118  1
  Sm  Sm12  1  0.874858  0.249589  0.624100  1
  Sm  Sm13  1  0.249243  0.374512  0.624101  1
  Sm  Sm14  1  0.625000  0.375000  0.750000  1
  Sm  Sm15  1  0.125000  0.875000  0.750000  1
  Sm  Sm16  1  0.750411  0.125142  0.875900  1
  Sm  Sm17  1  0.625489  0.750757  0.875900  1
  Y  Y18  1  0.375531  0.250849  0.125958  1
  Y  Y19  1  0.250427  0.875110  0.125958  1
  Y  Y20  1  0.875000  0.125000  0.249999  1
  Y  Y21  1  0.375000  0.625001  0.250000  1
  Y  Y22  1  0.124890  0.749572  0.374041  1
  Y  Y23  1  0.749151  0.624469  0.374042  1
  W  W24  1  0.001794  0.000779  0.002211  1
  W  W25  1  0.001793  0.501688  0.001766  1
  W  W26  1  0.499973  0.500078  0.001766  1
  W  W27  1  0.500416  0.001431  0.002211  1
  W  W28  1  0.498312  0.998207  0.498234  1
  W  W29  1  0.998569  0.499584  0.497789  1
  W  W30  1  0.999221  0.998206  0.497789  1
  W  W31  1  0.499922  0.500027  0.498234  1
  O  O32  1  0.327089  0.408253  0.028194  1
  O  O33  1  0.201104  0.619941  0.028194  1
  O  O34  1  0.700219  0.173965  0.084072  1
  O  O35  1  0.883854  0.910108  0.084073  1
  O  O36  1  0.619838  0.921150  0.094022  1
  O  O37  1  0.974185  0.172872  0.094022  1
  O  O38  1  0.591998  0.419046  0.120143  1
  O  O39  1  0.028146  0.701098  0.120143  1
  O  O40  1  0.201747  0.081450  0.173519  1
  O  O41  1  0.471773  0.092070  0.173520  1
  O  O42  1  0.120049  0.528117  0.201184  1
  O  O43  1  0.581136  0.673067  0.201184  1
  O  O44  1  0.326933  0.418865  0.298816  1
  O  O45  1  0.471883  0.879952  0.298816  1
  O  O46  1  0.907930  0.528227  0.326480  1
  O  O47  1  0.918551  0.798253  0.326480  1
  O  O48  1  0.580954  0.408001  0.379856  1
  O  O49  1  0.298902  0.971854  0.379857  1
  O  O50  1  0.827129  0.025816  0.405978  1
  O  O51  1  0.078850  0.380162  0.405978  1
  O  O52  1  0.826034  0.299781  0.415927  1
  O  O53  1  0.089893  0.116147  0.415928  1
  O  O54  1  0.591747  0.672911  0.471807  1
  O  O55  1  0.380059  0.798896  0.471807  1
  O  O56  1  0.615678  0.197382  0.523902  1
  O  O57  1  0.408224  0.326520  0.523902  1
  O  O58  1  0.172418  0.698310  0.578741  1
  O  O59  1  0.906323  0.880432  0.578741  1
  O  O60  1  0.915960  0.615828  0.589483  1
  O  O61  1  0.173523  0.973655  0.589484  1
  O  O62  1  0.697401  0.023956  0.615520  1
  O  O63  1  0.418119  0.591564  0.615520  1
  O  O64  1  0.081390  0.196697  0.672865  1
  O  O65  1  0.091473  0.476167  0.672865  1
  O  O66  1  0.523999  0.115596  0.697334  1
  O  O67  1  0.673335  0.581736  0.697334  1
  O  O68  1  0.418264  0.326665  0.802666  1
  O  O69  1  0.884404  0.476001  0.802666  1
  O  O70  1  0.803303  0.918610  0.827135  1
  O  O71  1  0.523833  0.908526  0.827136  1
  O  O72  1  0.976044  0.302599  0.884480  1
  O  O73  1  0.408436  0.581882  0.884481  1
  O  O74  1  0.384171  0.084039  0.910517  1
  O  O75  1  0.026346  0.826478  0.910518  1
  O  O76  1  0.119568  0.093677  0.921258  1
  O  O77  1  0.301690  0.827581  0.921258  1
  O  O78  1  0.802618  0.384321  0.976098  1
  O  O79  1  0.673480  0.591775  0.976098  1
