# generated using pymatgen
data_Zr6Ti7Ga9Rh7
_symmetry_space_group_name_H-M   'P 1'
_cell_length_a   8.87320171
_cell_length_b   8.87320233
_cell_length_c   8.87320280
_cell_angle_alpha   59.46696562
_cell_angle_beta   59.46696309
_cell_angle_gamma   59.46696368
_symmetry_Int_Tables_number   1
_chemical_formula_structural   Zr6Ti7Ga9Rh7
_chemical_formula_sum   'Zr6 Ti7 Ga9 Rh7'
_cell_volume   488.00930512
_cell_formula_units_Z   1
loop_
 _symmetry_equiv_pos_site_id
 _symmetry_equiv_pos_as_xyz
  1  'x, y, z'
loop_
 _atom_site_type_symbol
 _atom_site_label
 _atom_site_symmetry_multiplicity
 _atom_site_fract_x
 _atom_site_fract_y
 _atom_site_fract_z
 _atom_site_occupancy
  Zr  Zr0  1  0.692361  0.692361  0.308922  1
  Zr  Zr1  1  0.306059  0.697551  0.306059  1
  Zr  Zr2  1  0.697551  0.306059  0.306059  1
  Zr  Zr3  1  0.306059  0.306059  0.697551  1
  Zr  Zr4  1  0.692361  0.308922  0.692361  1
  Zr  Zr5  1  0.308922  0.692361  0.692361  1
  Ti  Ti6  1  0.880664  0.880664  0.363816  1
  Ti  Ti7  1  0.880664  0.363816  0.880664  1
  Ti  Ti8  1  0.363816  0.880664  0.880664  1
  Ti  Ti9  1  0.875718  0.875718  0.875718  1
  Ti  Ti10  1  0.123841  0.123841  0.630491  1
  Ti  Ti11  1  0.123841  0.630491  0.123841  1
  Ti  Ti12  1  0.630491  0.123841  0.123841  1
  Ga  Ga13  1  0.116563  0.116563  0.116563  1
  Ga  Ga14  1  0.658328  0.658328  0.021978  1
  Ga  Ga15  1  0.658328  0.021978  0.658328  1
  Ga  Ga16  1  0.021978  0.658328  0.658328  1
  Ga  Ga17  1  0.660426  0.660426  0.660426  1
  Ga  Ga18  1  0.339513  0.339513  0.981428  1
  Ga  Ga19  1  0.339513  0.981428  0.339513  1
  Ga  Ga20  1  0.981428  0.339513  0.339513  1
  Ga  Ga21  1  0.343804  0.343804  0.343804  1
  Rh  Rh22  1  0.993420  0.993420  0.993420  1
  Rh  Rh23  1  0.999645  0.999645  0.504527  1
  Rh  Rh24  1  0.500378  0.999777  0.500378  1
  Rh  Rh25  1  0.999777  0.500378  0.500378  1
  Rh  Rh26  1  0.500378  0.500378  0.999777  1
  Rh  Rh27  1  0.999645  0.504527  0.999645  1
  Rh  Rh28  1  0.504527  0.999645  0.999645  1
