# generated using pymatgen
data_SmTm6Th3Sn8
_symmetry_space_group_name_H-M   'P 1'
_cell_length_a   8.09110600
_cell_length_b   8.17111093
_cell_length_c   15.43908753
_cell_angle_alpha   90.09703432
_cell_angle_beta   90.00000000
_cell_angle_gamma   90.00000000
_symmetry_Int_Tables_number   1
_chemical_formula_structural   SmTm6Th3Sn8
_chemical_formula_sum   'Sm2 Tm12 Th6 Sn16'
_cell_volume   1020.72794299
_cell_formula_units_Z   2
loop_
 _symmetry_equiv_pos_site_id
 _symmetry_equiv_pos_as_xyz
  1  'x, y, z'
loop_
 _atom_site_type_symbol
 _atom_site_label
 _atom_site_symmetry_multiplicity
 _atom_site_fract_x
 _atom_site_fract_y
 _atom_site_fract_z
 _atom_site_occupancy
  Sm  Sm0  1  0.520726  0.322114  0.902180  1
  Sm  Sm1  1  0.020726  0.177886  0.597820  1
  Tm  Tm2  1  0.360289  0.837303  0.875541  1
  Tm  Tm3  1  0.860289  0.662697  0.624459  1
  Tm  Tm4  1  0.638266  0.163180  0.376231  1
  Tm  Tm5  1  0.138266  0.336820  0.123769  1
  Tm  Tm6  1  0.639831  0.163068  0.123918  1
  Tm  Tm7  1  0.139831  0.336932  0.376082  1
  Tm  Tm8  1  0.361301  0.837891  0.624516  1
  Tm  Tm9  1  0.861301  0.662109  0.875484  1
  Tm  Tm10  1  0.191360  0.500718  0.750133  1
  Tm  Tm11  1  0.691360  0.999282  0.749867  1
  Tm  Tm12  1  0.809343  0.500282  0.250000  1
  Tm  Tm13  1  0.309343  0.999718  0.250000  1
  Th  Th14  1  0.480558  0.678648  0.403851  1
  Th  Th15  1  0.980558  0.821352  0.096149  1
  Th  Th16  1  0.481155  0.678832  0.096371  1
  Th  Th17  1  0.981155  0.821168  0.403629  1
  Th  Th18  1  0.518079  0.321789  0.595844  1
  Th  Th19  1  0.018079  0.178211  0.904156  1
  Sn  Sn20  1  0.299786  0.038916  0.042724  1
  Sn  Sn21  1  0.799786  0.461084  0.457276  1
  Sn  Sn22  1  0.701312  0.960840  0.542282  1
  Sn  Sn23  1  0.201312  0.539160  0.957718  1
  Sn  Sn24  1  0.698713  0.959013  0.957925  1
  Sn  Sn25  1  0.198713  0.540987  0.542075  1
  Sn  Sn26  1  0.299078  0.040233  0.457880  1
  Sn  Sn27  1  0.799078  0.459767  0.042120  1
  Sn  Sn28  1  0.556940  0.623542  0.749466  1
  Sn  Sn29  1  0.056940  0.876458  0.750534  1
  Sn  Sn30  1  0.442735  0.375930  0.249889  1
  Sn  Sn31  1  0.942735  0.124070  0.250111  1
  Sn  Sn32  1  0.326473  0.144873  0.750883  1
  Sn  Sn33  1  0.826473  0.355127  0.749117  1
  Sn  Sn34  1  0.674055  0.857188  0.250080  1
  Sn  Sn35  1  0.174055  0.642812  0.249920  1
