# generated using pymatgen
data_Ce4Hg2Pd3Ru
_symmetry_space_group_name_H-M   'P 1'
_cell_length_a   7.78098138
_cell_length_b   7.78098138
_cell_length_c   3.76286700
_cell_angle_alpha   90.00000000
_cell_angle_beta   90.00000000
_cell_angle_gamma   90.83864416
_symmetry_Int_Tables_number   1
_chemical_formula_structural   Ce4Hg2Pd3Ru
_chemical_formula_sum   'Ce4 Hg2 Pd3 Ru1'
_cell_volume   227.79337851
_cell_formula_units_Z   1
loop_
 _symmetry_equiv_pos_site_id
 _symmetry_equiv_pos_as_xyz
  1  'x, y, z'
loop_
 _atom_site_type_symbol
 _atom_site_label
 _atom_site_symmetry_multiplicity
 _atom_site_fract_x
 _atom_site_fract_y
 _atom_site_fract_z
 _atom_site_occupancy
  Ce  Ce0  1  0.336816  0.175125  0.500001  1
  Ce  Ce1  1  0.809693  0.309693  0.500001  1
  Ce  Ce2  1  0.168836  0.668836  0.500001  1
  Ce  Ce3  1  0.675125  0.836816  0.500001  1
  Hg  Hg4  1  0.003870  0.995791  0.000000  1
  Hg  Hg5  1  0.495791  0.503870  0.000000  1
  Pd  Pd6  1  0.124847  0.367592  0.000000  1
  Pd  Pd7  1  0.867592  0.624847  0.000000  1
  Pd  Pd8  1  0.373849  0.873849  0.000000  1
  Ru  Ru9  1  0.643583  0.143583  0.000000  1
