# generated using pymatgen
data_PaMo3F20
_symmetry_space_group_name_H-M   'P 1'
_cell_length_a   9.06736685
_cell_length_b   9.06736779
_cell_length_c   5.52253666
_cell_angle_alpha   88.50033110
_cell_angle_beta   88.50033397
_cell_angle_gamma   111.91640323
_symmetry_Int_Tables_number   1
_chemical_formula_structural   PaMo3F20
_chemical_formula_sum   'Pa1 Mo3 F20'
_cell_volume   420.77238615
_cell_formula_units_Z   1
loop_
 _symmetry_equiv_pos_site_id
 _symmetry_equiv_pos_as_xyz
  1  'x, y, z'
loop_
 _atom_site_type_symbol
 _atom_site_label
 _atom_site_symmetry_multiplicity
 _atom_site_fract_x
 _atom_site_fract_y
 _atom_site_fract_z
 _atom_site_occupancy
  Pa  Pa0  1  0.793841  0.206159  0.000000  1
  Mo  Mo1  1  0.198739  0.801261  0.000000  1
  Mo  Mo2  1  0.748802  0.739152  0.740216  1
  Mo  Mo3  1  0.260848  0.251198  0.259784  1
  F  F4  1  0.863662  0.855887  0.469247  1
  F  F5  1  0.144113  0.136338  0.530753  1
  F  F6  1  0.673912  0.668132  0.054863  1
  F  F7  1  0.331868  0.326088  0.945137  1
  F  F8  1  0.549680  0.719292  0.624926  1
  F  F9  1  0.280708  0.450320  0.375074  1
  F  F10  1  0.461182  0.269598  0.368976  1
  F  F11  1  0.730402  0.538818  0.631024  1
  F  F12  1  0.776882  0.962818  0.868328  1
  F  F13  1  0.037182  0.223118  0.131672  1
  F  F14  1  0.225742  0.026043  0.126545  1
  F  F15  1  0.973957  0.774258  0.873455  1
  F  F16  1  0.910451  0.299130  0.675307  1
  F  F17  1  0.700870  0.089549  0.324693  1
  F  F18  1  0.090182  0.726865  0.294966  1
  F  F19  1  0.273135  0.909818  0.705034  1
  F  F20  1  0.572373  0.169924  0.873397  1
  F  F21  1  0.830076  0.427627  0.126603  1
  F  F22  1  0.401123  0.829729  0.112480  1
  F  F23  1  0.170271  0.598877  0.887520  1
