# generated using pymatgen
data_LiZr6Zn22P
_symmetry_space_group_name_H-M   'P 1'
_cell_length_a   8.74377538
_cell_length_b   8.74377460
_cell_length_c   8.74377600
_cell_angle_alpha   60.00000225
_cell_angle_beta   60.00000521
_cell_angle_gamma   59.99999833
_symmetry_Int_Tables_number   1
_chemical_formula_structural   LiZr6Zn22P
_chemical_formula_sum   'Li1 Zr6 Zn22 P1'
_cell_volume   472.69606856
_cell_formula_units_Z   1
loop_
 _symmetry_equiv_pos_site_id
 _symmetry_equiv_pos_as_xyz
  1  'x, y, z'
loop_
 _atom_site_type_symbol
 _atom_site_label
 _atom_site_symmetry_multiplicity
 _atom_site_fract_x
 _atom_site_fract_y
 _atom_site_fract_z
 _atom_site_occupancy
  Li  Li0  1  0.000000  0.000000  0.000000  1
  Zr  Zr1  1  0.707005  0.292995  0.292995  1
  Zr  Zr2  1  0.292995  0.707005  0.707005  1
  Zr  Zr3  1  0.292995  0.707005  0.292995  1
  Zr  Zr4  1  0.707005  0.292995  0.707005  1
  Zr  Zr5  1  0.292995  0.292995  0.707005  1
  Zr  Zr6  1  0.707005  0.707005  0.292995  1
  Zn  Zn7  1  0.120329  0.120329  0.120329  1
  Zn  Zn8  1  0.879671  0.879671  0.879671  1
  Zn  Zn9  1  0.120329  0.120329  0.639014  1
  Zn  Zn10  1  0.120329  0.639014  0.120329  1
  Zn  Zn11  1  0.879671  0.879671  0.360986  1
  Zn  Zn12  1  0.879671  0.360986  0.879671  1
  Zn  Zn13  1  0.639014  0.120329  0.120329  1
  Zn  Zn14  1  0.360986  0.879671  0.879671  1
  Zn  Zn15  1  0.500000  0.000000  0.000000  1
  Zn  Zn16  1  0.000000  0.500000  0.500000  1
  Zn  Zn17  1  0.000000  0.500000  0.000000  1
  Zn  Zn18  1  0.500000  0.000000  0.500000  1
  Zn  Zn19  1  0.000000  0.000000  0.500000  1
  Zn  Zn20  1  0.500000  0.500000  0.000000  1
  Zn  Zn21  1  0.332812  0.332812  0.332812  1
  Zn  Zn22  1  0.667188  0.667188  0.667188  1
  Zn  Zn23  1  0.332812  0.332812  0.001566  1
  Zn  Zn24  1  0.332812  0.001566  0.332812  1
  Zn  Zn25  1  0.667188  0.667188  0.998434  1
  Zn  Zn26  1  0.667188  0.998434  0.667188  1
  Zn  Zn27  1  0.001566  0.332812  0.332812  1
  Zn  Zn28  1  0.998434  0.667188  0.667188  1
  P  P29  1  0.500000  0.500000  0.500000  1
