# generated using pymatgen
data_Th2Fe4Co8P7
_symmetry_space_group_name_H-M   'P 1'
_cell_length_a   9.08652803
_cell_length_b   9.07972757
_cell_length_c   3.70105400
_cell_angle_alpha   90.00000000
_cell_angle_beta   90.00000000
_cell_angle_gamma   120.03548049
_symmetry_Int_Tables_number   1
_chemical_formula_structural   Th2Fe4Co8P7
_chemical_formula_sum   'Th2 Fe4 Co8 P7'
_cell_volume   264.34521881
_cell_formula_units_Z   1
loop_
 _symmetry_equiv_pos_site_id
 _symmetry_equiv_pos_as_xyz
  1  'x, y, z'
loop_
 _atom_site_type_symbol
 _atom_site_label
 _atom_site_symmetry_multiplicity
 _atom_site_fract_x
 _atom_site_fract_y
 _atom_site_fract_z
 _atom_site_occupancy
  Th  Th0  1  0.000650  0.000157  0.000000  1
  Th  Th1  1  0.333568  0.666811  0.500000  1
  Fe  Fe2  1  0.394332  0.213058  0.000000  1
  Fe  Fe3  1  0.882048  0.429419  0.500000  1
  Fe  Fe4  1  0.548197  0.117230  0.500000  1
  Fe  Fe5  1  0.569530  0.452714  0.500000  1
  Co  Co6  1  0.098921  0.395088  0.000000  1
  Co  Co7  1  0.295970  0.899545  0.000000  1
  Co  Co8  1  0.605383  0.704656  0.000000  1
  Co  Co9  1  0.818484  0.604808  0.000000  1
  Co  Co10  1  0.787318  0.181600  0.000000  1
  Co  Co11  1  0.047055  0.765857  0.500000  1
  Co  Co12  1  0.718612  0.952528  0.500000  1
  Co  Co13  1  0.233292  0.281926  0.500000  1
  P  P14  1  0.068728  0.630798  0.000000  1
  P  P15  1  0.561938  0.932185  0.000000  1
  P  P16  1  0.369425  0.437503  0.000000  1
  P  P17  1  0.769649  0.727692  0.500000  1
  P  P18  1  0.958124  0.230287  0.500000  1
  P  P19  1  0.274063  0.044360  0.500000  1
  P  P20  1  0.664716  0.331782  0.000000  1
