# generated using pymatgen
data_Tb12Os2PdRh
_symmetry_space_group_name_H-M   'P 1'
_cell_length_a   6.35720622
_cell_length_b   7.33792403
_cell_length_c   9.38873500
_cell_angle_alpha   90.00000000
_cell_angle_beta   90.00000000
_cell_angle_gamma   90.00989001
_symmetry_Int_Tables_number   1
_chemical_formula_structural   Tb12Os2PdRh
_chemical_formula_sum   'Tb12 Os2 Pd1 Rh1'
_cell_volume   437.97224062
_cell_formula_units_Z   1
loop_
 _symmetry_equiv_pos_site_id
 _symmetry_equiv_pos_as_xyz
  1  'x, y, z'
loop_
 _atom_site_type_symbol
 _atom_site_label
 _atom_site_symmetry_multiplicity
 _atom_site_fract_x
 _atom_site_fract_y
 _atom_site_fract_z
 _atom_site_occupancy
  Tb  Tb0  1  0.336291  0.671788  0.062474  1
  Tb  Tb1  1  0.170065  0.182927  0.441630  1
  Tb  Tb2  1  0.670196  0.320847  0.562250  1
  Tb  Tb3  1  0.829076  0.825268  0.933390  1
  Tb  Tb4  1  0.670196  0.320847  0.937750  1
  Tb  Tb5  1  0.829076  0.825268  0.566610  1
  Tb  Tb6  1  0.336291  0.671788  0.437526  1
  Tb  Tb7  1  0.170065  0.182927  0.058370  1
  Tb  Tb8  1  0.861740  0.528006  0.250000  1
  Tb  Tb9  1  0.625500  0.039539  0.250000  1
  Tb  Tb10  1  0.131940  0.462033  0.750000  1
  Tb  Tb11  1  0.362607  0.965712  0.750000  1
  Os  Os12  1  0.446555  0.381751  0.250000  1
  Os  Os13  1  0.951057  0.118015  0.750000  1
  Pd  Pd14  1  0.058656  0.884404  0.250000  1
  Rh  Rh15  1  0.550691  0.618879  0.750000  1
