# generated using pymatgen
data_PrNd4GaBi3
_symmetry_space_group_name_H-M   'P 1'
_cell_length_a   9.72089500
_cell_length_b   9.72089560
_cell_length_c   6.64048700
_cell_angle_alpha   90.00000000
_cell_angle_beta   90.00000000
_cell_angle_gamma   119.99999455
_symmetry_Int_Tables_number   1
_chemical_formula_structural   PrNd4GaBi3
_chemical_formula_sum   'Pr2 Nd8 Ga2 Bi6'
_cell_volume   543.42938379
_cell_formula_units_Z   2
loop_
 _symmetry_equiv_pos_site_id
 _symmetry_equiv_pos_as_xyz
  1  'x, y, z'
loop_
 _atom_site_type_symbol
 _atom_site_label
 _atom_site_symmetry_multiplicity
 _atom_site_fract_x
 _atom_site_fract_y
 _atom_site_fract_z
 _atom_site_occupancy
  Pr  Pr0  1  0.666667  0.333333  0.000000  1
  Pr  Pr1  1  0.333333  0.666667  0.000000  1
  Nd  Nd2  1  0.333333  0.666667  0.500000  1
  Nd  Nd3  1  0.666667  0.333333  0.500000  1
  Nd  Nd4  1  0.742756  0.742756  0.749933  1
  Nd  Nd5  1  0.257244  0.000000  0.749933  1
  Nd  Nd6  1  0.000000  0.257244  0.749933  1
  Nd  Nd7  1  0.257244  0.257244  0.250067  1
  Nd  Nd8  1  0.742756  0.000000  0.250067  1
  Nd  Nd9  1  0.000000  0.742756  0.250067  1
  Ga  Ga10  1  0.000000  0.000000  0.000000  1
  Ga  Ga11  1  0.000000  0.000000  0.500000  1
  Bi  Bi12  1  0.385323  0.385323  0.749373  1
  Bi  Bi13  1  0.614677  0.000000  0.749373  1
  Bi  Bi14  1  0.000000  0.614677  0.749373  1
  Bi  Bi15  1  0.614677  0.614677  0.250627  1
  Bi  Bi16  1  0.385323  0.000000  0.250627  1
  Bi  Bi17  1  0.000000  0.385323  0.250627  1
