# generated using pymatgen
data_DyScBeB3Ru5
_symmetry_space_group_name_H-M   'P 1'
_cell_length_a   3.06777700
_cell_length_b   8.66083569
_cell_length_c   10.24501369
_cell_angle_alpha   90.64630302
_cell_angle_beta   90.00000000
_cell_angle_gamma   90.00000000
_symmetry_Int_Tables_number   1
_chemical_formula_structural   DyScBeB3Ru5
_chemical_formula_sum   'Dy2 Sc2 Be2 B6 Ru10'
_cell_volume   272.18770192
_cell_formula_units_Z   2
loop_
 _symmetry_equiv_pos_site_id
 _symmetry_equiv_pos_as_xyz
  1  'x, y, z'
loop_
 _atom_site_type_symbol
 _atom_site_label
 _atom_site_symmetry_multiplicity
 _atom_site_fract_x
 _atom_site_fract_y
 _atom_site_fract_z
 _atom_site_occupancy
  Dy  Dy0  1  0.500000  0.840603  0.184107  1
  Dy  Dy1  1  0.500000  0.159397  0.815893  1
  Sc  Sc2  1  0.500000  0.655815  0.678419  1
  Sc  Sc3  1  0.500000  0.344185  0.321581  1
  Be  Be4  1  0.500000  0.960596  0.592893  1
  Be  Be5  1  0.500000  0.039404  0.407107  1
  B  B6  1  0.500000  0.849723  0.897297  1
  B  B7  1  0.500000  0.150277  0.102703  1
  B  B8  1  0.500000  0.651058  0.404815  1
  B  B9  1  0.500000  0.348942  0.595185  1
  B  B10  1  0.500000  0.467393  0.910085  1
  B  B11  1  0.500000  0.532607  0.089915  1
  Ru  Ru12  1  0.000000  0.656171  0.956892  1
  Ru  Ru13  1  0.000000  0.343829  0.043108  1
  Ru  Ru14  1  0.000000  0.830780  0.450768  1
  Ru  Ru15  1  0.000000  0.169220  0.549232  1
  Ru  Ru16  1  0.000000  0.000000  0.000000  1
  Ru  Ru17  1  0.000000  0.414427  0.759511  1
  Ru  Ru18  1  0.000000  0.585573  0.240489  1
  Ru  Ru19  1  0.000000  0.500000  0.500000  1
  Ru  Ru20  1  0.000000  0.889690  0.747150  1
  Ru  Ru21  1  0.000000  0.110310  0.252850  1
