# generated using pymatgen
data_Tb2YbAg3SnGe2
_symmetry_space_group_name_H-M   'P 1'
_cell_length_a   7.40167300
_cell_length_b   7.39324113
_cell_length_c   4.23237900
_cell_angle_alpha   90.00000000
_cell_angle_beta   90.00000000
_cell_angle_gamma   120.03772960
_symmetry_Int_Tables_number   1
_chemical_formula_structural   Tb2YbAg3SnGe2
_chemical_formula_sum   'Tb2 Yb1 Ag3 Sn1 Ge2'
_cell_volume   200.50015305
_cell_formula_units_Z   1
loop_
 _symmetry_equiv_pos_site_id
 _symmetry_equiv_pos_as_xyz
  1  'x, y, z'
loop_
 _atom_site_type_symbol
 _atom_site_label
 _atom_site_symmetry_multiplicity
 _atom_site_fract_x
 _atom_site_fract_y
 _atom_site_fract_z
 _atom_site_occupancy
  Tb  Tb0  1  0.000827  0.570356  0.000000  1
  Tb  Tb1  1  0.430470  0.429644  0.000000  1
  Yb  Yb2  1  0.569413  0.000000  0.000000  1
  Ag  Ag3  1  0.268869  0.000000  0.500000  1
  Ag  Ag4  1  0.738567  0.745621  0.500000  1
  Ag  Ag5  1  0.992946  0.254379  0.500000  1
  Sn  Sn6  1  0.001378  0.000000  0.000000  1
  Ge  Ge7  1  0.669769  0.342007  0.500000  1
  Ge  Ge8  1  0.327761  0.657993  0.500000  1
