# generated using pymatgen
data_Er5Lu7In2Fe2Tc
_symmetry_space_group_name_H-M   'P 1'
_cell_length_a   8.25361672
_cell_length_b   8.24922224
_cell_length_c   8.25361685
_cell_angle_alpha   108.89517368
_cell_angle_beta   108.78159467
_cell_angle_gamma   110.76659037
_symmetry_Int_Tables_number   1
_chemical_formula_structural   Er5Lu7In2Fe2Tc
_chemical_formula_sum   'Er5 Lu7 In2 Fe2 Tc1'
_cell_volume   432.31122118
_cell_formula_units_Z   1
loop_
 _symmetry_equiv_pos_site_id
 _symmetry_equiv_pos_as_xyz
  1  'x, y, z'
loop_
 _atom_site_type_symbol
 _atom_site_label
 _atom_site_symmetry_multiplicity
 _atom_site_fract_x
 _atom_site_fract_y
 _atom_site_fract_z
 _atom_site_occupancy
  Er  Er0  1  0.306947  0.306220  0.613454  1
  Er  Er1  1  0.694733  0.693523  0.387183  1
  Er  Er2  1  0.692766  0.306220  0.999273  1
  Er  Er3  1  0.306339  0.693523  0.998790  1
  Er  Er4  1  0.193190  0.432370  0.239180  1
  Lu  Lu5  1  0.807345  0.570057  0.762711  1
  Lu  Lu6  1  0.192447  0.954456  0.762010  1
  Lu  Lu7  1  0.954053  0.191762  0.761052  1
  Lu  Lu8  1  0.806888  0.044849  0.237959  1
  Lu  Lu9  1  0.045231  0.808477  0.237432  1
  Lu  Lu10  1  0.430710  0.191762  0.237708  1
  Lu  Lu11  1  0.571045  0.808477  0.763247  1
  In  In12  1  0.998378  0.499302  0.500924  1
  In  In13  1  0.499531  0.999194  0.499663  1
  Fe  Fe14  1  0.384173  0.383817  0.999645  1
  Fe  Fe15  1  0.616301  0.616367  0.000065  1
  Tc  Tc16  1  0.999922  0.999624  0.999703  1
