# generated using pymatgen
data_DyThCBr
_symmetry_space_group_name_H-M   'P 1'
_cell_length_a   3.66774500
_cell_length_b   3.66774445
_cell_length_c   15.02947400
_cell_angle_alpha   90.00000000
_cell_angle_beta   90.00000000
_cell_angle_gamma   119.99999593
_symmetry_Int_Tables_number   1
_chemical_formula_structural   DyThCBr
_chemical_formula_sum   'Dy2 Th2 C2 Br2'
_cell_volume   175.09455204
_cell_formula_units_Z   2
loop_
 _symmetry_equiv_pos_site_id
 _symmetry_equiv_pos_as_xyz
  1  'x, y, z'
loop_
 _atom_site_type_symbol
 _atom_site_label
 _atom_site_symmetry_multiplicity
 _atom_site_fract_x
 _atom_site_fract_y
 _atom_site_fract_z
 _atom_site_occupancy
  Dy  Dy0  1  0.666667  0.333333  0.908055  1
  Dy  Dy1  1  0.333333  0.666667  0.408055  1
  Th  Th2  1  0.333333  0.666667  0.090230  1
  Th  Th3  1  0.666667  0.333333  0.590230  1
  C  C4  1  0.000000  0.000000  0.991517  1
  C  C5  1  0.000000  0.000000  0.491517  1
  Br  Br6  1  0.666667  0.333333  0.260197  1
  Br  Br7  1  0.333333  0.666667  0.760197  1
