# generated using pymatgen
data_Li3Yb8Si12Ag
_symmetry_space_group_name_H-M   'P 1'
_cell_length_a   4.34161600
_cell_length_b   10.49797028
_cell_length_c   11.14850903
_cell_angle_alpha   89.98246837
_cell_angle_beta   90.00000000
_cell_angle_gamma   90.00000000
_symmetry_Int_Tables_number   1
_chemical_formula_structural   Li3Yb8Si12Ag
_chemical_formula_sum   'Li3 Yb8 Si12 Ag1'
_cell_volume   508.12845706
_cell_formula_units_Z   1
loop_
 _symmetry_equiv_pos_site_id
 _symmetry_equiv_pos_as_xyz
  1  'x, y, z'
loop_
 _atom_site_type_symbol
 _atom_site_label
 _atom_site_symmetry_multiplicity
 _atom_site_fract_x
 _atom_site_fract_y
 _atom_site_fract_z
 _atom_site_occupancy
  Li  Li0  1  0.500000  0.138573  0.717821  1
  Li  Li1  1  0.000000  0.361719  0.218003  1
  Li  Li2  1  0.000000  0.638616  0.782855  1
  Yb  Yb3  1  0.500000  0.550140  0.348529  1
  Yb  Yb4  1  0.500000  0.450102  0.648623  1
  Yb  Yb5  1  0.000000  0.050710  0.152419  1
  Yb  Yb6  1  0.000000  0.949108  0.850539  1
  Yb  Yb7  1  0.500000  0.822516  0.573589  1
  Yb  Yb8  1  0.500000  0.178118  0.424985  1
  Yb  Yb9  1  0.000000  0.321893  0.925941  1
  Yb  Yb10  1  0.000000  0.678979  0.077824  1
  Si  Si11  1  0.500000  0.892655  0.042574  1
  Si  Si12  1  0.500000  0.108381  0.960750  1
  Si  Si13  1  0.000000  0.391388  0.459451  1
  Si  Si14  1  0.000000  0.610087  0.539408  1
  Si  Si15  1  0.000000  0.967877  0.400035  1
  Si  Si16  1  0.000000  0.033350  0.599539  1
  Si  Si17  1  0.500000  0.465431  0.098625  1
  Si  Si18  1  0.500000  0.534134  0.900287  1
  Si  Si19  1  0.000000  0.255271  0.633763  1
  Si  Si20  1  0.000000  0.744101  0.364205  1
  Si  Si21  1  0.500000  0.755139  0.870056  1
  Si  Si22  1  0.500000  0.245068  0.133249  1
  Ag  Ag23  1  0.500000  0.856640  0.276930  1
