# generated using pymatgen
data_Tb(CuO2)2
_symmetry_space_group_name_H-M   'P 1'
_cell_length_a   6.29213713
_cell_length_b   6.29213661
_cell_length_c   6.29213638
_cell_angle_alpha   126.01116109
_cell_angle_beta   126.01116210
_cell_angle_gamma   79.86979608
_symmetry_Int_Tables_number   1
_chemical_formula_structural   Tb(CuO2)2
_chemical_formula_sum   'Tb2 Cu4 O8'
_cell_volume   157.41621361
_cell_formula_units_Z   2
loop_
 _symmetry_equiv_pos_site_id
 _symmetry_equiv_pos_as_xyz
  1  'x, y, z'
loop_
 _atom_site_type_symbol
 _atom_site_label
 _atom_site_symmetry_multiplicity
 _atom_site_fract_x
 _atom_site_fract_y
 _atom_site_fract_z
 _atom_site_occupancy
  Tb  Tb0  1  0.000000  0.000000  0.000000  1
  Tb  Tb1  1  0.750000  0.250000  0.500000  1
  Cu  Cu2  1  0.875000  0.625000  0.250000  1
  Cu  Cu3  1  0.375000  0.625000  0.750000  1
  Cu  Cu4  1  0.375000  0.125000  0.750000  1
  Cu  Cu5  1  0.375000  0.625000  0.250000  1
  O  O6  1  0.345179  0.989397  0.938304  1
  O  O7  1  0.051093  0.406875  0.061696  1
  O  O8  1  0.698907  0.843125  0.438304  1
  O  O9  1  0.404821  0.260603  0.561696  1
  O  O10  1  0.156875  0.595179  0.855782  1
  O  O11  1  0.739397  0.301093  0.144218  1
  O  O12  1  0.593125  0.654821  0.644218  1
  O  O13  1  0.010603  0.948907  0.355782  1
