# generated using pymatgen
data_Hf6V4Si6N
_symmetry_space_group_name_H-M   'P 1'
_cell_length_a   7.62344000
_cell_length_b   7.62344039
_cell_length_c   5.13232000
_cell_angle_alpha   90.00000000
_cell_angle_beta   90.00000000
_cell_angle_gamma   120.00001566
_symmetry_Int_Tables_number   1
_chemical_formula_structural   Hf6V4Si6N
_chemical_formula_sum   'Hf6 V4 Si6 N1'
_cell_volume   258.31301309
_cell_formula_units_Z   1
loop_
 _symmetry_equiv_pos_site_id
 _symmetry_equiv_pos_as_xyz
  1  'x, y, z'
loop_
 _atom_site_type_symbol
 _atom_site_label
 _atom_site_symmetry_multiplicity
 _atom_site_fract_x
 _atom_site_fract_y
 _atom_site_fract_z
 _atom_site_occupancy
  Hf  Hf0  1  0.000000  0.756501  0.253112  1
  Hf  Hf1  1  0.243499  0.243499  0.253112  1
  Hf  Hf2  1  0.756501  0.000000  0.253112  1
  Hf  Hf3  1  0.000000  0.243499  0.746888  1
  Hf  Hf4  1  0.756501  0.756501  0.746888  1
  Hf  Hf5  1  0.243499  0.000000  0.746888  1
  V  V6  1  0.333333  0.666667  0.500000  1
  V  V7  1  0.666667  0.333333  0.500000  1
  V  V8  1  0.666667  0.333333  0.000000  1
  V  V9  1  0.333333  0.666667  0.000000  1
  Si  Si10  1  0.000000  0.406066  0.242155  1
  Si  Si11  1  0.593934  0.593934  0.242155  1
  Si  Si12  1  0.406066  0.000000  0.242155  1
  Si  Si13  1  0.000000  0.593934  0.757845  1
  Si  Si14  1  0.406066  0.406066  0.757845  1
  Si  Si15  1  0.593934  0.000000  0.757845  1
  N  N16  1  0.000000  0.000000  0.500000  1
