# generated using pymatgen
data_Sr3NdOs6O19
_symmetry_space_group_name_H-M   'P 1'
_cell_length_a   8.02889051
_cell_length_b   7.99104959
_cell_length_c   7.99094117
_cell_angle_alpha   109.37503371
_cell_angle_beta   109.58762225
_cell_angle_gamma   109.54410676
_symmetry_Int_Tables_number   1
_chemical_formula_structural   Sr3NdOs6O19
_chemical_formula_sum   'Sr3 Nd1 Os6 O19'
_cell_volume   394.21591084
_cell_formula_units_Z   1
loop_
 _symmetry_equiv_pos_site_id
 _symmetry_equiv_pos_as_xyz
  1  'x, y, z'
loop_
 _atom_site_type_symbol
 _atom_site_label
 _atom_site_symmetry_multiplicity
 _atom_site_fract_x
 _atom_site_fract_y
 _atom_site_fract_z
 _atom_site_occupancy
  Sr  Sr0  1  0.000797  0.999709  0.304345  1
  Sr  Sr1  1  0.001104  0.304643  0.000357  1
  Sr  Sr2  1  0.696431  0.695673  0.695274  1
  Nd  Nd3  1  0.294182  0.999986  0.999985  1
  Os  Os4  1  0.362230  0.499370  0.861812  1
  Os  Os5  1  0.862852  0.362504  0.500649  1
  Os  Os6  1  0.500459  0.138116  0.637540  1
  Os  Os7  1  0.136306  0.636696  0.500158  1
  Os  Os8  1  0.499711  0.863476  0.363404  1
  Os  Os9  1  0.636224  0.499899  0.136557  1
  O  O10  1  0.332571  0.000978  0.328188  1
  O  O11  1  0.331604  0.327152  0.999032  1
  O  O12  1  0.004436  0.671866  0.672823  1
  O  O13  1  0.667278  0.669575  0.999649  1
  O  O14  1  0.997636  0.330044  0.330417  1
  O  O15  1  0.667538  0.000465  0.669953  1
  O  O16  1  0.022772  0.999994  0.000005  1
  O  O17  1  0.354567  0.289193  0.640979  1
  O  O18  1  0.065202  0.351693  0.710713  1
  O  O19  1  0.713520  0.359011  0.648265  1
  O  O20  1  0.358954  0.648939  0.712870  1
  O  O21  1  0.287445  0.938471  0.654088  1
  O  O22  1  0.633343  0.345959  0.284412  1
  O  O23  1  0.287903  0.642145  0.353657  1
  O  O24  1  0.710050  0.063951  0.351041  1
  O  O25  1  0.934254  0.646312  0.288592  1
  O  O26  1  0.645722  0.711489  0.357764  1
  O  O27  1  0.645977  0.287108  0.935953  1
  O  O28  1  0.348926  0.715583  0.061519  1
