# generated using pymatgen
data_Nd7C3I10
_symmetry_space_group_name_H-M   'P 1'
_cell_length_a   9.73353474
_cell_length_b   11.71413245
_cell_length_c   13.89177500
_cell_angle_alpha   79.57878592
_cell_angle_beta   71.26521815
_cell_angle_gamma   66.17157089
_symmetry_Int_Tables_number   1
_chemical_formula_structural   Nd7C3I10
_chemical_formula_sum   'Nd14 C6 I20'
_cell_volume   1369.76099715
_cell_formula_units_Z   2
loop_
 _symmetry_equiv_pos_site_id
 _symmetry_equiv_pos_as_xyz
  1  'x, y, z'
loop_
 _atom_site_type_symbol
 _atom_site_label
 _atom_site_symmetry_multiplicity
 _atom_site_fract_x
 _atom_site_fract_y
 _atom_site_fract_z
 _atom_site_occupancy
  Nd  Nd0  1  0.952821  0.115973  0.823155  1
  Nd  Nd1  1  0.834406  0.243624  0.099226  1
  Nd  Nd2  1  0.543384  0.793272  0.306852  1
  Nd  Nd3  1  0.252077  0.050035  0.921228  1
  Nd  Nd4  1  0.133123  0.276650  0.587325  1
  Nd  Nd5  1  0.376346  0.927694  0.640989  1
  Nd  Nd6  1  0.747923  0.949965  0.078772  1
  Nd  Nd7  1  0.953597  0.580395  0.164229  1
  Nd  Nd8  1  0.046403  0.419605  0.835771  1
  Nd  Nd9  1  0.456616  0.206728  0.693148  1
  Nd  Nd10  1  0.165594  0.756376  0.900774  1
  Nd  Nd11  1  0.623654  0.072306  0.359011  1
  Nd  Nd12  1  0.047179  0.884027  0.176845  1
  Nd  Nd13  1  0.866877  0.723350  0.412675  1
  C  C14  1  0.244472  0.110683  0.725028  1
  C  C15  1  0.038227  0.943009  0.977073  1
  C  C16  1  0.961773  0.056991  0.022927  1
  C  C17  1  0.167282  0.224598  0.771446  1
  C  C18  1  0.755528  0.889317  0.274972  1
  C  C19  1  0.832718  0.775402  0.228554  1
  I  I20  1  0.854722  0.696615  0.956356  1
  I  I21  1  0.398939  0.920812  0.121833  1
  I  I22  1  0.929700  0.131725  0.304059  1
  I  I23  1  0.958863  0.563934  0.638361  1
  I  I24  1  0.185360  0.753936  0.372772  1
  I  I25  1  0.434111  0.342997  0.480291  1
  I  I26  1  0.716883  0.392673  0.909223  1
  I  I27  1  0.287482  0.046584  0.430871  1
  I  I28  1  0.712518  0.953416  0.569129  1
  I  I29  1  0.041137  0.436066  0.361639  1
  I  I30  1  0.352693  0.475611  0.775434  1
  I  I31  1  0.647307  0.524389  0.224566  1
  I  I32  1  0.565889  0.657003  0.519709  1
  I  I33  1  0.504905  0.220125  0.169272  1
  I  I34  1  0.070300  0.868275  0.695941  1
  I  I35  1  0.145278  0.303385  0.043644  1
  I  I36  1  0.814640  0.246064  0.627228  1
  I  I37  1  0.601061  0.079188  0.878167  1
  I  I38  1  0.495095  0.779875  0.830728  1
  I  I39  1  0.283117  0.607327  0.090777  1
