# generated using pymatgen
data_BaZn9Pt4
_symmetry_space_group_name_H-M   'P 1'
_cell_length_a   8.84900650
_cell_length_b   8.84900627
_cell_length_c   8.84900611
_cell_angle_alpha   120.96593953
_cell_angle_beta   120.96593847
_cell_angle_gamma   88.33493472
_symmetry_Int_Tables_number   1
_chemical_formula_structural   BaZn9Pt4
_chemical_formula_sum   'Ba2 Zn18 Pt8'
_cell_volume   482.59408233
_cell_formula_units_Z   2
loop_
 _symmetry_equiv_pos_site_id
 _symmetry_equiv_pos_as_xyz
  1  'x, y, z'
loop_
 _atom_site_type_symbol
 _atom_site_label
 _atom_site_symmetry_multiplicity
 _atom_site_fract_x
 _atom_site_fract_y
 _atom_site_fract_z
 _atom_site_occupancy
  Ba  Ba0  1  0.750000  0.750000  0.000000  1
  Ba  Ba1  1  0.250000  0.250000  0.000000  1
  Zn  Zn2  1  0.440778  0.940778  0.748563  1
  Zn  Zn3  1  0.192215  0.692215  0.251437  1
  Zn  Zn4  1  0.940778  0.192215  0.500000  1
  Zn  Zn5  1  0.692215  0.440778  0.500000  1
  Zn  Zn6  1  0.559222  0.059222  0.251437  1
  Zn  Zn7  1  0.807785  0.307785  0.748563  1
  Zn  Zn8  1  0.059222  0.807785  0.500000  1
  Zn  Zn9  1  0.307785  0.559222  0.500000  1
  Zn  Zn10  1  0.066940  0.200294  0.267234  1
  Zn  Zn11  1  0.933060  0.799706  0.732766  1
  Zn  Zn12  1  0.566940  0.299706  0.866646  1
  Zn  Zn13  1  0.433060  0.700294  0.133354  1
  Zn  Zn14  1  0.799706  0.066940  0.866646  1
  Zn  Zn15  1  0.200294  0.933060  0.133354  1
  Zn  Zn16  1  0.700294  0.566940  0.267234  1
  Zn  Zn17  1  0.299706  0.433060  0.732766  1
  Zn  Zn18  1  0.000000  0.500000  0.500000  1
  Zn  Zn19  1  0.500000  0.000000  0.500000  1
  Pt  Pt20  1  0.055387  0.555387  0.844987  1
  Pt  Pt21  1  0.710400  0.210400  0.155013  1
  Pt  Pt22  1  0.555387  0.710400  0.500000  1
  Pt  Pt23  1  0.210400  0.055387  0.500000  1
  Pt  Pt24  1  0.944613  0.444613  0.155013  1
  Pt  Pt25  1  0.289600  0.789600  0.844987  1
  Pt  Pt26  1  0.444613  0.289600  0.500000  1
  Pt  Pt27  1  0.789600  0.944613  0.500000  1
