# generated using pymatgen
data_Dy2Tm10Tc3Ir
_symmetry_space_group_name_H-M   'P 1'
_cell_length_a   6.23660206
_cell_length_b   7.35169614
_cell_length_c   9.01421100
_cell_angle_alpha   90.00000000
_cell_angle_beta   90.00000000
_cell_angle_gamma   89.99706368
_symmetry_Int_Tables_number   1
_chemical_formula_structural   Dy2Tm10Tc3Ir
_chemical_formula_sum   'Dy2 Tm10 Tc3 Ir1'
_cell_volume   413.29799781
_cell_formula_units_Z   1
loop_
 _symmetry_equiv_pos_site_id
 _symmetry_equiv_pos_as_xyz
  1  'x, y, z'
loop_
 _atom_site_type_symbol
 _atom_site_label
 _atom_site_symmetry_multiplicity
 _atom_site_fract_x
 _atom_site_fract_y
 _atom_site_fract_z
 _atom_site_occupancy
  Dy  Dy0  1  0.875496  0.540868  0.250000  1
  Dy  Dy1  1  0.623984  0.038613  0.250000  1
  Tm  Tm2  1  0.334241  0.676253  0.062955  1
  Tm  Tm3  1  0.161686  0.175668  0.437930  1
  Tm  Tm4  1  0.663677  0.322740  0.562400  1
  Tm  Tm5  1  0.836535  0.825325  0.937293  1
  Tm  Tm6  1  0.663677  0.322740  0.937600  1
  Tm  Tm7  1  0.836535  0.825325  0.562707  1
  Tm  Tm8  1  0.334241  0.676253  0.437045  1
  Tm  Tm9  1  0.161686  0.175668  0.062070  1
  Tm  Tm10  1  0.131114  0.457499  0.750000  1
  Tm  Tm11  1  0.372124  0.959559  0.750000  1
  Tc  Tc12  1  0.040772  0.883944  0.250000  1
  Tc  Tc13  1  0.461600  0.386260  0.250000  1
  Tc  Tc14  1  0.960999  0.116596  0.750000  1
  Ir  Ir15  1  0.541633  0.616691  0.750000  1
