# generated using pymatgen
data_ZnCu(PtO3)2
_symmetry_space_group_name_H-M   'P 1'
_cell_length_a   6.13490144
_cell_length_b   6.13491348
_cell_length_c   3.19004500
_cell_angle_alpha   90.00000000
_cell_angle_beta   90.00000000
_cell_angle_gamma   109.23949157
_symmetry_Int_Tables_number   1
_chemical_formula_structural   ZnCu(PtO3)2
_chemical_formula_sum   'Zn1 Cu1 Pt2 O6'
_cell_volume   113.35837091
_cell_formula_units_Z   1
loop_
 _symmetry_equiv_pos_site_id
 _symmetry_equiv_pos_as_xyz
  1  'x, y, z'
loop_
 _atom_site_type_symbol
 _atom_site_label
 _atom_site_symmetry_multiplicity
 _atom_site_fract_x
 _atom_site_fract_y
 _atom_site_fract_z
 _atom_site_occupancy
  Zn  Zn0  1  0.500000  0.500000  0.000000  1
  Cu  Cu1  1  0.000000  0.000000  0.000000  1
  Pt  Pt2  1  0.500000  0.000000  0.500000  1
  Pt  Pt3  1  0.000000  0.500000  0.500000  1
  O  O4  1  0.074718  0.329816  0.000000  1
  O  O5  1  0.925282  0.670184  0.000000  1
  O  O6  1  0.329816  0.074717  0.000000  1
  O  O7  1  0.670184  0.925283  0.000000  1
  O  O8  1  0.646339  0.353662  0.500000  1
  O  O9  1  0.353661  0.646338  0.500000  1
