# generated using pymatgen
data_Ho3Co2P6Ir4Rh3
_symmetry_space_group_name_H-M   'P 1'
_cell_length_a   3.84526300
_cell_length_b   11.06831600
_cell_length_c   12.74105800
_cell_angle_alpha   90.00000000
_cell_angle_beta   90.00000000
_cell_angle_gamma   90.00000000
_symmetry_Int_Tables_number   1
_chemical_formula_structural   Ho3Co2P6Ir4Rh3
_chemical_formula_sum   'Ho6 Co4 P12 Ir8 Rh6'
_cell_volume   542.26689458
_cell_formula_units_Z   2
loop_
 _symmetry_equiv_pos_site_id
 _symmetry_equiv_pos_as_xyz
  1  'x, y, z'
loop_
 _atom_site_type_symbol
 _atom_site_label
 _atom_site_symmetry_multiplicity
 _atom_site_fract_x
 _atom_site_fract_y
 _atom_site_fract_z
 _atom_site_occupancy
  Ho  Ho0  1  0.000000  0.500000  0.521342  1
  Ho  Ho1  1  0.500000  0.000000  0.478122  1
  Ho  Ho2  1  0.500000  0.819943  0.198865  1
  Ho  Ho3  1  0.500000  0.180057  0.198865  1
  Ho  Ho4  1  0.000000  0.685096  0.800778  1
  Ho  Ho5  1  0.000000  0.314904  0.800778  1
  Co  Co6  1  0.000000  0.500000  0.983717  1
  Co  Co7  1  0.500000  0.000000  0.017229  1
  Co  Co8  1  0.000000  0.160117  0.004815  1
  Co  Co9  1  0.000000  0.839883  0.004815  1
  P  P10  1  0.500000  0.316087  0.619963  1
  P  P11  1  0.500000  0.683913  0.619963  1
  P  P12  1  0.000000  0.184185  0.379387  1
  P  P13  1  0.000000  0.815815  0.379387  1
  P  P14  1  0.500000  0.500000  0.883625  1
  P  P15  1  0.000000  0.000000  0.111087  1
  P  P16  1  0.500000  0.851810  0.900296  1
  P  P17  1  0.500000  0.148190  0.900296  1
  P  P18  1  0.000000  0.657414  0.102833  1
  P  P19  1  0.000000  0.342586  0.102833  1
  P  P20  1  0.500000  0.500000  0.350660  1
  P  P21  1  0.000000  0.000000  0.649017  1
  Ir  Ir22  1  0.500000  0.292706  0.429810  1
  Ir  Ir23  1  0.500000  0.707294  0.429810  1
  Ir  Ir24  1  0.500000  0.872056  0.715663  1
  Ir  Ir25  1  0.500000  0.127944  0.715663  1
  Ir  Ir26  1  0.500000  0.331529  0.994444  1
  Ir  Ir27  1  0.500000  0.668471  0.994444  1
  Ir  Ir28  1  0.500000  0.500000  0.704611  1
  Ir  Ir29  1  0.000000  0.000000  0.294204  1
  Rh  Rh30  1  0.000000  0.204576  0.570697  1
  Rh  Rh31  1  0.000000  0.795424  0.570697  1
  Rh  Rh32  1  0.000000  0.628027  0.285363  1
  Rh  Rh33  1  0.000000  0.371973  0.285363  1
  Rh  Rh34  1  0.500000  0.500000  0.166866  1
  Rh  Rh35  1  0.000000  0.000000  0.833695  1
