# generated using pymatgen
data_Ho(Er3Bi2)3
_symmetry_space_group_name_H-M   'P 1'
_cell_length_a   8.20251100
_cell_length_b   9.48106200
_cell_length_c   11.95577900
_cell_angle_alpha   90.00000000
_cell_angle_beta   90.00000000
_cell_angle_gamma   90.00000000
_symmetry_Int_Tables_number   1
_chemical_formula_structural   Ho(Er3Bi2)3
_chemical_formula_sum   'Ho2 Er18 Bi12'
_cell_volume   929.78318264
_cell_formula_units_Z   2
loop_
 _symmetry_equiv_pos_site_id
 _symmetry_equiv_pos_as_xyz
  1  'x, y, z'
loop_
 _atom_site_type_symbol
 _atom_site_label
 _atom_site_symmetry_multiplicity
 _atom_site_fract_x
 _atom_site_fract_y
 _atom_site_fract_z
 _atom_site_occupancy
  Ho  Ho0  1  0.685589  0.750000  0.781898  1
  Ho  Ho1  1  0.185589  0.750000  0.718102  1
  Er  Er2  1  0.353733  0.750000  0.216463  1
  Er  Er3  1  0.853733  0.750000  0.283537  1
  Er  Er4  1  0.646267  0.250000  0.783536  1
  Er  Er5  1  0.146267  0.250000  0.716464  1
  Er  Er6  1  0.692120  0.564518  0.059098  1
  Er  Er7  1  0.192120  0.935482  0.440902  1
  Er  Er8  1  0.307904  0.064509  0.940951  1
  Er  Er9  1  0.807904  0.435491  0.559049  1
  Er  Er10  1  0.307904  0.435491  0.940951  1
  Er  Er11  1  0.807904  0.064509  0.559049  1
  Er  Er12  1  0.692120  0.935482  0.059098  1
  Er  Er13  1  0.192120  0.564518  0.440902  1
  Er  Er14  1  0.476792  0.250000  0.488985  1
  Er  Er15  1  0.976792  0.250000  0.011015  1
  Er  Er16  1  0.523244  0.750000  0.510912  1
  Er  Er17  1  0.023244  0.750000  0.989088  1
  Er  Er18  1  0.314308  0.250000  0.217931  1
  Er  Er19  1  0.814308  0.250000  0.282069  1
  Bi  Bi20  1  0.405223  0.750000  0.957690  1
  Bi  Bi21  1  0.905223  0.750000  0.542310  1
  Bi  Bi22  1  0.594700  0.250000  0.042511  1
  Bi  Bi23  1  0.094700  0.250000  0.457489  1
  Bi  Bi24  1  0.566045  0.996254  0.325694  1
  Bi  Bi25  1  0.066045  0.503746  0.174306  1
  Bi  Bi26  1  0.434002  0.496044  0.674241  1
  Bi  Bi27  1  0.934002  0.003956  0.825759  1
  Bi  Bi28  1  0.434002  0.003956  0.674241  1
  Bi  Bi29  1  0.934002  0.496044  0.825759  1
  Bi  Bi30  1  0.566045  0.503746  0.325694  1
  Bi  Bi31  1  0.066045  0.996254  0.174306  1
