# generated using pymatgen
data_YHo5Co8(P6Ru5)2
_symmetry_space_group_name_H-M   'P 1'
_cell_length_a   3.84921200
_cell_length_b   10.65321900
_cell_length_c   12.54280500
_cell_angle_alpha   90.00000000
_cell_angle_beta   90.00000000
_cell_angle_gamma   90.00000000
_symmetry_Int_Tables_number   1
_chemical_formula_structural   YHo5Co8(P6Ru5)2
_chemical_formula_sum   'Y1 Ho5 Co8 P12 Ru10'
_cell_volume   514.33651333
_cell_formula_units_Z   1
loop_
 _symmetry_equiv_pos_site_id
 _symmetry_equiv_pos_as_xyz
  1  'x, y, z'
loop_
 _atom_site_type_symbol
 _atom_site_label
 _atom_site_symmetry_multiplicity
 _atom_site_fract_x
 _atom_site_fract_y
 _atom_site_fract_z
 _atom_site_occupancy
  Y  Y0  1  0.000000  0.500000  0.527387  1
  Ho  Ho1  1  0.500000  0.000000  0.472549  1
  Ho  Ho2  1  0.500000  0.821647  0.200497  1
  Ho  Ho3  1  0.500000  0.178353  0.200497  1
  Ho  Ho4  1  0.000000  0.678347  0.799504  1
  Ho  Ho5  1  0.000000  0.321653  0.799504  1
  Co  Co6  1  0.000000  0.500000  0.984050  1
  Co  Co7  1  0.500000  0.000000  0.015958  1
  Co  Co8  1  0.500000  0.332342  0.989019  1
  Co  Co9  1  0.500000  0.667658  0.989019  1
  Co  Co10  1  0.000000  0.167652  0.010985  1
  Co  Co11  1  0.000000  0.832348  0.010985  1
  Co  Co12  1  0.500000  0.500000  0.702967  1
  Co  Co13  1  0.000000  0.000000  0.297224  1
  P  P14  1  0.500000  0.314540  0.618191  1
  P  P15  1  0.500000  0.685460  0.618191  1
  P  P16  1  0.000000  0.185332  0.381888  1
  P  P17  1  0.000000  0.814668  0.381888  1
  P  P18  1  0.500000  0.500000  0.881346  1
  P  P19  1  0.000000  0.000000  0.118643  1
  P  P20  1  0.500000  0.845858  0.900773  1
  P  P21  1  0.500000  0.154142  0.900773  1
  P  P22  1  0.000000  0.654157  0.099212  1
  P  P23  1  0.000000  0.345843  0.099212  1
  P  P24  1  0.500000  0.500000  0.336490  1
  P  P25  1  0.000000  0.000000  0.663417  1
  Ru  Ru26  1  0.500000  0.297973  0.427543  1
  Ru  Ru27  1  0.500000  0.702027  0.427543  1
  Ru  Ru28  1  0.000000  0.201819  0.572394  1
  Ru  Ru29  1  0.000000  0.798181  0.572394  1
  Ru  Ru30  1  0.500000  0.874738  0.719054  1
  Ru  Ru31  1  0.500000  0.125262  0.719054  1
  Ru  Ru32  1  0.000000  0.625266  0.280912  1
  Ru  Ru33  1  0.000000  0.374734  0.280912  1
  Ru  Ru34  1  0.500000  0.500000  0.146423  1
  Ru  Ru35  1  0.000000  0.000000  0.853602  1
