# generated using pymatgen
data_TbTh3Al10(Ga4Ir3)2
_symmetry_space_group_name_H-M   'P 1'
_cell_length_a   7.64889141
_cell_length_b   7.65414382
_cell_length_c   9.56568049
_cell_angle_alpha   90.12486954
_cell_angle_beta   89.84887659
_cell_angle_gamma   119.70996649
_symmetry_Int_Tables_number   1
_chemical_formula_structural   TbTh3Al10(Ga4Ir3)2
_chemical_formula_sum   'Tb1 Th3 Al10 Ga8 Ir6'
_cell_volume   486.40915260
_cell_formula_units_Z   1
loop_
 _symmetry_equiv_pos_site_id
 _symmetry_equiv_pos_as_xyz
  1  'x, y, z'
loop_
 _atom_site_type_symbol
 _atom_site_label
 _atom_site_symmetry_multiplicity
 _atom_site_fract_x
 _atom_site_fract_y
 _atom_site_fract_z
 _atom_site_occupancy
  Tb  Tb0  1  0.327524  0.003480  0.750930  1
  Th  Th1  1  0.996206  0.668853  0.244929  1
  Th  Th2  1  0.002817  0.331918  0.755430  1
  Th  Th3  1  0.671028  0.996357  0.248427  1
  Al  Al4  1  0.999526  0.669207  0.572856  1
  Al  Al5  1  0.334428  0.002692  0.432270  1
  Al  Al6  1  0.005299  0.335292  0.430025  1
  Al  Al7  1  0.661071  0.997017  0.575752  1
  Al  Al8  1  0.658532  0.993487  0.922743  1
  Al  Al9  1  0.336239  0.005805  0.068838  1
  Al  Al10  1  0.335246  0.332411  0.556147  1
  Al  Al11  1  0.664053  0.664035  0.450031  1
  Al  Al12  1  0.663591  0.662955  0.048051  1
  Al  Al13  1  0.335994  0.332943  0.945458  1
  Ga  Ga14  1  0.137715  0.131798  0.251015  1
  Ga  Ga15  1  0.869487  0.870512  0.749212  1
  Ga  Ga16  1  0.003871  0.333597  0.080236  1
  Ga  Ga17  1  0.002520  0.672500  0.916984  1
  Ga  Ga18  1  0.345299  0.544827  0.251232  1
  Ga  Ga19  1  0.652174  0.448191  0.748948  1
  Ga  Ga20  1  0.543044  0.340363  0.250271  1
  Ga  Ga21  1  0.455097  0.661317  0.749707  1
  Ir  Ir22  1  0.669401  0.326975  0.999438  1
  Ir  Ir23  1  0.331829  0.672751  0.001610  1
  Ir  Ir24  1  0.327005  0.670621  0.500133  1
  Ir  Ir25  1  0.674389  0.329543  0.498969  1
  Ir  Ir26  1  0.998219  0.000203  0.001081  1
  Ir  Ir27  1  0.998399  0.000351  0.499274  1
