# generated using pymatgen
data_DyErZn2(PO)2
_symmetry_space_group_name_H-M   'P 1'
_cell_length_a   3.89093880
_cell_length_b   3.89093731
_cell_length_c   10.35651201
_cell_angle_alpha   100.82733483
_cell_angle_beta   100.82734785
_cell_angle_gamma   59.99998075
_symmetry_Int_Tables_number   1
_chemical_formula_structural   DyErZn2(PO)2
_chemical_formula_sum   'Dy1 Er1 Zn2 P2 O2'
_cell_volume   132.55243564
_cell_formula_units_Z   1
loop_
 _symmetry_equiv_pos_site_id
 _symmetry_equiv_pos_as_xyz
  1  'x, y, z'
loop_
 _atom_site_type_symbol
 _atom_site_label
 _atom_site_symmetry_multiplicity
 _atom_site_fract_x
 _atom_site_fract_y
 _atom_site_fract_z
 _atom_site_occupancy
  Dy  Dy0  1  0.620334  0.620334  0.861002  1
  Er  Er1  1  0.379492  0.379492  0.138474  1
  Zn  Zn2  1  0.803697  0.803697  0.411089  1
  Zn  Zn3  1  0.196098  0.196098  0.588297  1
  P  P4  1  0.111330  0.111330  0.333991  1
  P  P5  1  0.888340  0.888340  0.665018  1
  O  O6  1  0.694949  0.694949  0.084848  1
  O  O7  1  0.305760  0.305760  0.917281  1
