# generated using pymatgen
data_Pr8Nb(IrO8)3
_symmetry_space_group_name_H-M   'P 1'
_cell_length_a   5.49132217
_cell_length_b   9.48824819
_cell_length_c   10.28914580
_cell_angle_alpha   89.67655286
_cell_angle_beta   89.95628006
_cell_angle_gamma   89.96247409
_symmetry_Int_Tables_number   1
_chemical_formula_structural   Pr8Nb(IrO8)3
_chemical_formula_sum   'Pr8 Nb1 Ir3 O24'
_cell_volume   536.08683625
_cell_formula_units_Z   1
loop_
 _symmetry_equiv_pos_site_id
 _symmetry_equiv_pos_as_xyz
  1  'x, y, z'
loop_
 _atom_site_type_symbol
 _atom_site_label
 _atom_site_symmetry_multiplicity
 _atom_site_fract_x
 _atom_site_fract_y
 _atom_site_fract_z
 _atom_site_occupancy
  Pr  Pr0  1  0.036078  0.218142  0.131068  1
  Pr  Pr1  1  0.466386  0.773138  0.633352  1
  Pr  Pr2  1  0.968098  0.716438  0.371298  1
  Pr  Pr3  1  0.532763  0.285899  0.861619  1
  Pr  Pr4  1  0.025976  0.105892  0.538847  1
  Pr  Pr5  1  0.474656  0.899808  0.036976  1
  Pr  Pr6  1  0.977466  0.604768  0.960303  1
  Pr  Pr7  1  0.525409  0.401604  0.462668  1
  Nb  Nb8  1  0.041202  0.493141  0.648326  1
  Ir  Ir9  1  0.544949  0.001722  0.356740  1
  Ir  Ir10  1  0.956372  0.997121  0.857562  1
  Ir  Ir11  1  0.456902  0.503691  0.142523  1
  O  O12  1  0.435644  0.148607  0.473508  1
  O  O13  1  0.062289  0.853643  0.982837  1
  O  O14  1  0.563453  0.650785  0.022518  1
  O  O15  1  0.922881  0.343786  0.520109  1
  O  O16  1  0.722483  0.388648  0.069399  1
  O  O17  1  0.770314  0.610563  0.557502  1
  O  O18  1  0.280229  0.889329  0.433594  1
  O  O19  1  0.223211  0.112270  0.934799  1
  O  O20  1  0.250546  0.412241  0.007177  1
  O  O21  1  0.252334  0.593719  0.506076  1
  O  O22  1  0.753435  0.913169  0.493213  1
  O  O23  1  0.748583  0.089606  0.993117  1
  O  O24  1  0.188816  0.629993  0.180476  1
  O  O25  1  0.316769  0.357053  0.672262  1
  O  O26  1  0.813473  0.126750  0.317085  1
  O  O27  1  0.688360  0.867886  0.822387  1
  O  O28  1  0.337761  0.056685  0.214946  1
  O  O29  1  0.162530  0.943432  0.717523  1
  O  O30  1  0.662027  0.560766  0.280370  1
  O  O31  1  0.824353  0.453374  0.793524  1
  O  O32  1  0.326472  0.360878  0.256233  1
  O  O33  1  0.192056  0.636657  0.763862  1
  O  O34  1  0.671954  0.859682  0.242866  1
  O  O35  1  0.823770  0.139113  0.743337  1
