# generated using pymatgen
data_Pr3Gd(WO6)2
_symmetry_space_group_name_H-M   'P 1'
_cell_length_a   5.43429900
_cell_length_b   9.42555084
_cell_length_c   10.31084031
_cell_angle_alpha   90.49768777
_cell_angle_beta   90.00000000
_cell_angle_gamma   90.00000000
_symmetry_Int_Tables_number   1
_chemical_formula_structural   Pr3Gd(WO6)2
_chemical_formula_sum   'Pr6 Gd2 W4 O24'
_cell_volume   528.11432357
_cell_formula_units_Z   2
loop_
 _symmetry_equiv_pos_site_id
 _symmetry_equiv_pos_as_xyz
  1  'x, y, z'
loop_
 _atom_site_type_symbol
 _atom_site_label
 _atom_site_symmetry_multiplicity
 _atom_site_fract_x
 _atom_site_fract_y
 _atom_site_fract_z
 _atom_site_occupancy
  Pr  Pr0  1  0.478541  0.603076  0.536022  1
  Pr  Pr1  1  0.978541  0.896924  0.463978  1
  Pr  Pr2  1  0.520726  0.104538  0.964279  1
  Pr  Pr3  1  0.020726  0.395462  0.035721  1
  Pr  Pr4  1  0.967019  0.782873  0.867808  1
  Pr  Pr5  1  0.467019  0.717127  0.132192  1
  Gd  Gd6  1  0.037866  0.281151  0.628279  1
  Gd  Gd7  1  0.537866  0.218849  0.371721  1
  W  W8  1  0.460070  0.001195  0.647875  1
  W  W9  1  0.960070  0.498805  0.352125  1
  W  W10  1  0.540856  0.494489  0.848179  1
  W  W11  1  0.040856  0.005511  0.151821  1
  O  O12  1  0.256927  0.094026  0.507486  1
  O  O13  1  0.756927  0.405974  0.492514  1
  O  O14  1  0.749400  0.587821  0.987990  1
  O  O15  1  0.249400  0.912179  0.012010  1
  O  O16  1  0.728359  0.115703  0.567820  1
  O  O17  1  0.228359  0.384297  0.432180  1
  O  O18  1  0.276865  0.611324  0.931935  1
  O  O19  1  0.776865  0.888676  0.068065  1
  O  O20  1  0.189770  0.869385  0.677841  1
  O  O21  1  0.689770  0.630615  0.322159  1
  O  O22  1  0.809340  0.363628  0.813879  1
  O  O23  1  0.309340  0.136372  0.186121  1
  O  O24  1  0.180722  0.861885  0.260513  1
  O  O25  1  0.680722  0.638115  0.739487  1
  O  O26  1  0.808167  0.358827  0.241556  1
  O  O27  1  0.308167  0.141173  0.758444  1
  O  O28  1  0.826508  0.053076  0.291174  1
  O  O29  1  0.326508  0.446924  0.708826  1
  O  O30  1  0.167755  0.546177  0.211264  1
  O  O31  1  0.667755  0.953823  0.788736  1
  O  O32  1  0.929261  0.150166  0.028189  1
  O  O33  1  0.429261  0.349834  0.971811  1
  O  O34  1  0.071848  0.648472  0.473020  1
  O  O35  1  0.571848  0.851528  0.526980  1
