# generated using pymatgen
data_Pr3NdY4(CdPt)2
_symmetry_space_group_name_H-M   'P 1'
_cell_length_a   9.89060747
_cell_length_b   9.89060725
_cell_length_c   9.85074500
_cell_angle_alpha   60.13322905
_cell_angle_beta   60.13322980
_cell_angle_gamma   60.29340025
_symmetry_Int_Tables_number   1
_chemical_formula_structural   Pr3NdY4(CdPt)2
_chemical_formula_sum   'Pr6 Nd2 Y8 Cd4 Pt4'
_cell_volume   684.27278436
_cell_formula_units_Z   2
loop_
 _symmetry_equiv_pos_site_id
 _symmetry_equiv_pos_as_xyz
  1  'x, y, z'
loop_
 _atom_site_type_symbol
 _atom_site_label
 _atom_site_symmetry_multiplicity
 _atom_site_fract_x
 _atom_site_fract_y
 _atom_site_fract_z
 _atom_site_occupancy
  Pr  Pr0  1  0.939136  0.561683  0.562788  1
  Pr  Pr1  1  0.561683  0.939136  0.936393  1
  Pr  Pr2  1  0.561683  0.939136  0.562788  1
  Pr  Pr3  1  0.939136  0.561683  0.936393  1
  Pr  Pr4  1  0.561239  0.561239  0.938761  1
  Pr  Pr5  1  0.937977  0.937977  0.562023  1
  Nd  Nd6  1  0.350772  0.350772  0.352123  1
  Nd  Nd7  1  0.350772  0.350772  0.946332  1
  Y  Y8  1  0.350706  0.946801  0.351246  1
  Y  Y9  1  0.946801  0.350706  0.351246  1
  Y  Y10  1  0.813145  0.187186  0.187942  1
  Y  Y11  1  0.187186  0.813145  0.811727  1
  Y  Y12  1  0.187186  0.813145  0.187942  1
  Y  Y13  1  0.813145  0.187186  0.811727  1
  Y  Y14  1  0.186901  0.186901  0.813099  1
  Y  Y15  1  0.811324  0.811324  0.188676  1
  Cd  Cd16  1  0.581410  0.581410  0.576473  1
  Cd  Cd17  1  0.581410  0.581410  0.260705  1
  Cd  Cd18  1  0.583169  0.260669  0.578080  1
  Cd  Cd19  1  0.260669  0.583169  0.578080  1
  Pt  Pt20  1  0.140490  0.140490  0.146199  1
  Pt  Pt21  1  0.140490  0.140490  0.572820  1
  Pt  Pt22  1  0.138442  0.575124  0.143217  1
  Pt  Pt23  1  0.575124  0.138442  0.143217  1
