# generated using pymatgen
data_LaGaPRu2
_symmetry_space_group_name_H-M   'P 1'
_cell_length_a   5.81404443
_cell_length_b   5.81404410
_cell_length_c   5.81404500
_cell_angle_alpha   137.34003701
_cell_angle_beta   137.34003347
_cell_angle_gamma   61.91528569
_symmetry_Int_Tables_number   1
_chemical_formula_structural   LaGaPRu2
_chemical_formula_sum   'La1 Ga1 P1 Ru2'
_cell_volume   89.19335077
_cell_formula_units_Z   1
loop_
 _symmetry_equiv_pos_site_id
 _symmetry_equiv_pos_as_xyz
  1  'x, y, z'
loop_
 _atom_site_type_symbol
 _atom_site_label
 _atom_site_symmetry_multiplicity
 _atom_site_fract_x
 _atom_site_fract_y
 _atom_site_fract_z
 _atom_site_occupancy
  La  La0  1  0.002374  0.002374  0.000000  1
  Ga  Ga1  1  0.373633  0.373633  0.000000  1
  P  P2  1  0.642990  0.642990  0.000000  1
  Ru  Ru3  1  0.740502  0.240502  0.500000  1
  Ru  Ru4  1  0.240502  0.740502  0.500000  1
