# generated using pymatgen
data_Er6Mn3Fe(Co7P6)2
_symmetry_space_group_name_H-M   'P 1'
_cell_length_a   3.68739700
_cell_length_b   10.57255100
_cell_length_c   12.09079700
_cell_angle_alpha   90.00000000
_cell_angle_beta   90.00000000
_cell_angle_gamma   90.00000000
_symmetry_Int_Tables_number   1
_chemical_formula_structural   Er6Mn3Fe(Co7P6)2
_chemical_formula_sum   'Er6 Mn3 Fe1 Co14 P12'
_cell_volume   471.36205263
_cell_formula_units_Z   1
loop_
 _symmetry_equiv_pos_site_id
 _symmetry_equiv_pos_as_xyz
  1  'x, y, z'
loop_
 _atom_site_type_symbol
 _atom_site_label
 _atom_site_symmetry_multiplicity
 _atom_site_fract_x
 _atom_site_fract_y
 _atom_site_fract_z
 _atom_site_occupancy
  Er  Er0  1  0.750000  0.250000  0.476182  1
  Er  Er1  1  0.250000  0.750000  0.523431  1
  Er  Er2  1  0.250000  0.930303  0.796006  1
  Er  Er3  1  0.250000  0.569697  0.796006  1
  Er  Er4  1  0.750000  0.068801  0.203952  1
  Er  Er5  1  0.750000  0.431199  0.203952  1
  Mn  Mn6  1  0.250000  0.250000  0.845786  1
  Mn  Mn7  1  0.750000  0.750000  0.157315  1
  Mn  Mn8  1  0.750000  0.250000  0.011850  1
  Fe  Fe9  1  0.250000  0.750000  0.988048  1
  Co  Co10  1  0.250000  0.250000  0.301205  1
  Co  Co11  1  0.750000  0.750000  0.700555  1
  Co  Co12  1  0.250000  0.418908  0.006105  1
  Co  Co13  1  0.250000  0.081092  0.006105  1
  Co  Co14  1  0.750000  0.583074  0.995041  1
  Co  Co15  1  0.750000  0.916926  0.995041  1
  Co  Co16  1  0.250000  0.454402  0.569006  1
  Co  Co17  1  0.250000  0.045598  0.569006  1
  Co  Co18  1  0.750000  0.546652  0.429840  1
  Co  Co19  1  0.750000  0.953348  0.429840  1
  Co  Co20  1  0.250000  0.870411  0.290985  1
  Co  Co21  1  0.250000  0.629589  0.290985  1
  Co  Co22  1  0.750000  0.127931  0.707620  1
  Co  Co23  1  0.750000  0.372069  0.707620  1
  P  P24  1  0.250000  0.250000  0.118519  1
  P  P25  1  0.750000  0.750000  0.883380  1
  P  P26  1  0.250000  0.250000  0.652488  1
  P  P27  1  0.750000  0.750000  0.345170  1
  P  P28  1  0.250000  0.439380  0.383087  1
  P  P29  1  0.250000  0.060620  0.383087  1
  P  P30  1  0.750000  0.561317  0.616269  1
  P  P31  1  0.750000  0.938683  0.616269  1
  P  P32  1  0.250000  0.902200  0.106866  1
  P  P33  1  0.250000  0.597800  0.106866  1
  P  P34  1  0.750000  0.094886  0.893258  1
  P  P35  1  0.750000  0.405114  0.893258  1
