# generated using pymatgen
data_Dy16Hg4RuPt3
_symmetry_space_group_name_H-M   'P 1'
_cell_length_a   9.65232654
_cell_length_b   9.65232641
_cell_length_c   9.65232606
_cell_angle_alpha   59.77370186
_cell_angle_beta   59.77371116
_cell_angle_gamma   59.77370277
_symmetry_Int_Tables_number   1
_chemical_formula_structural   Dy16Hg4RuPt3
_chemical_formula_sum   'Dy16 Hg4 Ru1 Pt3'
_cell_volume   632.62138489
_cell_formula_units_Z   1
loop_
 _symmetry_equiv_pos_site_id
 _symmetry_equiv_pos_as_xyz
  1  'x, y, z'
loop_
 _atom_site_type_symbol
 _atom_site_label
 _atom_site_symmetry_multiplicity
 _atom_site_fract_x
 _atom_site_fract_y
 _atom_site_fract_z
 _atom_site_occupancy
  Dy  Dy0  1  0.353144  0.353144  0.353144  1
  Dy  Dy1  1  0.351777  0.351777  0.942783  1
  Dy  Dy2  1  0.351777  0.942783  0.351777  1
  Dy  Dy3  1  0.942783  0.351777  0.351777  1
  Dy  Dy4  1  0.814909  0.189086  0.189086  1
  Dy  Dy5  1  0.189082  0.809415  0.809415  1
  Dy  Dy6  1  0.189086  0.814909  0.189086  1
  Dy  Dy7  1  0.809415  0.189082  0.809415  1
  Dy  Dy8  1  0.189086  0.189086  0.814909  1
  Dy  Dy9  1  0.809415  0.809415  0.189082  1
  Dy  Dy10  1  0.936514  0.564752  0.564752  1
  Dy  Dy11  1  0.560196  0.936899  0.936899  1
  Dy  Dy12  1  0.564752  0.936514  0.564752  1
  Dy  Dy13  1  0.936899  0.560195  0.936899  1
  Dy  Dy14  1  0.564752  0.564752  0.936514  1
  Dy  Dy15  1  0.936899  0.936899  0.560195  1
  Hg  Hg16  1  0.584284  0.584284  0.584284  1
  Hg  Hg17  1  0.585509  0.585509  0.241496  1
  Hg  Hg18  1  0.585509  0.241496  0.585509  1
  Hg  Hg19  1  0.241496  0.585509  0.585509  1
  Ru  Ru20  1  0.143681  0.143681  0.143681  1
  Pt  Pt21  1  0.144103  0.144103  0.570830  1
  Pt  Pt22  1  0.144103  0.570830  0.144103  1
  Pt  Pt23  1  0.570830  0.144103  0.144103  1
