# generated using pymatgen
data_Pu4Mn3VB16
_symmetry_space_group_name_H-M   'P 1'
_cell_length_a   3.40634600
_cell_length_b   5.95051607
_cell_length_c   11.52081902
_cell_angle_alpha   90.07038768
_cell_angle_beta   90.00000000
_cell_angle_gamma   90.00000000
_symmetry_Int_Tables_number   1
_chemical_formula_structural   Pu4Mn3VB16
_chemical_formula_sum   'Pu4 Mn3 V1 B16'
_cell_volume   233.52125632
_cell_formula_units_Z   1
loop_
 _symmetry_equiv_pos_site_id
 _symmetry_equiv_pos_as_xyz
  1  'x, y, z'
loop_
 _atom_site_type_symbol
 _atom_site_label
 _atom_site_symmetry_multiplicity
 _atom_site_fract_x
 _atom_site_fract_y
 _atom_site_fract_z
 _atom_site_occupancy
  Pu  Pu0  1  0.000000  0.624641  0.351583  1
  Pu  Pu1  1  0.000000  0.374769  0.650184  1
  Pu  Pu2  1  0.000000  0.125222  0.151731  1
  Pu  Pu3  1  0.000000  0.875555  0.846981  1
  Mn  Mn4  1  0.000000  0.375141  0.915687  1
  Mn  Mn5  1  0.000000  0.130742  0.414442  1
  Mn  Mn6  1  0.000000  0.869292  0.587398  1
  V  V7  1  0.000000  0.625919  0.083321  1
  B  B8  1  0.500000  0.784867  0.186945  1
  B  B9  1  0.500000  0.220177  0.815780  1
  B  B10  1  0.500000  0.280442  0.316415  1
  B  B11  1  0.500000  0.718703  0.683873  1
  B  B12  1  0.500000  0.865204  0.031530  1
  B  B13  1  0.500000  0.137723  0.965513  1
  B  B14  1  0.500000  0.361065  0.467415  1
  B  B15  1  0.500000  0.638606  0.533093  1
  B  B16  1  0.500000  0.887376  0.454478  1
  B  B17  1  0.500000  0.112723  0.546411  1
  B  B18  1  0.500000  0.383689  0.044417  1
  B  B19  1  0.500000  0.611408  0.951525  1
  B  B20  1  0.500000  0.975226  0.310578  1
  B  B21  1  0.500000  0.025650  0.690146  1
  B  B22  1  0.500000  0.472341  0.192039  1
  B  B23  1  0.500000  0.523518  0.808516  1
