# generated using pymatgen
data_Tb5Th3MgZnRu2
_symmetry_space_group_name_H-M   'P 1'
_cell_length_a   9.66344844
_cell_length_b   9.77640677
_cell_length_c   9.81208335
_cell_angle_alpha   59.11808844
_cell_angle_beta   60.25696719
_cell_angle_gamma   60.31319311
_symmetry_Int_Tables_number   1
_chemical_formula_structural   Tb5Th3MgZnRu2
_chemical_formula_sum   'Tb10 Th6 Mg2 Zn2 Ru4'
_cell_volume   653.75156691
_cell_formula_units_Z   2
loop_
 _symmetry_equiv_pos_site_id
 _symmetry_equiv_pos_as_xyz
  1  'x, y, z'
loop_
 _atom_site_type_symbol
 _atom_site_label
 _atom_site_symmetry_multiplicity
 _atom_site_fract_x
 _atom_site_fract_y
 _atom_site_fract_z
 _atom_site_occupancy
  Tb  Tb0  1  0.190832  0.808977  0.191157  1
  Tb  Tb1  1  0.808977  0.190832  0.809034  1
  Tb  Tb2  1  0.189708  0.189708  0.810292  1
  Tb  Tb3  1  0.805944  0.805944  0.194056  1
  Tb  Tb4  1  0.928693  0.566376  0.568407  1
  Tb  Tb5  1  0.566376  0.928693  0.936526  1
  Tb  Tb6  1  0.561139  0.934264  0.563365  1
  Tb  Tb7  1  0.934264  0.561139  0.941232  1
  Tb  Tb8  1  0.561908  0.561908  0.938092  1
  Tb  Tb9  1  0.937530  0.937530  0.562470  1
  Th  Th10  1  0.342201  0.351423  0.348673  1
  Th  Th11  1  0.351423  0.342201  0.957703  1
  Th  Th12  1  0.354199  0.952093  0.342759  1
  Th  Th13  1  0.952093  0.354199  0.350950  1
  Th  Th14  1  0.814968  0.185220  0.186011  1
  Th  Th15  1  0.185220  0.814968  0.813801  1
  Mg  Mg16  1  0.578327  0.270128  0.577135  1
  Mg  Mg17  1  0.270128  0.578327  0.574410  1
  Zn  Zn18  1  0.586077  0.581160  0.583128  1
  Zn  Zn19  1  0.581160  0.586077  0.249635  1
  Ru  Ru20  1  0.128143  0.148809  0.150320  1
  Ru  Ru21  1  0.148809  0.128143  0.572727  1
  Ru  Ru22  1  0.148377  0.573501  0.127609  1
  Ru  Ru23  1  0.573501  0.148377  0.150511  1
