# generated using pymatgen
data_Pu2TcC2
_symmetry_space_group_name_H-M   'P 1'
_cell_length_a   5.13929500
_cell_length_b   6.44120000
_cell_length_c   9.79582300
_cell_angle_alpha   90.00000000
_cell_angle_beta   90.00000000
_cell_angle_gamma   90.00000000
_symmetry_Int_Tables_number   1
_chemical_formula_structural   Pu2TcC2
_chemical_formula_sum   'Pu8 Tc4 C8'
_cell_volume   324.27335197
_cell_formula_units_Z   4
loop_
 _symmetry_equiv_pos_site_id
 _symmetry_equiv_pos_as_xyz
  1  'x, y, z'
loop_
 _atom_site_type_symbol
 _atom_site_label
 _atom_site_symmetry_multiplicity
 _atom_site_fract_x
 _atom_site_fract_y
 _atom_site_fract_z
 _atom_site_occupancy
  Pu  Pu0  1  0.250000  0.813369  0.952466  1
  Pu  Pu1  1  0.250000  0.313369  0.547534  1
  Pu  Pu2  1  0.750000  0.186631  0.047534  1
  Pu  Pu3  1  0.750000  0.686631  0.452466  1
  Pu  Pu4  1  0.250000  0.468796  0.219176  1
  Pu  Pu5  1  0.250000  0.968796  0.280824  1
  Pu  Pu6  1  0.750000  0.531204  0.780824  1
  Pu  Pu7  1  0.750000  0.031204  0.719176  1
  Tc  Tc8  1  0.250000  0.286371  0.868756  1
  Tc  Tc9  1  0.250000  0.786371  0.631244  1
  Tc  Tc10  1  0.750000  0.713629  0.131244  1
  Tc  Tc11  1  0.750000  0.213629  0.368756  1
  C  C12  1  0.250000  0.049288  0.744194  1
  C  C13  1  0.250000  0.549288  0.755806  1
  C  C14  1  0.750000  0.950712  0.255806  1
  C  C15  1  0.750000  0.450712  0.244194  1
  C  C16  1  0.250000  0.671463  0.442895  1
  C  C17  1  0.250000  0.171463  0.057105  1
  C  C18  1  0.750000  0.328537  0.557105  1
  C  C19  1  0.750000  0.828537  0.942895  1
