# generated using pymatgen
data_Tm7Th(Sc3Ga4)4
_symmetry_space_group_name_H-M   'P 1'
_cell_length_a   7.25165079
_cell_length_b   7.53826683
_cell_length_c   14.43301027
_cell_angle_alpha   90.06164357
_cell_angle_beta   90.06289332
_cell_angle_gamma   90.05056639
_symmetry_Int_Tables_number   1
_chemical_formula_structural   Tm7Th(Sc3Ga4)4
_chemical_formula_sum   'Tm7 Th1 Sc12 Ga16'
_cell_volume   788.97751460
_cell_formula_units_Z   1
loop_
 _symmetry_equiv_pos_site_id
 _symmetry_equiv_pos_as_xyz
  1  'x, y, z'
loop_
 _atom_site_type_symbol
 _atom_site_label
 _atom_site_symmetry_multiplicity
 _atom_site_fract_x
 _atom_site_fract_y
 _atom_site_fract_z
 _atom_site_occupancy
  Tm  Tm0  1  0.989585  0.818326  0.903877  1
  Tm  Tm1  1  0.489967  0.680746  0.904722  1
  Tm  Tm2  1  0.989038  0.820150  0.594749  1
  Tm  Tm3  1  0.511652  0.321437  0.094288  1
  Tm  Tm4  1  0.010887  0.179686  0.404970  1
  Tm  Tm5  1  0.510985  0.320168  0.406243  1
  Tm  Tm6  1  0.488847  0.680330  0.594657  1
  Th  Th7  1  0.011782  0.177491  0.093385  1
  Sc  Sc8  1  0.163923  0.504878  0.749975  1
  Sc  Sc9  1  0.835683  0.498422  0.250869  1
  Sc  Sc10  1  0.337942  0.002149  0.251239  1
  Sc  Sc11  1  0.662309  0.995962  0.749852  1
  Sc  Sc12  1  0.329139  0.172220  0.624751  1
  Sc  Sc13  1  0.669647  0.827159  0.376405  1
  Sc  Sc14  1  0.170705  0.672871  0.376764  1
  Sc  Sc15  1  0.667163  0.826486  0.124357  1
  Sc  Sc16  1  0.829737  0.327368  0.624674  1
  Sc  Sc17  1  0.329527  0.172856  0.875475  1
  Sc  Sc18  1  0.828720  0.327556  0.874726  1
  Sc  Sc19  1  0.171369  0.673081  0.123940  1
  Ga  Ga20  1  0.031306  0.115657  0.750046  1
  Ga  Ga21  1  0.968627  0.882363  0.250768  1
  Ga  Ga22  1  0.468677  0.616257  0.250275  1
  Ga  Ga23  1  0.531188  0.384107  0.750005  1
  Ga  Ga24  1  0.284373  0.870187  0.749650  1
  Ga  Ga25  1  0.712902  0.129398  0.251419  1
  Ga  Ga26  1  0.217284  0.371224  0.250991  1
  Ga  Ga27  1  0.784694  0.630032  0.750392  1
  Ga  Ga28  1  0.162643  0.466058  0.540537  1
  Ga  Ga29  1  0.837425  0.533566  0.459583  1
  Ga  Ga30  1  0.336817  0.965838  0.459410  1
  Ga  Ga31  1  0.835623  0.537981  0.039503  1
  Ga  Ga32  1  0.662670  0.033612  0.540494  1
  Ga  Ga33  1  0.164399  0.467674  0.958484  1
  Ga  Ga34  1  0.660608  0.034406  0.959053  1
  Ga  Ga35  1  0.342157  0.962296  0.039473  1
