# generated using pymatgen
data_U2MnF12
_symmetry_space_group_name_H-M   'P 1'
_cell_length_a   5.69258639
_cell_length_b   6.08151295
_cell_length_c   8.16226295
_cell_angle_alpha   95.22122144
_cell_angle_beta   90.68099205
_cell_angle_gamma   90.01491896
_symmetry_Int_Tables_number   1
_chemical_formula_structural   U2MnF12
_chemical_formula_sum   'U2 Mn1 F12'
_cell_volume   281.38117401
_cell_formula_units_Z   1
loop_
 _symmetry_equiv_pos_site_id
 _symmetry_equiv_pos_as_xyz
  1  'x, y, z'
loop_
 _atom_site_type_symbol
 _atom_site_label
 _atom_site_symmetry_multiplicity
 _atom_site_fract_x
 _atom_site_fract_y
 _atom_site_fract_z
 _atom_site_occupancy
  U  U0  1  0.000000  0.000000  0.000000  1
  U  U1  1  0.500000  0.500000  0.500000  1
  Mn  Mn2  1  0.500000  0.500000  0.000000  1
  F  F3  1  0.659165  0.794655  0.568806  1
  F  F4  1  0.204116  0.296213  0.053993  1
  F  F5  1  0.116393  0.991039  0.768511  1
  F  F6  1  0.615234  0.505382  0.242262  1
  F  F7  1  0.203280  0.659616  0.434834  1
  F  F8  1  0.703621  0.201328  0.945496  1
  F  F9  1  0.883607  0.008961  0.231489  1
  F  F10  1  0.384766  0.494618  0.757738  1
  F  F11  1  0.796720  0.340384  0.565166  1
  F  F12  1  0.296379  0.798672  0.054504  1
  F  F13  1  0.340835  0.205345  0.431194  1
  F  F14  1  0.795884  0.703787  0.946007  1
