# generated using pymatgen
data_Nd6Co15Ni(P6W)2
_symmetry_space_group_name_H-M   'P 1'
_cell_length_a   3.79263800
_cell_length_b   10.70571100
_cell_length_c   12.44123700
_cell_angle_alpha   90.00000000
_cell_angle_beta   90.00000000
_cell_angle_gamma   90.00000000
_symmetry_Int_Tables_number   1
_chemical_formula_structural   Nd6Co15Ni(P6W)2
_chemical_formula_sum   'Nd6 Co15 Ni1 P12 W2'
_cell_volume   505.15013203
_cell_formula_units_Z   1
loop_
 _symmetry_equiv_pos_site_id
 _symmetry_equiv_pos_as_xyz
  1  'x, y, z'
loop_
 _atom_site_type_symbol
 _atom_site_label
 _atom_site_symmetry_multiplicity
 _atom_site_fract_x
 _atom_site_fract_y
 _atom_site_fract_z
 _atom_site_occupancy
  Nd  Nd0  1  0.000000  0.500000  0.520801  1
  Nd  Nd1  1  0.500000  0.000000  0.477029  1
  Nd  Nd2  1  0.500000  0.819029  0.205215  1
  Nd  Nd3  1  0.500000  0.180971  0.205215  1
  Nd  Nd4  1  0.000000  0.682678  0.795954  1
  Nd  Nd5  1  0.000000  0.317322  0.795954  1
  Co  Co6  1  0.000000  0.000000  0.297307  1
  Co  Co7  1  0.000000  0.500000  0.988306  1
  Co  Co8  1  0.500000  0.000000  0.011889  1
  Co  Co9  1  0.500000  0.332530  0.991982  1
  Co  Co10  1  0.500000  0.667470  0.991982  1
  Co  Co11  1  0.000000  0.167260  0.008099  1
  Co  Co12  1  0.000000  0.832740  0.008099  1
  Co  Co13  1  0.500000  0.295806  0.431022  1
  Co  Co14  1  0.500000  0.704194  0.431022  1
  Co  Co15  1  0.000000  0.204231  0.568932  1
  Co  Co16  1  0.000000  0.795769  0.568932  1
  Co  Co17  1  0.500000  0.880631  0.709742  1
  Co  Co18  1  0.500000  0.119369  0.709742  1
  Co  Co19  1  0.000000  0.619240  0.290256  1
  Co  Co20  1  0.000000  0.380760  0.290256  1
  Ni  Ni21  1  0.500000  0.500000  0.702601  1
  P  P22  1  0.500000  0.500000  0.886519  1
  P  P23  1  0.000000  0.000000  0.115071  1
  P  P24  1  0.500000  0.500000  0.344291  1
  P  P25  1  0.000000  0.000000  0.655156  1
  P  P26  1  0.500000  0.305629  0.613553  1
  P  P27  1  0.500000  0.694371  0.613553  1
  P  P28  1  0.000000  0.193127  0.385540  1
  P  P29  1  0.000000  0.806873  0.385540  1
  P  P30  1  0.500000  0.846648  0.895426  1
  P  P31  1  0.500000  0.153352  0.895426  1
  P  P32  1  0.000000  0.654093  0.105091  1
  P  P33  1  0.000000  0.345907  0.105091  1
  W  W34  1  0.500000  0.500000  0.153359  1
  W  W35  1  0.000000  0.000000  0.846046  1
