# generated using pymatgen
data_Dy8Sc12Ga15Si
_symmetry_space_group_name_H-M   'P 1'
_cell_length_a   7.28796682
_cell_length_b   7.50987095
_cell_length_c   14.50028500
_cell_angle_alpha   90.00000000
_cell_angle_beta   90.00000000
_cell_angle_gamma   90.08176370
_symmetry_Int_Tables_number   1
_chemical_formula_structural   Dy8Sc12Ga15Si
_chemical_formula_sum   'Dy8 Sc12 Ga15 Si1'
_cell_volume   793.62429969
_cell_formula_units_Z   1
loop_
 _symmetry_equiv_pos_site_id
 _symmetry_equiv_pos_as_xyz
  1  'x, y, z'
loop_
 _atom_site_type_symbol
 _atom_site_label
 _atom_site_symmetry_multiplicity
 _atom_site_fract_x
 _atom_site_fract_y
 _atom_site_fract_z
 _atom_site_occupancy
  Dy  Dy0  1  0.012017  0.176917  0.096135  1
  Dy  Dy1  1  0.986539  0.821747  0.903182  1
  Dy  Dy2  1  0.488664  0.676804  0.903467  1
  Dy  Dy3  1  0.986539  0.821747  0.596818  1
  Dy  Dy4  1  0.512133  0.322968  0.095793  1
  Dy  Dy5  1  0.012017  0.176917  0.403865  1
  Dy  Dy6  1  0.512133  0.322968  0.404207  1
  Dy  Dy7  1  0.488664  0.676804  0.596533  1
  Sc  Sc8  1  0.159845  0.503333  0.750000  1
  Sc  Sc9  1  0.837946  0.497104  0.250000  1
  Sc  Sc10  1  0.338348  0.002891  0.250000  1
  Sc  Sc11  1  0.662534  0.994972  0.750000  1
  Sc  Sc12  1  0.330970  0.174878  0.623633  1
  Sc  Sc13  1  0.669828  0.825333  0.375908  1
  Sc  Sc14  1  0.169824  0.674592  0.375637  1
  Sc  Sc15  1  0.669828  0.825333  0.124092  1
  Sc  Sc16  1  0.829679  0.327121  0.623914  1
  Sc  Sc17  1  0.330970  0.174878  0.876367  1
  Sc  Sc18  1  0.829679  0.327121  0.876086  1
  Sc  Sc19  1  0.169824  0.674592  0.124363  1
  Ga  Ga20  1  0.031931  0.118602  0.750000  1
  Ga  Ga21  1  0.967750  0.881868  0.250000  1
  Ga  Ga22  1  0.467721  0.618182  0.250000  1
  Ga  Ga23  1  0.533195  0.385617  0.750000  1
  Ga  Ga24  1  0.286264  0.873079  0.750000  1
  Ga  Ga25  1  0.714628  0.126955  0.250000  1
  Ga  Ga26  1  0.214715  0.372790  0.250000  1
  Ga  Ga27  1  0.159388  0.464965  0.540212  1
  Ga  Ga28  1  0.840591  0.535035  0.460144  1
  Ga  Ga29  1  0.340340  0.964431  0.460278  1
  Ga  Ga30  1  0.840591  0.535035  0.039856  1
  Ga  Ga31  1  0.660015  0.035296  0.540396  1
  Ga  Ga32  1  0.159388  0.464965  0.959788  1
  Ga  Ga33  1  0.660015  0.035296  0.959604  1
  Ga  Ga34  1  0.340340  0.964431  0.039722  1
  Si  Si35  1  0.785145  0.624429  0.750000  1
