# generated using pymatgen
data_Lu2ScB2Ir5
_symmetry_space_group_name_H-M   'P 1'
_cell_length_a   3.14899100
_cell_length_b   9.70598000
_cell_length_c   9.70598000
_cell_angle_alpha   90.00000000
_cell_angle_beta   90.00000000
_cell_angle_gamma   90.00000000
_symmetry_Int_Tables_number   1
_chemical_formula_structural   Lu2ScB2Ir5
_chemical_formula_sum   'Lu4 Sc2 B4 Ir10'
_cell_volume   296.65399654
_cell_formula_units_Z   2
loop_
 _symmetry_equiv_pos_site_id
 _symmetry_equiv_pos_as_xyz
  1  'x, y, z'
loop_
 _atom_site_type_symbol
 _atom_site_label
 _atom_site_symmetry_multiplicity
 _atom_site_fract_x
 _atom_site_fract_y
 _atom_site_fract_z
 _atom_site_occupancy
  Lu  Lu0  1  0.000000  0.176540  0.676540  1
  Lu  Lu1  1  0.000000  0.823460  0.323460  1
  Lu  Lu2  1  0.000000  0.323460  0.176540  1
  Lu  Lu3  1  0.000000  0.676540  0.823460  1
  Sc  Sc4  1  0.000000  0.000000  0.000000  1
  Sc  Sc5  1  0.000000  0.500000  0.500000  1
  B  B6  1  0.000000  0.620914  0.120914  1
  B  B7  1  0.000000  0.379086  0.879086  1
  B  B8  1  0.000000  0.879086  0.620914  1
  B  B9  1  0.000000  0.120914  0.379086  1
  Ir  Ir10  1  0.500000  0.069600  0.224176  1
  Ir  Ir11  1  0.500000  0.930400  0.775824  1
  Ir  Ir12  1  0.500000  0.775824  0.069600  1
  Ir  Ir13  1  0.500000  0.430400  0.724176  1
  Ir  Ir14  1  0.500000  0.224176  0.930400  1
  Ir  Ir15  1  0.500000  0.569600  0.275824  1
  Ir  Ir16  1  0.500000  0.724176  0.569600  1
  Ir  Ir17  1  0.500000  0.275824  0.430400  1
  Ir  Ir18  1  0.500000  0.000000  0.500000  1
  Ir  Ir19  1  0.500000  0.500000  0.000000  1
