# generated using pymatgen
data_YNp3(WN2)4
_symmetry_space_group_name_H-M   'P 1'
_cell_length_a   3.18381700
_cell_length_b   5.62783830
_cell_length_c   10.86421355
_cell_angle_alpha   89.86164080
_cell_angle_beta   90.00000000
_cell_angle_gamma   90.00000000
_symmetry_Int_Tables_number   1
_chemical_formula_structural   YNp3(WN2)4
_chemical_formula_sum   'Y1 Np3 W4 N8'
_cell_volume   194.66448954
_cell_formula_units_Z   1
loop_
 _symmetry_equiv_pos_site_id
 _symmetry_equiv_pos_as_xyz
  1  'x, y, z'
loop_
 _atom_site_type_symbol
 _atom_site_label
 _atom_site_symmetry_multiplicity
 _atom_site_fract_x
 _atom_site_fract_y
 _atom_site_fract_z
 _atom_site_occupancy
  Y  Y0  1  0.750000  0.425733  0.355078  1
  Np  Np1  1  0.250000  0.074395  0.856895  1
  Np  Np2  1  0.250000  0.569801  0.641751  1
  Np  Np3  1  0.750000  0.925934  0.143256  1
  W  W4  1  0.250000  0.431209  0.103729  1
  W  W5  1  0.250000  0.935096  0.401445  1
  W  W6  1  0.750000  0.568331  0.897550  1
  W  W7  1  0.750000  0.066476  0.601839  1
  N  N8  1  0.250000  0.162951  0.245720  1
  N  N9  1  0.250000  0.671674  0.254274  1
  N  N10  1  0.750000  0.832411  0.754164  1
  N  N11  1  0.750000  0.333410  0.745252  1
  N  N12  1  0.250000  0.753033  0.995036  1
  N  N13  1  0.250000  0.257801  0.503977  1
  N  N14  1  0.750000  0.245574  0.004903  1
  N  N15  1  0.750000  0.746169  0.495131  1
