# generated using pymatgen
data_Pr10Al9Si11
_symmetry_space_group_name_H-M   'P 1'
_cell_length_a   4.24273875
_cell_length_b   4.26267410
_cell_length_c   36.36374800
_cell_angle_alpha   86.63989244
_cell_angle_beta   86.65560557
_cell_angle_gamma   90.00000030
_symmetry_Int_Tables_number   1
_chemical_formula_structural   Pr10Al9Si11
_chemical_formula_sum   'Pr10 Al9 Si11'
_cell_volume   655.40082715
_cell_formula_units_Z   1
loop_
 _symmetry_equiv_pos_site_id
 _symmetry_equiv_pos_as_xyz
  1  'x, y, z'
loop_
 _atom_site_type_symbol
 _atom_site_label
 _atom_site_symmetry_multiplicity
 _atom_site_fract_x
 _atom_site_fract_y
 _atom_site_fract_z
 _atom_site_occupancy
  Pr  Pr0  1  0.951675  0.451009  0.097489  1
  Pr  Pr1  1  0.351501  0.850959  0.298456  1
  Pr  Pr2  1  0.750549  0.250042  0.499763  1
  Pr  Pr3  1  0.149301  0.649071  0.701119  1
  Pr  Pr4  1  0.548719  0.048431  0.903261  1
  Pr  Pr5  1  0.000783  0.001143  0.997573  1
  Pr  Pr6  1  0.400579  0.400724  0.197759  1
  Pr  Pr7  1  0.800701  0.801010  0.398823  1
  Pr  Pr8  1  0.199501  0.199299  0.600377  1
  Pr  Pr9  1  0.599073  0.599644  0.801621  1
  Al  Al10  1  0.468868  0.967977  0.063936  1
  Al  Al11  1  0.868690  0.367568  0.264829  1
  Al  Al12  1  0.268163  0.767093  0.465853  1
  Al  Al13  1  0.666567  0.166041  0.667234  1
  Al  Al14  1  0.066756  0.565888  0.868093  1
  Al  Al15  1  0.917503  0.917769  0.164371  1
  Al  Al16  1  0.317592  0.318061  0.365304  1
  Al  Al17  1  0.716702  0.716623  0.566735  1
  Al  Al18  1  0.116159  0.116655  0.767976  1
  Si  Si19  1  0.516824  0.517320  0.966088  1
  Si  Si20  1  0.434106  0.933728  0.130879  1
  Si  Si21  1  0.834226  0.333891  0.331896  1
  Si  Si22  1  0.233481  0.733062  0.533076  1
  Si  Si23  1  0.632850  0.132482  0.734338  1
  Si  Si24  1  0.032313  0.532520  0.934861  1
  Si  Si25  1  0.483688  0.484695  0.030971  1
  Si  Si26  1  0.883302  0.884484  0.231472  1
  Si  Si27  1  0.283102  0.284221  0.432435  1
  Si  Si28  1  0.682171  0.683091  0.633925  1
  Si  Si29  1  0.081750  0.082693  0.835089  1
