# generated using pymatgen
data_ErTh4Ir2Os
_symmetry_space_group_name_H-M   'P 1'
_cell_length_a   11.28618900
_cell_length_b   11.28618900
_cell_length_c   6.36924300
_cell_angle_alpha   90.00000000
_cell_angle_beta   90.00000000
_cell_angle_gamma   90.00000000
_symmetry_Int_Tables_number   1
_chemical_formula_structural   ErTh4Ir2Os
_chemical_formula_sum   'Er4 Th16 Ir8 Os4'
_cell_volume   811.30183066
_cell_formula_units_Z   4
loop_
 _symmetry_equiv_pos_site_id
 _symmetry_equiv_pos_as_xyz
  1  'x, y, z'
loop_
 _atom_site_type_symbol
 _atom_site_label
 _atom_site_symmetry_multiplicity
 _atom_site_fract_x
 _atom_site_fract_y
 _atom_site_fract_z
 _atom_site_occupancy
  Er  Er0  1  0.000000  0.000000  0.500000  1
  Er  Er1  1  0.000000  0.000000  0.000000  1
  Er  Er2  1  0.500000  0.500000  0.000000  1
  Er  Er3  1  0.500000  0.500000  0.500000  1
  Th  Th4  1  0.289285  0.088669  0.379840  1
  Th  Th5  1  0.289285  0.911331  0.879840  1
  Th  Th6  1  0.710715  0.088669  0.879840  1
  Th  Th7  1  0.710715  0.911331  0.379840  1
  Th  Th8  1  0.588669  0.789285  0.879840  1
  Th  Th9  1  0.588669  0.210715  0.379840  1
  Th  Th10  1  0.411331  0.789285  0.379840  1
  Th  Th11  1  0.411331  0.210715  0.879840  1
  Th  Th12  1  0.210715  0.411331  0.620160  1
  Th  Th13  1  0.210715  0.588669  0.120160  1
  Th  Th14  1  0.789285  0.411331  0.120160  1
  Th  Th15  1  0.789285  0.588669  0.620160  1
  Th  Th16  1  0.911331  0.710715  0.120160  1
  Th  Th17  1  0.911331  0.289285  0.620160  1
  Th  Th18  1  0.088669  0.710715  0.620160  1
  Th  Th19  1  0.088669  0.289285  0.120160  1
  Ir  Ir20  1  0.846369  0.153631  0.250000  1
  Ir  Ir21  1  0.846369  0.846369  0.750000  1
  Ir  Ir22  1  0.153631  0.153631  0.750000  1
  Ir  Ir23  1  0.153631  0.846369  0.250000  1
  Ir  Ir24  1  0.653631  0.346369  0.750000  1
  Ir  Ir25  1  0.653631  0.653631  0.250000  1
  Ir  Ir26  1  0.346369  0.346369  0.250000  1
  Ir  Ir27  1  0.346369  0.653631  0.750000  1
  Os  Os28  1  0.500000  0.000000  0.116299  1
  Os  Os29  1  0.500000  0.000000  0.616299  1
  Os  Os30  1  0.000000  0.500000  0.883701  1
  Os  Os31  1  0.000000  0.500000  0.383701  1
