# generated using pymatgen
data_La6Sb13Rh20
_symmetry_space_group_name_H-M   'P 1'
_cell_length_a   14.69211100
_cell_length_b   14.69211044
_cell_length_c   4.24156300
_cell_angle_alpha   90.00000000
_cell_angle_beta   90.00000000
_cell_angle_gamma   119.99999902
_symmetry_Int_Tables_number   1
_chemical_formula_structural   La6Sb13Rh20
_chemical_formula_sum   'La6 Sb13 Rh20'
_cell_volume   792.91191311
_cell_formula_units_Z   1
loop_
 _symmetry_equiv_pos_site_id
 _symmetry_equiv_pos_as_xyz
  1  'x, y, z'
loop_
 _atom_site_type_symbol
 _atom_site_label
 _atom_site_symmetry_multiplicity
 _atom_site_fract_x
 _atom_site_fract_y
 _atom_site_fract_z
 _atom_site_occupancy
  La  La0  1  0.716188  0.531470  0.000000  1
  La  La1  1  0.815282  0.283812  0.000000  1
  La  La2  1  0.468530  0.184718  0.000000  1
  La  La3  1  0.531856  0.810991  0.500000  1
  La  La4  1  0.279133  0.468144  0.500000  1
  La  La5  1  0.189009  0.720867  0.500000  1
  Sb  Sb6  1  0.865052  0.480034  0.500000  1
  Sb  Sb7  1  0.614982  0.134948  0.500000  1
  Sb  Sb8  1  0.519966  0.385018  0.500000  1
  Sb  Sb9  1  0.770280  0.727225  0.500000  1
  Sb  Sb10  1  0.956946  0.229720  0.500000  1
  Sb  Sb11  1  0.272775  0.043054  0.500000  1
  Sb  Sb12  1  0.389935  0.865677  0.000000  1
  Sb  Sb13  1  0.475743  0.610065  0.000000  1
  Sb  Sb14  1  0.134323  0.524257  0.000000  1
  Sb  Sb15  1  0.722955  0.947195  0.000000  1
  Sb  Sb16  1  0.224242  0.277045  0.000000  1
  Sb  Sb17  1  0.052805  0.775758  0.000000  1
  Sb  Sb18  1  0.000000  0.000000  0.000000  1
  Rh  Rh19  1  0.892589  0.798901  0.000000  1
  Rh  Rh20  1  0.906313  0.107411  0.000000  1
  Rh  Rh21  1  0.201099  0.093687  0.000000  1
  Rh  Rh22  1  0.666667  0.333333  0.500000  1
  Rh  Rh23  1  0.843345  0.930550  0.500000  1
  Rh  Rh24  1  0.087205  0.156655  0.500000  1
  Rh  Rh25  1  0.069450  0.912795  0.500000  1
  Rh  Rh26  1  0.333333  0.666667  0.000000  1
  Rh  Rh27  1  0.978720  0.566440  0.000000  1
  Rh  Rh28  1  0.587719  0.021280  0.000000  1
  Rh  Rh29  1  0.433560  0.412281  0.000000  1
  Rh  Rh30  1  0.928159  0.680363  0.500000  1
  Rh  Rh31  1  0.752204  0.071841  0.500000  1
  Rh  Rh32  1  0.319637  0.247796  0.500000  1
  Rh  Rh33  1  0.417405  0.981095  0.500000  1
  Rh  Rh34  1  0.563689  0.582595  0.500000  1
  Rh  Rh35  1  0.018905  0.436311  0.500000  1
  Rh  Rh36  1  0.672327  0.750030  0.000000  1
  Rh  Rh37  1  0.077703  0.327673  0.000000  1
  Rh  Rh38  1  0.249970  0.922297  0.000000  1
