# generated using pymatgen
data_Pr8Co3Si12Ir
_symmetry_space_group_name_H-M   'P 1'
_cell_length_a   8.17815400
_cell_length_b   8.17815576
_cell_length_c   8.56185500
_cell_angle_alpha   90.00000000
_cell_angle_beta   90.00000000
_cell_angle_gamma   120.00000905
_symmetry_Int_Tables_number   1
_chemical_formula_structural   Pr8Co3Si12Ir
_chemical_formula_sum   'Pr8 Co3 Si12 Ir1'
_cell_volume   495.91714473
_cell_formula_units_Z   1
loop_
 _symmetry_equiv_pos_site_id
 _symmetry_equiv_pos_as_xyz
  1  'x, y, z'
loop_
 _atom_site_type_symbol
 _atom_site_label
 _atom_site_symmetry_multiplicity
 _atom_site_fract_x
 _atom_site_fract_y
 _atom_site_fract_z
 _atom_site_occupancy
  Pr  Pr0  1  0.499333  0.500667  0.750617  1
  Pr  Pr1  1  0.499941  0.500059  0.249654  1
  Pr  Pr2  1  0.001332  0.500667  0.750617  1
  Pr  Pr3  1  0.000118  0.500059  0.249654  1
  Pr  Pr4  1  0.499333  0.998668  0.750617  1
  Pr  Pr5  1  0.499941  0.999882  0.249654  1
  Pr  Pr6  1  0.000000  0.000000  0.751478  1
  Pr  Pr7  1  0.000000  0.000000  0.248537  1
  Co  Co8  1  0.666667  0.333333  0.996224  1
  Co  Co9  1  0.333333  0.666667  0.004221  1
  Co  Co10  1  0.333333  0.666667  0.495551  1
  Si  Si11  1  0.828565  0.171435  0.000565  1
  Si  Si12  1  0.171148  0.828852  0.999528  1
  Si  Si13  1  0.342871  0.171435  0.000565  1
  Si  Si14  1  0.171963  0.828037  0.500833  1
  Si  Si15  1  0.657702  0.828852  0.999528  1
  Si  Si16  1  0.834107  0.165893  0.499093  1
  Si  Si17  1  0.828565  0.657129  0.000565  1
  Si  Si18  1  0.656075  0.828037  0.500833  1
  Si  Si19  1  0.171148  0.342298  0.999528  1
  Si  Si20  1  0.331786  0.165893  0.499093  1
  Si  Si21  1  0.171963  0.343925  0.500833  1
  Si  Si22  1  0.834107  0.668214  0.499093  1
  Ir  Ir23  1  0.666667  0.333333  0.503120  1
