# generated using pymatgen
data_PrSiPdPt2
_symmetry_space_group_name_H-M   'P 1'
_cell_length_a   4.19977100
_cell_length_b   4.12626400
_cell_length_c   5.42141500
_cell_angle_alpha   90.00000000
_cell_angle_beta   90.00000000
_cell_angle_gamma   90.00000000
_symmetry_Int_Tables_number   1
_chemical_formula_structural   PrSiPdPt2
_chemical_formula_sum   'Pr1 Si1 Pd1 Pt2'
_cell_volume   93.94967331
_cell_formula_units_Z   1
loop_
 _symmetry_equiv_pos_site_id
 _symmetry_equiv_pos_as_xyz
  1  'x, y, z'
loop_
 _atom_site_type_symbol
 _atom_site_label
 _atom_site_symmetry_multiplicity
 _atom_site_fract_x
 _atom_site_fract_y
 _atom_site_fract_z
 _atom_site_occupancy
  Pr  Pr0  1  0.500000  0.500000  0.691791  1
  Si  Si1  1  0.000000  0.000000  0.973474  1
  Pd  Pd2  1  0.500000  0.000000  0.198368  1
  Pt  Pt3  1  0.000000  0.500000  0.196232  1
  Pt  Pt4  1  0.000000  0.000000  0.548337  1
