# generated using pymatgen
data_La12Nd2Ni5Rh
_symmetry_space_group_name_H-M   'P 1'
_cell_length_a   6.47214847
_cell_length_b   10.24932606
_cell_length_c   10.24932500
_cell_angle_alpha   119.96645881
_cell_angle_beta   90.02187494
_cell_angle_gamma   89.97812801
_symmetry_Int_Tables_number   1
_chemical_formula_structural   La12Nd2Ni5Rh
_chemical_formula_sum   'La12 Nd2 Ni5 Rh1'
_cell_volume   589.00139041
_cell_formula_units_Z   1
loop_
 _symmetry_equiv_pos_site_id
 _symmetry_equiv_pos_as_xyz
  1  'x, y, z'
loop_
 _atom_site_type_symbol
 _atom_site_label
 _atom_site_symmetry_multiplicity
 _atom_site_fract_x
 _atom_site_fract_y
 _atom_site_fract_z
 _atom_site_occupancy
  La  La0  1  0.252724  0.128005  0.871995  1
  La  La1  1  0.250798  0.745478  0.871916  1
  La  La2  1  0.250798  0.128084  0.254522  1
  La  La3  1  0.749248  0.873262  0.126738  1
  La  La4  1  0.752266  0.255313  0.127006  1
  La  La5  1  0.752266  0.872994  0.744687  1
  La  La6  1  0.430015  0.538987  0.461013  1
  La  La7  1  0.432981  0.919468  0.460943  1
  La  La8  1  0.432981  0.539057  0.080532  1
  La  La9  1  0.928747  0.459463  0.540537  1
  La  La10  1  0.929433  0.078662  0.538688  1
  La  La11  1  0.929433  0.461312  0.921338  1
  Nd  Nd12  1  0.464226  0.333133  0.666867  1
  Nd  Nd13  1  0.965221  0.665490  0.334510  1
  Ni  Ni14  1  0.195501  0.374639  0.188021  1
  Ni  Ni15  1  0.195501  0.811979  0.625361  1
  Ni  Ni16  1  0.695030  0.187527  0.812473  1
  Ni  Ni17  1  0.697464  0.625589  0.812357  1
  Ni  Ni18  1  0.697464  0.187643  0.374411  1
  Rh  Rh19  1  0.199898  0.813914  0.186086  1
