# generated using pymatgen
data_Dy4Ho3Tm3Ru4
_symmetry_space_group_name_H-M   'P 1'
_cell_length_a   6.31170091
_cell_length_b   7.26817788
_cell_length_c   8.43007344
_cell_angle_alpha   96.79171136
_cell_angle_beta   112.02439308
_cell_angle_gamma   89.89799347
_symmetry_Int_Tables_number   1
_chemical_formula_structural   Dy4Ho3Tm3Ru4
_chemical_formula_sum   'Dy4 Ho3 Tm3 Ru4'
_cell_volume   355.60776314
_cell_formula_units_Z   1
loop_
 _symmetry_equiv_pos_site_id
 _symmetry_equiv_pos_as_xyz
  1  'x, y, z'
loop_
 _atom_site_type_symbol
 _atom_site_label
 _atom_site_symmetry_multiplicity
 _atom_site_fract_x
 _atom_site_fract_y
 _atom_site_fract_z
 _atom_site_occupancy
  Dy  Dy0  1  0.790570  0.083786  0.813584  1
  Dy  Dy1  1  0.977361  0.416165  0.186182  1
  Dy  Dy2  1  0.208841  0.915773  0.186544  1
  Dy  Dy3  1  0.023345  0.584283  0.813848  1
  Ho  Ho4  1  0.206619  0.184774  0.566093  1
  Ho  Ho5  1  0.640052  0.315524  0.434402  1
  Ho  Ho6  1  0.793957  0.815083  0.434115  1
  Tm  Tm7  1  0.360106  0.684382  0.566056  1
  Tm  Tm8  1  0.419900  0.249516  0.999828  1
  Tm  Tm9  1  0.579814  0.750401  0.999649  1
  Ru  Ru10  1  0.601807  0.425233  0.780253  1
  Ru  Ru11  1  0.821655  0.076374  0.218941  1
  Ru  Ru12  1  0.397289  0.575641  0.220108  1
  Ru  Ru13  1  0.178683  0.923062  0.780399  1
