# generated using pymatgen
data_Er3Lu8ThCo4
_symmetry_space_group_name_H-M   'P 1'
_cell_length_a   6.14631410
_cell_length_b   6.86538360
_cell_length_c   9.28384100
_cell_angle_alpha   90.00000000
_cell_angle_beta   90.00000000
_cell_angle_gamma   90.97388530
_symmetry_Int_Tables_number   1
_chemical_formula_structural   Er3Lu8ThCo4
_chemical_formula_sum   'Er3 Lu8 Th1 Co4'
_cell_volume   391.69182946
_cell_formula_units_Z   1
loop_
 _symmetry_equiv_pos_site_id
 _symmetry_equiv_pos_as_xyz
  1  'x, y, z'
loop_
 _atom_site_type_symbol
 _atom_site_label
 _atom_site_symmetry_multiplicity
 _atom_site_fract_x
 _atom_site_fract_y
 _atom_site_fract_z
 _atom_site_occupancy
  Er  Er0  1  0.636922  0.040055  0.250000  1
  Er  Er1  1  0.139506  0.457998  0.750000  1
  Er  Er2  1  0.360069  0.957768  0.750000  1
  Lu  Lu3  1  0.328126  0.675098  0.065978  1
  Lu  Lu4  1  0.174287  0.174509  0.432895  1
  Lu  Lu5  1  0.675322  0.323600  0.569169  1
  Lu  Lu6  1  0.823292  0.828233  0.930063  1
  Lu  Lu7  1  0.675322  0.323600  0.930831  1
  Lu  Lu8  1  0.823292  0.828233  0.569937  1
  Lu  Lu9  1  0.328126  0.675098  0.434022  1
  Lu  Lu10  1  0.174287  0.174509  0.067105  1
  Th  Th11  1  0.850970  0.552282  0.250000  1
  Co  Co12  1  0.045748  0.873001  0.250000  1
  Co  Co13  1  0.463701  0.387277  0.250000  1
  Co  Co14  1  0.954130  0.115475  0.750000  1
  Co  Co15  1  0.546902  0.613262  0.750000  1
