# generated using pymatgen
data_Li3Sc6Ir2Rh
_symmetry_space_group_name_H-M   'P 1'
_cell_length_a   4.65428600
_cell_length_b   6.54253300
_cell_length_c   13.85007500
_cell_angle_alpha   90.00000000
_cell_angle_beta   89.99965804
_cell_angle_gamma   90.00000000
_symmetry_Int_Tables_number   1
_chemical_formula_structural   Li3Sc6Ir2Rh
_chemical_formula_sum   'Li6 Sc12 Ir4 Rh2'
_cell_volume   421.74613730
_cell_formula_units_Z   2
loop_
 _symmetry_equiv_pos_site_id
 _symmetry_equiv_pos_as_xyz
  1  'x, y, z'
loop_
 _atom_site_type_symbol
 _atom_site_label
 _atom_site_symmetry_multiplicity
 _atom_site_fract_x
 _atom_site_fract_y
 _atom_site_fract_z
 _atom_site_occupancy
  Li  Li0  1  0.000001  0.000000  0.999683  1
  Li  Li1  1  0.499304  0.500000  0.166972  1
  Li  Li2  1  0.999308  0.000000  0.333575  1
  Li  Li3  1  0.499998  0.500000  0.499941  1
  Li  Li4  1  0.000702  0.000000  0.666743  1
  Li  Li5  1  0.500697  0.500000  0.833084  1
  Sc  Sc6  1  0.500002  0.248618  0.999455  1
  Sc  Sc7  1  0.500002  0.751383  0.999455  1
  Sc  Sc8  1  0.999493  0.251375  0.167202  1
  Sc  Sc9  1  0.999493  0.748626  0.167202  1
  Sc  Sc10  1  0.499494  0.250488  0.333838  1
  Sc  Sc11  1  0.499494  0.749513  0.333838  1
  Sc  Sc12  1  0.999999  0.250283  0.499953  1
  Sc  Sc13  1  0.999999  0.749718  0.499953  1
  Sc  Sc14  1  0.500507  0.249718  0.666720  1
  Sc  Sc15  1  0.500507  0.750283  0.666720  1
  Sc  Sc16  1  0.000511  0.249506  0.832827  1
  Sc  Sc17  1  0.000511  0.750495  0.832827  1
  Ir  Ir18  1  0.999482  0.500000  0.332606  1
  Ir  Ir19  1  0.499996  0.000000  0.499747  1
  Ir  Ir20  1  0.000518  0.500000  0.666927  1
  Ir  Ir21  1  0.500519  0.000000  0.834061  1
  Rh  Rh22  1  0.000004  0.500000  0.000396  1
  Rh  Rh23  1  0.499456  0.000000  0.166278  1
