# generated using pymatgen
data_Pr2Nd3PdRuO12
_symmetry_space_group_name_H-M   'P 1'
_cell_length_a   7.13346626
_cell_length_b   7.13464191
_cell_length_c   7.59629658
_cell_angle_alpha   74.48241110
_cell_angle_beta   74.48055630
_cell_angle_gamma   50.57612049
_symmetry_Int_Tables_number   1
_chemical_formula_structural   Pr2Nd3PdRuO12
_chemical_formula_sum   'Pr2 Nd3 Pd1 Ru1 O12'
_cell_volume   285.27112814
_cell_formula_units_Z   1
loop_
 _symmetry_equiv_pos_site_id
 _symmetry_equiv_pos_as_xyz
  1  'x, y, z'
loop_
 _atom_site_type_symbol
 _atom_site_label
 _atom_site_symmetry_multiplicity
 _atom_site_fract_x
 _atom_site_fract_y
 _atom_site_fract_z
 _atom_site_occupancy
  Pr  Pr0  1  0.308769  0.302007  0.835562  1
  Pr  Pr1  1  0.001975  0.998258  0.499671  1
  Nd  Nd2  1  0.310195  0.296433  0.357486  1
  Nd  Nd3  1  0.703510  0.689880  0.641542  1
  Nd  Nd4  1  0.697790  0.691106  0.164895  1
  Pd  Pd5  1  0.747873  0.251998  0.000334  1
  Ru  Ru6  1  0.239058  0.760958  0.000366  1
  O  O7  1  0.099127  0.596313  0.573056  1
  O  O8  1  0.001713  0.998000  0.173717  1
  O  O9  1  0.404822  0.899878  0.425303  1
  O  O10  1  0.492132  0.508306  0.176204  1
  O  O11  1  0.101644  0.582896  0.080719  1
  O  O12  1  0.908301  0.402700  0.421959  1
  O  O13  1  0.002244  0.998496  0.826147  1
  O  O14  1  0.598579  0.090672  0.576219  1
  O  O15  1  0.491880  0.508444  0.824434  1
  O  O16  1  0.571253  0.096520  0.083431  1
  O  O17  1  0.418814  0.896098  0.920623  1
  O  O18  1  0.900321  0.431034  0.918330  1
