# generated using pymatgen
data_Lu12Al(TcSn)2
_symmetry_space_group_name_H-M   'P 1'
_cell_length_a   8.35694212
_cell_length_b   8.35708892
_cell_length_c   8.35694400
_cell_angle_alpha   110.05783285
_cell_angle_beta   110.05001131
_cell_angle_gamma   108.31130126
_symmetry_Int_Tables_number   1
_chemical_formula_structural   Lu12Al(TcSn)2
_chemical_formula_sum   'Lu12 Al1 Tc2 Sn2'
_cell_volume   449.15750191
_cell_formula_units_Z   1
loop_
 _symmetry_equiv_pos_site_id
 _symmetry_equiv_pos_as_xyz
  1  'x, y, z'
loop_
 _atom_site_type_symbol
 _atom_site_label
 _atom_site_symmetry_multiplicity
 _atom_site_fract_x
 _atom_site_fract_y
 _atom_site_fract_z
 _atom_site_occupancy
  Lu  Lu0  1  0.319840  0.319830  0.639665  1
  Lu  Lu1  1  0.680160  0.680170  0.360335  1
  Lu  Lu2  1  0.319837  0.680170  0.000012  1
  Lu  Lu3  1  0.680163  0.319830  0.999988  1
  Lu  Lu4  1  0.442210  0.194318  0.247902  1
  Lu  Lu5  1  0.557790  0.805682  0.752098  1
  Lu  Lu6  1  0.946417  0.194318  0.752108  1
  Lu  Lu7  1  0.194313  0.946400  0.752088  1
  Lu  Lu8  1  0.053583  0.805682  0.247892  1
  Lu  Lu9  1  0.805687  0.053600  0.247912  1
  Lu  Lu10  1  0.194307  0.442207  0.247900  1
  Lu  Lu11  1  0.805693  0.557793  0.752100  1
  Al  Al12  1  0.000000  0.000000  0.000000  1
  Tc  Tc13  1  0.338122  0.338119  0.999997  1
  Tc  Tc14  1  0.661878  0.661881  0.000003  1
  Sn  Sn15  1  0.500000  0.000000  0.500000  1
  Sn  Sn16  1  0.000000  0.500000  0.500000  1
