# generated using pymatgen
data_TbThCdSi2
_symmetry_space_group_name_H-M   'P 1'
_cell_length_a   7.31200600
_cell_length_b   7.38867300
_cell_length_c   4.23866200
_cell_angle_alpha   90.00000000
_cell_angle_beta   90.00000000
_cell_angle_gamma   90.00000000
_symmetry_Int_Tables_number   1
_chemical_formula_structural   TbThCdSi2
_chemical_formula_sum   'Tb2 Th2 Cd2 Si4'
_cell_volume   228.99804353
_cell_formula_units_Z   2
loop_
 _symmetry_equiv_pos_site_id
 _symmetry_equiv_pos_as_xyz
  1  'x, y, z'
loop_
 _atom_site_type_symbol
 _atom_site_label
 _atom_site_symmetry_multiplicity
 _atom_site_fract_x
 _atom_site_fract_y
 _atom_site_fract_z
 _atom_site_occupancy
  Tb  Tb0  1  0.178769  0.681565  0.500001  1
  Tb  Tb1  1  0.678770  0.818437  0.500001  1
  Th  Th2  1  0.321519  0.178847  0.500001  1
  Th  Th3  1  0.821520  0.321153  0.500001  1
  Cd  Cd4  1  0.996965  0.988262  0.000000  1
  Cd  Cd5  1  0.496965  0.511738  0.000000  1
  Si  Si6  1  0.617456  0.107761  0.000000  1
  Si  Si7  1  0.117455  0.392239  0.000000  1
  Si  Si8  1  0.885290  0.619493  0.000000  1
  Si  Si9  1  0.385291  0.880507  0.000000  1
