# generated using pymatgen
data_Th4SnHgH8
_symmetry_space_group_name_H-M   'P 1'
_cell_length_a   6.37953145
_cell_length_b   6.37953218
_cell_length_c   6.37952995
_cell_angle_alpha   105.50490580
_cell_angle_beta   105.50492125
_cell_angle_gamma   117.73338758
_symmetry_Int_Tables_number   1
_chemical_formula_structural   Th4SnHgH8
_chemical_formula_sum   'Th4 Sn1 Hg1 H8'
_cell_volume   196.71007533
_cell_formula_units_Z   1
loop_
 _symmetry_equiv_pos_site_id
 _symmetry_equiv_pos_as_xyz
  1  'x, y, z'
loop_
 _atom_site_type_symbol
 _atom_site_label
 _atom_site_symmetry_multiplicity
 _atom_site_fract_x
 _atom_site_fract_y
 _atom_site_fract_z
 _atom_site_occupancy
  Th  Th0  1  0.839098  0.660902  0.500000  1
  Th  Th1  1  0.660902  0.160902  0.821804  1
  Th  Th2  1  0.160902  0.339098  0.500000  1
  Th  Th3  1  0.339098  0.839098  0.178196  1
  Sn  Sn4  1  0.250000  0.250000  0.000000  1
  Hg  Hg5  1  0.750000  0.750000  0.000000  1
  H  H6  1  0.222476  0.977220  0.500034  1
  H  H7  1  0.477186  0.722442  0.499966  1
  H  H8  1  0.722442  0.222476  0.245257  1
  H  H9  1  0.977220  0.477186  0.754743  1
  H  H10  1  0.277524  0.777558  0.754743  1
  H  H11  1  0.522780  0.277524  0.499966  1
  H  H12  1  0.022814  0.522780  0.245257  1
  H  H13  1  0.777558  0.022814  0.500034  1
