# generated using pymatgen
data_La9Tb(TcBi2)2
_symmetry_space_group_name_H-M   'P 1'
_cell_length_a   8.59376112
_cell_length_b   9.24273500
_cell_length_c   12.92302199
_cell_angle_alpha   90.00000000
_cell_angle_beta   89.58953073
_cell_angle_gamma   90.00000000
_symmetry_Int_Tables_number   1
_chemical_formula_structural   La9Tb(TcBi2)2
_chemical_formula_sum   'La18 Tb2 Tc4 Bi8'
_cell_volume   1026.44744358
_cell_formula_units_Z   2
loop_
 _symmetry_equiv_pos_site_id
 _symmetry_equiv_pos_as_xyz
  1  'x, y, z'
loop_
 _atom_site_type_symbol
 _atom_site_label
 _atom_site_symmetry_multiplicity
 _atom_site_fract_x
 _atom_site_fract_y
 _atom_site_fract_z
 _atom_site_occupancy
  La  La0  1  0.842609  0.750000  0.800961  1
  La  La1  1  0.157391  0.250000  0.199039  1
  La  La2  1  0.345096  0.250000  0.708702  1
  La  La3  1  0.654904  0.750000  0.291298  1
  La  La4  1  0.376610  0.750000  0.700057  1
  La  La5  1  0.623390  0.250000  0.299943  1
  La  La6  1  0.875596  0.250000  0.806277  1
  La  La7  1  0.124404  0.750000  0.193723  1
  La  La8  1  0.949479  0.750000  0.503663  1
  La  La9  1  0.050521  0.250000  0.496337  1
  La  La10  1  0.675770  0.031007  0.562920  1
  La  La11  1  0.324230  0.968993  0.437080  1
  La  La12  1  0.179756  0.969009  0.937406  1
  La  La13  1  0.324230  0.531007  0.437080  1
  La  La14  1  0.820244  0.030991  0.062594  1
  La  La15  1  0.675770  0.468993  0.562920  1
  La  La16  1  0.820244  0.469009  0.062594  1
  La  La17  1  0.179756  0.530991  0.937406  1
  Tb  Tb18  1  0.454664  0.250000  0.997757  1
  Tb  Tb19  1  0.545336  0.750000  0.002243  1
  Tc  Tc20  1  0.584094  0.750000  0.519538  1
  Tc  Tc21  1  0.415906  0.250000  0.480462  1
  Tc  Tc22  1  0.092760  0.250000  0.980550  1
  Tc  Tc23  1  0.907240  0.750000  0.019450  1
  Bi  Bi24  1  0.570944  0.492302  0.833976  1
  Bi  Bi25  1  0.429056  0.507698  0.166024  1
  Bi  Bi26  1  0.073270  0.506502  0.674537  1
  Bi  Bi27  1  0.429056  0.992302  0.166024  1
  Bi  Bi28  1  0.926730  0.493498  0.325463  1
  Bi  Bi29  1  0.570944  0.007698  0.833976  1
  Bi  Bi30  1  0.926730  0.006502  0.325463  1
  Bi  Bi31  1  0.073270  0.993498  0.674537  1
