# generated using pymatgen
data_PaTa(CoNi2)2
_symmetry_space_group_name_H-M   'P 1'
_cell_length_a   5.25365780
_cell_length_b   5.25365806
_cell_length_c   4.33495500
_cell_angle_alpha   90.00000000
_cell_angle_beta   90.00000000
_cell_angle_gamma   118.71722216
_symmetry_Int_Tables_number   1
_chemical_formula_structural   PaTa(CoNi2)2
_chemical_formula_sum   'Pa1 Ta1 Co2 Ni4'
_cell_volume   104.93216926
_cell_formula_units_Z   1
loop_
 _symmetry_equiv_pos_site_id
 _symmetry_equiv_pos_as_xyz
  1  'x, y, z'
loop_
 _atom_site_type_symbol
 _atom_site_label
 _atom_site_symmetry_multiplicity
 _atom_site_fract_x
 _atom_site_fract_y
 _atom_site_fract_z
 _atom_site_occupancy
  Pa  Pa0  1  0.334741  0.665259  0.000000  1
  Ta  Ta1  1  0.663085  0.336915  0.500000  1
  Co  Co2  1  0.839679  0.675731  0.000000  1
  Co  Co3  1  0.324269  0.160321  0.000000  1
  Ni  Ni4  1  0.838962  0.161038  0.000000  1
  Ni  Ni5  1  0.149759  0.306239  0.500000  1
  Ni  Ni6  1  0.693761  0.850241  0.500000  1
  Ni  Ni7  1  0.155505  0.844495  0.500000  1
