# generated using pymatgen
data_CsTc2Te7W4
_symmetry_space_group_name_H-M   'P 1'
_cell_length_a   10.45834265
_cell_length_b   10.42980908
_cell_length_c   10.42104966
_cell_angle_alpha   60.99490843
_cell_angle_beta   60.99265470
_cell_angle_gamma   60.88950010
_symmetry_Int_Tables_number   1
_chemical_formula_structural   CsTc2Te7W4
_chemical_formula_sum   'Cs2 Tc4 Te14 W8'
_cell_volume   821.14332475
_cell_formula_units_Z   2
loop_
 _symmetry_equiv_pos_site_id
 _symmetry_equiv_pos_as_xyz
  1  'x, y, z'
loop_
 _atom_site_type_symbol
 _atom_site_label
 _atom_site_symmetry_multiplicity
 _atom_site_fract_x
 _atom_site_fract_y
 _atom_site_fract_z
 _atom_site_occupancy
  Cs  Cs0  1  0.620193  0.620343  0.620857  1
  Cs  Cs1  1  0.380837  0.379572  0.378599  1
  Tc  Tc2  1  0.714083  0.877600  0.006056  1
  Tc  Tc3  1  0.006951  0.712142  0.879317  1
  Tc  Tc4  1  0.878366  0.005404  0.713777  1
  Tc  Tc5  1  0.286177  0.122965  0.995226  1
  Te  Te6  1  0.426754  0.816161  0.159278  1
  Te  Te7  1  0.167422  0.424297  0.809151  1
  Te  Te8  1  0.807308  0.164942  0.428758  1
  Te  Te9  1  0.578197  0.181071  0.838616  1
  Te  Te10  1  0.837155  0.578718  0.182572  1
  Te  Te11  1  0.181699  0.836675  0.580274  1
  Te  Te12  1  0.631035  0.976835  0.248940  1
  Te  Te13  1  0.248200  0.631488  0.979194  1
  Te  Te14  1  0.976581  0.248619  0.632001  1
  Te  Te15  1  0.367485  0.021475  0.750084  1
  Te  Te16  1  0.748973  0.368437  0.017465  1
  Te  Te17  1  0.021670  0.747415  0.366615  1
  Te  Te18  1  0.782652  0.778720  0.780005  1
  Te  Te19  1  0.225373  0.223701  0.221680  1
  W  W20  1  0.995634  0.284329  0.122489  1
  W  W21  1  0.120101  0.997925  0.284955  1
  W  W22  1  0.943279  0.812021  0.108503  1
  W  W23  1  0.105884  0.944062  0.813643  1
  W  W24  1  0.810891  0.107169  0.945245  1
  W  W25  1  0.056207  0.187511  0.893665  1
  W  W26  1  0.892981  0.055760  0.188156  1
  W  W27  1  0.187911  0.894646  0.054880  1
