# generated using pymatgen
data_Nb3Al2CuC
_symmetry_space_group_name_H-M   'P 1'
_cell_length_a   8.32051134
_cell_length_b   8.32051153
_cell_length_c   8.32051000
_cell_angle_alpha   59.99999814
_cell_angle_beta   59.99999737
_cell_angle_gamma   59.99999673
_symmetry_Int_Tables_number   1
_chemical_formula_structural   Nb3Al2CuC
_chemical_formula_sum   'Nb12 Al8 Cu4 C4'
_cell_volume   407.31927982
_cell_formula_units_Z   4
loop_
 _symmetry_equiv_pos_site_id
 _symmetry_equiv_pos_as_xyz
  1  'x, y, z'
loop_
 _atom_site_type_symbol
 _atom_site_label
 _atom_site_symmetry_multiplicity
 _atom_site_fract_x
 _atom_site_fract_y
 _atom_site_fract_z
 _atom_site_occupancy
  Nb  Nb0  1  0.566425  0.933575  0.566425  1
  Nb  Nb1  1  0.316425  0.683575  0.683575  1
  Nb  Nb2  1  0.683575  0.316425  0.316425  1
  Nb  Nb3  1  0.316425  0.683575  0.316425  1
  Nb  Nb4  1  0.683575  0.683575  0.316425  1
  Nb  Nb5  1  0.316425  0.316425  0.683575  1
  Nb  Nb6  1  0.566425  0.566425  0.933575  1
  Nb  Nb7  1  0.933575  0.566425  0.566425  1
  Nb  Nb8  1  0.566425  0.933575  0.933575  1
  Nb  Nb9  1  0.933575  0.933575  0.566425  1
  Nb  Nb10  1  0.683575  0.316425  0.683575  1
  Nb  Nb11  1  0.933575  0.566425  0.933575  1
  Al  Al12  1  0.916438  0.916438  0.916438  1
  Al  Al13  1  0.999313  0.333562  0.333562  1
  Al  Al14  1  0.333562  0.999313  0.333562  1
  Al  Al15  1  0.333562  0.333562  0.999313  1
  Al  Al16  1  0.916438  0.250687  0.916438  1
  Al  Al17  1  0.916438  0.916438  0.250687  1
  Al  Al18  1  0.250687  0.916438  0.916438  1
  Al  Al19  1  0.333562  0.333562  0.333562  1
  Cu  Cu20  1  0.125000  0.125000  0.125000  1
  Cu  Cu21  1  0.625000  0.125000  0.125000  1
  Cu  Cu22  1  0.125000  0.625000  0.125000  1
  Cu  Cu23  1  0.125000  0.125000  0.625000  1
  C  C24  1  0.625000  0.625000  0.625000  1
  C  C25  1  0.125000  0.625000  0.625000  1
  C  C26  1  0.625000  0.125000  0.625000  1
  C  C27  1  0.625000  0.625000  0.125000  1
