# generated using pymatgen
data_Sr2TeIrO8
_symmetry_space_group_name_H-M   'P 1'
_cell_length_a   5.13973800
_cell_length_b   5.66534900
_cell_length_c   13.09731600
_cell_angle_alpha   90.00000000
_cell_angle_beta   90.00000000
_cell_angle_gamma   90.00000000
_symmetry_Int_Tables_number   1
_chemical_formula_structural   Sr2TeIrO8
_chemical_formula_sum   'Sr4 Te2 Ir2 O16'
_cell_volume   381.37301114
_cell_formula_units_Z   2
loop_
 _symmetry_equiv_pos_site_id
 _symmetry_equiv_pos_as_xyz
  1  'x, y, z'
loop_
 _atom_site_type_symbol
 _atom_site_label
 _atom_site_symmetry_multiplicity
 _atom_site_fract_x
 _atom_site_fract_y
 _atom_site_fract_z
 _atom_site_occupancy
  Sr  Sr0  1  0.750000  0.000000  0.665700  1
  Sr  Sr1  1  0.250000  0.500000  0.834300  1
  Sr  Sr2  1  0.250000  0.000000  0.338082  1
  Sr  Sr3  1  0.750000  0.500000  0.161918  1
  Te  Te4  1  0.250000  0.500000  0.567302  1
  Te  Te5  1  0.750000  0.000000  0.932698  1
  Ir  Ir6  1  0.750000  0.500000  0.430006  1
  Ir  Ir7  1  0.250000  0.000000  0.069994  1
  O  O8  1  0.125560  0.287485  0.665715  1
  O  O9  1  0.625560  0.212515  0.834285  1
  O  O10  1  0.874440  0.787485  0.834285  1
  O  O11  1  0.374440  0.712515  0.665715  1
  O  O12  1  0.876106  0.707023  0.329491  1
  O  O13  1  0.376106  0.792977  0.170509  1
  O  O14  1  0.123894  0.207023  0.170509  1
  O  O15  1  0.623894  0.292977  0.329491  1
  O  O16  1  0.567259  0.310231  0.540203  1
  O  O17  1  0.067259  0.189769  0.959797  1
  O  O18  1  0.432741  0.810231  0.959797  1
  O  O19  1  0.932741  0.689769  0.540203  1
  O  O20  1  0.428801  0.686038  0.451219  1
  O  O21  1  0.928801  0.813962  0.048781  1
  O  O22  1  0.571199  0.186038  0.048781  1
  O  O23  1  0.071199  0.313962  0.451219  1
