# generated using pymatgen
data_ErTm3Cd2Si3Ge
_symmetry_space_group_name_H-M   'P 1'
_cell_length_a   7.13704827
_cell_length_b   7.13685358
_cell_length_c   4.14971800
_cell_angle_alpha   90.00000000
_cell_angle_beta   90.00000000
_cell_angle_gamma   90.05298712
_symmetry_Int_Tables_number   1
_chemical_formula_structural   ErTm3Cd2Si3Ge
_chemical_formula_sum   'Er1 Tm3 Cd2 Si3 Ge1'
_cell_volume   211.37022991
_cell_formula_units_Z   1
loop_
 _symmetry_equiv_pos_site_id
 _symmetry_equiv_pos_as_xyz
  1  'x, y, z'
loop_
 _atom_site_type_symbol
 _atom_site_label
 _atom_site_symmetry_multiplicity
 _atom_site_fract_x
 _atom_site_fract_y
 _atom_site_fract_z
 _atom_site_occupancy
  Er  Er0  1  0.679850  0.177275  0.500000  1
  Tm  Tm1  1  0.322718  0.820143  0.500000  1
  Tm  Tm2  1  0.175326  0.324740  0.500000  1
  Tm  Tm3  1  0.823250  0.676794  0.500000  1
  Cd  Cd4  1  0.501112  0.503102  0.000000  1
  Cd  Cd5  1  0.997153  0.998683  0.000000  1
  Si  Si6  1  0.117868  0.618010  0.000000  1
  Si  Si7  1  0.882364  0.382502  0.000000  1
  Si  Si8  1  0.620657  0.878921  0.000000  1
  Ge  Ge9  1  0.379702  0.119830  0.000000  1
