# generated using pymatgen
data_Lu4Ge2B8Ir
_symmetry_space_group_name_H-M   'P 1'
_cell_length_a   7.03330100
_cell_length_b   7.03330100
_cell_length_c   7.42566200
_cell_angle_alpha   90.00000000
_cell_angle_beta   90.00000000
_cell_angle_gamma   90.00000000
_symmetry_Int_Tables_number   1
_chemical_formula_structural   Lu4Ge2B8Ir
_chemical_formula_sum   'Lu8 Ge4 B16 Ir2'
_cell_volume   367.32762032
_cell_formula_units_Z   2
loop_
 _symmetry_equiv_pos_site_id
 _symmetry_equiv_pos_as_xyz
  1  'x, y, z'
loop_
 _atom_site_type_symbol
 _atom_site_label
 _atom_site_symmetry_multiplicity
 _atom_site_fract_x
 _atom_site_fract_y
 _atom_site_fract_z
 _atom_site_occupancy
  Lu  Lu0  1  0.677460  0.177460  0.231927  1
  Lu  Lu1  1  0.322540  0.822540  0.768073  1
  Lu  Lu2  1  0.322540  0.822540  0.231927  1
  Lu  Lu3  1  0.822540  0.677460  0.231927  1
  Lu  Lu4  1  0.822540  0.677460  0.768073  1
  Lu  Lu5  1  0.677460  0.177460  0.768073  1
  Lu  Lu6  1  0.177460  0.322540  0.768073  1
  Lu  Lu7  1  0.177460  0.322540  0.231927  1
  Ge  Ge8  1  0.128328  0.628328  0.500000  1
  Ge  Ge9  1  0.871672  0.371672  0.500000  1
  Ge  Ge10  1  0.371672  0.128328  0.500000  1
  Ge  Ge11  1  0.628328  0.871672  0.500000  1
  B  B12  1  0.172841  0.041452  0.000000  1
  B  B13  1  0.827159  0.958548  0.000000  1
  B  B14  1  0.958548  0.172841  0.000000  1
  B  B15  1  0.327159  0.541452  0.000000  1
  B  B16  1  0.041452  0.827159  0.000000  1
  B  B17  1  0.672841  0.458548  0.000000  1
  B  B18  1  0.541452  0.672841  0.000000  1
  B  B19  1  0.458548  0.327159  0.000000  1
  B  B20  1  0.089551  0.589551  0.000000  1
  B  B21  1  0.910449  0.410449  0.000000  1
  B  B22  1  0.410449  0.089551  0.000000  1
  B  B23  1  0.589551  0.910449  0.000000  1
  B  B24  1  0.000000  0.000000  0.178195  1
  B  B25  1  0.000000  0.000000  0.821805  1
  B  B26  1  0.500000  0.500000  0.821805  1
  B  B27  1  0.500000  0.500000  0.178195  1
  Ir  Ir28  1  0.000000  0.000000  0.500000  1
  Ir  Ir29  1  0.500000  0.500000  0.500000  1
