# generated using pymatgen
data_Hf3Co3CuSi4Mo
_symmetry_space_group_name_H-M   'P 1'
_cell_length_a   3.73807800
_cell_length_b   6.31789659
_cell_length_c   7.20266391
_cell_angle_alpha   88.79865362
_cell_angle_beta   90.00000000
_cell_angle_gamma   90.00000000
_symmetry_Int_Tables_number   1
_chemical_formula_structural   Hf3Co3CuSi4Mo
_chemical_formula_sum   'Hf3 Co3 Cu1 Si4 Mo1'
_cell_volume   170.06641242
_cell_formula_units_Z   1
loop_
 _symmetry_equiv_pos_site_id
 _symmetry_equiv_pos_as_xyz
  1  'x, y, z'
loop_
 _atom_site_type_symbol
 _atom_site_label
 _atom_site_symmetry_multiplicity
 _atom_site_fract_x
 _atom_site_fract_y
 _atom_site_fract_z
 _atom_site_occupancy
  Hf  Hf0  1  0.250000  0.518950  0.191146  1
  Hf  Hf1  1  0.750000  0.976264  0.673105  1
  Hf  Hf2  1  0.750000  0.476897  0.814315  1
  Co  Co3  1  0.250000  0.649147  0.565287  1
  Co  Co4  1  0.750000  0.855478  0.057068  1
  Co  Co5  1  0.750000  0.365289  0.438078  1
  Cu  Cu6  1  0.250000  0.141564  0.938010  1
  Si  Si7  1  0.250000  0.280316  0.595877  1
  Si  Si8  1  0.250000  0.767174  0.885817  1
  Si  Si9  1  0.750000  0.734652  0.376584  1
  Si  Si10  1  0.750000  0.211949  0.137701  1
  Mo  Mo11  1  0.250000  0.022320  0.327011  1
