# generated using pymatgen
data_Nd4Ho2IrBr10
_symmetry_space_group_name_H-M   'P 1'
_cell_length_a   7.49944139
_cell_length_b   9.47152195
_cell_length_c   9.52896530
_cell_angle_alpha   108.11496701
_cell_angle_beta   95.99407823
_cell_angle_gamma   104.75886218
_symmetry_Int_Tables_number   1
_chemical_formula_structural   Nd4Ho2IrBr10
_chemical_formula_sum   'Nd4 Ho2 Ir1 Br10'
_cell_volume   609.53618027
_cell_formula_units_Z   1
loop_
 _symmetry_equiv_pos_site_id
 _symmetry_equiv_pos_as_xyz
  1  'x, y, z'
loop_
 _atom_site_type_symbol
 _atom_site_label
 _atom_site_symmetry_multiplicity
 _atom_site_fract_x
 _atom_site_fract_y
 _atom_site_fract_z
 _atom_site_occupancy
  Nd  Nd0  1  0.127047  0.046399  0.747199  1
  Nd  Nd1  1  0.872953  0.953601  0.252801  1
  Nd  Nd2  1  0.967472  0.295343  0.092367  1
  Nd  Nd3  1  0.032528  0.704657  0.907633  1
  Ho  Ho4  1  0.358441  0.131314  0.173044  1
  Ho  Ho5  1  0.641559  0.868686  0.826956  1
  Ir  Ir6  1  0.000000  0.000000  0.000000  1
  Br  Br7  1  0.354821  0.439521  0.268121  1
  Br  Br8  1  0.645179  0.560479  0.731879  1
  Br  Br9  1  0.260477  0.085801  0.446477  1
  Br  Br10  1  0.739523  0.914199  0.553523  1
  Br  Br11  1  0.085296  0.367764  0.823253  1
  Br  Br12  1  0.914704  0.632236  0.176747  1
  Br  Br13  1  0.454918  0.828915  0.083254  1
  Br  Br14  1  0.545082  0.171085  0.916746  1
  Br  Br15  1  0.764947  0.250523  0.341696  1
  Br  Br16  1  0.235053  0.749477  0.658304  1
