# generated using pymatgen
data_Tb12CoPd2Pt
_symmetry_space_group_name_H-M   'P 1'
_cell_length_a   6.43941068
_cell_length_b   7.05981817
_cell_length_c   9.62139400
_cell_angle_alpha   90.00000000
_cell_angle_beta   90.00000000
_cell_angle_gamma   90.08179817
_symmetry_Int_Tables_number   1
_chemical_formula_structural   Tb12CoPd2Pt
_chemical_formula_sum   'Tb12 Co1 Pd2 Pt1'
_cell_volume   437.39840638
_cell_formula_units_Z   1
loop_
 _symmetry_equiv_pos_site_id
 _symmetry_equiv_pos_as_xyz
  1  'x, y, z'
loop_
 _atom_site_type_symbol
 _atom_site_label
 _atom_site_symmetry_multiplicity
 _atom_site_fract_x
 _atom_site_fract_y
 _atom_site_fract_z
 _atom_site_occupancy
  Tb  Tb0  1  0.635615  0.024886  0.250000  1
  Tb  Tb1  1  0.376626  0.957765  0.750000  1
  Tb  Tb2  1  0.145803  0.478059  0.750000  1
  Tb  Tb3  1  0.869226  0.527527  0.250000  1
  Tb  Tb4  1  0.172365  0.177499  0.057593  1
  Tb  Tb5  1  0.818374  0.812124  0.935563  1
  Tb  Tb6  1  0.670631  0.330961  0.933567  1
  Tb  Tb7  1  0.818374  0.812124  0.564437  1
  Tb  Tb8  1  0.323270  0.683543  0.058121  1
  Tb  Tb9  1  0.172365  0.177499  0.442407  1
  Tb  Tb10  1  0.323270  0.683543  0.441879  1
  Tb  Tb11  1  0.670631  0.330961  0.566433  1
  Co  Co12  1  0.555998  0.615382  0.750000  1
  Pd  Pd13  1  0.440351  0.390797  0.250000  1
  Pd  Pd14  1  0.948218  0.109294  0.750000  1
  Pt  Pt15  1  0.058882  0.888035  0.250000  1
