# generated using pymatgen
data_Dy9HoSi5Pb
_symmetry_space_group_name_H-M   'P 1'
_cell_length_a   8.52204003
_cell_length_b   8.55366479
_cell_length_c   6.40924601
_cell_angle_alpha   90.00592366
_cell_angle_beta   90.00089713
_cell_angle_gamma   119.88736317
_symmetry_Int_Tables_number   1
_chemical_formula_structural   Dy9HoSi5Pb
_chemical_formula_sum   'Dy9 Ho1 Si5 Pb1'
_cell_volume   405.06542425
_cell_formula_units_Z   1
loop_
 _symmetry_equiv_pos_site_id
 _symmetry_equiv_pos_as_xyz
  1  'x, y, z'
loop_
 _atom_site_type_symbol
 _atom_site_label
 _atom_site_symmetry_multiplicity
 _atom_site_fract_x
 _atom_site_fract_y
 _atom_site_fract_z
 _atom_site_occupancy
  Dy  Dy0  1  0.987459  0.747069  0.750091  1
  Dy  Dy1  1  0.998491  0.242730  0.249932  1
  Dy  Dy2  1  0.755834  0.757205  0.249915  1
  Dy  Dy3  1  0.766525  0.000065  0.750071  1
  Dy  Dy4  1  0.240469  0.252858  0.750054  1
  Dy  Dy5  1  0.240705  0.000067  0.249926  1
  Dy  Dy6  1  0.331248  0.656356  0.496021  1
  Dy  Dy7  1  0.331269  0.656369  0.003980  1
  Dy  Dy8  1  0.674888  0.343625  0.496062  1
  Ho  Ho9  1  0.674907  0.343620  0.003924  1
  Si  Si10  1  0.393729  0.391961  0.249819  1
  Si  Si11  1  0.001305  0.607823  0.249777  1
  Si  Si12  1  0.998232  0.394314  0.750207  1
  Si  Si13  1  0.604170  0.605499  0.750197  1
  Si  Si14  1  0.606061  0.000202  0.249843  1
  Pb  Pb15  1  0.394709  0.000237  0.750182  1
