# generated using pymatgen
data_Ti8Al15Ir3Os4
_symmetry_space_group_name_H-M   'P 1'
_cell_length_a   8.66411493
_cell_length_b   8.65493944
_cell_length_c   8.67540939
_cell_angle_alpha   119.94116483
_cell_angle_beta   119.89520001
_cell_angle_gamma   90.05101616
_symmetry_Int_Tables_number   1
_chemical_formula_structural   Ti8Al15Ir3Os4
_chemical_formula_sum   'Ti8 Al15 Ir3 Os4'
_cell_volume   460.93735395
_cell_formula_units_Z   1
loop_
 _symmetry_equiv_pos_site_id
 _symmetry_equiv_pos_as_xyz
  1  'x, y, z'
loop_
 _atom_site_type_symbol
 _atom_site_label
 _atom_site_symmetry_multiplicity
 _atom_site_fract_x
 _atom_site_fract_y
 _atom_site_fract_z
 _atom_site_occupancy
  Ti  Ti0  1  0.781638  0.285089  0.068438  1
  Ti  Ti1  1  0.224286  0.292805  0.505651  1
  Ti  Ti2  1  0.214734  0.714986  0.507036  1
  Ti  Ti3  1  0.225150  0.721754  0.931302  1
  Ti  Ti4  1  0.789426  0.720579  0.498561  1
  Ti  Ti5  1  0.774054  0.273259  0.489935  1
  Ti  Ti6  1  0.376345  0.122054  0.744304  1
  Ti  Ti7  1  0.381231  0.634034  0.258058  1
  Al  Al8  1  0.996289  0.495661  0.500108  1
  Al  Al9  1  0.151308  0.345028  0.191095  1
  Al  Al10  1  0.154773  0.967036  0.811951  1
  Al  Al11  1  0.149593  0.346613  0.804206  1
  Al  Al12  1  0.537108  0.346588  0.193172  1
  Al  Al13  1  0.848002  0.649957  0.801930  1
  Al  Al14  1  0.849319  0.039916  0.194509  1
  Al  Al15  1  0.843785  0.653871  0.187311  1
  Al  Al16  1  0.472448  0.657557  0.814856  1
  Al  Al17  1  0.378000  0.121588  0.257488  1
  Al  Al18  1  0.862390  0.122179  0.741878  1
  Al  Al19  1  0.620800  0.875187  0.254820  1
  Al  Al20  1  0.621530  0.364862  0.744681  1
  Al  Al21  1  0.620037  0.876831  0.742280  1
  Al  Al22  1  0.135713  0.878525  0.258305  1
  Ir  Ir23  1  0.000398  0.499840  0.000655  1
  Ir  Ir24  1  0.998924  0.998801  0.998643  1
  Ir  Ir25  1  0.499120  0.999072  0.499713  1
  Os  Os26  1  0.999221  0.998686  0.500703  1
  Os  Os27  1  0.499994  0.001102  0.001276  1
  Os  Os28  1  0.497051  0.497965  0.998957  1
  Os  Os29  1  0.497327  0.498568  0.498175  1
