# generated using pymatgen
data_Nd7Er13Si15Sn
_symmetry_space_group_name_H-M   'P 1'
_cell_length_a   7.73084141
_cell_length_b   7.75086661
_cell_length_c   14.33157829
_cell_angle_alpha   89.87755549
_cell_angle_beta   89.86201501
_cell_angle_gamma   90.17386208
_symmetry_Int_Tables_number   1
_chemical_formula_structural   Nd7Er13Si15Sn
_chemical_formula_sum   'Nd7 Er13 Si15 Sn1'
_cell_volume   858.75007980
_cell_formula_units_Z   1
loop_
 _symmetry_equiv_pos_site_id
 _symmetry_equiv_pos_as_xyz
  1  'x, y, z'
loop_
 _atom_site_type_symbol
 _atom_site_label
 _atom_site_symmetry_multiplicity
 _atom_site_fract_x
 _atom_site_fract_y
 _atom_site_fract_z
 _atom_site_occupancy
  Nd  Nd0  1  0.358900  0.006866  0.959825  1
  Nd  Nd1  1  0.988529  0.638695  0.541404  1
  Nd  Nd2  1  0.491385  0.857093  0.209102  1
  Nd  Nd3  1  0.515885  0.149413  0.713695  1
  Nd  Nd4  1  0.861532  0.492974  0.794500  1
  Nd  Nd5  1  0.138880  0.505758  0.290104  1
  Nd  Nd6  1  0.006938  0.356962  0.042096  1
  Er  Er7  1  0.491721  0.359273  0.124188  1
  Er  Er8  1  0.981069  0.146733  0.629570  1
  Er  Er9  1  0.861737  0.008549  0.875769  1
  Er  Er10  1  0.136961  0.991998  0.370028  1
  Er  Er11  1  0.514713  0.633794  0.624161  1
  Er  Er12  1  0.360008  0.491420  0.876751  1
  Er  Er13  1  0.643208  0.507019  0.373836  1
  Er  Er14  1  0.005891  0.860659  0.126345  1
  Er  Er15  1  0.643760  0.998189  0.451756  1
  Er  Er16  1  0.315445  0.328175  0.496712  1
  Er  Er17  1  0.182753  0.815984  0.755928  1
  Er  Er18  1  0.815988  0.182035  0.249408  1
  Er  Er19  1  0.681737  0.681863  0.000767  1
  Si  Si20  1  0.709634  0.062304  0.061978  1
  Si  Si21  1  0.935338  0.287172  0.437510  1
  Si  Si22  1  0.439442  0.207016  0.311917  1
  Si  Si23  1  0.563510  0.789109  0.811832  1
  Si  Si24  1  0.211530  0.439518  0.688328  1
  Si  Si25  1  0.787708  0.562669  0.187388  1
  Si  Si26  1  0.063509  0.708937  0.941011  1
  Si  Si27  1  0.798843  0.845152  0.692647  1
  Si  Si28  1  0.204246  0.151404  0.187827  1
  Si  Si29  1  0.844302  0.799815  0.312059  1
  Si  Si30  1  0.352681  0.699402  0.430248  1
  Si  Si31  1  0.651254  0.294695  0.938884  1
  Si  Si32  1  0.697508  0.340683  0.555756  1
  Si  Si33  1  0.295375  0.651576  0.061700  1
  Si  Si34  1  0.154679  0.202045  0.811266  1
  Sn  Sn35  1  0.293399  0.945051  0.563703  1
