# generated using pymatgen
data_Er9Th(Al2Ru3)2
_symmetry_space_group_name_H-M   'P 1'
_cell_length_a   8.32389015
_cell_length_b   8.32389043
_cell_length_c   8.29086048
_cell_angle_alpha   109.43506492
_cell_angle_beta   109.60797154
_cell_angle_gamma   109.53185933
_symmetry_Int_Tables_number   1
_chemical_formula_structural   Er9Th(Al2Ru3)2
_chemical_formula_sum   'Er9 Th1 Al4 Ru6'
_cell_volume   441.32900388
_cell_formula_units_Z   1
loop_
 _symmetry_equiv_pos_site_id
 _symmetry_equiv_pos_as_xyz
  1  'x, y, z'
loop_
 _atom_site_type_symbol
 _atom_site_label
 _atom_site_symmetry_multiplicity
 _atom_site_fract_x
 _atom_site_fract_y
 _atom_site_fract_z
 _atom_site_occupancy
  Er  Er0  1  0.781889  0.786274  0.784268  1
  Er  Er1  1  0.319153  0.569153  0.750000  1
  Er  Er2  1  0.752850  0.322122  0.571659  1
  Er  Er3  1  0.570849  0.748353  0.318757  1
  Er  Er4  1  0.712238  0.497847  0.997190  1
  Er  Er5  1  0.000658  0.715048  0.502810  1
  Er  Er6  1  0.502007  0.997622  0.715732  1
  Er  Er7  1  0.250463  0.181191  0.928341  1
  Er  Er8  1  0.929595  0.252091  0.181243  1
  Th  Th9  1  0.188631  0.938631  0.250000  1
  Al  Al10  1  0.413877  0.416274  0.410559  1
  Al  Al11  1  0.091141  0.494591  0.001333  1
  Al  Al12  1  0.993258  0.089809  0.498667  1
  Al  Al13  1  0.505714  0.003318  0.089441  1
  Ru  Ru14  1  0.875425  0.125425  0.750000  1
  Ru  Ru15  1  0.746964  0.871889  0.121219  1
  Ru  Ru16  1  0.126974  0.754219  0.890451  1
  Ru  Ru17  1  0.250670  0.625746  0.378781  1
  Ru  Ru18  1  0.363769  0.236523  0.609549  1
  Ru  Ru19  1  0.623874  0.373874  0.250000  1
