# generated using pymatgen
data_Y6Ho2AlCdPd2
_symmetry_space_group_name_H-M   'P 1'
_cell_length_a   9.67319946
_cell_length_b   9.67320071
_cell_length_c   9.67949500
_cell_angle_alpha   59.97846948
_cell_angle_beta   59.97846521
_cell_angle_gamma   60.04070748
_symmetry_Int_Tables_number   1
_chemical_formula_structural   Y6Ho2AlCdPd2
_chemical_formula_sum   'Y12 Ho4 Al2 Cd2 Pd4'
_cell_volume   640.42748706
_cell_formula_units_Z   2
loop_
 _symmetry_equiv_pos_site_id
 _symmetry_equiv_pos_as_xyz
  1  'x, y, z'
loop_
 _atom_site_type_symbol
 _atom_site_label
 _atom_site_symmetry_multiplicity
 _atom_site_fract_x
 _atom_site_fract_y
 _atom_site_fract_z
 _atom_site_occupancy
  Y  Y0  1  0.808565  0.192885  0.190271  1
  Y  Y1  1  0.192885  0.808565  0.808280  1
  Y  Y2  1  0.192885  0.808565  0.190271  1
  Y  Y3  1  0.808565  0.192885  0.808280  1
  Y  Y4  1  0.189374  0.189374  0.810626  1
  Y  Y5  1  0.806167  0.806167  0.193833  1
  Y  Y6  1  0.933073  0.565275  0.565117  1
  Y  Y7  1  0.565275  0.933073  0.936534  1
  Y  Y8  1  0.565275  0.933073  0.565117  1
  Y  Y9  1  0.933073  0.565275  0.936534  1
  Y  Y10  1  0.565938  0.565938  0.934062  1
  Y  Y11  1  0.936745  0.936745  0.563255  1
  Ho  Ho12  1  0.354642  0.354642  0.352165  1
  Ho  Ho13  1  0.354642  0.354642  0.938551  1
  Ho  Ho14  1  0.357546  0.933473  0.354491  1
  Ho  Ho15  1  0.933473  0.357546  0.354491  1
  Al  Al16  1  0.581634  0.581634  0.579304  1
  Al  Al17  1  0.581634  0.581634  0.257427  1
  Cd  Cd18  1  0.581324  0.258229  0.580224  1
  Cd  Cd19  1  0.258229  0.581324  0.580224  1
  Pd  Pd20  1  0.145526  0.145526  0.147174  1
  Pd  Pd21  1  0.145526  0.145526  0.561774  1
  Pd  Pd22  1  0.144136  0.563868  0.145997  1
  Pd  Pd23  1  0.563868  0.144136  0.145997  1
