# generated using pymatgen
data_Lu2Co3Ni9As7
_symmetry_space_group_name_H-M   'P 1'
_cell_length_a   9.35167300
_cell_length_b   9.35167242
_cell_length_c   3.76597100
_cell_angle_alpha   90.00000000
_cell_angle_beta   90.00000000
_cell_angle_gamma   119.99999240
_symmetry_Int_Tables_number   1
_chemical_formula_structural   Lu2Co3Ni9As7
_chemical_formula_sum   'Lu2 Co3 Ni9 As7'
_cell_volume   285.22411029
_cell_formula_units_Z   1
loop_
 _symmetry_equiv_pos_site_id
 _symmetry_equiv_pos_as_xyz
  1  'x, y, z'
loop_
 _atom_site_type_symbol
 _atom_site_label
 _atom_site_symmetry_multiplicity
 _atom_site_fract_x
 _atom_site_fract_y
 _atom_site_fract_z
 _atom_site_occupancy
  Lu  Lu0  1  0.666667  0.333333  0.000000  1
  Lu  Lu1  1  0.000000  0.000000  0.500000  1
  Co  Co2  1  0.487914  0.945938  0.000000  1
  Co  Co3  1  0.054062  0.541976  0.000000  1
  Co  Co4  1  0.458024  0.512086  0.000000  1
  Ni  Ni5  1  0.713086  0.094955  0.500000  1
  Ni  Ni6  1  0.905045  0.618132  0.500000  1
  Ni  Ni7  1  0.381868  0.286914  0.500000  1
  Ni  Ni8  1  0.776125  0.724435  0.000000  1
  Ni  Ni9  1  0.275565  0.051689  0.000000  1
  Ni  Ni10  1  0.948311  0.223875  0.000000  1
  Ni  Ni11  1  0.547083  0.762878  0.500000  1
  Ni  Ni12  1  0.237122  0.784205  0.500000  1
  Ni  Ni13  1  0.215795  0.452917  0.500000  1
  As  As14  1  0.333333  0.666667  0.000000  1
  As  As15  1  0.446360  0.072178  0.500000  1
  As  As16  1  0.927822  0.374182  0.500000  1
  As  As17  1  0.625818  0.553640  0.500000  1
  As  As18  1  0.736343  0.948830  0.000000  1
  As  As19  1  0.051170  0.787513  0.000000  1
  As  As20  1  0.212487  0.263657  0.000000  1
