# generated using pymatgen
data_Tm4MoOs5Ru2
_symmetry_space_group_name_H-M   'P 1'
_cell_length_a   5.38312036
_cell_length_b   5.20498528
_cell_length_c   8.99755100
_cell_angle_alpha   90.00000000
_cell_angle_beta   90.00000000
_cell_angle_gamma   121.07084924
_symmetry_Int_Tables_number   1
_chemical_formula_structural   Tm4MoOs5Ru2
_chemical_formula_sum   'Tm4 Mo1 Os5 Ru2'
_cell_volume   215.93367552
_cell_formula_units_Z   1
loop_
 _symmetry_equiv_pos_site_id
 _symmetry_equiv_pos_as_xyz
  1  'x, y, z'
loop_
 _atom_site_type_symbol
 _atom_site_label
 _atom_site_symmetry_multiplicity
 _atom_site_fract_x
 _atom_site_fract_y
 _atom_site_fract_z
 _atom_site_occupancy
  Tm  Tm0  1  0.670767  0.341846  0.563709  1
  Tm  Tm1  1  0.333865  0.667642  0.432983  1
  Tm  Tm2  1  0.333865  0.667642  0.067017  1
  Tm  Tm3  1  0.670767  0.341846  0.936291  1
  Mo  Mo4  1  0.161799  0.324412  0.750000  1
  Os  Os5  1  0.172085  0.825092  0.750000  1
  Os  Os6  1  0.652589  0.825623  0.750000  1
  Os  Os7  1  0.826142  0.651042  0.250000  1
  Os  Os8  1  0.829274  0.166046  0.250000  1
  Os  Os9  1  0.337788  0.166395  0.250000  1
  Ru  Ru10  1  0.005531  0.011207  0.498073  1
  Ru  Ru11  1  0.005531  0.011207  0.001927  1
