# generated using pymatgen
data_DyPu(CI)2
_symmetry_space_group_name_H-M   'P 1'
_cell_length_a   4.11184718
_cell_length_b   4.11184762
_cell_length_c   10.82992900
_cell_angle_alpha   86.89068990
_cell_angle_beta   86.89068956
_cell_angle_gamma   56.65978998
_symmetry_Int_Tables_number   1
_chemical_formula_structural   DyPu(CI)2
_chemical_formula_sum   'Dy1 Pu1 C2 I2'
_cell_volume   152.67899604
_cell_formula_units_Z   1
loop_
 _symmetry_equiv_pos_site_id
 _symmetry_equiv_pos_as_xyz
  1  'x, y, z'
loop_
 _atom_site_type_symbol
 _atom_site_label
 _atom_site_symmetry_multiplicity
 _atom_site_fract_x
 _atom_site_fract_y
 _atom_site_fract_z
 _atom_site_occupancy
  Dy  Dy0  1  0.142299  0.142299  0.869917  1
  Pu  Pu1  1  0.858086  0.858086  0.132401  1
  C  C2  1  0.426495  0.426495  0.964115  1
  C  C3  1  0.577607  0.577607  0.028513  1
  I  I4  1  0.822797  0.822797  0.675211  1
  I  I5  1  0.172718  0.172718  0.329844  1
