# generated using pymatgen
data_KCeGeS4
_symmetry_space_group_name_H-M   'P 1'
_cell_length_a   6.71913759
_cell_length_b   6.79676321
_cell_length_c   8.82103753
_cell_angle_alpha   89.97286515
_cell_angle_beta   107.21049917
_cell_angle_gamma   89.99743252
_symmetry_Int_Tables_number   1
_chemical_formula_structural   KCeGeS4
_chemical_formula_sum   'K2 Ce2 Ge2 S8'
_cell_volume   384.80489295
_cell_formula_units_Z   2
loop_
 _symmetry_equiv_pos_site_id
 _symmetry_equiv_pos_as_xyz
  1  'x, y, z'
loop_
 _atom_site_type_symbol
 _atom_site_label
 _atom_site_symmetry_multiplicity
 _atom_site_fract_x
 _atom_site_fract_y
 _atom_site_fract_z
 _atom_site_occupancy
  K  K0  1  0.268347  0.013453  0.065199  1
  K  K1  1  0.731577  0.513483  0.934662  1
  Ce  Ce2  1  0.767222  0.492552  0.445949  1
  Ce  Ce3  1  0.232685  0.992491  0.553957  1
  Ge  Ge4  1  0.222633  0.525344  0.322301  1
  Ge  Ge5  1  0.777441  0.025430  0.677959  1
  S  S6  1  0.420976  0.526170  0.162494  1
  S  S7  1  0.982913  0.763255  0.274786  1
  S  S8  1  0.022518  0.257590  0.292982  1
  S  S9  1  0.578386  0.082608  0.428858  1
  S  S10  1  0.421818  0.582637  0.571388  1
  S  S11  1  0.977492  0.757413  0.706847  1
  S  S12  1  0.017140  0.263450  0.725153  1
  S  S13  1  0.578852  0.025802  0.837470  1
