# generated using pymatgen
data_TbY3(Ga8Ni3)3
_symmetry_space_group_name_H-M   'P 1'
_cell_length_a   7.32398190
_cell_length_b   7.35598490
_cell_length_c   12.81491100
_cell_angle_alpha   84.57261895
_cell_angle_beta   79.08842886
_cell_angle_gamma   59.96361929
_symmetry_Int_Tables_number   1
_chemical_formula_structural   TbY3(Ga8Ni3)3
_chemical_formula_sum   'Tb1 Y3 Ga24 Ni9'
_cell_volume   586.88270423
_cell_formula_units_Z   1
loop_
 _symmetry_equiv_pos_site_id
 _symmetry_equiv_pos_as_xyz
  1  'x, y, z'
loop_
 _atom_site_type_symbol
 _atom_site_label
 _atom_site_symmetry_multiplicity
 _atom_site_fract_x
 _atom_site_fract_y
 _atom_site_fract_z
 _atom_site_occupancy
  Tb  Tb0  1  0.267165  0.501169  0.194268  1
  Y  Y1  1  0.395728  0.168072  0.805631  1
  Y  Y2  1  0.604268  0.831885  0.194340  1
  Y  Y3  1  0.732914  0.498758  0.805754  1
  Ga  Ga4  1  0.681863  0.833566  0.945897  1
  Ga  Ga5  1  0.318303  0.166207  0.054175  1
  Ga  Ga6  1  0.146412  0.834019  0.559318  1
  Ga  Ga7  1  0.853530  0.165997  0.440733  1
  Ga  Ga8  1  0.480296  0.166533  0.557071  1
  Ga  Ga9  1  0.519675  0.833492  0.442831  1
  Ga  Ga10  1  0.215289  0.165504  0.336078  1
  Ga  Ga11  1  0.784551  0.834452  0.663868  1
  Ga  Ga12  1  0.439299  0.506135  0.663663  1
  Ga  Ga13  1  0.560666  0.494037  0.336284  1
  Ga  Ga14  1  0.110820  0.160637  0.663755  1
  Ga  Ga15  1  0.888949  0.839463  0.336198  1
  Ga  Ga16  1  0.354381  0.497349  0.946016  1
  Ga  Ga17  1  0.645642  0.502801  0.053985  1
  Ga  Ga18  1  0.015789  0.169373  0.952770  1
  Ga  Ga19  1  0.984212  0.830453  0.047282  1
  Ga  Ga20  1  0.185760  0.499930  0.442970  1
  Ga  Ga21  1  0.814270  0.500084  0.557027  1
  Ga  Ga22  1  0.729843  0.165256  0.185259  1
  Ga  Ga23  1  0.270310  0.834646  0.814705  1
  Ga  Ga24  1  0.061524  0.626054  0.814608  1
  Ga  Ga25  1  0.938529  0.373963  0.185447  1
  Ga  Ga26  1  0.852464  0.043714  0.815040  1
  Ga  Ga27  1  0.147510  0.956295  0.185015  1
  Ni  Ni28  1  0.119742  0.493898  0.637170  1
  Ni  Ni29  1  0.880506  0.506027  0.362852  1
  Ni  Ni30  1  0.661532  0.169148  0.000052  1
  Ni  Ni31  1  0.338640  0.830796  0.999928  1
  Ni  Ni32  1  0.538422  0.167190  0.363121  1
  Ni  Ni33  1  0.461586  0.832952  0.636838  1
  Ni  Ni34  1  0.778641  0.173739  0.637246  1
  Ni  Ni35  1  0.220897  0.826446  0.362864  1
  Ni  Ni36  1  0.000074  0.499959  0.999942  1
