# generated using pymatgen
data_La12Nd2Ir5Au
_symmetry_space_group_name_H-M   'P 1'
_cell_length_a   6.54727544
_cell_length_b   10.30415772
_cell_length_c   10.30415762
_cell_angle_alpha   120.09207006
_cell_angle_beta   89.90282092
_cell_angle_gamma   90.09718020
_symmetry_Int_Tables_number   1
_chemical_formula_structural   La12Nd2Ir5Au
_chemical_formula_sum   'La12 Nd2 Ir5 Au1'
_cell_volume   601.46690155
_cell_formula_units_Z   1
loop_
 _symmetry_equiv_pos_site_id
 _symmetry_equiv_pos_as_xyz
  1  'x, y, z'
loop_
 _atom_site_type_symbol
 _atom_site_label
 _atom_site_symmetry_multiplicity
 _atom_site_fract_x
 _atom_site_fract_y
 _atom_site_fract_z
 _atom_site_occupancy
  La  La0  1  0.249653  0.125522  0.874478  1
  La  La1  1  0.250318  0.742614  0.859309  1
  La  La2  1  0.250318  0.140691  0.257386  1
  La  La3  1  0.732318  0.875852  0.124148  1
  La  La4  1  0.749054  0.250713  0.126162  1
  La  La5  1  0.749054  0.873838  0.749287  1
  La  La6  1  0.437311  0.540884  0.459116  1
  La  La7  1  0.444774  0.929048  0.475497  1
  La  La8  1  0.444774  0.524503  0.070952  1
  La  La9  1  0.930648  0.459917  0.540083  1
  La  La10  1  0.936752  0.078829  0.541223  1
  La  La11  1  0.936752  0.458777  0.921171  1
  Nd  Nd12  1  0.473971  0.334142  0.665858  1
  Nd  Nd13  1  0.965069  0.662092  0.337908  1
  Ir  Ir14  1  0.193233  0.377216  0.186716  1
  Ir  Ir15  1  0.193233  0.813284  0.622784  1
  Ir  Ir16  1  0.689503  0.188477  0.811523  1
  Ir  Ir17  1  0.692314  0.625430  0.813961  1
  Ir  Ir18  1  0.692314  0.186039  0.374570  1
  Au  Au19  1  0.190636  0.812134  0.187866  1
