# generated using pymatgen
data_Ho8Er7Th(CdNi)4
_symmetry_space_group_name_H-M   'P 1'
_cell_length_a   9.50213291
_cell_length_b   9.49988455
_cell_length_c   9.49531812
_cell_angle_alpha   60.21723774
_cell_angle_beta   60.20548269
_cell_angle_gamma   60.23862070
_symmetry_Int_Tables_number   1
_chemical_formula_structural   Ho8Er7Th(CdNi)4
_chemical_formula_sum   'Ho8 Er7 Th1 Cd4 Ni4'
_cell_volume   609.11050290
_cell_formula_units_Z   1
loop_
 _symmetry_equiv_pos_site_id
 _symmetry_equiv_pos_as_xyz
  1  'x, y, z'
loop_
 _atom_site_type_symbol
 _atom_site_label
 _atom_site_symmetry_multiplicity
 _atom_site_fract_x
 _atom_site_fract_y
 _atom_site_fract_z
 _atom_site_occupancy
  Ho  Ho0  1  0.349899  0.349899  0.947469  1
  Ho  Ho1  1  0.350362  0.947518  0.349858  1
  Ho  Ho2  1  0.947521  0.350340  0.349855  1
  Ho  Ho3  1  0.812455  0.189083  0.189576  1
  Ho  Ho4  1  0.190325  0.812511  0.812503  1
  Ho  Ho5  1  0.189088  0.812462  0.189584  1
  Ho  Ho6  1  0.812494  0.190335  0.812497  1
  Ho  Ho7  1  0.189326  0.189326  0.812826  1
  Er  Er8  1  0.812531  0.812463  0.190433  1
  Er  Er9  1  0.936707  0.566114  0.565928  1
  Er  Er10  1  0.564356  0.936862  0.937223  1
  Er  Er11  1  0.566107  0.936715  0.565920  1
  Er  Er12  1  0.936894  0.564340  0.937224  1
  Er  Er13  1  0.566103  0.566134  0.936648  1
  Er  Er14  1  0.936998  0.936985  0.564065  1
  Th  Th15  1  0.343358  0.343385  0.343216  1
  Cd  Cd16  1  0.581451  0.581464  0.581066  1
  Cd  Cd17  1  0.581593  0.581584  0.254470  1
  Cd  Cd18  1  0.581670  0.254405  0.581708  1
  Cd  Cd19  1  0.254425  0.581663  0.581703  1
  Ni  Ni20  1  0.143396  0.143451  0.143555  1
  Ni  Ni21  1  0.141089  0.141079  0.570923  1
  Ni  Ni22  1  0.140310  0.571586  0.140834  1
  Ni  Ni23  1  0.571543  0.140296  0.140914  1
