# generated using pymatgen
data_Yb2HoNiSn3Pt2
_symmetry_space_group_name_H-M   'P 1'
_cell_length_a   7.53783127
_cell_length_b   7.58352895
_cell_length_c   3.84311900
_cell_angle_alpha   90.00000000
_cell_angle_beta   90.00000000
_cell_angle_gamma   120.20074120
_symmetry_Int_Tables_number   1
_chemical_formula_structural   Yb2HoNiSn3Pt2
_chemical_formula_sum   'Yb2 Ho1 Ni1 Sn3 Pt2'
_cell_volume   189.86729999
_cell_formula_units_Z   1
loop_
 _symmetry_equiv_pos_site_id
 _symmetry_equiv_pos_as_xyz
  1  'x, y, z'
loop_
 _atom_site_type_symbol
 _atom_site_label
 _atom_site_symmetry_multiplicity
 _atom_site_fract_x
 _atom_site_fract_y
 _atom_site_fract_z
 _atom_site_occupancy
  Yb  Yb0  1  0.407407  0.407227  0.500000  1
  Yb  Yb1  1  0.592593  0.999820  0.500000  1
  Ho  Ho2  1  0.000000  0.591993  0.500000  1
  Ni  Ni3  1  0.000000  0.996825  0.500000  1
  Sn  Sn4  1  0.744436  0.748114  0.000000  1
  Sn  Sn5  1  0.255564  0.003679  0.000000  1
  Sn  Sn6  1  0.000000  0.248214  0.000000  1
  Pt  Pt7  1  0.673080  0.338604  0.000000  1
  Pt  Pt8  1  0.326920  0.665525  0.000000  1
