# generated using pymatgen
data_La4Ho6Ir3Ru
_symmetry_space_group_name_H-M   'P 1'
_cell_length_a   6.54440042
_cell_length_b   7.23874649
_cell_length_c   8.80469560
_cell_angle_alpha   96.71701300
_cell_angle_beta   111.01926189
_cell_angle_gamma   90.13120376
_symmetry_Int_Tables_number   1
_chemical_formula_structural   La4Ho6Ir3Ru
_chemical_formula_sum   'La4 Ho6 Ir3 Ru1'
_cell_volume   386.23960062
_cell_formula_units_Z   1
loop_
 _symmetry_equiv_pos_site_id
 _symmetry_equiv_pos_as_xyz
  1  'x, y, z'
loop_
 _atom_site_type_symbol
 _atom_site_label
 _atom_site_symmetry_multiplicity
 _atom_site_fract_x
 _atom_site_fract_y
 _atom_site_fract_z
 _atom_site_occupancy
  La  La0  1  0.978952  0.908631  0.198151  1
  La  La1  1  0.786326  0.582188  0.806622  1
  La  La2  1  0.017719  0.083838  0.806209  1
  La  La3  1  0.212686  0.418474  0.196069  1
  Ho  Ho4  1  0.636930  0.815203  0.432568  1
  Ho  Ho5  1  0.203439  0.685736  0.568470  1
  Ho  Ho6  1  0.361386  0.186003  0.566799  1
  Ho  Ho7  1  0.794023  0.314993  0.430038  1
  Ho  Ho8  1  0.428853  0.751324  0.998971  1
  Ho  Ho9  1  0.570310  0.248119  0.001034  1
  Ir  Ir10  1  0.583327  0.923528  0.769157  1
  Ir  Ir11  1  0.186406  0.423024  0.773824  1
  Ir  Ir12  1  0.413374  0.077188  0.229035  1
  Ru  Ru13  1  0.826269  0.581751  0.223053  1
