# generated using pymatgen
data_Sc2SiB2IrRu4
_symmetry_space_group_name_H-M   'P 1'
_cell_length_a   9.34082254
_cell_length_b   9.36153654
_cell_length_c   2.99045300
_cell_angle_alpha   90.00000000
_cell_angle_beta   90.00000000
_cell_angle_gamma   89.96103160
_symmetry_Int_Tables_number   1
_chemical_formula_structural   Sc2SiB2IrRu4
_chemical_formula_sum   'Sc4 Si2 B4 Ir2 Ru8'
_cell_volume   261.49846195
_cell_formula_units_Z   2
loop_
 _symmetry_equiv_pos_site_id
 _symmetry_equiv_pos_as_xyz
  1  'x, y, z'
loop_
 _atom_site_type_symbol
 _atom_site_label
 _atom_site_symmetry_multiplicity
 _atom_site_fract_x
 _atom_site_fract_y
 _atom_site_fract_z
 _atom_site_occupancy
  Sc  Sc0  1  0.174392  0.676697  0.000000  1
  Sc  Sc1  1  0.673072  0.828817  0.000000  1
  Sc  Sc2  1  0.326928  0.171183  0.000000  1
  Sc  Sc3  1  0.825608  0.323303  0.000000  1
  Si  Si4  1  0.000000  0.000000  0.000000  1
  Si  Si5  1  0.500000  0.500000  0.000000  1
  B  B6  1  0.375838  0.875823  0.000000  1
  B  B7  1  0.879731  0.626460  0.000000  1
  B  B8  1  0.120269  0.373540  0.000000  1
  B  B9  1  0.624162  0.124177  0.000000  1
  Ir  Ir10  1  0.288975  0.429210  0.500000  1
  Ir  Ir11  1  0.711026  0.570790  0.500000  1
  Ru  Ru12  1  0.000000  0.500000  0.500000  1
  Ru  Ru13  1  0.500000  0.000000  0.500000  1
  Ru  Ru14  1  0.570081  0.290483  0.500000  1
  Ru  Ru15  1  0.429919  0.709518  0.500000  1
  Ru  Ru16  1  0.929885  0.790000  0.500000  1
  Ru  Ru17  1  0.790158  0.070685  0.500000  1
  Ru  Ru18  1  0.209841  0.929315  0.500000  1
  Ru  Ru19  1  0.070115  0.209999  0.500000  1
