# generated using pymatgen
data_Ce3Tm(B2Os)4
_symmetry_space_group_name_H-M   'P 1'
_cell_length_a   5.89365773
_cell_length_b   5.35753400
_cell_length_c   6.48023231
_cell_angle_alpha   90.00000000
_cell_angle_beta   89.69073888
_cell_angle_gamma   90.00000000
_symmetry_Int_Tables_number   1
_chemical_formula_structural   Ce3Tm(B2Os)4
_chemical_formula_sum   'Ce3 Tm1 B8 Os4'
_cell_volume   204.61341101
_cell_formula_units_Z   1
loop_
 _symmetry_equiv_pos_site_id
 _symmetry_equiv_pos_as_xyz
  1  'x, y, z'
loop_
 _atom_site_type_symbol
 _atom_site_label
 _atom_site_symmetry_multiplicity
 _atom_site_fract_x
 _atom_site_fract_y
 _atom_site_fract_z
 _atom_site_occupancy
  Ce  Ce0  1  0.003282  0.250000  0.338790  1
  Ce  Ce1  1  0.504257  0.250000  0.164193  1
  Ce  Ce2  1  0.993904  0.750000  0.658204  1
  Tm  Tm3  1  0.494596  0.750000  0.837742  1
  B  B4  1  0.370189  0.085775  0.540546  1
  B  B5  1  0.868373  0.415863  0.961044  1
  B  B6  1  0.627825  0.586814  0.465261  1
  B  B7  1  0.134483  0.914276  0.034595  1
  B  B8  1  0.627825  0.913186  0.465261  1
  B  B9  1  0.134483  0.585724  0.034595  1
  B  B10  1  0.370189  0.414225  0.540546  1
  B  B11  1  0.868373  0.084137  0.961044  1
  Os  Os12  1  0.184126  0.250000  0.814720  1
  Os  Os13  1  0.685034  0.250000  0.686305  1
  Os  Os14  1  0.818819  0.750000  0.186992  1
  Os  Os15  1  0.314240  0.750000  0.310162  1
