# generated using pymatgen
data_Hf16Rh8C3O
_symmetry_space_group_name_H-M   'P 1'
_cell_length_a   8.75329936
_cell_length_b   8.73876086
_cell_length_c   8.75329900
_cell_angle_alpha   59.94495577
_cell_angle_beta   60.00000512
_cell_angle_gamma   59.94495406
_symmetry_Int_Tables_number   1
_chemical_formula_structural   Hf16Rh8C3O
_chemical_formula_sum   'Hf16 Rh8 C3 O1'
_cell_volume   473.06038533
_cell_formula_units_Z   1
loop_
 _symmetry_equiv_pos_site_id
 _symmetry_equiv_pos_as_xyz
  1  'x, y, z'
loop_
 _atom_site_type_symbol
 _atom_site_label
 _atom_site_symmetry_multiplicity
 _atom_site_fract_x
 _atom_site_fract_y
 _atom_site_fract_z
 _atom_site_occupancy
  Hf  Hf0  1  0.125000  0.625000  0.625000  1
  Hf  Hf1  1  0.625000  0.125000  0.625000  1
  Hf  Hf2  1  0.625000  0.625000  0.125000  1
  Hf  Hf3  1  0.625000  0.625000  0.625000  1
  Hf  Hf4  1  0.811200  0.820336  0.184232  1
  Hf  Hf5  1  0.184271  0.183651  0.816039  1
  Hf  Hf6  1  0.816039  0.183651  0.816039  1
  Hf  Hf7  1  0.184232  0.820336  0.184232  1
  Hf  Hf8  1  0.184232  0.820336  0.811200  1
  Hf  Hf9  1  0.816039  0.183651  0.184271  1
  Hf  Hf10  1  0.438800  0.429664  0.065768  1
  Hf  Hf11  1  0.065729  0.066349  0.433961  1
  Hf  Hf12  1  0.433961  0.066349  0.433961  1
  Hf  Hf13  1  0.065768  0.429664  0.065768  1
  Hf  Hf14  1  0.065768  0.429664  0.438800  1
  Hf  Hf15  1  0.433961  0.066349  0.065729  1
  Rh  Rh16  1  0.765486  0.413956  0.410278  1
  Rh  Rh17  1  0.411975  0.764074  0.411975  1
  Rh  Rh18  1  0.410278  0.413956  0.765486  1
  Rh  Rh19  1  0.410278  0.413956  0.410278  1
  Rh  Rh20  1  0.484514  0.836044  0.839722  1
  Rh  Rh21  1  0.838025  0.485926  0.838025  1
  Rh  Rh22  1  0.839722  0.836044  0.484514  1
  Rh  Rh23  1  0.839722  0.836044  0.839722  1
  C  C24  1  0.625000  0.125000  0.125000  1
  C  C25  1  0.125000  0.125000  0.625000  1
  C  C26  1  0.125000  0.125000  0.125000  1
  O  O27  1  0.125000  0.625000  0.125000  1
