# generated using pymatgen
data_MnVIr3S8
_symmetry_space_group_name_H-M   'P 1'
_cell_length_a   6.76135468
_cell_length_b   6.76135460
_cell_length_c   6.76135493
_cell_angle_alpha   64.26442148
_cell_angle_beta   64.26441921
_cell_angle_gamma   64.26441946
_symmetry_Int_Tables_number   1
_chemical_formula_structural   MnVIr3S8
_chemical_formula_sum   'Mn1 V1 Ir3 S8'
_cell_volume   239.05019728
_cell_formula_units_Z   1
loop_
 _symmetry_equiv_pos_site_id
 _symmetry_equiv_pos_as_xyz
  1  'x, y, z'
loop_
 _atom_site_type_symbol
 _atom_site_label
 _atom_site_symmetry_multiplicity
 _atom_site_fract_x
 _atom_site_fract_y
 _atom_site_fract_z
 _atom_site_occupancy
  Mn  Mn0  1  0.982708  0.982708  0.982708  1
  V  V1  1  0.408199  0.408199  0.408199  1
  Ir  Ir2  1  0.861934  0.373535  0.373535  1
  Ir  Ir3  1  0.373535  0.861934  0.373535  1
  Ir  Ir4  1  0.373535  0.373535  0.861934  1
  S  S5  1  0.129587  0.129587  0.129587  1
  S  S6  1  0.576871  0.145840  0.145840  1
  S  S7  1  0.145840  0.576871  0.145840  1
  S  S8  1  0.145840  0.145840  0.576871  1
  S  S9  1  0.614282  0.614282  0.614282  1
  S  S10  1  0.130645  0.628513  0.628513  1
  S  S11  1  0.628513  0.130645  0.628513  1
  S  S12  1  0.628513  0.628513  0.130645  1
