# generated using pymatgen
data_Y2Ho4CuRh17
_symmetry_space_group_name_H-M   'P 1'
_cell_length_a   5.26530600
_cell_length_b   5.26530571
_cell_length_c   17.41970200
_cell_angle_alpha   90.00000000
_cell_angle_beta   90.00000000
_cell_angle_gamma   119.99998924
_symmetry_Int_Tables_number   1
_chemical_formula_structural   Y2Ho4CuRh17
_chemical_formula_sum   'Y2 Ho4 Cu1 Rh17'
_cell_volume   418.23329933
_cell_formula_units_Z   1
loop_
 _symmetry_equiv_pos_site_id
 _symmetry_equiv_pos_as_xyz
  1  'x, y, z'
loop_
 _atom_site_type_symbol
 _atom_site_label
 _atom_site_symmetry_multiplicity
 _atom_site_fract_x
 _atom_site_fract_y
 _atom_site_fract_z
 _atom_site_occupancy
  Y  Y0  1  0.333333  0.666667  0.750000  1
  Y  Y1  1  0.666667  0.333333  0.250000  1
  Ho  Ho2  1  0.333333  0.666667  0.957535  1
  Ho  Ho3  1  0.666667  0.333333  0.041182  1
  Ho  Ho4  1  0.666667  0.333333  0.458818  1
  Ho  Ho5  1  0.333333  0.666667  0.542465  1
  Cu  Cu6  1  0.333333  0.666667  0.250000  1
  Rh  Rh7  1  0.168714  0.831286  0.373832  1
  Rh  Rh8  1  0.168714  0.337428  0.373832  1
  Rh  Rh9  1  0.662572  0.831286  0.373832  1
  Rh  Rh10  1  0.832773  0.167227  0.624583  1
  Rh  Rh11  1  0.832773  0.665545  0.624583  1
  Rh  Rh12  1  0.334455  0.167227  0.624583  1
  Rh  Rh13  1  0.832773  0.167227  0.875417  1
  Rh  Rh14  1  0.832773  0.665545  0.875417  1
  Rh  Rh15  1  0.334455  0.167227  0.875417  1
  Rh  Rh16  1  0.168714  0.831286  0.126168  1
  Rh  Rh17  1  0.168714  0.337428  0.126168  1
  Rh  Rh18  1  0.662572  0.831286  0.126168  1
  Rh  Rh19  1  0.666667  0.333333  0.750000  1
  Rh  Rh20  1  0.000000  0.000000  0.250000  1
  Rh  Rh21  1  0.000000  0.000000  0.750000  1
  Rh  Rh22  1  0.000000  0.000000  0.497786  1
  Rh  Rh23  1  0.000000  0.000000  0.002214  1
