# generated using pymatgen
data_Ce2HoMnIn3Ru
_symmetry_space_group_name_H-M   'P 1'
_cell_length_a   8.37696023
_cell_length_b   8.37695941
_cell_length_c   4.86406316
_cell_angle_alpha   84.59231490
_cell_angle_beta   84.59231373
_cell_angle_gamma   33.61132865
_symmetry_Int_Tables_number   1
_chemical_formula_structural   Ce2HoMnIn3Ru
_chemical_formula_sum   'Ce2 Ho1 Mn1 In3 Ru1'
_cell_volume   188.02648175
_cell_formula_units_Z   1
loop_
 _symmetry_equiv_pos_site_id
 _symmetry_equiv_pos_as_xyz
  1  'x, y, z'
loop_
 _atom_site_type_symbol
 _atom_site_label
 _atom_site_symmetry_multiplicity
 _atom_site_fract_x
 _atom_site_fract_y
 _atom_site_fract_z
 _atom_site_occupancy
  Ce  Ce0  1  0.826321  0.826321  0.546645  1
  Ce  Ce1  1  0.171383  0.171383  0.431456  1
  Ho  Ho2  1  0.998291  0.998291  0.994593  1
  Mn  Mn3  1  0.794702  0.794702  0.133934  1
  In  In4  1  0.369375  0.369375  0.036513  1
  In  In5  1  0.501036  0.501036  0.499283  1
  In  In6  1  0.631346  0.631346  0.964888  1
  Ru  Ru7  1  0.207547  0.207547  0.892687  1
