# generated using pymatgen
data_Yb2TmGa9Pd2
_symmetry_space_group_name_H-M   'P 1'
_cell_length_a   8.14472478
_cell_length_b   8.14472572
_cell_length_c   8.14472510
_cell_angle_alpha   149.14229040
_cell_angle_beta   108.16456837
_cell_angle_gamma   80.20106785
_symmetry_Int_Tables_number   1
_chemical_formula_structural   Yb2TmGa9Pd2
_chemical_formula_sum   'Yb2 Tm1 Ga9 Pd2'
_cell_volume   257.99495180
_cell_formula_units_Z   1
loop_
 _symmetry_equiv_pos_site_id
 _symmetry_equiv_pos_as_xyz
  1  'x, y, z'
loop_
 _atom_site_type_symbol
 _atom_site_label
 _atom_site_symmetry_multiplicity
 _atom_site_fract_x
 _atom_site_fract_y
 _atom_site_fract_z
 _atom_site_occupancy
  Yb  Yb0  1  0.499942  0.499942  0.000000  1
  Yb  Yb1  1  0.798539  0.798539  0.000000  1
  Tm  Tm2  1  0.201946  0.201946  0.000000  1
  Ga  Ga3  1  0.081258  0.361051  0.720207  1
  Ga  Ga4  1  0.917251  0.637415  0.279836  1
  Ga  Ga5  1  0.640845  0.361051  0.279793  1
  Ga  Ga6  1  0.357577  0.637415  0.720164  1
  Ga  Ga7  1  0.791392  0.156604  0.634788  1
  Ga  Ga8  1  0.210941  0.844409  0.366531  1
  Ga  Ga9  1  0.521815  0.156604  0.365212  1
  Ga  Ga10  1  0.477879  0.844409  0.633469  1
  Ga  Ga11  1  0.000228  0.500228  0.500000  1
  Pd  Pd12  1  0.821988  0.000194  0.821794  1
  Pd  Pd13  1  0.178400  0.000194  0.178206  1
