# generated using pymatgen
data_Ca(PrB9)2
_symmetry_space_group_name_H-M   'P 1'
_cell_length_a   4.14523000
_cell_length_b   4.14523000
_cell_length_c   12.43666300
_cell_angle_alpha   90.00000000
_cell_angle_beta   90.00000000
_cell_angle_gamma   90.00000000
_symmetry_Int_Tables_number   1
_chemical_formula_structural   Ca(PrB9)2
_chemical_formula_sum   'Ca1 Pr2 B18'
_cell_volume   213.69833156
_cell_formula_units_Z   1
loop_
 _symmetry_equiv_pos_site_id
 _symmetry_equiv_pos_as_xyz
  1  'x, y, z'
loop_
 _atom_site_type_symbol
 _atom_site_label
 _atom_site_symmetry_multiplicity
 _atom_site_fract_x
 _atom_site_fract_y
 _atom_site_fract_z
 _atom_site_occupancy
  Ca  Ca0  1  0.000000  0.000000  0.000000  1
  Pr  Pr1  1  0.000000  0.000000  0.335941  1
  Pr  Pr2  1  0.000000  0.000000  0.664059  1
  B  B3  1  0.200598  0.500000  0.166220  1
  B  B4  1  0.199780  0.500000  0.500000  1
  B  B5  1  0.200598  0.500000  0.833780  1
  B  B6  1  0.500000  0.500000  0.266371  1
  B  B7  1  0.500000  0.500000  0.600351  1
  B  B8  1  0.500000  0.500000  0.933165  1
  B  B9  1  0.500000  0.200598  0.166220  1
  B  B10  1  0.500000  0.199780  0.500000  1
  B  B11  1  0.500000  0.200598  0.833780  1
  B  B12  1  0.500000  0.500000  0.066835  1
  B  B13  1  0.500000  0.500000  0.399649  1
  B  B14  1  0.500000  0.500000  0.733629  1
  B  B15  1  0.500000  0.799402  0.166220  1
  B  B16  1  0.500000  0.800220  0.500000  1
  B  B17  1  0.500000  0.799402  0.833780  1
  B  B18  1  0.799402  0.500000  0.166220  1
  B  B19  1  0.800220  0.500000  0.500000  1
  B  B20  1  0.799402  0.500000  0.833780  1
