# generated using pymatgen
data_Er6Zn15Ag8Se
_symmetry_space_group_name_H-M   'P 1'
_cell_length_a   9.15575702
_cell_length_b   9.15572786
_cell_length_c   9.15574600
_cell_angle_alpha   60.00022298
_cell_angle_beta   59.99987897
_cell_angle_gamma   60.00007009
_symmetry_Int_Tables_number   1
_chemical_formula_structural   Er6Zn15Ag8Se
_chemical_formula_sum   'Er6 Zn15 Ag8 Se1'
_cell_volume   542.70826677
_cell_formula_units_Z   1
loop_
 _symmetry_equiv_pos_site_id
 _symmetry_equiv_pos_as_xyz
  1  'x, y, z'
loop_
 _atom_site_type_symbol
 _atom_site_label
 _atom_site_symmetry_multiplicity
 _atom_site_fract_x
 _atom_site_fract_y
 _atom_site_fract_z
 _atom_site_occupancy
  Er  Er0  1  0.715248  0.284751  0.284754  1
  Er  Er1  1  0.715246  0.284759  0.715241  1
  Er  Er2  1  0.715245  0.715245  0.284756  1
  Er  Er3  1  0.284752  0.715249  0.715246  1
  Er  Er4  1  0.284754  0.715241  0.284759  1
  Er  Er5  1  0.284755  0.284755  0.715244  1
  Zn  Zn6  1  0.500000  0.000000  0.000000  1
  Zn  Zn7  1  0.500000  0.000000  0.500000  1
  Zn  Zn8  1  0.500000  0.500000  0.000000  1
  Zn  Zn9  1  0.000000  0.500000  0.500000  1
  Zn  Zn10  1  0.000000  0.500000  0.000000  1
  Zn  Zn11  1  0.000000  0.000000  0.500000  1
  Zn  Zn12  1  0.000000  0.000000  0.000000  1
  Zn  Zn13  1  0.009813  0.330056  0.330062  1
  Zn  Zn14  1  0.330061  0.009809  0.330065  1
  Zn  Zn15  1  0.330063  0.330061  0.009808  1
  Zn  Zn16  1  0.330073  0.330065  0.330072  1
  Zn  Zn17  1  0.990187  0.669944  0.669938  1
  Zn  Zn18  1  0.669939  0.990191  0.669935  1
  Zn  Zn19  1  0.669937  0.669939  0.990192  1
  Zn  Zn20  1  0.669927  0.669935  0.669928  1
  Ag  Ag21  1  0.633877  0.122045  0.122038  1
  Ag  Ag22  1  0.122043  0.633876  0.122044  1
  Ag  Ag23  1  0.122042  0.122044  0.633876  1
  Ag  Ag24  1  0.122038  0.122037  0.122041  1
  Ag  Ag25  1  0.366123  0.877955  0.877962  1
  Ag  Ag26  1  0.877957  0.366124  0.877956  1
  Ag  Ag27  1  0.877958  0.877956  0.366124  1
  Ag  Ag28  1  0.877962  0.877963  0.877959  1
  Se  Se29  1  0.500000  0.500000  0.500000  1
