# generated using pymatgen
data_YHoMg(PRh2)6
_symmetry_space_group_name_H-M   'P 1'
_cell_length_a   9.71422800
_cell_length_b   9.71422694
_cell_length_c   3.89311200
_cell_angle_alpha   90.00000000
_cell_angle_beta   90.00000000
_cell_angle_gamma   120.00000362
_symmetry_Int_Tables_number   1
_chemical_formula_structural   YHoMg(PRh2)6
_chemical_formula_sum   'Y1 Ho1 Mg1 P6 Rh12'
_cell_volume   318.15888160
_cell_formula_units_Z   1
loop_
 _symmetry_equiv_pos_site_id
 _symmetry_equiv_pos_as_xyz
  1  'x, y, z'
loop_
 _atom_site_type_symbol
 _atom_site_label
 _atom_site_symmetry_multiplicity
 _atom_site_fract_x
 _atom_site_fract_y
 _atom_site_fract_z
 _atom_site_occupancy
  Y  Y0  1  0.333333  0.666667  0.752827  1
  Ho  Ho1  1  0.666667  0.333333  0.247184  1
  Mg  Mg2  1  0.000000  0.000000  0.499986  1
  P  P3  1  0.402316  0.285317  0.746624  1
  P  P4  1  0.714683  0.116998  0.746624  1
  P  P5  1  0.883002  0.597684  0.746624  1
  P  P6  1  0.597917  0.714773  0.253369  1
  P  P7  1  0.285227  0.883146  0.253369  1
  P  P8  1  0.116854  0.402083  0.253369  1
  Rh  Rh9  1  0.453721  0.066678  0.748502  1
  Rh  Rh10  1  0.933322  0.387043  0.748502  1
  Rh  Rh11  1  0.612957  0.546279  0.748502  1
  Rh  Rh12  1  0.546762  0.933964  0.251497  1
  Rh  Rh13  1  0.066036  0.612798  0.251497  1
  Rh  Rh14  1  0.387202  0.453238  0.251497  1
  Rh  Rh15  1  0.161195  0.289227  0.754292  1
  Rh  Rh16  1  0.710773  0.871967  0.754292  1
  Rh  Rh17  1  0.128033  0.838805  0.754292  1
  Rh  Rh18  1  0.838750  0.710580  0.245717  1
  Rh  Rh19  1  0.289420  0.128171  0.245717  1
  Rh  Rh20  1  0.871829  0.161250  0.245717  1
