# generated using pymatgen
data_BiCl13
_symmetry_space_group_name_H-M   'P 1'
_cell_length_a   12.21351742
_cell_length_b   16.22655516
_cell_length_c   9.39734664
_cell_angle_alpha   98.92885507
_cell_angle_beta   109.11726547
_cell_angle_gamma   128.57481356
_symmetry_Int_Tables_number   1
_chemical_formula_structural   BiCl13
_chemical_formula_sum   'Bi2 Cl26'
_cell_volume   1201.88201475
_cell_formula_units_Z   2
loop_
 _symmetry_equiv_pos_site_id
 _symmetry_equiv_pos_as_xyz
  1  'x, y, z'
loop_
 _atom_site_type_symbol
 _atom_site_label
 _atom_site_symmetry_multiplicity
 _atom_site_fract_x
 _atom_site_fract_y
 _atom_site_fract_z
 _atom_site_occupancy
  Bi  Bi0  1  0.908910  0.049675  0.906355  1
  Bi  Bi1  1  0.341090  0.700325  0.593645  1
  Cl  Cl2  1  0.213314  0.385003  0.627707  1
  Cl  Cl3  1  0.690268  0.343100  0.976234  1
  Cl  Cl4  1  0.849382  0.042450  0.361616  1
  Cl  Cl5  1  0.036686  0.364997  0.872293  1
  Cl  Cl6  1  0.554273  0.109296  0.281676  1
  Cl  Cl7  1  0.695727  0.640704  0.218324  1
  Cl  Cl8  1  0.400618  0.707550  0.138384  1
  Cl  Cl9  1  0.559732  0.406900  0.523766  1
  Cl  Cl10  1  0.030449  0.791537  0.727762  1
  Cl  Cl11  1  0.532484  0.751277  0.386075  1
  Cl  Cl12  1  0.044566  0.110122  0.740361  1
  Cl  Cl13  1  0.725239  0.198193  0.534886  1
  Cl  Cl14  1  0.149134  0.120065  0.163989  1
  Cl  Cl15  1  0.775242  0.555567  0.743909  1
  Cl  Cl16  1  0.236373  0.934273  0.262211  1
  Cl  Cl17  1  0.206599  0.420848  0.431908  1
  Cl  Cl18  1  0.219551  0.958463  0.772238  1
  Cl  Cl19  1  0.717516  0.998723  0.113925  1
  Cl  Cl20  1  0.738255  0.827468  0.765055  1
  Cl  Cl21  1  0.511745  0.922532  0.734945  1
  Cl  Cl22  1  0.013627  0.815727  0.237789  1
  Cl  Cl23  1  0.043401  0.329152  0.068092  1
  Cl  Cl24  1  0.205434  0.639878  0.759639  1
  Cl  Cl25  1  0.474758  0.194433  0.756091  1
  Cl  Cl26  1  0.100866  0.629935  0.336011  1
  Cl  Cl27  1  0.524761  0.551807  0.965114  1
