# generated using pymatgen
data_Pu2MnIr3
_symmetry_space_group_name_H-M   'P 1'
_cell_length_a   5.62915100
_cell_length_b   5.62915189
_cell_length_c   5.29383500
_cell_angle_alpha   57.88160655
_cell_angle_beta   57.88161289
_cell_angle_gamma   60.00000489
_symmetry_Int_Tables_number   1
_chemical_formula_structural   Pu2MnIr3
_chemical_formula_sum   'Pu2 Mn1 Ir3'
_cell_volume   114.67440588
_cell_formula_units_Z   1
loop_
 _symmetry_equiv_pos_site_id
 _symmetry_equiv_pos_as_xyz
  1  'x, y, z'
loop_
 _atom_site_type_symbol
 _atom_site_label
 _atom_site_symmetry_multiplicity
 _atom_site_fract_x
 _atom_site_fract_y
 _atom_site_fract_z
 _atom_site_occupancy
  Pu  Pu0  1  0.502808  0.502808  0.491577  1
  Pu  Pu1  1  0.747192  0.747192  0.758423  1
  Mn  Mn2  1  0.125000  0.125000  0.625000  1
  Ir  Ir3  1  0.125000  0.125000  0.125000  1
  Ir  Ir4  1  0.625000  0.125000  0.125000  1
  Ir  Ir5  1  0.125000  0.625000  0.125000  1
