# generated using pymatgen
data_Dy2Tm4Al24Os5Pt3
_symmetry_space_group_name_H-M   'P 1'
_cell_length_a   8.79695356
_cell_length_b   8.81418864
_cell_length_c   9.52848510
_cell_angle_alpha   90.12255001
_cell_angle_beta   89.71459206
_cell_angle_gamma   119.53004290
_symmetry_Int_Tables_number   1
_chemical_formula_structural   Dy2Tm4Al24Os5Pt3
_chemical_formula_sum   'Dy2 Tm4 Al24 Os5 Pt3'
_cell_volume   642.83711186
_cell_formula_units_Z   1
loop_
 _symmetry_equiv_pos_site_id
 _symmetry_equiv_pos_as_xyz
  1  'x, y, z'
loop_
 _atom_site_type_symbol
 _atom_site_label
 _atom_site_symmetry_multiplicity
 _atom_site_fract_x
 _atom_site_fract_y
 _atom_site_fract_z
 _atom_site_occupancy
  Dy  Dy0  1  0.187833  0.383120  0.250899  1
  Dy  Dy1  1  0.812167  0.616880  0.749101  1
  Tm  Tm2  1  0.611308  0.814151  0.252451  1
  Tm  Tm3  1  0.388692  0.185849  0.747549  1
  Tm  Tm4  1  0.197277  0.808536  0.251929  1
  Tm  Tm5  1  0.802723  0.191464  0.748071  1
  Al  Al6  1  0.335353  0.671269  0.031609  1
  Al  Al7  1  0.664647  0.328731  0.968391  1
  Al  Al8  1  0.669185  0.331480  0.528923  1
  Al  Al9  1  0.330815  0.668520  0.471077  1
  Al  Al10  1  0.157899  0.325212  0.576202  1
  Al  Al11  1  0.842101  0.674788  0.423798  1
  Al  Al12  1  0.673349  0.840720  0.575846  1
  Al  Al13  1  0.836909  0.676385  0.078926  1
  Al  Al14  1  0.326651  0.159280  0.424154  1
  Al  Al15  1  0.163091  0.323615  0.921074  1
  Al  Al16  1  0.163926  0.835068  0.576110  1
  Al  Al17  1  0.325806  0.158876  0.076485  1
  Al  Al18  1  0.836074  0.164932  0.423890  1
  Al  Al19  1  0.674194  0.841124  0.923515  1
  Al  Al20  1  0.831517  0.159384  0.077562  1
  Al  Al21  1  0.168483  0.840616  0.922438  1
  Al  Al22  1  0.561008  0.125335  0.249792  1
  Al  Al23  1  0.438992  0.874665  0.750208  1
  Al  Al24  1  0.874024  0.438264  0.252554  1
  Al  Al25  1  0.125976  0.561736  0.747446  1
  Al  Al26  1  0.562842  0.437228  0.249711  1
  Al  Al27  1  0.437158  0.562772  0.750289  1
  Al  Al28  1  0.998233  0.001310  0.250204  1
  Al  Al29  1  0.001767  0.998690  0.749796  1
  Os  Os30  1  0.500000  0.000000  0.000000  1
  Os  Os31  1  0.500000  0.000000  0.500000  1
  Os  Os32  1  0.000000  0.500000  0.500000  1
  Os  Os33  1  0.000000  0.000000  0.000000  1
  Os  Os34  1  0.000000  0.000000  0.500000  1
  Pt  Pt35  1  0.000000  0.500000  0.000000  1
  Pt  Pt36  1  0.500000  0.500000  0.000000  1
  Pt  Pt37  1  0.500000  0.500000  0.500000  1
