# generated using pymatgen
data_V3Ag(SnO6)2
_symmetry_space_group_name_H-M   'P 1'
_cell_length_a   9.49736890
_cell_length_b   9.49736808
_cell_length_c   9.49736901
_cell_angle_alpha   59.03937658
_cell_angle_beta   59.03937657
_cell_angle_gamma   59.03938639
_symmetry_Int_Tables_number   1
_chemical_formula_structural   V3Ag(SnO6)2
_chemical_formula_sum   'V6 Ag2 Sn4 O24'
_cell_volume   592.48174621
_cell_formula_units_Z   2
loop_
 _symmetry_equiv_pos_site_id
 _symmetry_equiv_pos_as_xyz
  1  'x, y, z'
loop_
 _atom_site_type_symbol
 _atom_site_label
 _atom_site_symmetry_multiplicity
 _atom_site_fract_x
 _atom_site_fract_y
 _atom_site_fract_z
 _atom_site_occupancy
  V  V0  1  0.962509  0.537491  0.250000  1
  V  V1  1  0.250000  0.962509  0.537491  1
  V  V2  1  0.537491  0.250000  0.962509  1
  V  V3  1  0.750000  0.037491  0.462509  1
  V  V4  1  0.462509  0.750000  0.037491  1
  V  V5  1  0.037491  0.462509  0.750000  1
  Ag  Ag6  1  0.500000  0.500000  0.500000  1
  Ag  Ag7  1  0.000000  0.000000  0.000000  1
  Sn  Sn8  1  0.358619  0.358619  0.358619  1
  Sn  Sn9  1  0.858619  0.858619  0.858619  1
  Sn  Sn10  1  0.641381  0.641381  0.641381  1
  Sn  Sn11  1  0.141381  0.141381  0.141381  1
  O  O12  1  0.136492  0.502321  0.292247  1
  O  O13  1  0.292247  0.136492  0.502321  1
  O  O14  1  0.502321  0.292247  0.136492  1
  O  O15  1  0.792247  0.002321  0.636492  1
  O  O16  1  0.636492  0.792247  0.002321  1
  O  O17  1  0.002321  0.636492  0.792247  1
  O  O18  1  0.863508  0.497679  0.707753  1
  O  O19  1  0.707753  0.863508  0.497679  1
  O  O20  1  0.497679  0.707753  0.863508  1
  O  O21  1  0.207753  0.997679  0.363508  1
  O  O22  1  0.363508  0.207753  0.997679  1
  O  O23  1  0.997679  0.363508  0.207753  1
  O  O24  1  0.232060  0.440234  0.571748  1
  O  O25  1  0.571748  0.232060  0.440234  1
  O  O26  1  0.440234  0.571748  0.232060  1
  O  O27  1  0.071748  0.940234  0.732060  1
  O  O28  1  0.732060  0.071748  0.940234  1
  O  O29  1  0.940234  0.732060  0.071748  1
  O  O30  1  0.767940  0.559766  0.428252  1
  O  O31  1  0.428252  0.767940  0.559766  1
  O  O32  1  0.559766  0.428252  0.767940  1
  O  O33  1  0.928252  0.059766  0.267940  1
  O  O34  1  0.267940  0.928252  0.059766  1
  O  O35  1  0.059766  0.267940  0.928252  1
