# generated using pymatgen
data_NdEr(TcB4)2
_symmetry_space_group_name_H-M   'P 1'
_cell_length_a   3.62476300
_cell_length_b   5.99948374
_cell_length_c   11.61769400
_cell_angle_alpha   90.14697648
_cell_angle_beta   90.00000000
_cell_angle_gamma   90.00000000
_symmetry_Int_Tables_number   1
_chemical_formula_structural   NdEr(TcB4)2
_chemical_formula_sum   'Nd2 Er2 Tc4 B16'
_cell_volume   252.64575244
_cell_formula_units_Z   2
loop_
 _symmetry_equiv_pos_site_id
 _symmetry_equiv_pos_as_xyz
  1  'x, y, z'
loop_
 _atom_site_type_symbol
 _atom_site_label
 _atom_site_symmetry_multiplicity
 _atom_site_fract_x
 _atom_site_fract_y
 _atom_site_fract_z
 _atom_site_occupancy
  Nd  Nd0  1  0.000000  0.126714  0.651334  1
  Nd  Nd1  1  0.000000  0.873286  0.348666  1
  Er  Er2  1  0.000000  0.627034  0.851095  1
  Er  Er3  1  0.000000  0.372966  0.148905  1
  Tc  Tc4  1  0.000000  0.134350  0.914298  1
  Tc  Tc5  1  0.000000  0.865650  0.085702  1
  Tc  Tc6  1  0.000000  0.631128  0.588352  1
  Tc  Tc7  1  0.000000  0.368872  0.411648  1
  B  B8  1  0.500000  0.478575  0.693469  1
  B  B9  1  0.500000  0.521425  0.306531  1
  B  B10  1  0.500000  0.974240  0.810463  1
  B  B11  1  0.500000  0.025760  0.189537  1
  B  B12  1  0.500000  0.288621  0.817550  1
  B  B13  1  0.500000  0.711379  0.182450  1
  B  B14  1  0.500000  0.783615  0.686506  1
  B  B15  1  0.500000  0.216385  0.313494  1
  B  B16  1  0.500000  0.364576  0.969128  1
  B  B17  1  0.500000  0.635424  0.030872  1
  B  B18  1  0.500000  0.860852  0.532316  1
  B  B19  1  0.500000  0.139148  0.467684  1
  B  B20  1  0.500000  0.389147  0.546642  1
  B  B21  1  0.500000  0.610853  0.453358  1
  B  B22  1  0.500000  0.885767  0.953295  1
  B  B23  1  0.500000  0.114233  0.046705  1
