# generated using pymatgen
data_DyErI18
_symmetry_space_group_name_H-M   'P 1'
_cell_length_a   10.44308210
_cell_length_b   10.46502498
_cell_length_c   10.44249567
_cell_angle_alpha   88.58343029
_cell_angle_beta   88.59822645
_cell_angle_gamma   88.50117553
_symmetry_Int_Tables_number   1
_chemical_formula_structural   DyErI18
_chemical_formula_sum   'Dy1 Er1 I18'
_cell_volume   1140.16718276
_cell_formula_units_Z   1
loop_
 _symmetry_equiv_pos_site_id
 _symmetry_equiv_pos_as_xyz
  1  'x, y, z'
loop_
 _atom_site_type_symbol
 _atom_site_label
 _atom_site_symmetry_multiplicity
 _atom_site_fract_x
 _atom_site_fract_y
 _atom_site_fract_z
 _atom_site_occupancy
  Dy  Dy0  1  0.000000  0.000000  0.000000  1
  Er  Er1  1  0.500000  0.500000  0.500000  1
  I  I2  1  0.787913  0.464653  0.505530  1
  I  I3  1  0.504442  0.787454  0.464340  1
  I  I4  1  0.464753  0.505382  0.787629  1
  I  I5  1  0.212087  0.535347  0.494470  1
  I  I6  1  0.495558  0.212546  0.535660  1
  I  I7  1  0.535247  0.494618  0.212371  1
  I  I8  1  0.895035  0.373948  0.750704  1
  I  I9  1  0.749361  0.893933  0.373810  1
  I  I10  1  0.374099  0.749857  0.894925  1
  I  I11  1  0.104965  0.626052  0.249296  1
  I  I12  1  0.250639  0.106067  0.626190  1
  I  I13  1  0.625901  0.250143  0.105075  1
  I  I14  1  0.015024  0.976134  0.708872  1
  I  I15  1  0.708918  0.015164  0.974183  1
  I  I16  1  0.974630  0.709389  0.013491  1
  I  I17  1  0.984976  0.023866  0.291128  1
  I  I18  1  0.291082  0.984836  0.025817  1
  I  I19  1  0.025370  0.290611  0.986509  1
