# generated using pymatgen
data_PrAlTeO6
_symmetry_space_group_name_H-M   'P 1'
_cell_length_a   5.12191300
_cell_length_b   8.86987800
_cell_length_c   10.38946901
_cell_angle_alpha   90.00225343
_cell_angle_beta   89.99892477
_cell_angle_gamma   89.99840493
_symmetry_Int_Tables_number   1
_chemical_formula_structural   PrAlTeO6
_chemical_formula_sum   'Pr4 Al4 Te4 O24'
_cell_volume   472.00130043
_cell_formula_units_Z   4
loop_
 _symmetry_equiv_pos_site_id
 _symmetry_equiv_pos_as_xyz
  1  'x, y, z'
loop_
 _atom_site_type_symbol
 _atom_site_label
 _atom_site_symmetry_multiplicity
 _atom_site_fract_x
 _atom_site_fract_y
 _atom_site_fract_z
 _atom_site_occupancy
  Pr  Pr0  1  0.000000  0.000000  0.500000  1
  Pr  Pr1  1  0.500000  0.500000  0.500000  1
  Pr  Pr2  1  0.000000  0.000000  0.000000  1
  Pr  Pr3  1  0.500000  0.500000  0.000000  1
  Al  Al4  1  0.500028  0.833291  0.749983  1
  Al  Al5  1  0.499972  0.166709  0.250017  1
  Al  Al6  1  0.000028  0.333291  0.749983  1
  Al  Al7  1  0.999972  0.666709  0.250017  1
  Te  Te8  1  0.499999  0.166647  0.749946  1
  Te  Te9  1  0.999999  0.666647  0.749946  1
  Te  Te10  1  0.000001  0.333353  0.250054  1
  Te  Te11  1  0.500001  0.833353  0.250054  1
  O  O12  1  0.625525  0.998599  0.645888  1
  O  O13  1  0.125525  0.498599  0.645888  1
  O  O14  1  0.689339  0.313410  0.645860  1
  O  O15  1  0.189339  0.813411  0.645860  1
  O  O16  1  0.185232  0.187954  0.645851  1
  O  O17  1  0.685233  0.687954  0.645852  1
  O  O18  1  0.189316  0.186572  0.145850  1
  O  O19  1  0.689315  0.686573  0.145850  1
  O  O20  1  0.125502  0.501436  0.145866  1
  O  O21  1  0.625502  0.001435  0.145866  1
  O  O22  1  0.685148  0.312044  0.145843  1
  O  O23  1  0.185148  0.812045  0.145843  1
  O  O24  1  0.874475  0.501401  0.354112  1
  O  O25  1  0.374475  0.001401  0.354112  1
  O  O26  1  0.810661  0.186589  0.354140  1
  O  O27  1  0.310661  0.686590  0.354140  1
  O  O28  1  0.314767  0.312046  0.354148  1
  O  O29  1  0.814768  0.812046  0.354149  1
  O  O30  1  0.310685  0.313427  0.854150  1
  O  O31  1  0.810684  0.813428  0.854150  1
  O  O32  1  0.374498  0.998565  0.854134  1
  O  O33  1  0.874498  0.498564  0.854134  1
  O  O34  1  0.814852  0.187955  0.854157  1
  O  O35  1  0.314852  0.687956  0.854157  1
