# generated using pymatgen
data_Er10TlPb5
_symmetry_space_group_name_H-M   'P 1'
_cell_length_a   8.96136601
_cell_length_b   8.96136554
_cell_length_c   6.61572500
_cell_angle_alpha   90.00000000
_cell_angle_beta   90.00000000
_cell_angle_gamma   120.04171048
_symmetry_Int_Tables_number   1
_chemical_formula_structural   Er10TlPb5
_chemical_formula_sum   'Er10 Tl1 Pb5'
_cell_volume   459.91099888
_cell_formula_units_Z   1
loop_
 _symmetry_equiv_pos_site_id
 _symmetry_equiv_pos_as_xyz
  1  'x, y, z'
loop_
 _atom_site_type_symbol
 _atom_site_label
 _atom_site_symmetry_multiplicity
 _atom_site_fract_x
 _atom_site_fract_y
 _atom_site_fract_z
 _atom_site_occupancy
  Er  Er0  1  0.663616  0.333872  0.998348  1
  Er  Er1  1  0.333872  0.663616  0.998348  1
  Er  Er2  1  0.333872  0.663616  0.501652  1
  Er  Er3  1  0.663616  0.333872  0.501652  1
  Er  Er4  1  0.760904  0.760904  0.750000  1
  Er  Er5  1  0.238983  0.005070  0.750000  1
  Er  Er6  1  0.005070  0.238983  0.750000  1
  Er  Er7  1  0.237068  0.237068  0.250000  1
  Er  Er8  1  0.762455  0.999327  0.250000  1
  Er  Er9  1  0.999327  0.762455  0.250000  1
  Tl  Tl10  1  0.396091  0.396091  0.750000  1
  Pb  Pb11  1  0.606485  0.000501  0.750000  1
  Pb  Pb12  1  0.000501  0.606485  0.750000  1
  Pb  Pb13  1  0.605289  0.605289  0.250000  1
  Pb  Pb14  1  0.394427  0.998422  0.250000  1
  Pb  Pb15  1  0.998422  0.394427  0.250000  1
