# generated using pymatgen
data_ZrVBr9
_symmetry_space_group_name_H-M   'P 1'
_cell_length_a   7.91006432
_cell_length_b   10.08553749
_cell_length_c   10.66568377
_cell_angle_alpha   102.19147936
_cell_angle_beta   96.73442413
_cell_angle_gamma   95.27970526
_symmetry_Int_Tables_number   1
_chemical_formula_structural   ZrVBr9
_chemical_formula_sum   'Zr2 V2 Br18'
_cell_volume   819.95187262
_cell_formula_units_Z   2
loop_
 _symmetry_equiv_pos_site_id
 _symmetry_equiv_pos_as_xyz
  1  'x, y, z'
loop_
 _atom_site_type_symbol
 _atom_site_label
 _atom_site_symmetry_multiplicity
 _atom_site_fract_x
 _atom_site_fract_y
 _atom_site_fract_z
 _atom_site_occupancy
  Zr  Zr0  1  0.611959  0.639690  0.677258  1
  Zr  Zr1  1  0.388041  0.360310  0.322742  1
  V  V2  1  0.050600  0.194375  0.778309  1
  V  V3  1  0.949400  0.805625  0.221691  1
  Br  Br4  1  0.377914  0.573641  0.217039  1
  Br  Br5  1  0.622086  0.426359  0.782961  1
  Br  Br6  1  0.420442  0.162637  0.443460  1
  Br  Br7  1  0.579558  0.837363  0.556540  1
  Br  Br8  1  0.067271  0.283423  0.244161  1
  Br  Br9  1  0.932729  0.716577  0.755839  1
  Br  Br10  1  0.521523  0.230546  0.130740  1
  Br  Br11  1  0.478477  0.769454  0.869260  1
  Br  Br12  1  0.290773  0.518104  0.546982  1
  Br  Br13  1  0.709227  0.481896  0.453018  1
  Br  Br14  1  0.831056  0.598499  0.108369  1
  Br  Br15  1  0.168944  0.401501  0.891631  1
  Br  Br16  1  0.940706  0.208157  0.578737  1
  Br  Br17  1  0.059294  0.791843  0.421263  1
  Br  Br18  1  0.255935  0.053837  0.764883  1
  Br  Br19  1  0.744065  0.946163  0.235117  1
  Br  Br20  1  0.842389  0.109772  0.876248  1
  Br  Br21  1  0.157611  0.890228  0.123752  1
