# generated using pymatgen
data_Sm5(CoB3)2
_symmetry_space_group_name_H-M   'P 1'
_cell_length_a   5.43618779
_cell_length_b   5.43618838
_cell_length_c   8.66775703
_cell_angle_alpha   71.72448173
_cell_angle_beta   71.72447744
_cell_angle_gamma   60.00001591
_symmetry_Int_Tables_number   1
_chemical_formula_structural   Sm5(CoB3)2
_chemical_formula_sum   'Sm5 Co2 B6'
_cell_volume   206.77945373
_cell_formula_units_Z   1
loop_
 _symmetry_equiv_pos_site_id
 _symmetry_equiv_pos_as_xyz
  1  'x, y, z'
loop_
 _atom_site_type_symbol
 _atom_site_label
 _atom_site_symmetry_multiplicity
 _atom_site_fract_x
 _atom_site_fract_y
 _atom_site_fract_z
 _atom_site_occupancy
  Sm  Sm0  1  0.000000  0.000000  0.000000  1
  Sm  Sm1  1  0.250634  0.250634  0.248097  1
  Sm  Sm2  1  0.749366  0.749366  0.751903  1
  Sm  Sm3  1  0.417161  0.417161  0.748517  1
  Sm  Sm4  1  0.582839  0.582839  0.251483  1
  Co  Co5  1  0.121559  0.121559  0.635322  1
  Co  Co6  1  0.878441  0.878441  0.364678  1
  B  B7  1  0.167506  0.832494  0.500000  1
  B  B8  1  0.832494  0.500000  0.500000  1
  B  B9  1  0.500000  0.167506  0.500000  1
  B  B10  1  0.167506  0.500000  0.500000  1
  B  B11  1  0.500000  0.832494  0.500000  1
  B  B12  1  0.832494  0.167506  0.500000  1
