# generated using pymatgen
data_Er6B14OsRu
_symmetry_space_group_name_H-M   'P 1'
_cell_length_a   3.49744300
_cell_length_b   7.99197400
_cell_length_c   9.26790500
_cell_angle_alpha   90.00000000
_cell_angle_beta   90.00000000
_cell_angle_gamma   102.63912739
_symmetry_Int_Tables_number   1
_chemical_formula_structural   Er6B14OsRu
_chemical_formula_sum   'Er6 B14 Os1 Ru1'
_cell_volume   252.77414982
_cell_formula_units_Z   1
loop_
 _symmetry_equiv_pos_site_id
 _symmetry_equiv_pos_as_xyz
  1  'x, y, z'
loop_
 _atom_site_type_symbol
 _atom_site_label
 _atom_site_symmetry_multiplicity
 _atom_site_fract_x
 _atom_site_fract_y
 _atom_site_fract_z
 _atom_site_occupancy
  Er  Er0  1  0.105975  0.211950  0.440151  1
  Er  Er1  1  0.894001  0.788000  0.560011  1
  Er  Er2  1  0.105975  0.211950  0.059849  1
  Er  Er3  1  0.894001  0.788000  0.939989  1
  Er  Er4  1  0.755054  0.510108  0.250000  1
  Er  Er5  1  0.244617  0.489235  0.750000  1
  B  B6  1  0.272624  0.545248  0.465808  1
  B  B7  1  0.727464  0.454927  0.534212  1
  B  B8  1  0.272624  0.545248  0.034192  1
  B  B9  1  0.727464  0.454927  0.965788  1
  B  B10  1  0.367772  0.735545  0.150068  1
  B  B11  1  0.632006  0.264012  0.849436  1
  B  B12  1  0.367772  0.735545  0.349932  1
  B  B13  1  0.632006  0.264012  0.650564  1
  B  B14  1  0.479509  0.959016  0.095426  1
  B  B15  1  0.520563  0.041126  0.904313  1
  B  B16  1  0.479509  0.959016  0.404574  1
  B  B17  1  0.520563  0.041126  0.595687  1
  B  B18  1  0.544379  0.088759  0.250000  1
  B  B19  1  0.456095  0.912188  0.750000  1
  Os  Os20  1  0.945917  0.891835  0.250000  1
  Ru  Ru21  1  0.054112  0.108224  0.750000  1
