# generated using pymatgen
data_Ca2Gd3CdSn3
_symmetry_space_group_name_H-M   'P 1'
_cell_length_a   9.41891000
_cell_length_b   9.41890971
_cell_length_c   6.88459800
_cell_angle_alpha   90.00000000
_cell_angle_beta   90.00000000
_cell_angle_gamma   120.00000102
_symmetry_Int_Tables_number   1
_chemical_formula_structural   Ca2Gd3CdSn3
_chemical_formula_sum   'Ca4 Gd6 Cd2 Sn6'
_cell_volume   528.94497347
_cell_formula_units_Z   2
loop_
 _symmetry_equiv_pos_site_id
 _symmetry_equiv_pos_as_xyz
  1  'x, y, z'
loop_
 _atom_site_type_symbol
 _atom_site_label
 _atom_site_symmetry_multiplicity
 _atom_site_fract_x
 _atom_site_fract_y
 _atom_site_fract_z
 _atom_site_occupancy
  Ca  Ca0  1  0.666667  0.333333  0.500000  1
  Ca  Ca1  1  0.333333  0.666667  0.500000  1
  Ca  Ca2  1  0.333333  0.666667  0.000000  1
  Ca  Ca3  1  0.666667  0.333333  0.000000  1
  Gd  Gd4  1  0.716940  0.716940  0.250000  1
  Gd  Gd5  1  0.283060  0.000000  0.250000  1
  Gd  Gd6  1  0.000000  0.283060  0.250000  1
  Gd  Gd7  1  0.283060  0.283060  0.750000  1
  Gd  Gd8  1  0.716940  0.000000  0.750000  1
  Gd  Gd9  1  0.000000  0.716940  0.750000  1
  Cd  Cd10  1  0.000000  0.000000  0.500000  1
  Cd  Cd11  1  0.000000  0.000000  0.000000  1
  Sn  Sn12  1  0.373874  0.373874  0.250000  1
  Sn  Sn13  1  0.626126  0.000000  0.250000  1
  Sn  Sn14  1  0.000000  0.626126  0.250000  1
  Sn  Sn15  1  0.626126  0.626126  0.750000  1
  Sn  Sn16  1  0.373874  0.000000  0.750000  1
  Sn  Sn17  1  0.000000  0.373874  0.750000  1
