# generated using pymatgen
data_Tm6Zn23P
_symmetry_space_group_name_H-M   'P 1'
_cell_length_a   8.96348326
_cell_length_b   8.96348288
_cell_length_c   8.96348400
_cell_angle_alpha   59.99999586
_cell_angle_beta   59.99999728
_cell_angle_gamma   60.00000102
_symmetry_Int_Tables_number   1
_chemical_formula_structural   Tm6Zn23P
_chemical_formula_sum   'Tm6 Zn23 P1'
_cell_volume   509.23170560
_cell_formula_units_Z   1
loop_
 _symmetry_equiv_pos_site_id
 _symmetry_equiv_pos_as_xyz
  1  'x, y, z'
loop_
 _atom_site_type_symbol
 _atom_site_label
 _atom_site_symmetry_multiplicity
 _atom_site_fract_x
 _atom_site_fract_y
 _atom_site_fract_z
 _atom_site_occupancy
  Tm  Tm0  1  0.711067  0.288933  0.288933  1
  Tm  Tm1  1  0.711067  0.288933  0.711067  1
  Tm  Tm2  1  0.711067  0.711067  0.288933  1
  Tm  Tm3  1  0.288933  0.711067  0.711067  1
  Tm  Tm4  1  0.288933  0.711067  0.288933  1
  Tm  Tm5  1  0.288933  0.288933  0.711067  1
  Zn  Zn6  1  0.625585  0.124805  0.124805  1
  Zn  Zn7  1  0.124805  0.625585  0.124805  1
  Zn  Zn8  1  0.124805  0.124805  0.625585  1
  Zn  Zn9  1  0.124805  0.124805  0.124805  1
  Zn  Zn10  1  0.374415  0.875195  0.875195  1
  Zn  Zn11  1  0.875195  0.374415  0.875195  1
  Zn  Zn12  1  0.875195  0.875195  0.374415  1
  Zn  Zn13  1  0.875195  0.875195  0.875195  1
  Zn  Zn14  1  0.500000  0.000000  0.000000  1
  Zn  Zn15  1  0.500000  0.000000  0.500000  1
  Zn  Zn16  1  0.500000  0.500000  0.000000  1
  Zn  Zn17  1  0.000000  0.500000  0.500000  1
  Zn  Zn18  1  0.000000  0.500000  0.000000  1
  Zn  Zn19  1  0.000000  0.000000  0.500000  1
  Zn  Zn20  1  0.000000  0.000000  0.000000  1
  Zn  Zn21  1  0.010209  0.329930  0.329930  1
  Zn  Zn22  1  0.329930  0.010209  0.329930  1
  Zn  Zn23  1  0.329930  0.329930  0.010209  1
  Zn  Zn24  1  0.329930  0.329930  0.329930  1
  Zn  Zn25  1  0.989791  0.670070  0.670070  1
  Zn  Zn26  1  0.670070  0.989791  0.670070  1
  Zn  Zn27  1  0.670070  0.670070  0.989791  1
  Zn  Zn28  1  0.670070  0.670070  0.670070  1
  P  P29  1  0.500000  0.500000  0.500000  1
