# generated using pymatgen
data_Lu4In2CuPd3
_symmetry_space_group_name_H-M   'P 1'
_cell_length_a   7.59039899
_cell_length_b   7.59039899
_cell_length_c   3.65678000
_cell_angle_alpha   90.00000000
_cell_angle_beta   90.00000000
_cell_angle_gamma   89.75755857
_symmetry_Int_Tables_number   1
_chemical_formula_structural   Lu4In2CuPd3
_chemical_formula_sum   'Lu4 In2 Cu1 Pd3'
_cell_volume   210.68041019
_cell_formula_units_Z   1
loop_
 _symmetry_equiv_pos_site_id
 _symmetry_equiv_pos_as_xyz
  1  'x, y, z'
loop_
 _atom_site_type_symbol
 _atom_site_label
 _atom_site_symmetry_multiplicity
 _atom_site_fract_x
 _atom_site_fract_y
 _atom_site_fract_z
 _atom_site_occupancy
  Lu  Lu0  1  0.674946  0.171471  0.500000  1
  Lu  Lu1  1  0.328529  0.825054  0.500000  1
  Lu  Lu2  1  0.172579  0.327421  0.500000  1
  Lu  Lu3  1  0.825841  0.674159  0.500000  1
  In  In4  1  0.499491  0.495101  0.000000  1
  In  In5  1  0.004899  0.000509  0.000000  1
  Cu  Cu6  1  0.373822  0.126178  0.000000  1
  Pd  Pd7  1  0.128151  0.629056  0.000000  1
  Pd  Pd8  1  0.870944  0.371849  0.000000  1
  Pd  Pd9  1  0.620797  0.879203  0.000000  1
