# generated using pymatgen
data_Pr8Dy8Sc3Si16Hg
_symmetry_space_group_name_H-M   'P 1'
_cell_length_a   7.35281538
_cell_length_b   7.77541885
_cell_length_c   14.79564700
_cell_angle_alpha   90.00000000
_cell_angle_beta   90.00000000
_cell_angle_gamma   90.05793637
_symmetry_Int_Tables_number   1
_chemical_formula_structural   Pr8Dy8Sc3Si16Hg
_chemical_formula_sum   'Pr8 Dy8 Sc3 Si16 Hg1'
_cell_volume   845.88474746
_cell_formula_units_Z   1
loop_
 _symmetry_equiv_pos_site_id
 _symmetry_equiv_pos_as_xyz
  1  'x, y, z'
loop_
 _atom_site_type_symbol
 _atom_site_label
 _atom_site_symmetry_multiplicity
 _atom_site_fract_x
 _atom_site_fract_y
 _atom_site_fract_z
 _atom_site_occupancy
  Pr  Pr0  1  0.016704  0.178234  0.401208  1
  Pr  Pr1  1  0.516072  0.323096  0.400722  1
  Pr  Pr2  1  0.484411  0.688180  0.899416  1
  Pr  Pr3  1  0.484411  0.688180  0.600584  1
  Pr  Pr4  1  0.974509  0.823457  0.601341  1
  Pr  Pr5  1  0.974509  0.823457  0.898659  1
  Pr  Pr6  1  0.516072  0.323096  0.099278  1
  Pr  Pr7  1  0.016704  0.178234  0.098792  1
  Dy  Dy8  1  0.335907  0.176048  0.625409  1
  Dy  Dy9  1  0.677090  0.817067  0.373083  1
  Dy  Dy10  1  0.176898  0.676458  0.375865  1
  Dy  Dy11  1  0.820346  0.312143  0.873919  1
  Dy  Dy12  1  0.820346  0.312143  0.626081  1
  Dy  Dy13  1  0.335907  0.176048  0.874591  1
  Dy  Dy14  1  0.176898  0.676458  0.124135  1
  Dy  Dy15  1  0.677090  0.817067  0.126917  1
  Sc  Sc16  1  0.843753  0.487549  0.250000  1
  Sc  Sc17  1  0.342361  0.010702  0.250000  1
  Sc  Sc18  1  0.152696  0.507672  0.750000  1
  Si  Si19  1  0.260021  0.870889  0.750000  1
  Si  Si20  1  0.475259  0.602460  0.250000  1
  Si  Si21  1  0.043111  0.112589  0.750000  1
  Si  Si22  1  0.518642  0.416909  0.750000  1
  Si  Si23  1  0.148464  0.470531  0.542734  1
  Si  Si24  1  0.977709  0.891914  0.250000  1
  Si  Si25  1  0.717708  0.126234  0.250000  1
  Si  Si26  1  0.851724  0.530894  0.036329  1
  Si  Si27  1  0.351855  0.968308  0.040988  1
  Si  Si28  1  0.148464  0.470531  0.957266  1
  Si  Si29  1  0.652907  0.038755  0.526426  1
  Si  Si30  1  0.351855  0.968308  0.459012  1
  Si  Si31  1  0.851724  0.530894  0.463671  1
  Si  Si32  1  0.785043  0.606308  0.750000  1
  Si  Si33  1  0.217384  0.373109  0.250000  1
  Si  Si34  1  0.652907  0.038755  0.973574  1
  Hg  Hg35  1  0.652536  0.987322  0.750000  1
