# generated using pymatgen
data_Tb7Dy2Tm3In20
_symmetry_space_group_name_H-M   'P 1'
_cell_length_a   6.52517313
_cell_length_b   10.41982093
_cell_length_c   12.28199200
_cell_angle_alpha   89.98049601
_cell_angle_beta   90.03376191
_cell_angle_gamma   90.01436318
_symmetry_Int_Tables_number   1
_chemical_formula_structural   Tb7Dy2Tm3In20
_chemical_formula_sum   'Tb7 Dy2 Tm3 In20'
_cell_volume   835.06636377
_cell_formula_units_Z   1
loop_
 _symmetry_equiv_pos_site_id
 _symmetry_equiv_pos_as_xyz
  1  'x, y, z'
loop_
 _atom_site_type_symbol
 _atom_site_label
 _atom_site_symmetry_multiplicity
 _atom_site_fract_x
 _atom_site_fract_y
 _atom_site_fract_z
 _atom_site_occupancy
  Tb  Tb0  1  0.890402  0.492671  0.141882  1
  Tb  Tb1  1  0.609151  0.006718  0.642320  1
  Tb  Tb2  1  0.109635  0.992550  0.858274  1
  Tb  Tb3  1  0.390129  0.507119  0.358265  1
  Tb  Tb4  1  0.109574  0.507424  0.858151  1
  Tb  Tb5  1  0.390248  0.992884  0.358264  1
  Tb  Tb6  1  0.890354  0.007273  0.141826  1
  Dy  Dy7  1  0.850436  0.250126  0.443664  1
  Dy  Dy8  1  0.609212  0.493265  0.642386  1
  Tm  Tm9  1  0.349319  0.749925  0.055934  1
  Tm  Tm10  1  0.150909  0.750132  0.556008  1
  Tm  Tm11  1  0.650689  0.250023  0.944190  1
  In  In12  1  0.614840  0.749727  0.505214  1
  In  In13  1  0.885118  0.749956  0.004825  1
  In  In14  1  0.383239  0.250061  0.495454  1
  In  In15  1  0.114945  0.249972  0.994786  1
  In  In16  1  0.650247  0.749980  0.244777  1
  In  In17  1  0.849603  0.749891  0.744798  1
  In  In18  1  0.349707  0.250066  0.755510  1
  In  In19  1  0.152162  0.249918  0.254053  1
  In  In20  1  0.124526  0.750071  0.283490  1
  In  In21  1  0.375861  0.750056  0.783741  1
  In  In22  1  0.875699  0.250166  0.716818  1
  In  In23  1  0.623970  0.249937  0.215153  1
  In  In24  1  0.875104  0.544536  0.401490  1
  In  In25  1  0.624653  0.956587  0.901574  1
  In  In26  1  0.124568  0.043124  0.598846  1
  In  In27  1  0.375357  0.456627  0.098329  1
  In  In28  1  0.125118  0.457084  0.598796  1
  In  In29  1  0.375457  0.043318  0.098388  1
  In  In30  1  0.875243  0.955505  0.401418  1
  In  In31  1  0.624521  0.543308  0.901376  1
