# generated using pymatgen
data_Lu3Hg3PdAu
_symmetry_space_group_name_H-M   'P 1'
_cell_length_a   7.59788100
_cell_length_b   7.59788128
_cell_length_c   3.60836400
_cell_angle_alpha   90.00000000
_cell_angle_beta   90.00000000
_cell_angle_gamma   120.00000312
_symmetry_Int_Tables_number   1
_chemical_formula_structural   Lu3Hg3PdAu
_chemical_formula_sum   'Lu3 Hg3 Pd1 Au1'
_cell_volume   180.39560395
_cell_formula_units_Z   1
loop_
 _symmetry_equiv_pos_site_id
 _symmetry_equiv_pos_as_xyz
  1  'x, y, z'
loop_
 _atom_site_type_symbol
 _atom_site_label
 _atom_site_symmetry_multiplicity
 _atom_site_fract_x
 _atom_site_fract_y
 _atom_site_fract_z
 _atom_site_occupancy
  Lu  Lu0  1  0.582208  0.992536  0.499999  1
  Lu  Lu1  1  0.410327  0.417791  0.499999  1
  Lu  Lu2  1  0.007464  0.589672  0.499999  1
  Hg  Hg3  1  0.229558  0.994344  0.000000  1
  Hg  Hg4  1  0.005656  0.235213  0.000000  1
  Hg  Hg5  1  0.764786  0.770442  0.000000  1
  Pd  Pd6  1  0.333334  0.666667  0.000000  1
  Au  Au7  1  0.666666  0.333334  0.000000  1
