# generated using pymatgen
data_Tm8Hf2IrRh5
_symmetry_space_group_name_H-M   'P 1'
_cell_length_a   10.73632277
_cell_length_b   10.72974400
_cell_length_c   6.16514292
_cell_angle_alpha   90.00000000
_cell_angle_beta   90.25156691
_cell_angle_gamma   90.00000000
_symmetry_Int_Tables_number   1
_chemical_formula_structural   Tm8Hf2IrRh5
_chemical_formula_sum   'Tm16 Hf4 Ir2 Rh10'
_cell_volume   710.20525589
_cell_formula_units_Z   2
loop_
 _symmetry_equiv_pos_site_id
 _symmetry_equiv_pos_as_xyz
  1  'x, y, z'
loop_
 _atom_site_type_symbol
 _atom_site_label
 _atom_site_symmetry_multiplicity
 _atom_site_fract_x
 _atom_site_fract_y
 _atom_site_fract_z
 _atom_site_occupancy
  Tm  Tm0  1  0.289481  0.087792  0.373797  1
  Tm  Tm1  1  0.289481  0.912208  0.873797  1
  Tm  Tm2  1  0.710793  0.086100  0.873985  1
  Tm  Tm3  1  0.710793  0.913900  0.373985  1
  Tm  Tm4  1  0.584544  0.788532  0.874715  1
  Tm  Tm5  1  0.584544  0.211468  0.374715  1
  Tm  Tm6  1  0.413297  0.789134  0.374389  1
  Tm  Tm7  1  0.413297  0.210866  0.874389  1
  Tm  Tm8  1  0.211618  0.415210  0.625167  1
  Tm  Tm9  1  0.211618  0.584790  0.125167  1
  Tm  Tm10  1  0.789308  0.413519  0.125699  1
  Tm  Tm11  1  0.789308  0.586481  0.625699  1
  Tm  Tm12  1  0.914042  0.710909  0.125769  1
  Tm  Tm13  1  0.914042  0.289091  0.625769  1
  Tm  Tm14  1  0.088076  0.710353  0.626246  1
  Tm  Tm15  1  0.088076  0.289647  0.126246  1
  Hf  Hf16  1  0.000216  0.000157  0.500127  1
  Hf  Hf17  1  0.000216  0.999843  0.000127  1
  Hf  Hf18  1  0.499248  0.499683  0.000003  1
  Hf  Hf19  1  0.499248  0.500317  0.500003  1
  Ir  Ir20  1  0.354986  0.353907  0.249877  1
  Ir  Ir21  1  0.354986  0.646093  0.749877  1
  Rh  Rh22  1  0.854918  0.144754  0.249976  1
  Rh  Rh23  1  0.854918  0.855246  0.749976  1
  Rh  Rh24  1  0.144389  0.144956  0.750221  1
  Rh  Rh25  1  0.144389  0.855044  0.250221  1
  Rh  Rh26  1  0.646065  0.355136  0.750210  1
  Rh  Rh27  1  0.646065  0.644864  0.250210  1
  Rh  Rh28  1  0.500383  0.999719  0.119647  1
  Rh  Rh29  1  0.500383  0.000281  0.619647  1
  Rh  Rh30  1  0.998639  0.499952  0.880170  1
  Rh  Rh31  1  0.998639  0.500048  0.380170  1
