# generated using pymatgen
data_ErTlP2S7
_symmetry_space_group_name_H-M   'P 1'
_cell_length_a   9.01882600
_cell_length_b   9.71323184
_cell_length_c   12.46408700
_cell_angle_alpha   90.00000000
_cell_angle_beta   90.00000000
_cell_angle_gamma   89.82786286
_symmetry_Int_Tables_number   1
_chemical_formula_structural   ErTlP2S7
_chemical_formula_sum   'Er4 Tl4 P8 S28'
_cell_volume   1091.87337141
_cell_formula_units_Z   4
loop_
 _symmetry_equiv_pos_site_id
 _symmetry_equiv_pos_as_xyz
  1  'x, y, z'
loop_
 _atom_site_type_symbol
 _atom_site_label
 _atom_site_symmetry_multiplicity
 _atom_site_fract_x
 _atom_site_fract_y
 _atom_site_fract_z
 _atom_site_occupancy
  Er  Er0  1  0.893194  0.858992  0.642105  1
  Er  Er1  1  0.606806  0.141008  0.142105  1
  Er  Er2  1  0.106806  0.141008  0.357895  1
  Er  Er3  1  0.393194  0.858992  0.857895  1
  Tl  Tl4  1  0.870119  0.609259  0.309710  1
  Tl  Tl5  1  0.629881  0.390741  0.809710  1
  Tl  Tl6  1  0.129881  0.390741  0.690290  1
  Tl  Tl7  1  0.370119  0.609259  0.190290  1
  P  P8  1  0.523898  0.727023  0.607408  1
  P  P9  1  0.023898  0.727023  0.892592  1
  P  P10  1  0.802242  0.176412  0.534095  1
  P  P11  1  0.697758  0.823588  0.034095  1
  P  P12  1  0.302242  0.176412  0.965905  1
  P  P13  1  0.197758  0.823588  0.465905  1
  P  P14  1  0.476102  0.272977  0.392592  1
  P  P15  1  0.976102  0.272977  0.107408  1
  S  S16  1  0.386825  0.632629  0.713377  1
  S  S17  1  0.676799  0.998221  0.945401  1
  S  S18  1  0.213129  0.635324  0.941777  1
  S  S19  1  0.176799  0.998221  0.554599  1
  S  S20  1  0.823201  0.001779  0.445401  1
  S  S21  1  0.081288  0.907878  0.819950  1
  S  S22  1  0.353499  0.143578  0.808784  1
  S  S23  1  0.323201  0.001779  0.054599  1
  S  S24  1  0.423351  0.757468  0.452837  1
  S  S25  1  0.923351  0.757468  0.047163  1
  S  S26  1  0.646501  0.856422  0.191216  1
  S  S27  1  0.113175  0.367371  0.213377  1
  S  S28  1  0.286871  0.364676  0.441777  1
  S  S29  1  0.613175  0.367371  0.286623  1
  S  S30  1  0.713129  0.635324  0.558223  1
  S  S31  1  0.067784  0.675068  0.530854  1
  S  S32  1  0.581288  0.907878  0.680050  1
  S  S33  1  0.786871  0.364676  0.058223  1
  S  S34  1  0.567784  0.675068  0.969146  1
  S  S35  1  0.076649  0.242532  0.952837  1
  S  S36  1  0.418712  0.092122  0.319950  1
  S  S37  1  0.853499  0.143578  0.691216  1
  S  S38  1  0.146501  0.856422  0.308784  1
  S  S39  1  0.886825  0.632629  0.786623  1
  S  S40  1  0.432216  0.324932  0.030854  1
  S  S41  1  0.932216  0.324932  0.469146  1
  S  S42  1  0.576649  0.242532  0.547163  1
  S  S43  1  0.918712  0.092122  0.180050  1
