# generated using pymatgen
data_SmTh5(GaPd)6
_symmetry_space_group_name_H-M   'P 1'
_cell_length_a   7.34118657
_cell_length_b   7.34683570
_cell_length_c   8.22683000
_cell_angle_alpha   90.00000000
_cell_angle_beta   90.00000000
_cell_angle_gamma   120.02753099
_symmetry_Int_Tables_number   1
_chemical_formula_structural   SmTh5(GaPd)6
_chemical_formula_sum   'Sm1 Th5 Ga6 Pd6'
_cell_volume   384.15739240
_cell_formula_units_Z   1
loop_
 _symmetry_equiv_pos_site_id
 _symmetry_equiv_pos_as_xyz
  1  'x, y, z'
loop_
 _atom_site_type_symbol
 _atom_site_label
 _atom_site_symmetry_multiplicity
 _atom_site_fract_x
 _atom_site_fract_y
 _atom_site_fract_z
 _atom_site_occupancy
  Sm  Sm0  1  0.999936  0.409650  0.250000  1
  Th  Th1  1  0.583314  0.582136  0.250000  1
  Th  Th2  1  0.000054  0.417297  0.750000  1
  Th  Th3  1  0.416757  0.998937  0.250000  1
  Th  Th4  1  0.414625  0.000965  0.750000  1
  Th  Th5  1  0.585272  0.586425  0.750000  1
  Ga  Ga6  1  0.240336  0.242550  0.499153  1
  Ga  Ga7  1  0.759634  0.002209  0.499127  1
  Ga  Ga8  1  0.000035  0.756196  0.498661  1
  Ga  Ga9  1  0.759634  0.002209  0.000873  1
  Ga  Ga10  1  0.240336  0.242550  0.000847  1
  Ga  Ga11  1  0.000035  0.756196  0.001339  1
  Pd  Pd12  1  0.336197  0.669561  0.500588  1
  Pd  Pd13  1  0.999915  0.001060  0.750000  1
  Pd  Pd14  1  0.000026  0.995676  0.250000  1
  Pd  Pd15  1  0.336197  0.669561  0.999412  1
  Pd  Pd16  1  0.663850  0.333412  0.500830  1
  Pd  Pd17  1  0.663850  0.333412  0.999170  1
