# generated using pymatgen
data_Ti13Al9OsRh7
_symmetry_space_group_name_H-M   'P 1'
_cell_length_a   8.75078540
_cell_length_b   8.75078533
_cell_length_c   8.75078551
_cell_angle_alpha   59.67313196
_cell_angle_beta   59.67313341
_cell_angle_gamma   59.67314338
_symmetry_Int_Tables_number   1
_chemical_formula_structural   Ti13Al9OsRh7
_chemical_formula_sum   'Ti13 Al9 Os1 Rh7'
_cell_volume   470.31523004
_cell_formula_units_Z   1
loop_
 _symmetry_equiv_pos_site_id
 _symmetry_equiv_pos_as_xyz
  1  'x, y, z'
loop_
 _atom_site_type_symbol
 _atom_site_label
 _atom_site_symmetry_multiplicity
 _atom_site_fract_x
 _atom_site_fract_y
 _atom_site_fract_z
 _atom_site_occupancy
  Ti  Ti0  1  0.211726  0.211726  0.788327  1
  Ti  Ti1  1  0.788327  0.211726  0.211726  1
  Ti  Ti2  1  0.211726  0.788327  0.211726  1
  Ti  Ti3  1  0.798439  0.798439  0.187574  1
  Ti  Ti4  1  0.187574  0.798439  0.798439  1
  Ti  Ti5  1  0.798439  0.187574  0.798439  1
  Ti  Ti6  1  0.378277  0.378277  0.378277  1
  Ti  Ti7  1  0.379087  0.866746  0.379087  1
  Ti  Ti8  1  0.866746  0.379087  0.379087  1
  Ti  Ti9  1  0.379087  0.379087  0.866746  1
  Ti  Ti10  1  0.845036  0.468229  0.845036  1
  Ti  Ti11  1  0.468229  0.845036  0.845036  1
  Ti  Ti12  1  0.845036  0.845036  0.468229  1
  Al  Al13  1  0.153528  0.153528  0.153528  1
  Al  Al14  1  0.157724  0.530745  0.157724  1
  Al  Al15  1  0.530745  0.157724  0.157724  1
  Al  Al16  1  0.157724  0.157724  0.530745  1
  Al  Al17  1  0.619862  0.619862  0.619862  1
  Al  Al18  1  0.620044  0.142733  0.620044  1
  Al  Al19  1  0.142733  0.620044  0.620044  1
  Al  Al20  1  0.620044  0.620044  0.142733  1
  Al  Al21  1  0.829051  0.829051  0.829051  1
  Os  Os22  1  0.003893  0.003893  0.003893  1
  Rh  Rh23  1  0.003757  0.003757  0.497800  1
  Rh  Rh24  1  0.497800  0.003757  0.003757  1
  Rh  Rh25  1  0.003757  0.497800  0.003757  1
  Rh  Rh26  1  0.499358  0.499358  0.001987  1
  Rh  Rh27  1  0.001987  0.499358  0.499358  1
  Rh  Rh28  1  0.499358  0.001987  0.499358  1
  Rh  Rh29  1  0.500905  0.500905  0.500905  1
