# generated using pymatgen
data_Tb5Dy6In9Ni4
_symmetry_space_group_name_H-M   'P 1'
_cell_length_a   3.66658400
_cell_length_b   13.10479838
_cell_length_c   13.10479903
_cell_angle_alpha   112.61055021
_cell_angle_beta   90.00000000
_cell_angle_gamma   90.00000000
_symmetry_Int_Tables_number   1
_chemical_formula_structural   Tb5Dy6In9Ni4
_chemical_formula_sum   'Tb5 Dy6 In9 Ni4'
_cell_volume   581.28571907
_cell_formula_units_Z   1
loop_
 _symmetry_equiv_pos_site_id
 _symmetry_equiv_pos_as_xyz
  1  'x, y, z'
loop_
 _atom_site_type_symbol
 _atom_site_label
 _atom_site_symmetry_multiplicity
 _atom_site_fract_x
 _atom_site_fract_y
 _atom_site_fract_z
 _atom_site_occupancy
  Tb  Tb0  1  0.000000  0.840218  0.159782  1
  Tb  Tb1  1  0.000000  0.374261  0.625739  1
  Tb  Tb2  1  0.000000  0.625672  0.374328  1
  Tb  Tb3  1  0.000000  0.687819  0.687782  1
  Tb  Tb4  1  0.000000  0.312218  0.312181  1
  Dy  Dy5  1  0.000000  0.919609  0.582568  1
  Dy  Dy6  1  0.000000  0.080643  0.417616  1
  Dy  Dy7  1  0.000000  0.582384  0.919357  1
  Dy  Dy8  1  0.000000  0.417432  0.080391  1
  Dy  Dy9  1  0.000000  0.159871  0.840129  1
  Dy  Dy10  1  0.000000  0.000066  0.999934  1
  In  In11  1  0.500000  0.157995  0.632532  1
  In  In12  1  0.500000  0.841844  0.367773  1
  In  In13  1  0.500000  0.632227  0.158156  1
  In  In14  1  0.500000  0.367468  0.842005  1
  In  In15  1  0.500000  0.922671  0.780102  1
  In  In16  1  0.500000  0.077721  0.220029  1
  In  In17  1  0.500000  0.779971  0.922279  1
  In  In18  1  0.500000  0.219898  0.077329  1
  In  In19  1  0.500000  0.499879  0.500121  1
  Ni  Ni20  1  0.500000  0.753048  0.550425  1
  Ni  Ni21  1  0.500000  0.247206  0.449698  1
  Ni  Ni22  1  0.500000  0.550302  0.752794  1
  Ni  Ni23  1  0.500000  0.449575  0.246952  1
