# generated using pymatgen
data_Nb4V(NiP)4
_symmetry_space_group_name_H-M   'P 1'
_cell_length_a   7.18870866
_cell_length_b   7.18870879
_cell_length_c   7.18870832
_cell_angle_alpha   93.47201457
_cell_angle_beta   93.47200537
_cell_angle_gamma   151.50734120
_symmetry_Int_Tables_number   1
_chemical_formula_structural   Nb4V(NiP)4
_chemical_formula_sum   'Nb4 V1 Ni4 P4'
_cell_volume   171.77000803
_cell_formula_units_Z   1
loop_
 _symmetry_equiv_pos_site_id
 _symmetry_equiv_pos_as_xyz
  1  'x, y, z'
loop_
 _atom_site_type_symbol
 _atom_site_label
 _atom_site_symmetry_multiplicity
 _atom_site_fract_x
 _atom_site_fract_y
 _atom_site_fract_z
 _atom_site_occupancy
  Nb  Nb0  1  0.807457  0.127720  0.935176  1
  Nb  Nb1  1  0.127720  0.192543  0.320263  1
  Nb  Nb2  1  0.872280  0.807457  0.679737  1
  Nb  Nb3  1  0.192543  0.872280  0.064824  1
  V  V4  1  0.500000  0.500000  0.000000  1
  Ni  Ni5  1  0.914813  0.390214  0.305027  1
  Ni  Ni6  1  0.085187  0.609786  0.694973  1
  Ni  Ni7  1  0.609786  0.914813  0.524598  1
  Ni  Ni8  1  0.390214  0.085187  0.475402  1
  P  P9  1  0.556164  0.244573  0.800736  1
  P  P10  1  0.244573  0.443836  0.688408  1
  P  P11  1  0.755427  0.556164  0.311592  1
  P  P12  1  0.443836  0.755427  0.199264  1
