# generated using pymatgen
data_Lu3Ta6NbB20
_symmetry_space_group_name_H-M   'P 1'
_cell_length_a   6.22653927
_cell_length_b   7.10132803
_cell_length_c   7.54536600
_cell_angle_alpha   94.52815074
_cell_angle_beta   101.95501447
_cell_angle_gamma   115.94816133
_symmetry_Int_Tables_number   1
_chemical_formula_structural   Lu3Ta6NbB20
_chemical_formula_sum   'Lu3 Ta6 Nb1 B20'
_cell_volume   287.98580714
_cell_formula_units_Z   1
loop_
 _symmetry_equiv_pos_site_id
 _symmetry_equiv_pos_as_xyz
  1  'x, y, z'
loop_
 _atom_site_type_symbol
 _atom_site_label
 _atom_site_symmetry_multiplicity
 _atom_site_fract_x
 _atom_site_fract_y
 _atom_site_fract_z
 _atom_site_occupancy
  Lu  Lu0  1  0.500333  0.799873  0.400112  1
  Lu  Lu1  1  0.001155  0.402248  0.199627  1
  Lu  Lu2  1  0.498282  0.197204  0.600249  1
  Ta  Ta3  1  0.499150  0.000076  0.998255  1
  Ta  Ta4  1  0.997808  0.799924  0.397837  1
  Ta  Ta5  1  0.498333  0.597423  0.800011  1
  Ta  Ta6  1  0.503279  0.403330  0.199601  1
  Ta  Ta7  1  0.999696  0.196913  0.601405  1
  Ta  Ta8  1  0.000798  0.601499  0.802848  1
  Nb  Nb9  1  0.000736  0.001386  0.999502  1
  B  B10  1  0.332845  0.232873  0.868073  1
  B  B11  1  0.334225  0.634831  0.061399  1
  B  B12  1  0.167986  0.367043  0.931556  1
  B  B13  1  0.332243  0.035001  0.262326  1
  B  B14  1  0.165800  0.769822  0.128771  1
  B  B15  1  0.835596  0.233303  0.866212  1
  B  B16  1  0.165274  0.165780  0.331296  1
  B  B17  1  0.832080  0.635028  0.063964  1
  B  B18  1  0.332578  0.432039  0.470298  1
  B  B19  1  0.665392  0.368139  0.933093  1
  B  B20  1  0.834799  0.033461  0.264412  1
  B  B21  1  0.667597  0.768677  0.129849  1
  B  B22  1  0.330653  0.829641  0.670741  1
  B  B23  1  0.165195  0.565022  0.537809  1
  B  B24  1  0.666009  0.167964  0.330881  1
  B  B25  1  0.834602  0.434522  0.468997  1
  B  B26  1  0.164913  0.964799  0.735751  1
  B  B27  1  0.835165  0.830914  0.670440  1
  B  B28  1  0.669948  0.566825  0.536200  1
  B  B29  1  0.667530  0.964439  0.738488  1
