# generated using pymatgen
data_Ho4Si2B8W
_symmetry_space_group_name_H-M   'P 1'
_cell_length_a   7.09596500
_cell_length_b   7.09596500
_cell_length_c   7.56836100
_cell_angle_alpha   90.00000000
_cell_angle_beta   90.00000000
_cell_angle_gamma   90.00000000
_symmetry_Int_Tables_number   1
_chemical_formula_structural   Ho4Si2B8W
_chemical_formula_sum   'Ho8 Si4 B16 W2'
_cell_volume   381.08755685
_cell_formula_units_Z   2
loop_
 _symmetry_equiv_pos_site_id
 _symmetry_equiv_pos_as_xyz
  1  'x, y, z'
loop_
 _atom_site_type_symbol
 _atom_site_label
 _atom_site_symmetry_multiplicity
 _atom_site_fract_x
 _atom_site_fract_y
 _atom_site_fract_z
 _atom_site_occupancy
  Ho  Ho0  1  0.679224  0.179224  0.237367  1
  Ho  Ho1  1  0.320776  0.820776  0.762633  1
  Ho  Ho2  1  0.320776  0.820776  0.237367  1
  Ho  Ho3  1  0.820776  0.679224  0.237367  1
  Ho  Ho4  1  0.820776  0.679224  0.762633  1
  Ho  Ho5  1  0.679224  0.179224  0.762633  1
  Ho  Ho6  1  0.179224  0.320776  0.762633  1
  Ho  Ho7  1  0.179224  0.320776  0.237367  1
  Si  Si8  1  0.124624  0.624624  0.500000  1
  Si  Si9  1  0.875376  0.375376  0.500000  1
  Si  Si10  1  0.375376  0.124624  0.500000  1
  Si  Si11  1  0.624624  0.875376  0.500000  1
  B  B12  1  0.171823  0.039262  0.000000  1
  B  B13  1  0.828177  0.960738  0.000000  1
  B  B14  1  0.960738  0.171823  0.000000  1
  B  B15  1  0.328177  0.539262  0.000000  1
  B  B16  1  0.039262  0.828177  0.000000  1
  B  B17  1  0.671823  0.460738  0.000000  1
  B  B18  1  0.539262  0.671823  0.000000  1
  B  B19  1  0.460738  0.328177  0.000000  1
  B  B20  1  0.090173  0.590173  0.000000  1
  B  B21  1  0.909827  0.409827  0.000000  1
  B  B22  1  0.409827  0.090173  0.000000  1
  B  B23  1  0.590173  0.909827  0.000000  1
  B  B24  1  0.000000  0.000000  0.178184  1
  B  B25  1  0.000000  0.000000  0.821816  1
  B  B26  1  0.500000  0.500000  0.821816  1
  B  B27  1  0.500000  0.500000  0.178184  1
  W  W28  1  0.000000  0.000000  0.500000  1
  W  W29  1  0.500000  0.500000  0.500000  1
