# generated using pymatgen
data_Zr3Tl2(CrSe5)2
_symmetry_space_group_name_H-M   'P 1'
_cell_length_a   6.49060824
_cell_length_b   11.03098071
_cell_length_c   8.85961700
_cell_angle_alpha   58.96207198
_cell_angle_beta   68.52754846
_cell_angle_gamma   89.97245919
_symmetry_Int_Tables_number   1
_chemical_formula_structural   Zr3Tl2(CrSe5)2
_chemical_formula_sum   'Zr3 Tl2 Cr2 Se10'
_cell_volume   491.48694818
_cell_formula_units_Z   1
loop_
 _symmetry_equiv_pos_site_id
 _symmetry_equiv_pos_as_xyz
  1  'x, y, z'
loop_
 _atom_site_type_symbol
 _atom_site_label
 _atom_site_symmetry_multiplicity
 _atom_site_fract_x
 _atom_site_fract_y
 _atom_site_fract_z
 _atom_site_occupancy
  Zr  Zr0  1  0.387257  0.784185  0.217344  1
  Zr  Zr1  1  0.610504  0.216173  0.787241  1
  Zr  Zr2  1  0.997568  0.999357  0.998549  1
  Tl  Tl3  1  0.791448  0.084318  0.416499  1
  Tl  Tl4  1  0.012104  0.519386  0.979034  1
  Cr  Cr5  1  0.802374  0.599740  0.399619  1
  Cr  Cr6  1  0.198750  0.399416  0.598765  1
  Se  Se7  1  0.976309  0.828014  0.365735  1
  Se  Se8  1  0.581545  0.039097  0.157824  1
  Se  Se9  1  0.187316  0.246192  0.946888  1
  Se  Se10  1  0.810739  0.451819  0.734057  1
  Se  Se11  1  0.401027  0.622399  0.559526  1
  Se  Se12  1  0.413059  0.960155  0.847031  1
  Se  Se13  1  0.024318  0.170095  0.635251  1
  Se  Se14  1  0.603294  0.375244  0.438821  1
  Se  Se15  1  0.191940  0.548994  0.264462  1
  Se  Se16  1  0.810450  0.755416  0.053353  1
