# generated using pymatgen
data_Pr8DyYRu4
_symmetry_space_group_name_H-M   'P 1'
_cell_length_a   8.89148767
_cell_length_b   8.89148967
_cell_length_c   7.34271852
_cell_angle_alpha   84.27392440
_cell_angle_beta   84.27393047
_cell_angle_gamma   43.95255621
_symmetry_Int_Tables_number   1
_chemical_formula_structural   Pr8DyYRu4
_chemical_formula_sum   'Pr8 Dy1 Y1 Ru4'
_cell_volume   400.56788524
_cell_formula_units_Z   1
loop_
 _symmetry_equiv_pos_site_id
 _symmetry_equiv_pos_as_xyz
  1  'x, y, z'
loop_
 _atom_site_type_symbol
 _atom_site_label
 _atom_site_symmetry_multiplicity
 _atom_site_fract_x
 _atom_site_fract_y
 _atom_site_fract_z
 _atom_site_occupancy
  Pr  Pr0  1  0.204638  0.977921  0.584853  1
  Pr  Pr1  1  0.022079  0.795362  0.915147  1
  Pr  Pr2  1  0.208393  0.361445  0.313402  1
  Pr  Pr3  1  0.638555  0.791607  0.186598  1
  Pr  Pr4  1  0.791988  0.638680  0.686549  1
  Pr  Pr5  1  0.361320  0.208012  0.813451  1
  Pr  Pr6  1  0.977790  0.204792  0.085208  1
  Pr  Pr7  1  0.795208  0.022210  0.414792  1
  Dy  Dy8  1  0.430402  0.569598  0.250000  1
  Y  Y9  1  0.570612  0.429388  0.750000  1
  Ru  Ru10  1  0.183422  0.602649  0.571073  1
  Ru  Ru11  1  0.397351  0.816578  0.928927  1
  Ru  Ru12  1  0.816116  0.397876  0.426952  1
  Ru  Ru13  1  0.602124  0.183884  0.073048  1
