# generated using pymatgen
data_Y3Tm3LuCo17P12
_symmetry_space_group_name_H-M   'P 1'
_cell_length_a   3.71966200
_cell_length_b   10.60639404
_cell_length_c   12.33096905
_cell_angle_alpha   90.01043095
_cell_angle_beta   90.00000000
_cell_angle_gamma   90.00000000
_symmetry_Int_Tables_number   1
_chemical_formula_structural   Y3Tm3LuCo17P12
_chemical_formula_sum   'Y3 Tm3 Lu1 Co17 P12'
_cell_volume   486.48386001
_cell_formula_units_Z   1
loop_
 _symmetry_equiv_pos_site_id
 _symmetry_equiv_pos_as_xyz
  1  'x, y, z'
loop_
 _atom_site_type_symbol
 _atom_site_label
 _atom_site_symmetry_multiplicity
 _atom_site_fract_x
 _atom_site_fract_y
 _atom_site_fract_z
 _atom_site_occupancy
  Y  Y0  1  0.000000  0.500044  0.530971  1
  Y  Y1  1  0.500000  0.999938  0.477887  1
  Y  Y2  1  0.500000  0.177566  0.207550  1
  Tm  Tm3  1  0.500000  0.822448  0.207821  1
  Tm  Tm4  1  0.000000  0.683106  0.795336  1
  Tm  Tm5  1  0.000000  0.316889  0.795558  1
  Lu  Lu6  1  0.500000  0.500490  0.154221  1
  Co  Co7  1  0.000000  0.999870  0.835215  1
  Co  Co8  1  0.500000  0.500147  0.704416  1
  Co  Co9  1  0.000000  0.998399  0.294750  1
  Co  Co10  1  0.000000  0.500534  0.981468  1
  Co  Co11  1  0.500000  0.999423  0.012796  1
  Co  Co12  1  0.500000  0.325206  0.985971  1
  Co  Co13  1  0.500000  0.675369  0.986515  1
  Co  Co14  1  0.000000  0.159946  0.998973  1
  Co  Co15  1  0.000000  0.839449  0.999077  1
  Co  Co16  1  0.500000  0.293214  0.436598  1
  Co  Co17  1  0.500000  0.706825  0.435840  1
  Co  Co18  1  0.000000  0.201519  0.571889  1
  Co  Co19  1  0.000000  0.798344  0.571405  1
  Co  Co20  1  0.500000  0.880186  0.707761  1
  Co  Co21  1  0.500000  0.119836  0.708000  1
  Co  Co22  1  0.000000  0.623714  0.300820  1
  Co  Co23  1  0.000000  0.377704  0.302238  1
  P  P24  1  0.500000  0.500284  0.881331  1
  P  P25  1  0.000000  0.998793  0.115686  1
  P  P26  1  0.500000  0.499903  0.363676  1
  P  P27  1  0.000000  0.000006  0.654618  1
  P  P28  1  0.500000  0.308531  0.620010  1
  P  P29  1  0.500000  0.691607  0.619618  1
  P  P30  1  0.000000  0.188193  0.387432  1
  P  P31  1  0.000000  0.811590  0.386301  1
  P  P32  1  0.500000  0.852617  0.886836  1
  P  P33  1  0.500000  0.147145  0.887182  1
  P  P34  1  0.000000  0.668096  0.097919  1
  P  P35  1  0.000000  0.333070  0.096314  1
