# generated using pymatgen
data_YbOsF7
_symmetry_space_group_name_H-M   'P 1'
_cell_length_a   5.59927300
_cell_length_b   6.04999633
_cell_length_c   8.26552677
_cell_angle_alpha   104.74417472
_cell_angle_beta   90.00000000
_cell_angle_gamma   90.00000000
_symmetry_Int_Tables_number   1
_chemical_formula_structural   YbOsF7
_chemical_formula_sum   'Yb2 Os2 F14'
_cell_volume   270.77964770
_cell_formula_units_Z   2
loop_
 _symmetry_equiv_pos_site_id
 _symmetry_equiv_pos_as_xyz
  1  'x, y, z'
loop_
 _atom_site_type_symbol
 _atom_site_label
 _atom_site_symmetry_multiplicity
 _atom_site_fract_x
 _atom_site_fract_y
 _atom_site_fract_z
 _atom_site_occupancy
  Yb  Yb0  1  0.766250  0.857489  0.323979  1
  Yb  Yb1  1  0.266248  0.142513  0.676021  1
  Os  Os2  1  0.248298  0.320028  0.221840  1
  Os  Os3  1  0.748298  0.679970  0.778160  1
  F  F4  1  0.756322  0.723027  0.016069  1
  F  F5  1  0.037008  0.063930  0.190875  1
  F  F6  1  0.519176  0.123092  0.208025  1
  F  F7  1  0.973548  0.510878  0.229095  1
  F  F8  1  0.452506  0.582183  0.249690  1
  F  F9  1  0.232002  0.366563  0.458430  1
  F  F10  1  0.076788  0.929813  0.475022  1
  F  F11  1  0.576786  0.070187  0.524979  1
  F  F12  1  0.732000  0.633439  0.541571  1
  F  F13  1  0.952505  0.417817  0.750311  1
  F  F14  1  0.473550  0.489122  0.770906  1
  F  F15  1  0.019176  0.876908  0.791974  1
  F  F16  1  0.537008  0.936071  0.809126  1
  F  F17  1  0.256321  0.276975  0.983932  1
