# generated using pymatgen
data_Ba2HoAlO5
_symmetry_space_group_name_H-M   'P 1'
_cell_length_a   6.03201500
_cell_length_b   6.03201505
_cell_length_c   20.25576800
_cell_angle_alpha   90.00000000
_cell_angle_beta   90.00000000
_cell_angle_gamma   120.00000519
_symmetry_Int_Tables_number   1
_chemical_formula_structural   Ba2HoAlO5
_chemical_formula_sum   'Ba8 Ho4 Al4 O20'
_cell_volume   638.26958932
_cell_formula_units_Z   4
loop_
 _symmetry_equiv_pos_site_id
 _symmetry_equiv_pos_as_xyz
  1  'x, y, z'
loop_
 _atom_site_type_symbol
 _atom_site_label
 _atom_site_symmetry_multiplicity
 _atom_site_fract_x
 _atom_site_fract_y
 _atom_site_fract_z
 _atom_site_occupancy
  Ba  Ba0  1  0.666667  0.333333  0.894209  1
  Ba  Ba1  1  0.333333  0.666667  0.105791  1
  Ba  Ba2  1  0.333333  0.666667  0.394209  1
  Ba  Ba3  1  0.000000  0.000000  0.000000  1
  Ba  Ba4  1  0.000000  0.000000  0.500000  1
  Ba  Ba5  1  0.666667  0.333333  0.250000  1
  Ba  Ba6  1  0.666667  0.333333  0.605791  1
  Ba  Ba7  1  0.333333  0.666667  0.750000  1
  Ho  Ho8  1  0.333333  0.666667  0.567736  1
  Ho  Ho9  1  0.666667  0.333333  0.067736  1
  Ho  Ho10  1  0.333333  0.666667  0.932264  1
  Ho  Ho11  1  0.666667  0.333333  0.432264  1
  Al  Al12  1  0.000000  0.000000  0.835353  1
  Al  Al13  1  0.000000  0.000000  0.164647  1
  Al  Al14  1  0.000000  0.000000  0.664647  1
  Al  Al15  1  0.000000  0.000000  0.335353  1
  O  O16  1  0.680069  0.840035  0.634995  1
  O  O17  1  0.000000  0.500000  0.500000  1
  O  O18  1  0.000000  0.000000  0.250000  1
  O  O19  1  0.840035  0.680069  0.365005  1
  O  O20  1  0.840035  0.159965  0.134995  1
  O  O21  1  0.159965  0.319931  0.634995  1
  O  O22  1  0.680069  0.840035  0.865005  1
  O  O23  1  0.319931  0.159965  0.134995  1
  O  O24  1  0.000000  0.000000  0.750000  1
  O  O25  1  0.840035  0.159965  0.365005  1
  O  O26  1  0.159965  0.319931  0.865005  1
  O  O27  1  0.500000  0.000000  0.000000  1
  O  O28  1  0.319931  0.159965  0.365005  1
  O  O29  1  0.500000  0.000000  0.500000  1
  O  O30  1  0.840035  0.680069  0.134995  1
  O  O31  1  0.159965  0.840035  0.634995  1
  O  O32  1  0.500000  0.500000  0.000000  1
  O  O33  1  0.000000  0.500000  0.000000  1
  O  O34  1  0.500000  0.500000  0.500000  1
  O  O35  1  0.159965  0.840035  0.865005  1
