# generated using pymatgen
data_Tb4Nd2Zn4Pt13
_symmetry_space_group_name_H-M   'P 1'
_cell_length_a   8.32969657
_cell_length_b   8.32969675
_cell_length_c   8.32795451
_cell_angle_alpha   109.48693954
_cell_angle_beta   109.48693684
_cell_angle_gamma   109.44827251
_symmetry_Int_Tables_number   1
_chemical_formula_structural   Tb4Nd2Zn4Pt13
_chemical_formula_sum   'Tb4 Nd2 Zn4 Pt13'
_cell_volume   444.76364332
_cell_formula_units_Z   1
loop_
 _symmetry_equiv_pos_site_id
 _symmetry_equiv_pos_as_xyz
  1  'x, y, z'
loop_
 _atom_site_type_symbol
 _atom_site_label
 _atom_site_symmetry_multiplicity
 _atom_site_fract_x
 _atom_site_fract_y
 _atom_site_fract_z
 _atom_site_occupancy
  Tb  Tb0  1  0.697806  0.697806  0.000724  1
  Tb  Tb1  1  0.303412  0.000125  0.303537  1
  Tb  Tb2  1  0.000125  0.303412  0.303537  1
  Tb  Tb3  1  0.302919  0.302919  0.000724  1
  Nd  Nd4  1  0.701751  0.000239  0.701990  1
  Nd  Nd5  1  0.000239  0.701751  0.701990  1
  Zn  Zn6  1  0.999267  0.999267  0.496851  1
  Zn  Zn7  1  0.999328  0.499328  0.998656  1
  Zn  Zn8  1  0.499328  0.999328  0.998656  1
  Zn  Zn9  1  0.497584  0.497584  0.496851  1
  Pt  Pt10  1  0.331320  0.331320  0.662639  1
  Pt  Pt11  1  0.670200  0.000329  0.328226  1
  Pt  Pt12  1  0.000329  0.670200  0.328226  1
  Pt  Pt13  1  0.667458  0.333533  0.000991  1
  Pt  Pt14  1  0.327897  0.658025  0.328226  1
  Pt  Pt15  1  0.000760  0.330067  0.668809  1
  Pt  Pt16  1  0.333533  0.667458  0.000991  1
  Pt  Pt17  1  0.330067  0.000760  0.668809  1
  Pt  Pt18  1  0.658025  0.327897  0.328226  1
  Pt  Pt19  1  0.665687  0.665687  0.331375  1
  Pt  Pt20  1  0.668049  0.338743  0.668809  1
  Pt  Pt21  1  0.338743  0.668049  0.668809  1
  Pt  Pt22  1  0.006174  0.006174  0.012347  1
