# generated using pymatgen
data_HoEr2In3Hg2Pd
_symmetry_space_group_name_H-M   'P 1'
_cell_length_a   7.73103600
_cell_length_b   7.73321503
_cell_length_c   4.09312900
_cell_angle_alpha   90.00000000
_cell_angle_beta   90.00000000
_cell_angle_gamma   119.99068796
_symmetry_Int_Tables_number   1
_chemical_formula_structural   HoEr2In3Hg2Pd
_chemical_formula_sum   'Ho1 Er2 In3 Hg2 Pd1'
_cell_volume   211.94569010
_cell_formula_units_Z   1
loop_
 _symmetry_equiv_pos_site_id
 _symmetry_equiv_pos_as_xyz
  1  'x, y, z'
loop_
 _atom_site_type_symbol
 _atom_site_label
 _atom_site_symmetry_multiplicity
 _atom_site_fract_x
 _atom_site_fract_y
 _atom_site_fract_z
 _atom_site_occupancy
  Ho  Ho0  1  0.397467  0.000000  0.500000  1
  Er  Er1  1  0.603041  0.602935  0.500000  1
  Er  Er2  1  0.000106  0.397065  0.500000  1
  In  In3  1  0.248542  0.248778  0.000000  1
  In  In4  1  0.751224  0.000000  0.000000  1
  In  In5  1  0.999764  0.751222  0.000000  1
  Hg  Hg6  1  0.666825  0.333670  0.000000  1
  Hg  Hg7  1  0.333153  0.666330  0.000000  1
  Pd  Pd8  1  0.999878  0.000000  0.500000  1
