# generated using pymatgen
data_Rb3TaSe3S
_symmetry_space_group_name_H-M   'P 1'
_cell_length_a   9.87960700
_cell_length_b   9.84992500
_cell_length_c   11.62357500
_cell_angle_alpha   90.00000000
_cell_angle_beta   90.00000000
_cell_angle_gamma   90.00000000
_symmetry_Int_Tables_number   1
_chemical_formula_structural   Rb3TaSe3S
_chemical_formula_sum   'Rb12 Ta4 Se12 S4'
_cell_volume   1131.12946368
_cell_formula_units_Z   4
loop_
 _symmetry_equiv_pos_site_id
 _symmetry_equiv_pos_as_xyz
  1  'x, y, z'
loop_
 _atom_site_type_symbol
 _atom_site_label
 _atom_site_symmetry_multiplicity
 _atom_site_fract_x
 _atom_site_fract_y
 _atom_site_fract_z
 _atom_site_occupancy
  Rb  Rb0  1  0.551412  0.206787  0.048527  1
  Rb  Rb1  1  0.051412  0.293213  0.451473  1
  Rb  Rb2  1  0.448588  0.793213  0.548527  1
  Rb  Rb3  1  0.948588  0.706787  0.951473  1
  Rb  Rb4  1  0.448588  0.793213  0.951473  1
  Rb  Rb5  1  0.948588  0.706787  0.548527  1
  Rb  Rb6  1  0.551412  0.206787  0.451473  1
  Rb  Rb7  1  0.051412  0.293213  0.048527  1
  Rb  Rb8  1  0.640638  0.416377  0.750000  1
  Rb  Rb9  1  0.140638  0.083623  0.750000  1
  Rb  Rb10  1  0.359362  0.583623  0.250000  1
  Rb  Rb11  1  0.859362  0.916377  0.250000  1
  Ta  Ta12  1  0.717966  0.982425  0.750000  1
  Ta  Ta13  1  0.217966  0.517575  0.750000  1
  Ta  Ta14  1  0.282034  0.017575  0.250000  1
  Ta  Ta15  1  0.782034  0.482425  0.250000  1
  Se  Se16  1  0.835222  0.051778  0.577578  1
  Se  Se17  1  0.335222  0.448222  0.922422  1
  Se  Se18  1  0.164778  0.948222  0.077578  1
  Se  Se19  1  0.664778  0.551778  0.422422  1
  Se  Se20  1  0.164778  0.948222  0.422422  1
  Se  Se21  1  0.664778  0.551778  0.077578  1
  Se  Se22  1  0.835222  0.051778  0.922422  1
  Se  Se23  1  0.335222  0.448222  0.577578  1
  Se  Se24  1  0.493171  0.079597  0.750000  1
  Se  Se25  1  0.993171  0.420403  0.750000  1
  Se  Se26  1  0.506829  0.920403  0.250000  1
  Se  Se27  1  0.006829  0.579597  0.250000  1
  S  S28  1  0.701816  0.752327  0.750000  1
  S  S29  1  0.201816  0.747673  0.750000  1
  S  S30  1  0.298184  0.247673  0.250000  1
  S  S31  1  0.798184  0.252327  0.250000  1
