# generated using pymatgen
data_Tb4DyLu7Ru4
_symmetry_space_group_name_H-M   'P 1'
_cell_length_a   6.24307141
_cell_length_b   7.29186817
_cell_length_c   8.97751807
_cell_angle_alpha   89.96756262
_cell_angle_beta   90.18460518
_cell_angle_gamma   90.07422837
_symmetry_Int_Tables_number   1
_chemical_formula_structural   Tb4DyLu7Ru4
_chemical_formula_sum   'Tb4 Dy1 Lu7 Ru4'
_cell_volume   408.68689512
_cell_formula_units_Z   1
loop_
 _symmetry_equiv_pos_site_id
 _symmetry_equiv_pos_as_xyz
  1  'x, y, z'
loop_
 _atom_site_type_symbol
 _atom_site_label
 _atom_site_symmetry_multiplicity
 _atom_site_fract_x
 _atom_site_fract_y
 _atom_site_fract_z
 _atom_site_occupancy
  Tb  Tb0  1  0.869181  0.539761  0.250881  1
  Tb  Tb1  1  0.630806  0.040905  0.250602  1
  Tb  Tb2  1  0.129643  0.459290  0.749166  1
  Tb  Tb3  1  0.370266  0.960116  0.749208  1
  Dy  Dy4  1  0.333244  0.676577  0.063787  1
  Lu  Lu5  1  0.166272  0.176155  0.435745  1
  Lu  Lu6  1  0.666492  0.323881  0.564294  1
  Lu  Lu7  1  0.833913  0.824396  0.935069  1
  Lu  Lu8  1  0.667174  0.323173  0.934978  1
  Lu  Lu9  1  0.833942  0.824128  0.564370  1
  Lu  Lu10  1  0.333564  0.675667  0.436818  1
  Lu  Lu11  1  0.165703  0.175769  0.064468  1
  Ru  Ru12  1  0.041053  0.885421  0.251012  1
  Ru  Ru13  1  0.457784  0.383586  0.250918  1
  Ru  Ru14  1  0.957612  0.115770  0.750238  1
  Ru  Ru15  1  0.543351  0.615402  0.748449  1
