# generated using pymatgen
data_N3Cl7O
_symmetry_space_group_name_H-M   'P 1'
_cell_length_a   4.54670957
_cell_length_b   8.58738997
_cell_length_c   12.14054149
_cell_angle_alpha   63.00655246
_cell_angle_beta   92.63544835
_cell_angle_gamma   102.17701851
_symmetry_Int_Tables_number   1
_chemical_formula_structural   N3Cl7O
_chemical_formula_sum   'N3 Cl7 O1'
_cell_volume   412.20174738
_cell_formula_units_Z   1
loop_
 _symmetry_equiv_pos_site_id
 _symmetry_equiv_pos_as_xyz
  1  'x, y, z'
loop_
 _atom_site_type_symbol
 _atom_site_label
 _atom_site_symmetry_multiplicity
 _atom_site_fract_x
 _atom_site_fract_y
 _atom_site_fract_z
 _atom_site_occupancy
  N  N0  1  0.579217  0.655051  0.226757  1
  N  N1  1  0.799761  0.161279  0.039383  1
  N  N2  1  0.691490  0.277062  0.986736  1
  Cl  Cl3  1  0.021683  0.672200  0.043198  1
  Cl  Cl4  1  0.257981  0.884894  0.897138  1
  Cl  Cl5  1  0.778128  0.252601  0.695824  1
  Cl  Cl6  1  0.719020  0.308648  0.514350  1
  Cl  Cl7  1  0.491386  0.838390  0.617936  1
  Cl  Cl8  1  0.629333  0.393825  0.272460  1
  Cl  Cl9  1  0.216568  0.600903  0.657759  1
  O  O10  1  0.616049  0.691492  0.306919  1
