# generated using pymatgen
data_LiDy3TmSc5Si8
_symmetry_space_group_name_H-M   'P 1'
_cell_length_a   6.97982244
_cell_length_b   7.38565028
_cell_length_c   13.97259256
_cell_angle_alpha   89.94412553
_cell_angle_beta   90.05965182
_cell_angle_gamma   89.90906010
_symmetry_Int_Tables_number   1
_chemical_formula_structural   LiDy3TmSc5Si8
_chemical_formula_sum   'Li2 Dy6 Tm2 Sc10 Si16'
_cell_volume   720.29287695
_cell_formula_units_Z   2
loop_
 _symmetry_equiv_pos_site_id
 _symmetry_equiv_pos_as_xyz
  1  'x, y, z'
loop_
 _atom_site_type_symbol
 _atom_site_label
 _atom_site_symmetry_multiplicity
 _atom_site_fract_x
 _atom_site_fract_y
 _atom_site_fract_z
 _atom_site_occupancy
  Li  Li0  1  0.159985  0.506387  0.749834  1
  Li  Li1  1  0.840015  0.493613  0.250166  1
  Dy  Dy2  1  0.009965  0.183990  0.098284  1
  Dy  Dy3  1  0.990035  0.816010  0.901716  1
  Dy  Dy4  1  0.485138  0.674343  0.902905  1
  Dy  Dy5  1  0.989982  0.815748  0.597978  1
  Dy  Dy6  1  0.514862  0.325657  0.097095  1
  Dy  Dy7  1  0.010018  0.184252  0.402022  1
  Tm  Tm8  1  0.514590  0.325280  0.402742  1
  Tm  Tm9  1  0.485410  0.674720  0.597258  1
  Sc  Sc10  1  0.341455  0.003350  0.250208  1
  Sc  Sc11  1  0.658545  0.996650  0.749792  1
  Sc  Sc12  1  0.326520  0.181697  0.626166  1
  Sc  Sc13  1  0.673480  0.818303  0.373834  1
  Sc  Sc14  1  0.166024  0.674694  0.373203  1
  Sc  Sc15  1  0.673665  0.818587  0.126369  1
  Sc  Sc16  1  0.833976  0.325306  0.626797  1
  Sc  Sc17  1  0.326335  0.181413  0.873631  1
  Sc  Sc18  1  0.834298  0.325192  0.872836  1
  Sc  Sc19  1  0.165702  0.674808  0.127164  1
  Si  Si20  1  0.029575  0.101397  0.749695  1
  Si  Si21  1  0.970425  0.898603  0.250305  1
  Si  Si22  1  0.465846  0.612422  0.250470  1
  Si  Si23  1  0.534154  0.387578  0.749530  1
  Si  Si24  1  0.288111  0.879002  0.749408  1
  Si  Si25  1  0.711889  0.120998  0.250592  1
  Si  Si26  1  0.221603  0.372940  0.250655  1
  Si  Si27  1  0.778397  0.627060  0.749345  1
  Si  Si28  1  0.161678  0.461754  0.533441  1
  Si  Si29  1  0.838322  0.538246  0.466559  1
  Si  Si30  1  0.344031  0.966862  0.461309  1
  Si  Si31  1  0.840371  0.538946  0.033192  1
  Si  Si32  1  0.655969  0.033138  0.538691  1
  Si  Si33  1  0.159629  0.461054  0.966808  1
  Si  Si34  1  0.656689  0.033490  0.961295  1
  Si  Si35  1  0.343311  0.966510  0.038705  1
