# generated using pymatgen
data_Cs2Ce(CuSe2)2
_symmetry_space_group_name_H-M   'P 1'
_cell_length_a   7.93652541
_cell_length_b   7.93652544
_cell_length_c   8.43904790
_cell_angle_alpha   107.47780618
_cell_angle_beta   107.47780759
_cell_angle_gamma   30.93585499
_symmetry_Int_Tables_number   1
_chemical_formula_structural   Cs2Ce(CuSe2)2
_chemical_formula_sum   'Cs2 Ce1 Cu2 Se4'
_cell_volume   259.65759033
_cell_formula_units_Z   1
loop_
 _symmetry_equiv_pos_site_id
 _symmetry_equiv_pos_as_xyz
  1  'x, y, z'
loop_
 _atom_site_type_symbol
 _atom_site_label
 _atom_site_symmetry_multiplicity
 _atom_site_fract_x
 _atom_site_fract_y
 _atom_site_fract_z
 _atom_site_occupancy
  Cs  Cs0  1  0.860489  0.860489  0.435213  1
  Cs  Cs1  1  0.139511  0.139511  0.564788  1
  Ce  Ce2  1  0.000000  0.000000  0.000000  1
  Cu  Cu3  1  0.322973  0.322973  0.016066  1
  Cu  Cu4  1  0.677027  0.677027  0.983935  1
  Se  Se5  1  0.196561  0.196561  0.153250  1
  Se  Se6  1  0.478381  0.478381  0.221611  1
  Se  Se7  1  0.521619  0.521619  0.778390  1
  Se  Se8  1  0.803440  0.803440  0.846749  1
