# generated using pymatgen
data_Pr5Y11(ScBi3)4
_symmetry_space_group_name_H-M   'P 1'
_cell_length_a   8.25554657
_cell_length_b   9.50927700
_cell_length_c   12.20056782
_cell_angle_alpha   90.00000000
_cell_angle_beta   89.95774030
_cell_angle_gamma   90.00000000
_symmetry_Int_Tables_number   1
_chemical_formula_structural   Pr5Y11(ScBi3)4
_chemical_formula_sum   'Pr5 Y11 Sc4 Bi12'
_cell_volume   957.79652081
_cell_formula_units_Z   1
loop_
 _symmetry_equiv_pos_site_id
 _symmetry_equiv_pos_as_xyz
  1  'x, y, z'
loop_
 _atom_site_type_symbol
 _atom_site_label
 _atom_site_symmetry_multiplicity
 _atom_site_fract_x
 _atom_site_fract_y
 _atom_site_fract_z
 _atom_site_occupancy
  Pr  Pr0  1  0.181948  0.750000  0.721063  1
  Pr  Pr1  1  0.683567  0.750000  0.776815  1
  Pr  Pr2  1  0.818846  0.250000  0.278160  1
  Pr  Pr3  1  0.317923  0.250000  0.222161  1
  Pr  Pr4  1  0.354198  0.750000  0.215851  1
  Y  Y5  1  0.303710  0.436830  0.940537  1
  Y  Y6  1  0.804021  0.063526  0.559893  1
  Y  Y7  1  0.695883  0.936586  0.058372  1
  Y  Y8  1  0.196231  0.562858  0.441955  1
  Y  Y9  1  0.695883  0.563414  0.058372  1
  Y  Y10  1  0.196231  0.937142  0.441955  1
  Y  Y11  1  0.303710  0.063170  0.940537  1
  Y  Y12  1  0.804021  0.436474  0.559893  1
  Y  Y13  1  0.852977  0.750000  0.283578  1
  Y  Y14  1  0.646316  0.250000  0.783624  1
  Y  Y15  1  0.145885  0.250000  0.716647  1
  Sc  Sc16  1  0.025586  0.750000  0.988189  1
  Sc  Sc17  1  0.526040  0.750000  0.512831  1
  Sc  Sc18  1  0.973861  0.250000  0.011255  1
  Sc  Sc19  1  0.474818  0.250000  0.488990  1
  Bi  Bi20  1  0.435201  0.009114  0.665741  1
  Bi  Bi21  1  0.935142  0.491287  0.834193  1
  Bi  Bi22  1  0.567266  0.505636  0.337302  1
  Bi  Bi23  1  0.062038  0.993289  0.165085  1
  Bi  Bi24  1  0.567266  0.994364  0.337302  1
  Bi  Bi25  1  0.062038  0.506711  0.165085  1
  Bi  Bi26  1  0.435201  0.490886  0.665741  1
  Bi  Bi27  1  0.935142  0.008713  0.834193  1
  Bi  Bi28  1  0.403684  0.750000  0.957632  1
  Bi  Bi29  1  0.903233  0.750000  0.536802  1
  Bi  Bi30  1  0.595835  0.250000  0.036960  1
  Bi  Bi31  1  0.096296  0.250000  0.463286  1
