# generated using pymatgen
data_LiEr8InRh2
_symmetry_space_group_name_H-M   'P 1'
_cell_length_a   9.58684002
_cell_length_b   9.54548108
_cell_length_c   9.54548121
_cell_angle_alpha   60.04649105
_cell_angle_beta   59.85656536
_cell_angle_gamma   59.85656579
_symmetry_Int_Tables_number   1
_chemical_formula_structural   LiEr8InRh2
_chemical_formula_sum   'Li2 Er16 In2 Rh4'
_cell_volume   616.54227256
_cell_formula_units_Z   2
loop_
 _symmetry_equiv_pos_site_id
 _symmetry_equiv_pos_as_xyz
  1  'x, y, z'
loop_
 _atom_site_type_symbol
 _atom_site_label
 _atom_site_symmetry_multiplicity
 _atom_site_fract_x
 _atom_site_fract_y
 _atom_site_fract_z
 _atom_site_occupancy
  Li  Li0  1  0.427698  0.718210  0.426395  1
  Li  Li1  1  0.427698  0.426395  0.718210  1
  Er  Er2  1  0.186534  0.189438  0.811843  1
  Er  Er3  1  0.439821  0.060179  0.060179  1
  Er  Er4  1  0.434851  0.063739  0.435837  1
  Er  Er5  1  0.065573  0.435837  0.063739  1
  Er  Er6  1  0.652060  0.050053  0.645828  1
  Er  Er7  1  0.183216  0.816784  0.816784  1
  Er  Er8  1  0.065573  0.063739  0.435837  1
  Er  Er9  1  0.808411  0.191589  0.191589  1
  Er  Er10  1  0.812186  0.811843  0.189438  1
  Er  Er11  1  0.652060  0.645828  0.050053  1
  Er  Er12  1  0.655373  0.652816  0.652816  1
  Er  Er13  1  0.064592  0.435408  0.435408  1
  Er  Er14  1  0.038995  0.652816  0.652816  1
  Er  Er15  1  0.812186  0.189438  0.811843  1
  Er  Er16  1  0.434851  0.435837  0.063739  1
  Er  Er17  1  0.186534  0.811843  0.189438  1
  In  In18  1  0.745989  0.419983  0.419983  1
  In  In19  1  0.414045  0.419983  0.419983  1
  Rh  Rh20  1  0.856544  0.426879  0.860032  1
  Rh  Rh21  1  0.856544  0.860032  0.426879  1
  Rh  Rh22  1  0.426894  0.860666  0.860666  1
  Rh  Rh23  1  0.851774  0.860666  0.860666  1
