# generated using pymatgen
data_RbTb(TeO3)2
_symmetry_space_group_name_H-M   'P 1'
_cell_length_a   6.14459200
_cell_length_b   8.81386700
_cell_length_c   14.00441500
_cell_angle_alpha   90.00000000
_cell_angle_beta   90.00000000
_cell_angle_gamma   90.00000000
_symmetry_Int_Tables_number   1
_chemical_formula_structural   RbTb(TeO3)2
_chemical_formula_sum   'Rb4 Tb4 Te8 O24'
_cell_volume   758.44573908
_cell_formula_units_Z   4
loop_
 _symmetry_equiv_pos_site_id
 _symmetry_equiv_pos_as_xyz
  1  'x, y, z'
loop_
 _atom_site_type_symbol
 _atom_site_label
 _atom_site_symmetry_multiplicity
 _atom_site_fract_x
 _atom_site_fract_y
 _atom_site_fract_z
 _atom_site_occupancy
  Rb  Rb0  1  0.250000  0.005050  0.633751  1
  Rb  Rb1  1  0.250000  0.494950  0.133751  1
  Rb  Rb2  1  0.750000  0.994950  0.366249  1
  Rb  Rb3  1  0.750000  0.505050  0.866249  1
  Tb  Tb4  1  0.250000  0.787675  0.906698  1
  Tb  Tb5  1  0.250000  0.712325  0.406698  1
  Tb  Tb6  1  0.750000  0.212325  0.093302  1
  Tb  Tb7  1  0.750000  0.287675  0.593302  1
  Te  Te8  1  0.750000  0.004345  0.805261  1
  Te  Te9  1  0.750000  0.495655  0.305261  1
  Te  Te10  1  0.250000  0.995655  0.194739  1
  Te  Te11  1  0.250000  0.504345  0.694739  1
  Te  Te12  1  0.750000  0.716797  0.576519  1
  Te  Te13  1  0.750000  0.783203  0.076519  1
  Te  Te14  1  0.250000  0.283203  0.423481  1
  Te  Te15  1  0.250000  0.216797  0.923481  1
  O  O16  1  0.987112  0.868440  0.800890  1
  O  O17  1  0.512888  0.631560  0.300890  1
  O  O18  1  0.487112  0.131560  0.199110  1
  O  O19  1  0.012888  0.368440  0.699110  1
  O  O20  1  0.012888  0.131560  0.199110  1
  O  O21  1  0.487112  0.368440  0.699110  1
  O  O22  1  0.512888  0.868440  0.800890  1
  O  O23  1  0.987112  0.631560  0.300890  1
  O  O24  1  0.750000  0.059009  0.673908  1
  O  O25  1  0.750000  0.440991  0.173908  1
  O  O26  1  0.250000  0.940991  0.326092  1
  O  O27  1  0.250000  0.559009  0.826092  1
  O  O28  1  0.986568  0.799759  0.508109  1
  O  O29  1  0.513432  0.700241  0.008109  1
  O  O30  1  0.486568  0.200241  0.491891  1
  O  O31  1  0.013432  0.299759  0.991891  1
  O  O32  1  0.013432  0.200241  0.491891  1
  O  O33  1  0.486568  0.299759  0.991891  1
  O  O34  1  0.513432  0.799759  0.508109  1
  O  O35  1  0.986568  0.700241  0.008109  1
  O  O36  1  0.750000  0.520196  0.523360  1
  O  O37  1  0.750000  0.979804  0.023360  1
  O  O38  1  0.250000  0.479804  0.476640  1
  O  O39  1  0.250000  0.020196  0.976640  1
