# generated using pymatgen
data_Ho3In4CoRu
_symmetry_space_group_name_H-M   'P 1'
_cell_length_a   7.88800700
_cell_length_b   7.88800736
_cell_length_c   3.68272500
_cell_angle_alpha   90.00000000
_cell_angle_beta   90.00000000
_cell_angle_gamma   120.00001106
_symmetry_Int_Tables_number   1
_chemical_formula_structural   Ho3In4CoRu
_chemical_formula_sum   'Ho3 In4 Co1 Ru1'
_cell_volume   198.44239868
_cell_formula_units_Z   1
loop_
 _symmetry_equiv_pos_site_id
 _symmetry_equiv_pos_as_xyz
  1  'x, y, z'
loop_
 _atom_site_type_symbol
 _atom_site_label
 _atom_site_symmetry_multiplicity
 _atom_site_fract_x
 _atom_site_fract_y
 _atom_site_fract_z
 _atom_site_occupancy
  Ho  Ho0  1  0.046342  0.295198  0.500000  1
  Ho  Ho1  1  0.704802  0.751142  0.500000  1
  Ho  Ho2  1  0.248858  0.953658  0.500000  1
  In  In3  1  0.666450  0.082535  0.000000  1
  In  In4  1  0.917465  0.583915  0.000000  1
  In  In5  1  0.416085  0.333550  0.000000  1
  In  In6  1  0.333333  0.666667  0.000000  1
  Co  Co7  1  0.666667  0.333333  0.500000  1
  Ru  Ru8  1  0.000000  0.000000  0.000000  1
