# generated using pymatgen
data_Ho9Th(Sn3N)2
_symmetry_space_group_name_H-M   'P 1'
_cell_length_a   8.93733863
_cell_length_b   8.93733960
_cell_length_c   6.41955600
_cell_angle_alpha   90.00000000
_cell_angle_beta   90.00000000
_cell_angle_gamma   120.36617599
_symmetry_Int_Tables_number   1
_chemical_formula_structural   Ho9Th(Sn3N)2
_chemical_formula_sum   'Ho9 Th1 Sn6 N2'
_cell_volume   442.42307341
_cell_formula_units_Z   1
loop_
 _symmetry_equiv_pos_site_id
 _symmetry_equiv_pos_as_xyz
  1  'x, y, z'
loop_
 _atom_site_type_symbol
 _atom_site_label
 _atom_site_symmetry_multiplicity
 _atom_site_fract_x
 _atom_site_fract_y
 _atom_site_fract_z
 _atom_site_occupancy
  Ho  Ho0  1  0.666338  0.333037  0.000897  1
  Ho  Ho1  1  0.333037  0.666338  0.000897  1
  Ho  Ho2  1  0.333037  0.666338  0.499103  1
  Ho  Ho3  1  0.666338  0.333037  0.499103  1
  Ho  Ho4  1  0.219870  0.002736  0.750000  1
  Ho  Ho5  1  0.002736  0.219870  0.750000  1
  Ho  Ho6  1  0.215042  0.215042  0.250000  1
  Ho  Ho7  1  0.785175  0.000941  0.250000  1
  Ho  Ho8  1  0.000941  0.785175  0.250000  1
  Th  Th9  1  0.783906  0.783906  0.750000  1
  Sn  Sn10  1  0.400944  0.400944  0.750000  1
  Sn  Sn11  1  0.594976  0.002933  0.750000  1
  Sn  Sn12  1  0.002933  0.594976  0.750000  1
  Sn  Sn13  1  0.597258  0.597258  0.250000  1
  Sn  Sn14  1  0.401388  0.999546  0.250000  1
  Sn  Sn15  1  0.999546  0.401388  0.250000  1
  N  N16  1  0.998266  0.998266  0.999455  1
  N  N17  1  0.998266  0.998266  0.500545  1
