# generated using pymatgen
data_Tb8Si12IrAu3
_symmetry_space_group_name_H-M   'P 1'
_cell_length_a   8.19427900
_cell_length_b   8.19427857
_cell_length_c   8.24274500
_cell_angle_alpha   90.00000000
_cell_angle_beta   90.00000000
_cell_angle_gamma   120.00000575
_symmetry_Int_Tables_number   1
_chemical_formula_structural   Tb8Si12IrAu3
_chemical_formula_sum   'Tb8 Si12 Ir1 Au3'
_cell_volume   479.31822475
_cell_formula_units_Z   1
loop_
 _symmetry_equiv_pos_site_id
 _symmetry_equiv_pos_as_xyz
  1  'x, y, z'
loop_
 _atom_site_type_symbol
 _atom_site_label
 _atom_site_symmetry_multiplicity
 _atom_site_fract_x
 _atom_site_fract_y
 _atom_site_fract_z
 _atom_site_occupancy
  Tb  Tb0  1  0.497697  0.995392  0.254579  1
  Tb  Tb1  1  0.496260  0.992521  0.745420  1
  Tb  Tb2  1  0.004608  0.502303  0.254579  1
  Tb  Tb3  1  0.007479  0.503740  0.745420  1
  Tb  Tb4  1  0.497697  0.502303  0.254579  1
  Tb  Tb5  1  0.496260  0.503740  0.745420  1
  Tb  Tb6  1  0.000000  0.000000  0.250506  1
  Tb  Tb7  1  0.000000  0.000000  0.748766  1
  Si  Si8  1  0.163285  0.326571  0.996009  1
  Si  Si9  1  0.836432  0.672865  0.003456  1
  Si  Si10  1  0.673429  0.836715  0.996009  1
  Si  Si11  1  0.838516  0.677032  0.502024  1
  Si  Si12  1  0.327135  0.163568  0.003456  1
  Si  Si13  1  0.168093  0.336185  0.497479  1
  Si  Si14  1  0.163285  0.836715  0.996009  1
  Si  Si15  1  0.322968  0.161484  0.502024  1
  Si  Si16  1  0.836432  0.163568  0.003456  1
  Si  Si17  1  0.663815  0.831907  0.497479  1
  Si  Si18  1  0.838516  0.161484  0.502024  1
  Si  Si19  1  0.168093  0.831907  0.497479  1
  Ir  Ir20  1  0.333333  0.666667  0.500116  1
  Au  Au21  1  0.333333  0.666667  0.004294  1
  Au  Au22  1  0.666667  0.333333  0.997890  1
  Au  Au23  1  0.666667  0.333333  0.501527  1
