# generated using pymatgen
data_Th2Ga9OsRu2
_symmetry_space_group_name_H-M   'P 1'
_cell_length_a   7.62786724
_cell_length_b   7.62786622
_cell_length_c   9.67339968
_cell_angle_alpha   90.02173146
_cell_angle_beta   90.02173164
_cell_angle_gamma   118.98320900
_symmetry_Int_Tables_number   1
_chemical_formula_structural   Th2Ga9OsRu2
_chemical_formula_sum   'Th4 Ga18 Os2 Ru4'
_cell_volume   492.35118472
_cell_formula_units_Z   2
loop_
 _symmetry_equiv_pos_site_id
 _symmetry_equiv_pos_as_xyz
  1  'x, y, z'
loop_
 _atom_site_type_symbol
 _atom_site_label
 _atom_site_symmetry_multiplicity
 _atom_site_fract_x
 _atom_site_fract_y
 _atom_site_fract_z
 _atom_site_occupancy
  Th  Th0  1  0.998866  0.672337  0.247848  1
  Th  Th1  1  0.001134  0.327663  0.752152  1
  Th  Th2  1  0.672337  0.998866  0.247848  1
  Th  Th3  1  0.327663  0.001134  0.752152  1
  Ga  Ga4  1  0.133244  0.133244  0.249824  1
  Ga  Ga5  1  0.866756  0.866756  0.750176  1
  Ga  Ga6  1  0.010037  0.337533  0.076795  1
  Ga  Ga7  1  0.989963  0.662467  0.923205  1
  Ga  Ga8  1  0.989855  0.662083  0.576426  1
  Ga  Ga9  1  0.337917  0.010145  0.423574  1
  Ga  Ga10  1  0.010145  0.337917  0.423574  1
  Ga  Ga11  1  0.662083  0.989855  0.576426  1
  Ga  Ga12  1  0.662467  0.989963  0.923204  1
  Ga  Ga13  1  0.337533  0.010037  0.076796  1
  Ga  Ga14  1  0.337831  0.337831  0.555678  1
  Ga  Ga15  1  0.662169  0.662169  0.444322  1
  Ga  Ga16  1  0.662452  0.662452  0.055553  1
  Ga  Ga17  1  0.337548  0.337548  0.944447  1
  Ga  Ga18  1  0.339060  0.547504  0.250351  1
  Ga  Ga19  1  0.660940  0.452496  0.749649  1
  Ga  Ga20  1  0.547504  0.339060  0.250351  1
  Ga  Ga21  1  0.452496  0.660940  0.749649  1
  Os  Os22  1  0.674328  0.325672  0.000000  1
  Os  Os23  1  0.325672  0.674328  0.000000  1
  Ru  Ru24  1  0.326190  0.673810  0.500000  1
  Ru  Ru25  1  0.673810  0.326190  0.500000  1
  Ru  Ru26  1  0.000000  0.000000  0.000000  1
  Ru  Ru27  1  0.000000  0.000000  0.500000  1
