# generated using pymatgen
data_CaYb9Al3GaSb12
_symmetry_space_group_name_H-M   'P 1'
_cell_length_a   4.49716800
_cell_length_b   12.04139912
_cell_length_c   14.03050632
_cell_angle_alpha   90.06914710
_cell_angle_beta   90.00000000
_cell_angle_gamma   90.00000000
_symmetry_Int_Tables_number   1
_chemical_formula_structural   CaYb9Al3GaSb12
_chemical_formula_sum   'Ca1 Yb9 Al3 Ga1 Sb12'
_cell_volume   759.78215805
_cell_formula_units_Z   1
loop_
 _symmetry_equiv_pos_site_id
 _symmetry_equiv_pos_as_xyz
  1  'x, y, z'
loop_
 _atom_site_type_symbol
 _atom_site_label
 _atom_site_symmetry_multiplicity
 _atom_site_fract_x
 _atom_site_fract_y
 _atom_site_fract_z
 _atom_site_occupancy
  Ca  Ca0  1  0.500000  0.499872  0.000129  1
  Yb  Yb1  1  0.500000  0.670386  0.481442  1
  Yb  Yb2  1  0.500000  0.329875  0.518516  1
  Yb  Yb3  1  0.500000  0.829882  0.981538  1
  Yb  Yb4  1  0.500000  0.170331  0.019208  1
  Yb  Yb5  1  0.500000  0.999668  0.500077  1
  Yb  Yb6  1  0.500000  0.908735  0.253379  1
  Yb  Yb7  1  0.500000  0.091253  0.746562  1
  Yb  Yb8  1  0.500000  0.408521  0.246599  1
  Yb  Yb9  1  0.500000  0.591355  0.753201  1
  Al  Al10  1  0.000000  0.330594  0.711961  1
  Al  Al11  1  0.000000  0.669543  0.288000  1
  Al  Al12  1  0.000000  0.830362  0.787888  1
  Ga  Ga13  1  0.000000  0.169642  0.211753  1
  Sb  Sb14  1  0.000000  0.972919  0.100430  1
  Sb  Sb15  1  0.000000  0.026367  0.899298  1
  Sb  Sb16  1  0.000000  0.473743  0.399036  1
  Sb  Sb17  1  0.000000  0.526242  0.600908  1
  Sb  Sb18  1  0.500000  0.163033  0.324245  1
  Sb  Sb19  1  0.500000  0.836966  0.676659  1
  Sb  Sb20  1  0.500000  0.663257  0.176851  1
  Sb  Sb21  1  0.500000  0.336750  0.823164  1
  Sb  Sb22  1  0.000000  0.345079  0.091453  1
  Sb  Sb23  1  0.000000  0.655631  0.907975  1
  Sb  Sb24  1  0.000000  0.844573  0.408425  1
  Sb  Sb25  1  0.000000  0.155422  0.591303  1
