# generated using pymatgen
data_Cs6CdS4
_symmetry_space_group_name_H-M   'P 1'
_cell_length_a   10.88212700
_cell_length_b   10.88212638
_cell_length_c   8.48315700
_cell_angle_alpha   90.00000000
_cell_angle_beta   90.00000000
_cell_angle_gamma   119.99999885
_symmetry_Int_Tables_number   1
_chemical_formula_structural   Cs6CdS4
_chemical_formula_sum   'Cs12 Cd2 S8'
_cell_volume   869.99287658
_cell_formula_units_Z   2
loop_
 _symmetry_equiv_pos_site_id
 _symmetry_equiv_pos_as_xyz
  1  'x, y, z'
loop_
 _atom_site_type_symbol
 _atom_site_label
 _atom_site_symmetry_multiplicity
 _atom_site_fract_x
 _atom_site_fract_y
 _atom_site_fract_z
 _atom_site_occupancy
  Cs  Cs0  1  0.530479  0.060957  0.366188  1
  Cs  Cs1  1  0.469521  0.530479  0.866188  1
  Cs  Cs2  1  0.939043  0.469521  0.366188  1
  Cs  Cs3  1  0.530479  0.469521  0.366188  1
  Cs  Cs4  1  0.147010  0.852990  0.541626  1
  Cs  Cs5  1  0.294020  0.147010  0.041626  1
  Cs  Cs6  1  0.060957  0.530479  0.866188  1
  Cs  Cs7  1  0.852990  0.705980  0.041626  1
  Cs  Cs8  1  0.852990  0.147010  0.041626  1
  Cs  Cs9  1  0.705980  0.852990  0.541626  1
  Cs  Cs10  1  0.147010  0.294020  0.541626  1
  Cs  Cs11  1  0.469521  0.939043  0.866188  1
  Cd  Cd12  1  0.666667  0.333333  0.750624  1
  Cd  Cd13  1  0.333333  0.666667  0.250624  1
  S  S14  1  0.800844  0.199156  0.656424  1
  S  S15  1  0.601689  0.800844  0.156424  1
  S  S16  1  0.199156  0.398311  0.156424  1
  S  S17  1  0.800844  0.601689  0.656424  1
  S  S18  1  0.398311  0.199156  0.656424  1
  S  S19  1  0.199156  0.800844  0.156424  1
  S  S20  1  0.666667  0.333333  0.063761  1
  S  S21  1  0.333333  0.666667  0.563761  1
