# generated using pymatgen
data_Er3ThTlRu
_symmetry_space_group_name_H-M   'P 1'
_cell_length_a   9.62560845
_cell_length_b   9.62560910
_cell_length_c   9.62560900
_cell_angle_alpha   59.99999691
_cell_angle_beta   59.99999468
_cell_angle_gamma   60.00000265
_symmetry_Int_Tables_number   1
_chemical_formula_structural   Er3ThTlRu
_chemical_formula_sum   'Er12 Th4 Tl4 Ru4'
_cell_volume   630.62271807
_cell_formula_units_Z   4
loop_
 _symmetry_equiv_pos_site_id
 _symmetry_equiv_pos_as_xyz
  1  'x, y, z'
loop_
 _atom_site_type_symbol
 _atom_site_label
 _atom_site_symmetry_multiplicity
 _atom_site_fract_x
 _atom_site_fract_y
 _atom_site_fract_z
 _atom_site_occupancy
  Er  Er0  1  0.063143  0.436857  0.436857  1
  Er  Er1  1  0.436857  0.063143  0.063143  1
  Er  Er2  1  0.436857  0.063143  0.436857  1
  Er  Er3  1  0.063143  0.436857  0.063143  1
  Er  Er4  1  0.436857  0.436857  0.063143  1
  Er  Er5  1  0.063143  0.063143  0.436857  1
  Er  Er6  1  0.186979  0.813021  0.813021  1
  Er  Er7  1  0.813021  0.186979  0.186979  1
  Er  Er8  1  0.813021  0.186979  0.813021  1
  Er  Er9  1  0.186979  0.813021  0.186979  1
  Er  Er10  1  0.813021  0.813021  0.186979  1
  Er  Er11  1  0.186979  0.186979  0.813021  1
  Th  Th12  1  0.598318  0.598318  0.598318  1
  Th  Th13  1  0.598318  0.598318  0.205046  1
  Th  Th14  1  0.598318  0.205046  0.598318  1
  Th  Th15  1  0.205046  0.598318  0.598318  1
  Tl  Tl16  1  0.836018  0.836018  0.836018  1
  Tl  Tl17  1  0.836018  0.836018  0.491947  1
  Tl  Tl18  1  0.836018  0.491947  0.836018  1
  Tl  Tl19  1  0.491947  0.836018  0.836018  1
  Ru  Ru20  1  0.393274  0.393274  0.393274  1
  Ru  Ru21  1  0.393274  0.393274  0.820175  1
  Ru  Ru22  1  0.393274  0.820175  0.393274  1
  Ru  Ru23  1  0.820175  0.393274  0.393274  1
