# generated using pymatgen
data_Sc2Pb(SeO3)4
_symmetry_space_group_name_H-M   'P 1'
_cell_length_a   7.14927389
_cell_length_b   9.71567765
_cell_length_c   9.55615569
_cell_angle_alpha   68.71666585
_cell_angle_beta   96.18710747
_cell_angle_gamma   89.71262165
_symmetry_Int_Tables_number   1
_chemical_formula_structural   Sc2Pb(SeO3)4
_chemical_formula_sum   'Sc4 Pb2 Se8 O24'
_cell_volume   614.19878366
_cell_formula_units_Z   2
loop_
 _symmetry_equiv_pos_site_id
 _symmetry_equiv_pos_as_xyz
  1  'x, y, z'
loop_
 _atom_site_type_symbol
 _atom_site_label
 _atom_site_symmetry_multiplicity
 _atom_site_fract_x
 _atom_site_fract_y
 _atom_site_fract_z
 _atom_site_occupancy
  Sc  Sc0  1  0.001028  0.750229  0.754112  1
  Sc  Sc1  1  0.499664  0.750672  0.247251  1
  Sc  Sc2  1  0.001023  0.250232  0.254109  1
  Sc  Sc3  1  0.499651  0.250639  0.747282  1
  Pb  Pb4  1  0.008092  0.543066  0.476947  1
  Pb  Pb5  1  0.008106  0.043130  0.976913  1
  Se  Se6  1  0.555429  0.129177  0.132345  1
  Se  Se7  1  0.555428  0.629158  0.632364  1
  Se  Se8  1  0.446385  0.871891  0.867433  1
  Se  Se9  1  0.446387  0.371895  0.367422  1
  Se  Se10  1  0.802712  0.098640  0.582671  1
  Se  Se11  1  0.802711  0.598670  0.082693  1
  Se  Se12  1  0.194850  0.899519  0.416758  1
  Se  Se13  1  0.194851  0.399518  0.916741  1
  O  O14  1  0.715938  0.718237  0.710954  1
  O  O15  1  0.715948  0.218255  0.210939  1
  O  O16  1  0.287193  0.280503  0.289518  1
  O  O17  1  0.287189  0.780487  0.789555  1
  O  O18  1  0.984920  0.178779  0.484333  1
  O  O19  1  0.984928  0.678780  0.984337  1
  O  O20  1  0.013966  0.811923  0.515908  1
  O  O21  1  0.013964  0.311921  0.015900  1
  O  O22  1  0.657423  0.625210  0.473158  1
  O  O23  1  0.657426  0.125213  0.973146  1
  O  O24  1  0.346417  0.376236  0.526171  1
  O  O25  1  0.346410  0.876243  0.026190  1
  O  O26  1  0.925917  0.967312  0.743954  1
  O  O27  1  0.925930  0.467310  0.243973  1
  O  O28  1  0.074909  0.030958  0.255747  1
  O  O29  1  0.074901  0.530955  0.755744  1
  O  O30  1  0.584880  0.950606  0.261356  1
  O  O31  1  0.584888  0.450582  0.761362  1
  O  O32  1  0.407503  0.050422  0.739944  1
  O  O33  1  0.407525  0.550434  0.239947  1
  O  O34  1  0.751690  0.230039  0.658242  1
  O  O35  1  0.751704  0.730049  0.158279  1
  O  O36  1  0.246965  0.761151  0.349062  1
  O  O37  1  0.246953  0.261156  0.849039  1
