# generated using pymatgen
data_HfMg(ZnRh2)2
_symmetry_space_group_name_H-M   'P 1'
_cell_length_a   6.17819200
_cell_length_b   6.17858200
_cell_length_c   6.27245800
_cell_angle_alpha   90.00000000
_cell_angle_beta   90.00000000
_cell_angle_gamma   90.00000000
_symmetry_Int_Tables_number   1
_chemical_formula_structural   HfMg(ZnRh2)2
_chemical_formula_sum   'Hf2 Mg2 Zn4 Rh8'
_cell_volume   239.43518901
_cell_formula_units_Z   2
loop_
 _symmetry_equiv_pos_site_id
 _symmetry_equiv_pos_as_xyz
  1  'x, y, z'
loop_
 _atom_site_type_symbol
 _atom_site_label
 _atom_site_symmetry_multiplicity
 _atom_site_fract_x
 _atom_site_fract_y
 _atom_site_fract_z
 _atom_site_occupancy
  Hf  Hf0  1  0.750055  0.250000  0.500000  1
  Hf  Hf1  1  0.249946  0.750001  0.500000  1
  Mg  Mg2  1  0.749945  0.250000  0.000000  1
  Mg  Mg3  1  0.250055  0.750001  0.000000  1
  Zn  Zn4  1  0.249992  0.250000  0.000000  1
  Zn  Zn5  1  0.750009  0.750001  0.000000  1
  Zn  Zn6  1  0.750026  0.750001  0.499996  1
  Zn  Zn7  1  0.249975  0.250000  0.500003  1
  Rh  Rh8  1  0.000000  0.000000  0.247103  1
  Rh  Rh9  1  0.000000  0.500001  0.247103  1
  Rh  Rh10  1  0.499999  0.000000  0.247192  1
  Rh  Rh11  1  0.499999  0.499999  0.247192  1
  Rh  Rh12  1  0.500002  0.000000  0.752807  1
  Rh  Rh13  1  0.500002  0.500001  0.752807  1
  Rh  Rh14  1  0.000000  0.000000  0.752897  1
  Rh  Rh15  1  0.000000  0.499999  0.752897  1
