# generated using pymatgen
data_YbY3Al2(Co2B)6
_symmetry_space_group_name_H-M   'P 1'
_cell_length_a   5.14353801
_cell_length_b   5.14395220
_cell_length_c   12.33293000
_cell_angle_alpha   89.99993334
_cell_angle_beta   90.00006773
_cell_angle_gamma   119.99788976
_symmetry_Int_Tables_number   1
_chemical_formula_structural   YbY3Al2(Co2B)6
_chemical_formula_sum   'Yb1 Y3 Al2 Co12 B6'
_cell_volume   282.59534955
_cell_formula_units_Z   1
loop_
 _symmetry_equiv_pos_site_id
 _symmetry_equiv_pos_as_xyz
  1  'x, y, z'
loop_
 _atom_site_type_symbol
 _atom_site_label
 _atom_site_symmetry_multiplicity
 _atom_site_fract_x
 _atom_site_fract_y
 _atom_site_fract_z
 _atom_site_occupancy
  Yb  Yb0  1  0.999991  0.000000  0.500042  1
  Y  Y1  1  0.999991  0.000000  0.000024  1
  Y  Y2  1  0.999987  0.000000  0.263941  1
  Y  Y3  1  0.999996  0.000000  0.736044  1
  Al  Al4  1  0.333278  0.666609  0.000009  1
  Al  Al5  1  0.666707  0.333390  0.000009  1
  Co  Co6  1  0.499986  0.999999  0.159901  1
  Co  Co7  1  0.499987  0.499999  0.159908  1
  Co  Co8  1  0.999989  0.500001  0.159886  1
  Co  Co9  1  0.499996  0.000000  0.840072  1
  Co  Co10  1  0.499995  0.500001  0.840075  1
  Co  Co11  1  0.999995  0.500000  0.840063  1
  Co  Co12  1  0.499990  0.000000  0.386933  1
  Co  Co13  1  0.499990  0.500000  0.386913  1
  Co  Co14  1  0.999990  0.500000  0.386926  1
  Co  Co15  1  0.499994  0.000000  0.613089  1
  Co  Co16  1  0.499994  0.500001  0.613102  1
  Co  Co17  1  0.999993  0.499999  0.613106  1
  B  B18  1  0.333315  0.666660  0.500030  1
  B  B19  1  0.666666  0.333340  0.500030  1
  B  B20  1  0.333260  0.666683  0.269154  1
  B  B21  1  0.666719  0.333317  0.269153  1
  B  B22  1  0.666611  0.333298  0.730795  1
  B  B23  1  0.333378  0.666702  0.730795  1
