# generated using pymatgen
data_Er16ZnIn6Cu
_symmetry_space_group_name_H-M   'P 1'
_cell_length_a   10.52547600
_cell_length_b   10.52547498
_cell_length_c   6.76934600
_cell_angle_alpha   90.00000000
_cell_angle_beta   90.00000000
_cell_angle_gamma   119.99999693
_symmetry_Int_Tables_number   1
_chemical_formula_structural   Er16ZnIn6Cu
_chemical_formula_sum   'Er16 Zn1 In6 Cu1'
_cell_volume   649.47255889
_cell_formula_units_Z   1
loop_
 _symmetry_equiv_pos_site_id
 _symmetry_equiv_pos_as_xyz
  1  'x, y, z'
loop_
 _atom_site_type_symbol
 _atom_site_label
 _atom_site_symmetry_multiplicity
 _atom_site_fract_x
 _atom_site_fract_y
 _atom_site_fract_z
 _atom_site_occupancy
  Er  Er0  1  0.524563  0.049126  0.796082  1
  Er  Er1  1  0.950874  0.475437  0.796082  1
  Er  Er2  1  0.524563  0.475437  0.796082  1
  Er  Er3  1  0.477597  0.955195  0.297226  1
  Er  Er4  1  0.044805  0.522403  0.297226  1
  Er  Er5  1  0.477597  0.522403  0.297226  1
  Er  Er6  1  0.824196  0.648392  0.507563  1
  Er  Er7  1  0.351608  0.175804  0.507563  1
  Er  Er8  1  0.824196  0.175804  0.507563  1
  Er  Er9  1  0.172969  0.345936  0.011616  1
  Er  Er10  1  0.654064  0.827031  0.011616  1
  Er  Er11  1  0.172969  0.827031  0.011616  1
  Er  Er12  1  0.666667  0.333333  0.162720  1
  Er  Er13  1  0.333333  0.666667  0.652489  1
  Er  Er14  1  0.000000  0.000000  0.775795  1
  Er  Er15  1  0.000000  0.000000  0.276306  1
  Zn  Zn16  1  0.333333  0.666667  0.079914  1
  In  In17  1  0.835936  0.671874  0.028996  1
  In  In18  1  0.328126  0.164064  0.028996  1
  In  In19  1  0.835936  0.164064  0.028996  1
  In  In20  1  0.164109  0.328218  0.532254  1
  In  In21  1  0.671782  0.835891  0.532254  1
  In  In22  1  0.164109  0.835891  0.532254  1
  Cu  Cu23  1  0.666667  0.333333  0.567467  1
