# generated using pymatgen
data_Be8Cr2TcOs
_symmetry_space_group_name_H-M   'P 1'
_cell_length_a   4.27855200
_cell_length_b   4.27855274
_cell_length_c   6.99532700
_cell_angle_alpha   90.00000000
_cell_angle_beta   90.00000000
_cell_angle_gamma   120.00000975
_symmetry_Int_Tables_number   1
_chemical_formula_structural   Be8Cr2TcOs
_chemical_formula_sum   'Be8 Cr2 Tc1 Os1'
_cell_volume   110.90019607
_cell_formula_units_Z   1
loop_
 _symmetry_equiv_pos_site_id
 _symmetry_equiv_pos_as_xyz
  1  'x, y, z'
loop_
 _atom_site_type_symbol
 _atom_site_label
 _atom_site_symmetry_multiplicity
 _atom_site_fract_x
 _atom_site_fract_y
 _atom_site_fract_z
 _atom_site_occupancy
  Be  Be0  1  0.169395  0.338790  0.750575  1
  Be  Be1  1  0.169395  0.830605  0.750575  1
  Be  Be2  1  0.338949  0.169475  0.249396  1
  Be  Be3  1  0.830525  0.661051  0.249396  1
  Be  Be4  1  0.000000  0.000000  0.000141  1
  Be  Be5  1  0.661210  0.830605  0.750575  1
  Be  Be6  1  0.830525  0.169475  0.249396  1
  Be  Be7  1  0.000000  0.000000  0.500684  1
  Cr  Cr8  1  0.333333  0.666667  0.061974  1
  Cr  Cr9  1  0.666667  0.333333  0.560679  1
  Tc  Tc10  1  0.333333  0.666667  0.438410  1
  Os  Os11  1  0.666667  0.333333  0.938198  1
