# generated using pymatgen
data_Ba20TlRu11O48
_symmetry_space_group_name_H-M   'P 1'
_cell_length_a   5.98756800
_cell_length_b   11.02429130
_cell_length_c   20.12045400
_cell_angle_alpha   89.69685974
_cell_angle_beta   90.00000000
_cell_angle_gamma   90.00000000
_symmetry_Int_Tables_number   1
_chemical_formula_structural   Ba20TlRu11O48
_chemical_formula_sum   'Ba20 Tl1 Ru11 O48'
_cell_volume   1328.10629850
_cell_formula_units_Z   1
loop_
 _symmetry_equiv_pos_site_id
 _symmetry_equiv_pos_as_xyz
  1  'x, y, z'
loop_
 _atom_site_type_symbol
 _atom_site_label
 _atom_site_symmetry_multiplicity
 _atom_site_fract_x
 _atom_site_fract_y
 _atom_site_fract_z
 _atom_site_occupancy
  Ba  Ba0  1  0.000000  0.880824  0.963726  1
  Ba  Ba1  1  0.000000  0.387206  0.531536  1
  Ba  Ba2  1  0.500000  0.111911  0.016728  1
  Ba  Ba3  1  0.500000  0.612328  0.471237  1
  Ba  Ba4  1  0.000000  0.700109  0.756156  1
  Ba  Ba5  1  0.000000  0.189937  0.742849  1
  Ba  Ba6  1  0.500000  0.307847  0.249668  1
  Ba  Ba7  1  0.500000  0.798718  0.257498  1
  Ba  Ba8  1  0.000000  0.052691  0.178925  1
  Ba  Ba9  1  0.000000  0.547480  0.327073  1
  Ba  Ba10  1  0.500000  0.952458  0.819611  1
  Ba  Ba11  1  0.500000  0.454067  0.676504  1
  Ba  Ba12  1  0.000000  0.690689  0.131758  1
  Ba  Ba13  1  0.000000  0.184584  0.373025  1
  Ba  Ba14  1  0.500000  0.315611  0.864136  1
  Ba  Ba15  1  0.500000  0.814024  0.629639  1
  Ba  Ba16  1  0.000000  0.512105  0.923343  1
  Ba  Ba17  1  0.000000  0.021854  0.573734  1
  Ba  Ba18  1  0.500000  0.473817  0.086501  1
  Ba  Ba19  1  0.500000  0.972877  0.426812  1
  Tl  Tl20  1  0.000000  0.279929  0.055538  1
  Ru  Ru21  1  0.000000  0.388265  0.183894  1
  Ru  Ru22  1  0.000000  0.877118  0.328795  1
  Ru  Ru23  1  0.500000  0.625881  0.826778  1
  Ru  Ru24  1  0.500000  0.120508  0.670369  1
  Ru  Ru25  1  0.000000  0.189635  0.921017  1
  Ru  Ru26  1  0.000000  0.692887  0.569886  1
  Ru  Ru27  1  0.500000  0.807990  0.070110  1
  Ru  Ru28  1  0.500000  0.305631  0.432378  1
  Ru  Ru29  1  0.000000  0.784268  0.443215  1
  Ru  Ru30  1  0.500000  0.714458  0.942337  1
  Ru  Ru31  1  0.500000  0.214705  0.557584  1
  O  O32  1  0.236423  0.300988  0.968902  1
  O  O33  1  0.775186  0.805752  0.517038  1
  O  O34  1  0.720740  0.694288  0.015894  1
  O  O35  1  0.273953  0.192710  0.485146  1
  O  O36  1  0.279260  0.694288  0.015894  1
  O  O37  1  0.726047  0.192710  0.485146  1
  O  O38  1  0.763577  0.300988  0.968902  1
  O  O39  1  0.224814  0.805752  0.517038  1
  O  O40  1  0.000000  0.094194  0.010631  1
  O  O41  1  0.000000  0.611370  0.476381  1
  O  O42  1  0.500000  0.885739  0.974333  1
  O  O43  1  0.500000  0.388165  0.526165  1
  O  O44  1  0.239509  0.267046  0.143462  1
  O  O45  1  0.761271  0.758364  0.372249  1
  O  O46  1  0.735635  0.742685  0.870241  1
  O  O47  1  0.263503  0.241903  0.628458  1
  O  O48  1  0.264365  0.742685  0.870241  1
  O  O49  1  0.736497  0.241903  0.628458  1
  O  O50  1  0.760491  0.267046  0.143462  1
  O  O51  1  0.238729  0.758364  0.372249  1
  O  O52  1  0.000000  0.307249  0.850674  1
  O  O53  1  0.000000  0.805898  0.640702  1
  O  O54  1  0.500000  0.695018  0.141402  1
  O  O55  1  0.500000  0.190529  0.362861  1
  O  O56  1  0.767235  0.089627  0.886476  1
  O  O57  1  0.234036  0.593009  0.602964  1
  O  O58  1  0.266867  0.905509  0.103145  1
  O  O59  1  0.733438  0.405698  0.400700  1
  O  O60  1  0.733133  0.905509  0.103145  1
  O  O61  1  0.266562  0.405698  0.400700  1
  O  O62  1  0.232765  0.089627  0.886476  1
  O  O63  1  0.765964  0.593009  0.602964  1
  O  O64  1  0.000000  0.471734  0.090593  1
  O  O65  1  0.000000  0.962162  0.421782  1
  O  O66  1  0.500000  0.539653  0.918208  1
  O  O67  1  0.500000  0.035837  0.577399  1
  O  O68  1  0.000000  0.290805  0.262837  1
  O  O69  1  0.000000  0.780843  0.250203  1
  O  O70  1  0.500000  0.723645  0.747270  1
  O  O71  1  0.500000  0.215948  0.748689  1
  O  O72  1  0.767319  0.494964  0.213421  1
  O  O73  1  0.228493  0.982024  0.296158  1
  O  O74  1  0.272385  0.521488  0.793333  1
  O  O75  1  0.728450  0.013349  0.701166  1
  O  O76  1  0.727615  0.521488  0.793333  1
  O  O77  1  0.271550  0.013349  0.701166  1
  O  O78  1  0.232681  0.494964  0.213421  1
  O  O79  1  0.771507  0.982024  0.296158  1
