# generated using pymatgen
data_Dy7Co3Sn23Ir3
_symmetry_space_group_name_H-M   'P 1'
_cell_length_a   9.80854956
_cell_length_b   9.81582483
_cell_length_c   10.03380910
_cell_angle_alpha   90.05539944
_cell_angle_beta   89.88529556
_cell_angle_gamma   120.26702752
_symmetry_Int_Tables_number   1
_chemical_formula_structural   Dy7Co3Sn23Ir3
_chemical_formula_sum   'Dy7 Co3 Sn23 Ir3'
_cell_volume   834.35775884
_cell_formula_units_Z   1
loop_
 _symmetry_equiv_pos_site_id
 _symmetry_equiv_pos_as_xyz
  1  'x, y, z'
loop_
 _atom_site_type_symbol
 _atom_site_label
 _atom_site_symmetry_multiplicity
 _atom_site_fract_x
 _atom_site_fract_y
 _atom_site_fract_z
 _atom_site_occupancy
  Dy  Dy0  1  0.998668  0.997082  0.002040  1
  Dy  Dy1  1  0.479834  0.520605  0.308279  1
  Dy  Dy2  1  0.520035  0.479118  0.691648  1
  Dy  Dy3  1  0.480267  0.958879  0.307725  1
  Dy  Dy4  1  0.519759  0.041651  0.692259  1
  Dy  Dy5  1  0.041235  0.520000  0.306977  1
  Dy  Dy6  1  0.958461  0.479803  0.692690  1
  Co  Co7  1  0.169398  0.336791  0.802099  1
  Co  Co8  1  0.337401  0.170473  0.197713  1
  Co  Co9  1  0.663617  0.832468  0.800511  1
  Sn  Sn10  1  0.352598  0.006170  0.004738  1
  Sn  Sn11  1  0.647502  0.994248  0.994520  1
  Sn  Sn12  1  0.006464  0.351277  0.994410  1
  Sn  Sn13  1  0.999408  0.645065  0.999438  1
  Sn  Sn14  1  0.645614  0.650996  0.994900  1
  Sn  Sn15  1  0.346642  0.346658  0.999759  1
  Sn  Sn16  1  0.336060  0.663937  0.821025  1
  Sn  Sn17  1  0.660706  0.330732  0.176564  1
  Sn  Sn18  1  0.999666  0.999636  0.500434  1
  Sn  Sn19  1  0.780738  0.219646  0.458199  1
  Sn  Sn20  1  0.219095  0.779835  0.541495  1
  Sn  Sn21  1  0.780665  0.559710  0.459493  1
  Sn  Sn22  1  0.217054  0.435722  0.547487  1
  Sn  Sn23  1  0.436433  0.217634  0.452873  1
  Sn  Sn24  1  0.563364  0.782276  0.547692  1
  Sn  Sn25  1  0.335072  0.665595  0.115709  1
  Sn  Sn26  1  0.665167  0.334207  0.883201  1
  Sn  Sn27  1  0.124037  0.888740  0.277743  1
  Sn  Sn28  1  0.884218  0.117342  0.726240  1
  Sn  Sn29  1  0.123636  0.236196  0.277641  1
  Sn  Sn30  1  0.877097  0.765230  0.722215  1
  Sn  Sn31  1  0.760957  0.881469  0.283955  1
  Sn  Sn32  1  0.236401  0.124703  0.721790  1
  Ir  Ir33  1  0.831618  0.169982  0.197180  1
  Ir  Ir34  1  0.170507  0.833105  0.800642  1
  Ir  Ir35  1  0.830604  0.663019  0.198718  1
