# generated using pymatgen
data_Sc12Ga(PtBr8)2
_symmetry_space_group_name_H-M   'P 1'
_cell_length_a   9.04112502
_cell_length_b   11.11703975
_cell_length_c   11.74476512
_cell_angle_alpha   117.07298010
_cell_angle_beta   101.93295238
_cell_angle_gamma   101.39878156
_symmetry_Int_Tables_number   1
_chemical_formula_structural   Sc12Ga(PtBr8)2
_chemical_formula_sum   'Sc12 Ga1 Pt2 Br16'
_cell_volume   969.03179034
_cell_formula_units_Z   1
loop_
 _symmetry_equiv_pos_site_id
 _symmetry_equiv_pos_as_xyz
  1  'x, y, z'
loop_
 _atom_site_type_symbol
 _atom_site_label
 _atom_site_symmetry_multiplicity
 _atom_site_fract_x
 _atom_site_fract_y
 _atom_site_fract_z
 _atom_site_occupancy
  Sc  Sc0  1  0.083243  0.251206  0.346808  1
  Sc  Sc1  1  0.916757  0.748794  0.653192  1
  Sc  Sc2  1  0.772599  0.538246  0.316038  1
  Sc  Sc3  1  0.227401  0.461754  0.683962  1
  Sc  Sc4  1  0.288062  0.749680  0.652995  1
  Sc  Sc5  1  0.711938  0.250320  0.347005  1
  Sc  Sc6  1  0.143683  0.537780  0.316644  1
  Sc  Sc7  1  0.856317  0.462220  0.683356  1
  Sc  Sc8  1  0.398631  0.347933  0.257627  1
  Sc  Sc9  1  0.601369  0.652067  0.742373  1
  Sc  Sc10  1  0.455158  0.294188  0.521713  1
  Sc  Sc11  1  0.544842  0.705812  0.478287  1
  Ga  Ga12  1  0.000000  0.500000  0.500000  1
  Pt  Pt13  1  0.340279  0.500200  0.499475  1
  Pt  Pt14  1  0.659722  0.499800  0.500525  1
  Br  Br15  1  0.402013  0.744710  0.888696  1
  Br  Br16  1  0.597987  0.255290  0.111304  1
  Br  Br17  1  0.190952  0.970049  0.785832  1
  Br  Br18  1  0.809048  0.029951  0.214168  1
  Br  Br19  1  0.336418  0.086093  0.245315  1
  Br  Br20  1  0.663582  0.913907  0.754685  1
  Br  Br21  1  0.551693  0.437062  0.804718  1
  Br  Br22  1  0.448307  0.562938  0.195282  1
  Br  Br23  1  0.313011  0.830308  0.461852  1
  Br  Br24  1  0.686989  0.169692  0.538148  1
  Br  Br25  1  0.168866  0.167497  0.532767  1
  Br  Br26  1  0.831134  0.832503  0.467233  1
  Br  Br27  1  0.925805  0.577244  0.158407  1
  Br  Br28  1  0.074195  0.422756  0.841593  1
  Br  Br29  1  0.922312  0.742941  0.889227  1
  Br  Br30  1  0.077688  0.257059  0.110773  1
