# generated using pymatgen
data_Ti8Tc4PdRu3
_symmetry_space_group_name_H-M   'P 1'
_cell_length_a   6.21561100
_cell_length_b   6.21557000
_cell_length_c   6.19321400
_cell_angle_alpha   90.00000000
_cell_angle_beta   90.00016622
_cell_angle_gamma   90.00000000
_symmetry_Int_Tables_number   1
_chemical_formula_structural   Ti8Tc4PdRu3
_chemical_formula_sum   'Ti8 Tc4 Pd1 Ru3'
_cell_volume   239.26593726
_cell_formula_units_Z   1
loop_
 _symmetry_equiv_pos_site_id
 _symmetry_equiv_pos_as_xyz
  1  'x, y, z'
loop_
 _atom_site_type_symbol
 _atom_site_label
 _atom_site_symmetry_multiplicity
 _atom_site_fract_x
 _atom_site_fract_y
 _atom_site_fract_z
 _atom_site_occupancy
  Ti  Ti0  1  0.503257  0.996741  0.253414  1
  Ti  Ti1  1  0.503257  0.503256  0.253414  1
  Ti  Ti2  1  0.996741  0.996743  0.253413  1
  Ti  Ti3  1  0.996741  0.503261  0.253413  1
  Ti  Ti4  1  0.996740  0.996741  0.746586  1
  Ti  Ti5  1  0.996740  0.503256  0.746586  1
  Ti  Ti6  1  0.503262  0.996742  0.746587  1
  Ti  Ti7  1  0.503262  0.503262  0.746587  1
  Tc  Tc8  1  0.750001  0.250000  0.000000  1
  Tc  Tc9  1  0.250000  0.750001  0.000003  1
  Tc  Tc10  1  0.749998  0.250000  0.499996  1
  Tc  Tc11  1  0.250002  0.750001  0.500002  1
  Pd  Pd12  1  0.250001  0.250000  0.000001  1
  Ru  Ru13  1  0.749999  0.750001  0.000000  1
  Ru  Ru14  1  0.750000  0.750001  0.499992  1
  Ru  Ru15  1  0.250000  0.250000  0.500009  1
