# generated using pymatgen
data_Ce2AlSiRh2
_symmetry_space_group_name_H-M   'P 1'
_cell_length_a   4.16345500
_cell_length_b   7.04260400
_cell_length_c   15.65449800
_cell_angle_alpha   90.00000000
_cell_angle_beta   90.00000000
_cell_angle_gamma   90.00000000
_symmetry_Int_Tables_number   1
_chemical_formula_structural   Ce2AlSiRh2
_chemical_formula_sum   'Ce8 Al4 Si4 Rh8'
_cell_volume   459.01437809
_cell_formula_units_Z   4
loop_
 _symmetry_equiv_pos_site_id
 _symmetry_equiv_pos_as_xyz
  1  'x, y, z'
loop_
 _atom_site_type_symbol
 _atom_site_label
 _atom_site_symmetry_multiplicity
 _atom_site_fract_x
 _atom_site_fract_y
 _atom_site_fract_z
 _atom_site_occupancy
  Ce  Ce0  1  0.250000  0.145061  0.559134  1
  Ce  Ce1  1  0.750000  0.854939  0.440866  1
  Ce  Ce2  1  0.250000  0.645061  0.940866  1
  Ce  Ce3  1  0.750000  0.354939  0.059134  1
  Ce  Ce4  1  0.250000  0.023993  0.775988  1
  Ce  Ce5  1  0.750000  0.976007  0.224012  1
  Ce  Ce6  1  0.250000  0.523993  0.724012  1
  Ce  Ce7  1  0.750000  0.476007  0.275988  1
  Al  Al8  1  0.250000  0.006211  0.061749  1
  Al  Al9  1  0.750000  0.993789  0.938251  1
  Al  Al10  1  0.250000  0.506211  0.438251  1
  Al  Al11  1  0.750000  0.493789  0.561749  1
  Si  Si12  1  0.250000  0.142357  0.350469  1
  Si  Si13  1  0.750000  0.857643  0.649531  1
  Si  Si14  1  0.250000  0.642357  0.149531  1
  Si  Si15  1  0.750000  0.357643  0.850469  1
  Rh  Rh16  1  0.750000  0.274682  0.420401  1
  Rh  Rh17  1  0.250000  0.725318  0.579599  1
  Rh  Rh18  1  0.750000  0.774682  0.079599  1
  Rh  Rh19  1  0.250000  0.225318  0.920401  1
  Rh  Rh20  1  0.750000  0.734794  0.816544  1
  Rh  Rh21  1  0.250000  0.265206  0.183456  1
  Rh  Rh22  1  0.750000  0.234794  0.683456  1
  Rh  Rh23  1  0.250000  0.765206  0.316544  1
