# generated using pymatgen
data_Li4Ac4Si3GePb2
_symmetry_space_group_name_H-M   'P 1'
_cell_length_a   10.27390689
_cell_length_b   10.27390803
_cell_length_c   7.17666605
_cell_angle_alpha   89.86265449
_cell_angle_beta   90.13734423
_cell_angle_gamma   152.78861181
_symmetry_Int_Tables_number   1
_chemical_formula_structural   Li4Ac4Si3GePb2
_chemical_formula_sum   'Li4 Ac4 Si3 Ge1 Pb2'
_cell_volume   346.39362392
_cell_formula_units_Z   1
loop_
 _symmetry_equiv_pos_site_id
 _symmetry_equiv_pos_as_xyz
  1  'x, y, z'
loop_
 _atom_site_type_symbol
 _atom_site_label
 _atom_site_symmetry_multiplicity
 _atom_site_fract_x
 _atom_site_fract_y
 _atom_site_fract_z
 _atom_site_occupancy
  Li  Li0  1  0.817658  0.182342  0.558760  1
  Li  Li1  1  0.182134  0.817866  0.442596  1
  Li  Li2  1  0.182956  0.817044  0.057326  1
  Li  Li3  1  0.815947  0.184053  0.942290  1
  Ac  Ac4  1  0.548019  0.451981  0.249955  1
  Ac  Ac5  1  0.452902  0.547098  0.747918  1
  Ac  Ac6  1  0.347930  0.652070  0.251818  1
  Ac  Ac7  1  0.651993  0.348007  0.750671  1
  Si  Si8  1  0.056781  0.943219  0.919070  1
  Si  Si9  1  0.055105  0.944895  0.576262  1
  Si  Si10  1  0.945158  0.054842  0.428390  1
  Ge  Ge11  1  0.943148  0.056852  0.074343  1
  Pb  Pb12  1  0.719520  0.280480  0.250285  1
  Pb  Pb13  1  0.280748  0.719252  0.750316  1
