# generated using pymatgen
data_Er4CoB14
_symmetry_space_group_name_H-M   'P 1'
_cell_length_a   7.18055500
_cell_length_b   7.18055500
_cell_length_c   7.45194600
_cell_angle_alpha   90.00000000
_cell_angle_beta   90.00000000
_cell_angle_gamma   90.00000000
_symmetry_Int_Tables_number   1
_chemical_formula_structural   Er4CoB14
_chemical_formula_sum   'Er8 Co2 B28'
_cell_volume   384.22509379
_cell_formula_units_Z   2
loop_
 _symmetry_equiv_pos_site_id
 _symmetry_equiv_pos_as_xyz
  1  'x, y, z'
loop_
 _atom_site_type_symbol
 _atom_site_label
 _atom_site_symmetry_multiplicity
 _atom_site_fract_x
 _atom_site_fract_y
 _atom_site_fract_z
 _atom_site_occupancy
  Er  Er0  1  0.192784  0.330310  0.000000  1
  Er  Er1  1  0.669690  0.192784  0.000000  1
  Er  Er2  1  0.330310  0.807216  0.000000  1
  Er  Er3  1  0.692784  0.169690  0.500000  1
  Er  Er4  1  0.307216  0.830310  0.500000  1
  Er  Er5  1  0.807216  0.669690  0.000000  1
  Er  Er6  1  0.830310  0.692784  0.500000  1
  Er  Er7  1  0.169690  0.307216  0.500000  1
  Co  Co8  1  0.000000  0.000000  0.000000  1
  Co  Co9  1  0.500000  0.500000  0.500000  1
  B  B10  1  0.174627  0.038864  0.230546  1
  B  B11  1  0.961136  0.174627  0.230546  1
  B  B12  1  0.038864  0.825373  0.230546  1
  B  B13  1  0.674627  0.461136  0.269454  1
  B  B14  1  0.325373  0.538864  0.269454  1
  B  B15  1  0.825373  0.961136  0.230546  1
  B  B16  1  0.538864  0.674627  0.269454  1
  B  B17  1  0.461136  0.325373  0.269454  1
  B  B18  1  0.825373  0.961136  0.769454  1
  B  B19  1  0.038864  0.825373  0.769454  1
  B  B20  1  0.961136  0.174627  0.769454  1
  B  B21  1  0.325373  0.538864  0.730546  1
  B  B22  1  0.674627  0.461136  0.730546  1
  B  B23  1  0.174627  0.038864  0.769454  1
  B  B24  1  0.461136  0.325373  0.730546  1
  B  B25  1  0.538864  0.674627  0.730546  1
  B  B26  1  0.087966  0.587966  0.250000  1
  B  B27  1  0.412034  0.087966  0.250000  1
  B  B28  1  0.587966  0.912034  0.250000  1
  B  B29  1  0.912034  0.412034  0.250000  1
  B  B30  1  0.912034  0.412034  0.750000  1
  B  B31  1  0.587966  0.912034  0.750000  1
  B  B32  1  0.412034  0.087966  0.750000  1
  B  B33  1  0.087966  0.587966  0.750000  1
  B  B34  1  0.000000  0.000000  0.388377  1
  B  B35  1  0.500000  0.500000  0.111623  1
  B  B36  1  0.000000  0.000000  0.611623  1
  B  B37  1  0.500000  0.500000  0.888377  1
