# generated using pymatgen
data_RbAl4Ag3I16
_symmetry_space_group_name_H-M   'P 1'
_cell_length_a   8.61475900
_cell_length_b   8.50042071
_cell_length_c   16.64957400
_cell_angle_alpha   92.02523522
_cell_angle_beta   90.00000000
_cell_angle_gamma   90.00000000
_symmetry_Int_Tables_number   1
_chemical_formula_structural   RbAl4Ag3I16
_chemical_formula_sum   'Rb1 Al4 Ag3 I16'
_cell_volume   1218.47133405
_cell_formula_units_Z   1
loop_
 _symmetry_equiv_pos_site_id
 _symmetry_equiv_pos_as_xyz
  1  'x, y, z'
loop_
 _atom_site_type_symbol
 _atom_site_label
 _atom_site_symmetry_multiplicity
 _atom_site_fract_x
 _atom_site_fract_y
 _atom_site_fract_z
 _atom_site_occupancy
  Rb  Rb0  1  0.250000  0.081449  0.648797  1
  Al  Al1  1  0.250000  0.385542  0.899104  1
  Al  Al2  1  0.750000  0.838858  0.601087  1
  Al  Al3  1  0.750000  0.597268  0.096046  1
  Al  Al4  1  0.250000  0.150389  0.398274  1
  Ag  Ag5  1  0.250000  0.579350  0.088708  1
  Ag  Ag6  1  0.750000  0.060163  0.409796  1
  Ag  Ag7  1  0.750000  0.407374  0.905236  1
  I  I8  1  0.250000  0.248907  0.033334  1
  I  I9  1  0.750000  0.730353  0.454903  1
  I  I10  1  0.750000  0.732477  0.959585  1
  I  I11  1  0.250000  0.378663  0.502718  1
  I  I12  1  0.250000  0.877685  0.455908  1
  I  I13  1  0.750000  0.297391  0.068263  1
  I  I14  1  0.750000  0.143272  0.585869  1
  I  I15  1  0.250000  0.684203  0.922303  1
  I  I16  1  0.988165  0.682660  0.180447  1
  I  I17  1  0.001785  0.172100  0.310705  1
  I  I18  1  0.487867  0.296930  0.813085  1
  I  I19  1  0.513506  0.751637  0.680797  1
  I  I20  1  0.012133  0.296930  0.813085  1
  I  I21  1  0.986494  0.751637  0.680797  1
  I  I22  1  0.511835  0.682660  0.180447  1
  I  I23  1  0.498215  0.172100  0.310705  1
