# generated using pymatgen
data_SmPa2(Fe3P2)3
_symmetry_space_group_name_H-M   'P 1'
_cell_length_a   3.73708100
_cell_length_b   10.53652900
_cell_length_c   12.21181400
_cell_angle_alpha   90.00000000
_cell_angle_beta   90.00000000
_cell_angle_gamma   90.00000000
_symmetry_Int_Tables_number   1
_chemical_formula_structural   SmPa2(Fe3P2)3
_chemical_formula_sum   'Sm2 Pa4 Fe18 P12'
_cell_volume   480.85070689
_cell_formula_units_Z   2
loop_
 _symmetry_equiv_pos_site_id
 _symmetry_equiv_pos_as_xyz
  1  'x, y, z'
loop_
 _atom_site_type_symbol
 _atom_site_label
 _atom_site_symmetry_multiplicity
 _atom_site_fract_x
 _atom_site_fract_y
 _atom_site_fract_z
 _atom_site_occupancy
  Sm  Sm0  1  0.000000  0.500000  0.519424  1
  Sm  Sm1  1  0.500000  0.000000  0.480576  1
  Pa  Pa2  1  0.500000  0.819755  0.206643  1
  Pa  Pa3  1  0.500000  0.180245  0.206643  1
  Pa  Pa4  1  0.000000  0.680245  0.793357  1
  Pa  Pa5  1  0.000000  0.319755  0.793357  1
  Fe  Fe6  1  0.500000  0.500000  0.150558  1
  Fe  Fe7  1  0.000000  0.000000  0.849442  1
  Fe  Fe8  1  0.500000  0.500000  0.706444  1
  Fe  Fe9  1  0.000000  0.000000  0.293556  1
  Fe  Fe10  1  0.000000  0.500000  0.986729  1
  Fe  Fe11  1  0.500000  0.000000  0.013271  1
  Fe  Fe12  1  0.500000  0.332693  0.994387  1
  Fe  Fe13  1  0.500000  0.667307  0.994387  1
  Fe  Fe14  1  0.000000  0.167307  0.005613  1
  Fe  Fe15  1  0.000000  0.832693  0.005613  1
  Fe  Fe16  1  0.500000  0.297521  0.427037  1
  Fe  Fe17  1  0.500000  0.702479  0.427037  1
  Fe  Fe18  1  0.000000  0.202479  0.572963  1
  Fe  Fe19  1  0.000000  0.797521  0.572963  1
  Fe  Fe20  1  0.500000  0.879582  0.716393  1
  Fe  Fe21  1  0.500000  0.120418  0.716393  1
  Fe  Fe22  1  0.000000  0.620418  0.283607  1
  Fe  Fe23  1  0.000000  0.379582  0.283607  1
  P  P24  1  0.500000  0.500000  0.887543  1
  P  P25  1  0.000000  0.000000  0.112457  1
  P  P26  1  0.500000  0.500000  0.335499  1
  P  P27  1  0.000000  0.000000  0.664501  1
  P  P28  1  0.500000  0.304858  0.613055  1
  P  P29  1  0.500000  0.695142  0.613055  1
  P  P30  1  0.000000  0.195142  0.386945  1
  P  P31  1  0.000000  0.804858  0.386945  1
  P  P32  1  0.500000  0.847557  0.897143  1
  P  P33  1  0.500000  0.152443  0.897143  1
  P  P34  1  0.000000  0.652443  0.102857  1
  P  P35  1  0.000000  0.347557  0.102857  1
