# generated using pymatgen
data_Tb15Y4ErSn16
_symmetry_space_group_name_H-M   'P 1'
_cell_length_a   8.05285303
_cell_length_b   8.20489357
_cell_length_c   15.51956800
_cell_angle_alpha   90.00816327
_cell_angle_beta   90.00517258
_cell_angle_gamma   90.03448193
_symmetry_Int_Tables_number   1
_chemical_formula_structural   Tb15Y4ErSn16
_chemical_formula_sum   'Tb15 Y4 Er1 Sn16'
_cell_volume   1025.42114427
_cell_formula_units_Z   1
loop_
 _symmetry_equiv_pos_site_id
 _symmetry_equiv_pos_as_xyz
  1  'x, y, z'
loop_
 _atom_site_type_symbol
 _atom_site_label
 _atom_site_symmetry_multiplicity
 _atom_site_fract_x
 _atom_site_fract_y
 _atom_site_fract_z
 _atom_site_occupancy
  Tb  Tb0  1  0.867107  0.663508  0.622052  1
  Tb  Tb1  1  0.632446  0.163215  0.378184  1
  Tb  Tb2  1  0.133219  0.336209  0.121419  1
  Tb  Tb3  1  0.632507  0.163376  0.121825  1
  Tb  Tb4  1  0.133029  0.336284  0.378222  1
  Tb  Tb5  1  0.367234  0.836616  0.621859  1
  Tb  Tb6  1  0.867422  0.663435  0.878268  1
  Tb  Tb7  1  0.519906  0.320214  0.902444  1
  Tb  Tb8  1  0.020014  0.179595  0.597709  1
  Tb  Tb9  1  0.479955  0.679914  0.402483  1
  Tb  Tb10  1  0.980059  0.820378  0.097591  1
  Tb  Tb11  1  0.479946  0.679934  0.097330  1
  Tb  Tb12  1  0.980212  0.820490  0.402392  1
  Tb  Tb13  1  0.519935  0.320431  0.597780  1
  Tb  Tb14  1  0.019970  0.179514  0.902336  1
  Y  Y15  1  0.367084  0.836869  0.878047  1
  Y  Y16  1  0.198435  0.502236  0.750097  1
  Y  Y17  1  0.698469  0.997682  0.749997  1
  Y  Y18  1  0.801853  0.497698  0.250087  1
  Er  Er19  1  0.301304  0.002481  0.249799  1
  Sn  Sn20  1  0.292880  0.035182  0.041692  1
  Sn  Sn21  1  0.792927  0.464363  0.458286  1
  Sn  Sn22  1  0.707121  0.964237  0.542268  1
  Sn  Sn23  1  0.207655  0.536244  0.957754  1
  Sn  Sn24  1  0.706314  0.964105  0.957813  1
  Sn  Sn25  1  0.206891  0.535691  0.542302  1
  Sn  Sn26  1  0.292905  0.035510  0.457841  1
  Sn  Sn27  1  0.792875  0.464392  0.041871  1
  Sn  Sn28  1  0.564878  0.618674  0.750133  1
  Sn  Sn29  1  0.065076  0.881541  0.750207  1
  Sn  Sn30  1  0.434695  0.381477  0.249930  1
  Sn  Sn31  1  0.935626  0.117846  0.249868  1
  Sn  Sn32  1  0.328582  0.146690  0.750159  1
  Sn  Sn33  1  0.828379  0.353158  0.750115  1
  Sn  Sn34  1  0.670951  0.853229  0.249907  1
  Sn  Sn35  1  0.172145  0.647580  0.249933  1
