# generated using pymatgen
data_Sr2Co5PtO12
_symmetry_space_group_name_H-M   'P 1'
_cell_length_a   5.01687648
_cell_length_b   6.07052881
_cell_length_c   8.70417100
_cell_angle_alpha   89.99996225
_cell_angle_beta   89.99998858
_cell_angle_gamma   73.71202111
_symmetry_Int_Tables_number   1
_chemical_formula_structural   Sr2Co5PtO12
_chemical_formula_sum   'Sr2 Co5 Pt1 O12'
_cell_volume   254.44687544
_cell_formula_units_Z   1
loop_
 _symmetry_equiv_pos_site_id
 _symmetry_equiv_pos_as_xyz
  1  'x, y, z'
loop_
 _atom_site_type_symbol
 _atom_site_label
 _atom_site_symmetry_multiplicity
 _atom_site_fract_x
 _atom_site_fract_y
 _atom_site_fract_z
 _atom_site_occupancy
  Sr  Sr0  1  0.000000  0.499999  0.170312  1
  Sr  Sr1  1  0.500001  0.500000  0.661838  1
  Co  Co2  1  0.000000  0.000000  0.661225  1
  Co  Co3  1  0.500000  0.000000  0.494152  1
  Co  Co4  1  0.500000  0.000000  0.172123  1
  Co  Co5  1  0.000000  0.000000  0.334980  1
  Co  Co6  1  0.000000  0.000000  0.004625  1
  Pt  Pt7  1  0.500000  0.000000  0.833852  1
  O  O8  1  0.779635  0.167661  0.172080  1
  O  O9  1  0.269716  0.174345  0.656636  1
  O  O10  1  0.220364  0.832339  0.172081  1
  O  O11  1  0.730284  0.825655  0.656636  1
  O  O12  1  0.269082  0.172808  0.009989  1
  O  O13  1  0.776119  0.169183  0.496009  1
  O  O14  1  0.270130  0.168855  0.333278  1
  O  O15  1  0.789924  0.176321  0.832119  1
  O  O16  1  0.729870  0.831145  0.333278  1
  O  O17  1  0.210076  0.823680  0.832119  1
  O  O18  1  0.730918  0.827191  0.009989  1
  O  O19  1  0.223881  0.830818  0.496009  1
