# generated using pymatgen
data_Ho7Er3(Bi2Sb)2
_symmetry_space_group_name_H-M   'P 1'
_cell_length_a   8.17712700
_cell_length_b   9.45720818
_cell_length_c   12.01096700
_cell_angle_alpha   90.01127473
_cell_angle_beta   90.00000000
_cell_angle_gamma   90.00000000
_symmetry_Int_Tables_number   1
_chemical_formula_structural   Ho7Er3(Bi2Sb)2
_chemical_formula_sum   'Ho14 Er6 Bi8 Sb4'
_cell_volume   928.84159929
_cell_formula_units_Z   2
loop_
 _symmetry_equiv_pos_site_id
 _symmetry_equiv_pos_as_xyz
  1  'x, y, z'
loop_
 _atom_site_type_symbol
 _atom_site_label
 _atom_site_symmetry_multiplicity
 _atom_site_fract_x
 _atom_site_fract_y
 _atom_site_fract_z
 _atom_site_occupancy
  Ho  Ho0  1  0.183303  0.749963  0.717910  1
  Ho  Ho1  1  0.683303  0.750037  0.782090  1
  Ho  Ho2  1  0.816862  0.249871  0.282214  1
  Ho  Ho3  1  0.316862  0.250129  0.217786  1
  Ho  Ho4  1  0.689801  0.937778  0.058514  1
  Ho  Ho5  1  0.189801  0.562222  0.441486  1
  Ho  Ho6  1  0.690137  0.562082  0.058616  1
  Ho  Ho7  1  0.190137  0.937918  0.441384  1
  Ho  Ho8  1  0.309952  0.062049  0.941386  1
  Ho  Ho9  1  0.809952  0.437951  0.558614  1
  Ho  Ho10  1  0.354192  0.750075  0.213402  1
  Ho  Ho11  1  0.854192  0.749925  0.286598  1
  Ho  Ho12  1  0.646031  0.249951  0.786525  1
  Ho  Ho13  1  0.146031  0.250049  0.713475  1
  Er  Er14  1  0.028248  0.749959  0.988435  1
  Er  Er15  1  0.528248  0.750041  0.511565  1
  Er  Er16  1  0.971914  0.250128  0.011542  1
  Er  Er17  1  0.471914  0.249872  0.488458  1
  Er  Er18  1  0.310058  0.436630  0.941361  1
  Er  Er19  1  0.810058  0.063370  0.558639  1
  Bi  Bi20  1  0.433817  0.003751  0.673249  1
  Bi  Bi21  1  0.933817  0.496249  0.826751  1
  Bi  Bi22  1  0.566392  0.503720  0.326685  1
  Bi  Bi23  1  0.066392  0.996280  0.173315  1
  Bi  Bi24  1  0.566489  0.996193  0.326844  1
  Bi  Bi25  1  0.066489  0.503807  0.173156  1
  Bi  Bi26  1  0.433466  0.496156  0.673388  1
  Bi  Bi27  1  0.933466  0.003844  0.826612  1
  Sb  Sb28  1  0.408417  0.748818  0.958717  1
  Sb  Sb29  1  0.908417  0.751182  0.541283  1
  Sb  Sb30  1  0.590922  0.250208  0.040778  1
  Sb  Sb31  1  0.090922  0.249792  0.459222  1
