# generated using pymatgen
data_Ac8AlGa9Br4
_symmetry_space_group_name_H-M   'P 1'
_cell_length_a   12.15312100
_cell_length_b   12.15312032
_cell_length_c   4.40992900
_cell_angle_alpha   90.00000000
_cell_angle_beta   90.00000000
_cell_angle_gamma   92.75104325
_symmetry_Int_Tables_number   1
_chemical_formula_structural   Ac8AlGa9Br4
_chemical_formula_sum   'Ac8 Al1 Ga9 Br4'
_cell_volume   650.58854033
_cell_formula_units_Z   1
loop_
 _symmetry_equiv_pos_site_id
 _symmetry_equiv_pos_as_xyz
  1  'x, y, z'
loop_
 _atom_site_type_symbol
 _atom_site_label
 _atom_site_symmetry_multiplicity
 _atom_site_fract_x
 _atom_site_fract_y
 _atom_site_fract_z
 _atom_site_occupancy
  Ac  Ac0  1  0.673378  0.039369  0.500000  1
  Ac  Ac1  1  0.326483  0.960346  0.500000  1
  Ac  Ac2  1  0.039369  0.673378  0.500000  1
  Ac  Ac3  1  0.960346  0.326483  0.500000  1
  Ac  Ac4  1  0.729942  0.729942  0.000000  1
  Ac  Ac5  1  0.270897  0.270897  0.000000  1
  Ac  Ac6  1  0.367274  0.632294  0.000000  1
  Ac  Ac7  1  0.632294  0.367274  0.000000  1
  Al  Al8  1  0.579463  0.579463  0.500000  1
  Ga  Ga9  1  0.420184  0.420184  0.500000  1
  Ga  Ga10  1  0.536110  0.899770  0.000000  1
  Ga  Ga11  1  0.463049  0.100231  0.000000  1
  Ga  Ga12  1  0.899770  0.536110  0.000000  1
  Ga  Ga13  1  0.100231  0.463049  0.000000  1
  Ga  Ga14  1  0.514750  0.782336  0.500000  1
  Ga  Ga15  1  0.486160  0.217581  0.500000  1
  Ga  Ga16  1  0.217581  0.486160  0.500000  1
  Ga  Ga17  1  0.782336  0.514750  0.500000  1
  Br  Br18  1  0.124088  0.124088  0.500000  1
  Br  Br19  1  0.876368  0.876368  0.500000  1
  Br  Br20  1  0.825770  0.174155  0.000000  1
  Br  Br21  1  0.174155  0.825770  0.000000  1
