# generated using pymatgen
data_Sr2SnHg3
_symmetry_space_group_name_H-M   'P 1'
_cell_length_a   6.46753631
_cell_length_b   6.50408220
_cell_length_c   6.50408191
_cell_angle_alpha   134.61547145
_cell_angle_beta   104.24037120
_cell_angle_gamma   93.05797422
_symmetry_Int_Tables_number   1
_chemical_formula_structural   Sr2SnHg3
_chemical_formula_sum   'Sr2 Sn1 Hg3'
_cell_volume   178.34659099
_cell_formula_units_Z   1
loop_
 _symmetry_equiv_pos_site_id
 _symmetry_equiv_pos_as_xyz
  1  'x, y, z'
loop_
 _atom_site_type_symbol
 _atom_site_label
 _atom_site_symmetry_multiplicity
 _atom_site_fract_x
 _atom_site_fract_y
 _atom_site_fract_z
 _atom_site_occupancy
  Sr  Sr0  1  0.782070  0.535471  0.246599  1
  Sr  Sr1  1  0.216180  0.463051  0.753128  1
  Sn  Sn2  1  0.207607  0.160400  0.047207  1
  Hg  Hg3  1  0.381843  0.838478  0.543365  1
  Hg  Hg4  1  0.619261  0.166165  0.453096  1
  Hg  Hg5  1  0.793040  0.836435  0.956604  1
