# generated using pymatgen
data_TbHo2In3PdAu2
_symmetry_space_group_name_H-M   'P 1'
_cell_length_a   7.86563510
_cell_length_b   7.85841386
_cell_length_c   3.81332700
_cell_angle_alpha   90.00000000
_cell_angle_beta   90.00000000
_cell_angle_gamma   119.96963226
_symmetry_Int_Tables_number   1
_chemical_formula_structural   TbHo2In3PdAu2
_chemical_formula_sum   'Tb1 Ho2 In3 Pd1 Au2'
_cell_volume   204.19080801
_cell_formula_units_Z   1
loop_
 _symmetry_equiv_pos_site_id
 _symmetry_equiv_pos_as_xyz
  1  'x, y, z'
loop_
 _atom_site_type_symbol
 _atom_site_label
 _atom_site_symmetry_multiplicity
 _atom_site_fract_x
 _atom_site_fract_y
 _atom_site_fract_z
 _atom_site_occupancy
  Tb  Tb0  1  0.000000  0.598215  0.000000  1
  Ho  Ho1  1  0.402158  0.401831  0.000000  1
  Ho  Ho2  1  0.597842  0.999673  0.000000  1
  In  In3  1  0.740550  0.741132  0.500000  1
  In  In4  1  0.000000  0.258529  0.500000  1
  In  In5  1  0.259450  0.000582  0.500000  1
  Pd  Pd6  1  0.000000  0.000638  0.000000  1
  Au  Au7  1  0.335219  0.667310  0.500000  1
  Au  Au8  1  0.664781  0.332090  0.500000  1
