# generated using pymatgen
data_CsLuMnS3
_symmetry_space_group_name_H-M   'P 1'
_cell_length_a   8.05476885
_cell_length_b   8.05476880
_cell_length_c   10.49376400
_cell_angle_alpha   90.00000000
_cell_angle_beta   90.00000000
_cell_angle_gamma   151.05795192
_symmetry_Int_Tables_number   1
_chemical_formula_structural   CsLuMnS3
_chemical_formula_sum   'Cs2 Lu2 Mn2 S6'
_cell_volume   329.46954510
_cell_formula_units_Z   2
loop_
 _symmetry_equiv_pos_site_id
 _symmetry_equiv_pos_as_xyz
  1  'x, y, z'
loop_
 _atom_site_type_symbol
 _atom_site_label
 _atom_site_symmetry_multiplicity
 _atom_site_fract_x
 _atom_site_fract_y
 _atom_site_fract_z
 _atom_site_occupancy
  Cs  Cs0  1  0.259423  0.740579  0.250000  1
  Cs  Cs1  1  0.740579  0.259423  0.750000  1
  Lu  Lu2  1  0.000000  0.000000  0.000000  1
  Lu  Lu3  1  0.000000  0.000000  0.500000  1
  Mn  Mn4  1  0.537856  0.462145  0.250000  1
  Mn  Mn5  1  0.462145  0.537856  0.750000  1
  S  S6  1  0.611345  0.388657  0.054997  1
  S  S7  1  0.949639  0.050363  0.250000  1
  S  S8  1  0.611345  0.388657  0.445003  1
  S  S9  1  0.388657  0.611345  0.554997  1
  S  S10  1  0.050363  0.949639  0.750000  1
  S  S11  1  0.388657  0.611345  0.945003  1
