# generated using pymatgen
data_Ba6Y2(IrO6)3
_symmetry_space_group_name_H-M   'P 1'
_cell_length_a   10.35418756
_cell_length_b   10.35418680
_cell_length_c   10.35418626
_cell_angle_alpha   146.45659350
_cell_angle_beta   131.95717693
_cell_angle_gamma   59.86478071
_symmetry_Int_Tables_number   1
_chemical_formula_structural   Ba6Y2(IrO6)3
_chemical_formula_sum   'Ba6 Y2 Ir3 O18'
_cell_volume   452.00819766
_cell_formula_units_Z   1
loop_
 _symmetry_equiv_pos_site_id
 _symmetry_equiv_pos_as_xyz
  1  'x, y, z'
loop_
 _atom_site_type_symbol
 _atom_site_label
 _atom_site_symmetry_multiplicity
 _atom_site_fract_x
 _atom_site_fract_y
 _atom_site_fract_z
 _atom_site_occupancy
  Ba  Ba0  1  0.773355  0.500000  0.273355  1
  Ba  Ba1  1  0.393970  0.156791  0.237179  1
  Ba  Ba2  1  0.080388  0.843209  0.237179  1
  Ba  Ba3  1  0.226645  0.500000  0.726645  1
  Ba  Ba4  1  0.919612  0.156791  0.762821  1
  Ba  Ba5  1  0.606030  0.843209  0.762821  1
  Y  Y6  1  0.665556  0.665556  0.000000  1
  Y  Y7  1  0.334444  0.334444  0.000000  1
  Ir  Ir8  1  0.500000  0.000000  0.500000  1
  Ir  Ir9  1  0.169660  0.669660  0.500000  1
  Ir  Ir10  1  0.830340  0.330340  0.500000  1
  O  O11  1  0.726171  0.000000  0.726171  1
  O  O12  1  0.403601  0.669069  0.734532  1
  O  O13  1  0.065464  0.330931  0.734532  1
  O  O14  1  0.578035  0.842870  0.264833  1
  O  O15  1  0.247174  0.512859  0.265685  1
  O  O16  1  0.905960  0.180090  0.274130  1
  O  O17  1  0.421965  0.686798  0.264833  1
  O  O18  1  0.094040  0.368172  0.274130  1
  O  O19  1  0.752826  0.018511  0.265685  1
  O  O20  1  0.273829  0.000000  0.273829  1
  O  O21  1  0.934536  0.669069  0.265468  1
  O  O22  1  0.596399  0.330931  0.265468  1
  O  O23  1  0.421965  0.157130  0.735167  1
  O  O24  1  0.094040  0.819910  0.725870  1
  O  O25  1  0.752826  0.487141  0.734315  1
  O  O26  1  0.578035  0.313202  0.735167  1
  O  O27  1  0.247174  0.981489  0.734315  1
  O  O28  1  0.905960  0.631829  0.725870  1
