# generated using pymatgen
data_Tb3(NdIr)2
_symmetry_space_group_name_H-M   'P 1'
_cell_length_a   6.56544472
_cell_length_b   7.26593299
_cell_length_c   8.78328111
_cell_angle_alpha   97.18610623
_cell_angle_beta   111.94686615
_cell_angle_gamma   89.99999754
_symmetry_Int_Tables_number   1
_chemical_formula_structural   Tb3(NdIr)2
_chemical_formula_sum   'Tb6 Nd4 Ir4'
_cell_volume   385.08326843
_cell_formula_units_Z   2
loop_
 _symmetry_equiv_pos_site_id
 _symmetry_equiv_pos_as_xyz
  1  'x, y, z'
loop_
 _atom_site_type_symbol
 _atom_site_label
 _atom_site_symmetry_multiplicity
 _atom_site_fract_x
 _atom_site_fract_y
 _atom_site_fract_z
 _atom_site_occupancy
  Tb  Tb0  1  0.646030  0.815552  0.436470  1
  Tb  Tb1  1  0.209561  0.684448  0.563530  1
  Tb  Tb2  1  0.353970  0.184448  0.563530  1
  Tb  Tb3  1  0.790439  0.315552  0.436470  1
  Tb  Tb4  1  0.429588  0.750000  0.000000  1
  Tb  Tb5  1  0.570412  0.250000  0.000000  1
  Nd  Nd6  1  0.976194  0.921400  0.190007  1
  Nd  Nd7  1  0.786187  0.578600  0.809993  1
  Nd  Nd8  1  0.023806  0.078600  0.809993  1
  Nd  Nd9  1  0.213813  0.421400  0.190007  1
  Ir  Ir10  1  0.814401  0.572341  0.225651  1
  Ir  Ir11  1  0.588750  0.927659  0.774349  1
  Ir  Ir12  1  0.185599  0.427659  0.774349  1
  Ir  Ir13  1  0.411250  0.072341  0.225651  1
