# generated using pymatgen
data_Tb3YCo16(P3Ru)4
_symmetry_space_group_name_H-M   'P 1'
_cell_length_a   3.70221900
_cell_length_b   10.42789400
_cell_length_c   11.80497601
_cell_angle_alpha   89.99658278
_cell_angle_beta   90.00000000
_cell_angle_gamma   90.00000000
_symmetry_Int_Tables_number   1
_chemical_formula_structural   Tb3YCo16(P3Ru)4
_chemical_formula_sum   'Tb3 Y1 Co16 P12 Ru4'
_cell_volume   455.74700288
_cell_formula_units_Z   1
loop_
 _symmetry_equiv_pos_site_id
 _symmetry_equiv_pos_as_xyz
  1  'x, y, z'
loop_
 _atom_site_type_symbol
 _atom_site_label
 _atom_site_symmetry_multiplicity
 _atom_site_fract_x
 _atom_site_fract_y
 _atom_site_fract_z
 _atom_site_occupancy
  Tb  Tb0  1  0.250000  0.913862  0.204107  1
  Tb  Tb1  1  0.750000  0.413886  0.295900  1
  Tb  Tb2  1  0.750000  0.086133  0.795907  1
  Y  Y3  1  0.250000  0.586146  0.704102  1
  Co  Co4  1  0.250000  0.408515  0.489867  1
  Co  Co5  1  0.250000  0.091481  0.989858  1
  Co  Co6  1  0.750000  0.591477  0.510162  1
  Co  Co7  1  0.750000  0.908516  0.010136  1
  Co  Co8  1  0.250000  0.221195  0.176659  1
  Co  Co9  1  0.250000  0.278816  0.676666  1
  Co  Co10  1  0.750000  0.778767  0.823318  1
  Co  Co11  1  0.750000  0.721180  0.323335  1
  Co  Co12  1  0.250000  0.887051  0.702304  1
  Co  Co13  1  0.250000  0.612940  0.202290  1
  Co  Co14  1  0.750000  0.112924  0.297724  1
  Co  Co15  1  0.750000  0.387082  0.797671  1
  Co  Co16  1  0.250000  0.465190  0.930783  1
  Co  Co17  1  0.250000  0.034833  0.430802  1
  Co  Co18  1  0.750000  0.534831  0.069202  1
  Co  Co19  1  0.750000  0.965173  0.569190  1
  P  P20  1  0.250000  0.419888  0.111618  1
  P  P21  1  0.250000  0.080125  0.611603  1
  P  P22  1  0.750000  0.580142  0.888342  1
  P  P23  1  0.750000  0.919885  0.388382  1
  P  P24  1  0.250000  0.272308  0.867106  1
  P  P25  1  0.250000  0.227648  0.367131  1
  P  P26  1  0.750000  0.727664  0.132880  1
  P  P27  1  0.750000  0.772251  0.632912  1
  P  P28  1  0.250000  0.596277  0.390381  1
  P  P29  1  0.250000  0.903728  0.890399  1
  P  P30  1  0.750000  0.403760  0.609631  1
  P  P31  1  0.750000  0.096277  0.109603  1
  Ru  Ru32  1  0.250000  0.716672  0.992183  1
  Ru  Ru33  1  0.250000  0.783350  0.492166  1
  Ru  Ru34  1  0.750000  0.283348  0.007838  1
  Ru  Ru35  1  0.750000  0.216679  0.507841  1
