# generated using pymatgen
data_Li6Y2HoIn3
_symmetry_space_group_name_H-M   'P 1'
_cell_length_a   4.84690602
_cell_length_b   6.83995500
_cell_length_c   14.55318907
_cell_angle_alpha   90.00000000
_cell_angle_beta   90.01091802
_cell_angle_gamma   90.00000000
_symmetry_Int_Tables_number   1
_chemical_formula_structural   Li6Y2HoIn3
_chemical_formula_sum   'Li12 Y4 Ho2 In6'
_cell_volume   482.47632474
_cell_formula_units_Z   2
loop_
 _symmetry_equiv_pos_site_id
 _symmetry_equiv_pos_as_xyz
  1  'x, y, z'
loop_
 _atom_site_type_symbol
 _atom_site_label
 _atom_site_symmetry_multiplicity
 _atom_site_fract_x
 _atom_site_fract_y
 _atom_site_fract_z
 _atom_site_occupancy
  Li  Li0  1  0.500002  0.249946  0.000063  1
  Li  Li1  1  0.500002  0.750054  0.000063  1
  Li  Li2  1  0.000592  0.249864  0.166630  1
  Li  Li3  1  0.000592  0.750135  0.166630  1
  Li  Li4  1  0.500585  0.250129  0.333291  1
  Li  Li5  1  0.500585  0.749870  0.333291  1
  Li  Li6  1  0.999979  0.250102  0.499959  1
  Li  Li7  1  0.999979  0.749897  0.499959  1
  Li  Li8  1  0.499424  0.250126  0.666690  1
  Li  Li9  1  0.499424  0.749873  0.666690  1
  Li  Li10  1  0.999427  0.249833  0.833434  1
  Li  Li11  1  0.999427  0.750166  0.833434  1
  Y  Y12  1  0.000770  0.000000  0.333577  1
  Y  Y13  1  0.500134  0.500000  0.500077  1
  Y  Y14  1  0.999385  0.000000  0.666422  1
  Y  Y15  1  0.499209  0.500000  0.833202  1
  Ho  Ho16  1  0.999763  0.000000  0.999832  1
  Ho  Ho17  1  0.500998  0.500000  0.166657  1
  In  In18  1  0.000060  0.500000  0.000152  1
  In  In19  1  0.500479  0.000000  0.166377  1
  In  In20  1  0.000300  0.500000  0.333351  1
  In  In21  1  0.500043  0.000000  0.499965  1
  In  In22  1  0.999372  0.500000  0.666563  1
  In  In23  1  0.499474  0.000000  0.833690  1
