# generated using pymatgen
data_Rb2Al6AgF21
_symmetry_space_group_name_H-M   'P 1'
_cell_length_a   7.08289990
_cell_length_b   7.08290092
_cell_length_c   10.47478676
_cell_angle_alpha   70.29120904
_cell_angle_beta   70.29120511
_cell_angle_gamma   60.05027697
_symmetry_Int_Tables_number   1
_chemical_formula_structural   Rb2Al6AgF21
_chemical_formula_sum   'Rb2 Al6 Ag1 F21'
_cell_volume   419.36104686
_cell_formula_units_Z   1
loop_
 _symmetry_equiv_pos_site_id
 _symmetry_equiv_pos_as_xyz
  1  'x, y, z'
loop_
 _atom_site_type_symbol
 _atom_site_label
 _atom_site_symmetry_multiplicity
 _atom_site_fract_x
 _atom_site_fract_y
 _atom_site_fract_z
 _atom_site_occupancy
  Rb  Rb0  1  0.132991  0.139565  0.592430  1
  Rb  Rb1  1  0.860435  0.867009  0.407570  1
  Al  Al2  1  0.458293  0.916977  0.188953  1
  Al  Al3  1  0.083023  0.541707  0.811047  1
  Al  Al4  1  0.961508  0.414444  0.188001  1
  Al  Al5  1  0.460451  0.412577  0.188146  1
  Al  Al6  1  0.587423  0.539549  0.811854  1
  Al  Al7  1  0.585556  0.038492  0.811999  1
  Ag  Ag8  1  0.506029  0.493971  0.500000  1
  F  F9  1  0.686372  0.571657  0.629767  1
  F  F10  1  0.428343  0.313628  0.370233  1
  F  F11  1  0.166189  0.493808  0.198602  1
  F  F12  1  0.506192  0.833811  0.801398  1
  F  F13  1  0.868030  0.453159  0.834294  1
  F  F14  1  0.515415  0.957585  0.000455  1
  F  F15  1  0.754652  0.344282  0.170024  1
  F  F16  1  0.118700  0.599480  0.627984  1
  F  F17  1  0.875382  0.829984  0.817769  1
  F  F18  1  0.750147  0.706107  0.187530  1
  F  F19  1  0.655718  0.245348  0.829976  1
  F  F20  1  0.492332  0.507668  0.000000  1
  F  F21  1  0.895884  0.340231  0.370716  1
  F  F22  1  0.301904  0.623927  0.795215  1
  F  F23  1  0.400520  0.881300  0.372016  1
  F  F24  1  0.293893  0.249853  0.812470  1
  F  F25  1  0.546841  0.131970  0.165706  1
  F  F26  1  0.376073  0.698096  0.204785  1
  F  F27  1  0.170016  0.124618  0.182231  1
  F  F28  1  0.042415  0.484585  0.999545  1
  F  F29  1  0.659769  0.104116  0.629284  1
