# generated using pymatgen
data_Ca3Tb2Sc(Si3Ru)8
_symmetry_space_group_name_H-M   'P 1'
_cell_length_a   10.14272938
_cell_length_b   10.14272929
_cell_length_c   8.14124342
_cell_angle_alpha   90.00618661
_cell_angle_beta   90.00618828
_cell_angle_gamma   132.69296025
_symmetry_Int_Tables_number   1
_chemical_formula_structural   Ca3Tb2Sc(Si3Ru)8
_chemical_formula_sum   'Ca3 Tb2 Sc1 Si24 Ru8'
_cell_volume   615.58283669
_cell_formula_units_Z   1
loop_
 _symmetry_equiv_pos_site_id
 _symmetry_equiv_pos_as_xyz
  1  'x, y, z'
loop_
 _atom_site_type_symbol
 _atom_site_label
 _atom_site_symmetry_multiplicity
 _atom_site_fract_x
 _atom_site_fract_y
 _atom_site_fract_z
 _atom_site_occupancy
  Ca  Ca0  1  0.500036  0.499964  0.500000  1
  Ca  Ca1  1  0.500687  0.000572  0.749813  1
  Ca  Ca2  1  0.999428  0.499313  0.250187  1
  Tb  Tb3  1  0.498315  0.998322  0.250318  1
  Tb  Tb4  1  0.001678  0.501685  0.749682  1
  Sc  Sc5  1  0.000124  0.999876  0.000000  1
  Si  Si6  1  0.795494  0.204506  0.500000  1
  Si  Si7  1  0.294326  0.705674  0.000000  1
  Si  Si8  1  0.205073  0.794927  0.500000  1
  Si  Si9  1  0.705179  0.294821  0.000000  1
  Si  Si10  1  0.330827  0.335627  0.832348  1
  Si  Si11  1  0.664373  0.669173  0.167652  1
  Si  Si12  1  0.168427  0.163770  0.331869  1
  Si  Si13  1  0.836230  0.831573  0.668131  1
  Si  Si14  1  0.121741  0.890055  0.729765  1
  Si  Si15  1  0.109945  0.878259  0.270235  1
  Si  Si16  1  0.608910  0.376274  0.229028  1
  Si  Si17  1  0.623726  0.391090  0.770972  1
  Si  Si18  1  0.876775  0.107804  0.270044  1
  Si  Si19  1  0.892196  0.123225  0.729956  1
  Si  Si20  1  0.389124  0.622407  0.770834  1
  Si  Si21  1  0.377593  0.610876  0.229166  1
  Si  Si22  1  0.345868  0.112394  0.505430  1
  Si  Si23  1  0.887606  0.654132  0.494570  1
  Si  Si24  1  0.385991  0.154633  0.006799  1
  Si  Si25  1  0.845367  0.614009  0.993201  1
  Si  Si26  1  0.654254  0.886909  0.492446  1
  Si  Si27  1  0.113091  0.345746  0.507554  1
  Si  Si28  1  0.613227  0.845515  0.995671  1
  Si  Si29  1  0.154485  0.386773  0.004329  1
  Ru  Ru30  1  0.670719  0.329281  0.500000  1
  Ru  Ru31  1  0.167818  0.832182  0.000000  1
  Ru  Ru32  1  0.330040  0.669960  0.500000  1
  Ru  Ru33  1  0.831403  0.168597  0.000000  1
  Ru  Ru34  1  0.125289  0.125528  0.627800  1
  Ru  Ru35  1  0.874472  0.874711  0.372200  1
  Ru  Ru36  1  0.370437  0.370272  0.123630  1
  Ru  Ru37  1  0.629728  0.629563  0.876370  1
