# generated using pymatgen
data_Nd2DyCd3(IrO7)2
_symmetry_space_group_name_H-M   'P 1'
_cell_length_a   6.46742349
_cell_length_b   6.60896865
_cell_length_c   7.61896900
_cell_angle_alpha   90.00000000
_cell_angle_beta   90.00000000
_cell_angle_gamma   112.36753915
_symmetry_Int_Tables_number   1
_chemical_formula_structural   Nd2DyCd3(IrO7)2
_chemical_formula_sum   'Nd2 Dy1 Cd3 Ir2 O14'
_cell_volume   301.15568809
_cell_formula_units_Z   1
loop_
 _symmetry_equiv_pos_site_id
 _symmetry_equiv_pos_as_xyz
  1  'x, y, z'
loop_
 _atom_site_type_symbol
 _atom_site_label
 _atom_site_symmetry_multiplicity
 _atom_site_fract_x
 _atom_site_fract_y
 _atom_site_fract_z
 _atom_site_occupancy
  Nd  Nd0  1  0.998706  0.999734  0.999522  1
  Nd  Nd1  1  0.998706  0.999734  0.500478  1
  Dy  Dy2  1  0.050916  0.509481  0.250000  1
  Cd  Cd3  1  0.488238  0.991496  0.750000  1
  Cd  Cd4  1  0.513490  0.017421  0.250000  1
  Cd  Cd5  1  0.971176  0.493370  0.750000  1
  Ir  Ir6  1  0.501334  0.500227  0.998880  1
  Ir  Ir7  1  0.501334  0.500227  0.501120  1
  O  O8  1  0.587620  0.507537  0.750000  1
  O  O9  1  0.409817  0.493476  0.250000  1
  O  O10  1  0.851384  0.132666  0.750000  1
  O  O11  1  0.153330  0.872896  0.250000  1
  O  O12  1  0.120839  0.852703  0.750000  1
  O  O13  1  0.874100  0.144589  0.250000  1
  O  O14  1  0.426143  0.190358  0.000560  1
  O  O15  1  0.570411  0.808659  0.503682  1
  O  O16  1  0.180758  0.427363  0.975392  1
  O  O17  1  0.812192  0.565843  0.453136  1
  O  O18  1  0.426143  0.190358  0.499440  1
  O  O19  1  0.570411  0.808659  0.996318  1
  O  O20  1  0.812192  0.565843  0.046864  1
  O  O21  1  0.180758  0.427363  0.524608  1
