# generated using pymatgen
data_Y4Ga7Ag5
_symmetry_space_group_name_H-M   'P 1'
_cell_length_a   4.36428700
_cell_length_b   7.02848908
_cell_length_c   10.34764741
_cell_angle_alpha   89.99786343
_cell_angle_beta   90.00000000
_cell_angle_gamma   90.00000000
_symmetry_Int_Tables_number   1
_chemical_formula_structural   Y4Ga7Ag5
_chemical_formula_sum   'Y4 Ga7 Ag5'
_cell_volume   317.40729114
_cell_formula_units_Z   1
loop_
 _symmetry_equiv_pos_site_id
 _symmetry_equiv_pos_as_xyz
  1  'x, y, z'
loop_
 _atom_site_type_symbol
 _atom_site_label
 _atom_site_symmetry_multiplicity
 _atom_site_fract_x
 _atom_site_fract_y
 _atom_site_fract_z
 _atom_site_occupancy
  Y  Y0  1  0.500000  0.781709  0.172676  1
  Y  Y1  1  0.500000  0.278889  0.328363  1
  Y  Y2  1  0.000000  0.215229  0.829676  1
  Y  Y3  1  0.000000  0.721344  0.670411  1
  Ga  Ga4  1  0.500000  0.922496  0.846482  1
  Ga  Ga5  1  0.500000  0.424988  0.654266  1
  Ga  Ga6  1  0.000000  0.078446  0.153042  1
  Ga  Ga7  1  0.000000  0.576446  0.344817  1
  Ga  Ga8  1  0.500000  0.203782  0.035864  1
  Ga  Ga9  1  0.000000  0.298363  0.535648  1
  Ga  Ga10  1  0.000000  0.794904  0.964114  1
  Ag  Ag11  1  0.500000  0.540667  0.902917  1
  Ag  Ag12  1  0.500000  0.046474  0.601302  1
  Ag  Ag13  1  0.000000  0.457959  0.097557  1
  Ag  Ag14  1  0.000000  0.961489  0.401055  1
  Ag  Ag15  1  0.500000  0.696819  0.461808  1
