# generated using pymatgen
data_Sc12InGaFe3
_symmetry_space_group_name_H-M   'P 1'
_cell_length_a   7.73442764
_cell_length_b   7.73442780
_cell_length_c   7.73442655
_cell_angle_alpha   108.13754435
_cell_angle_beta   109.41031504
_cell_angle_gamma   110.87742883
_symmetry_Int_Tables_number   1
_chemical_formula_structural   Sc12InGaFe3
_chemical_formula_sum   'Sc12 In1 Ga1 Fe3'
_cell_volume   355.97013347
_cell_formula_units_Z   1
loop_
 _symmetry_equiv_pos_site_id
 _symmetry_equiv_pos_as_xyz
  1  'x, y, z'
loop_
 _atom_site_type_symbol
 _atom_site_label
 _atom_site_symmetry_multiplicity
 _atom_site_fract_x
 _atom_site_fract_y
 _atom_site_fract_z
 _atom_site_occupancy
  Sc  Sc0  1  0.189636  0.419365  0.229729  1
  Sc  Sc1  1  0.810364  0.580635  0.770271  1
  Sc  Sc2  1  0.189636  0.959908  0.770271  1
  Sc  Sc3  1  0.944349  0.192166  0.752183  1
  Sc  Sc4  1  0.810364  0.040092  0.229729  1
  Sc  Sc5  1  0.055651  0.807834  0.247817  1
  Sc  Sc6  1  0.439983  0.192166  0.247817  1
  Sc  Sc7  1  0.560017  0.807834  0.752183  1
  Sc  Sc8  1  0.307836  0.303518  0.611355  1
  Sc  Sc9  1  0.692164  0.696482  0.388645  1
  Sc  Sc10  1  0.692164  0.303518  0.995683  1
  Sc  Sc11  1  0.307836  0.696482  0.004317  1
  In  In12  1  0.000000  0.500000  0.500000  1
  Ga  Ga13  1  0.500000  0.000000  0.500000  1
  Fe  Fe14  1  0.377509  0.377509  0.000000  1
  Fe  Fe15  1  0.622491  0.622491  0.000000  1
  Fe  Fe16  1  0.000000  0.000000  0.000000  1
