# generated using pymatgen
data_NdGa3CoHg
_symmetry_space_group_name_H-M   'P 1'
_cell_length_a   4.19490676
_cell_length_b   6.65571800
_cell_length_c   8.38204004
_cell_angle_alpha   90.00000000
_cell_angle_beta   104.49122532
_cell_angle_gamma   90.00000000
_symmetry_Int_Tables_number   1
_chemical_formula_structural   NdGa3CoHg
_chemical_formula_sum   'Nd2 Ga6 Co2 Hg2'
_cell_volume   226.58217569
_cell_formula_units_Z   2
loop_
 _symmetry_equiv_pos_site_id
 _symmetry_equiv_pos_as_xyz
  1  'x, y, z'
loop_
 _atom_site_type_symbol
 _atom_site_label
 _atom_site_symmetry_multiplicity
 _atom_site_fract_x
 _atom_site_fract_y
 _atom_site_fract_z
 _atom_site_occupancy
  Nd  Nd0  1  0.877868  0.750000  0.755736  1
  Nd  Nd1  1  0.122132  0.250000  0.244264  1
  Ga  Ga2  1  0.079353  0.750000  0.158707  1
  Ga  Ga3  1  0.920647  0.250000  0.841293  1
  Ga  Ga4  1  0.693739  0.552548  0.387479  1
  Ga  Ga5  1  0.306261  0.447452  0.612521  1
  Ga  Ga6  1  0.693739  0.947452  0.387479  1
  Ga  Ga7  1  0.306261  0.052548  0.612521  1
  Co  Co8  1  0.223388  0.750000  0.446777  1
  Co  Co9  1  0.776612  0.250000  0.553223  1
  Hg  Hg10  1  0.500000  0.500000  0.000000  1
  Hg  Hg11  1  0.500000  0.000000  0.000000  1
