# generated using pymatgen
data_Er4Tm4MoOs3C8
_symmetry_space_group_name_H-M   'P 1'
_cell_length_a   5.04848700
_cell_length_b   6.48410206
_cell_length_c   9.71804802
_cell_angle_alpha   89.62335413
_cell_angle_beta   90.00000000
_cell_angle_gamma   90.00000000
_symmetry_Int_Tables_number   1
_chemical_formula_structural   Er4Tm4MoOs3C8
_chemical_formula_sum   'Er4 Tm4 Mo1 Os3 C8'
_cell_volume   318.11250482
_cell_formula_units_Z   1
loop_
 _symmetry_equiv_pos_site_id
 _symmetry_equiv_pos_as_xyz
  1  'x, y, z'
loop_
 _atom_site_type_symbol
 _atom_site_label
 _atom_site_symmetry_multiplicity
 _atom_site_fract_x
 _atom_site_fract_y
 _atom_site_fract_z
 _atom_site_occupancy
  Er  Er0  1  0.250000  0.532847  0.214805  1
  Er  Er1  1  0.750000  0.466811  0.780847  1
  Er  Er2  1  0.750000  0.969632  0.715440  1
  Er  Er3  1  0.250000  0.030817  0.285290  1
  Tm  Tm4  1  0.250000  0.677038  0.555762  1
  Tm  Tm5  1  0.750000  0.323930  0.443916  1
  Tm  Tm6  1  0.750000  0.825270  0.056513  1
  Tm  Tm7  1  0.250000  0.177835  0.942712  1
  Mo  Mo8  1  0.250000  0.717582  0.869822  1
  Os  Os9  1  0.750000  0.282058  0.133077  1
  Os  Os10  1  0.750000  0.780250  0.366018  1
  Os  Os11  1  0.250000  0.219810  0.630666  1
  C  C12  1  0.250000  0.449042  0.758997  1
  C  C13  1  0.750000  0.545894  0.242263  1
  C  C14  1  0.750000  0.047237  0.259110  1
  C  C15  1  0.250000  0.954265  0.739697  1
  C  C16  1  0.250000  0.828101  0.058935  1
  C  C17  1  0.750000  0.173199  0.948179  1
  C  C18  1  0.750000  0.671811  0.553047  1
  C  C19  1  0.250000  0.326571  0.444904  1
