# generated using pymatgen
data_Er3Sc3TaSb2
_symmetry_space_group_name_H-M   'P 1'
_cell_length_a   7.81112400
_cell_length_b   7.81112416
_cell_length_c   4.34505200
_cell_angle_alpha   90.00000000
_cell_angle_beta   90.00000000
_cell_angle_gamma   119.99999933
_symmetry_Int_Tables_number   1
_chemical_formula_structural   Er3Sc3TaSb2
_chemical_formula_sum   'Er3 Sc3 Ta1 Sb2'
_cell_volume   229.58985099
_cell_formula_units_Z   1
loop_
 _symmetry_equiv_pos_site_id
 _symmetry_equiv_pos_as_xyz
  1  'x, y, z'
loop_
 _atom_site_type_symbol
 _atom_site_label
 _atom_site_symmetry_multiplicity
 _atom_site_fract_x
 _atom_site_fract_y
 _atom_site_fract_z
 _atom_site_occupancy
  Er  Er0  1  0.598579  0.000000  0.000000  1
  Er  Er1  1  0.000000  0.598579  0.000000  1
  Er  Er2  1  0.401421  0.401421  0.000000  1
  Sc  Sc3  1  0.237731  0.000000  0.500000  1
  Sc  Sc4  1  0.000000  0.237731  0.500000  1
  Sc  Sc5  1  0.762269  0.762269  0.500000  1
  Ta  Ta6  1  0.000000  0.000000  0.000000  1
  Sb  Sb7  1  0.333333  0.666667  0.500000  1
  Sb  Sb8  1  0.666667  0.333333  0.500000  1
