# generated using pymatgen
data_Dy6Y4Ho2Co5Pb
_symmetry_space_group_name_H-M   'P 1'
_cell_length_a   8.32133552
_cell_length_b   8.31783971
_cell_length_c   8.32133400
_cell_angle_alpha   110.70619229
_cell_angle_beta   110.74795606
_cell_angle_gamma   107.00395333
_symmetry_Int_Tables_number   1
_chemical_formula_structural   Dy6Y4Ho2Co5Pb
_chemical_formula_sum   'Dy6 Y4 Ho2 Co5 Pb1'
_cell_volume   442.67218359
_cell_formula_units_Z   1
loop_
 _symmetry_equiv_pos_site_id
 _symmetry_equiv_pos_as_xyz
  1  'x, y, z'
loop_
 _atom_site_type_symbol
 _atom_site_label
 _atom_site_symmetry_multiplicity
 _atom_site_fract_x
 _atom_site_fract_y
 _atom_site_fract_z
 _atom_site_occupancy
  Dy  Dy0  1  0.687524  0.995814  0.308291  1
  Dy  Dy1  1  0.312476  0.004186  0.691709  1
  Dy  Dy2  1  0.600545  0.793134  0.806915  1
  Dy  Dy3  1  0.399455  0.206866  0.193085  1
  Dy  Dy4  1  0.986219  0.793134  0.192589  1
  Dy  Dy5  1  0.013781  0.206866  0.807411  1
  Y  Y6  1  0.813655  0.708240  0.522635  1
  Y  Y7  1  0.186345  0.291760  0.477365  1
  Y  Y8  1  0.185605  0.708240  0.894584  1
  Y  Y9  1  0.814395  0.291760  0.105416  1
  Ho  Ho10  1  0.687408  0.378842  0.691434  1
  Ho  Ho11  1  0.312592  0.621158  0.308566  1
  Co  Co12  1  0.621280  0.000000  0.621280  1
  Co  Co13  1  0.378720  0.000000  0.378720  1
  Co  Co14  1  0.111661  0.611434  0.499773  1
  Co  Co15  1  0.888339  0.388566  0.500227  1
  Co  Co16  1  0.000000  0.000000  0.000000  1
  Pb  Pb17  1  0.500000  0.500000  0.000000  1
