# generated using pymatgen
data_La6SmRhO12
_symmetry_space_group_name_H-M   'P 1'
_cell_length_a   6.96657526
_cell_length_b   6.96657484
_cell_length_c   6.96657500
_cell_angle_alpha   96.45920420
_cell_angle_beta   96.45919554
_cell_angle_gamma   96.45920637
_symmetry_Int_Tables_number   1
_chemical_formula_structural   La6SmRhO12
_chemical_formula_sum   'La6 Sm1 Rh1 O12'
_cell_volume   331.13840959
_cell_formula_units_Z   1
loop_
 _symmetry_equiv_pos_site_id
 _symmetry_equiv_pos_as_xyz
  1  'x, y, z'
loop_
 _atom_site_type_symbol
 _atom_site_label
 _atom_site_symmetry_multiplicity
 _atom_site_fract_x
 _atom_site_fract_y
 _atom_site_fract_z
 _atom_site_occupancy
  La  La0  1  0.726499  0.902174  0.418559  1
  La  La1  1  0.418559  0.726499  0.902174  1
  La  La2  1  0.097826  0.581441  0.273501  1
  La  La3  1  0.902174  0.418559  0.726499  1
  La  La4  1  0.581441  0.273501  0.097826  1
  La  La5  1  0.273501  0.097826  0.581441  1
  Sm  Sm6  1  0.000000  0.000000  0.000000  1
  Rh  Rh7  1  0.500000  0.500000  0.500000  1
  O  O8  1  0.061527  0.920336  0.317610  1
  O  O9  1  0.682390  0.938473  0.079664  1
  O  O10  1  0.442937  0.791054  0.573527  1
  O  O11  1  0.079664  0.682390  0.938473  1
  O  O12  1  0.791054  0.573527  0.442937  1
  O  O13  1  0.426473  0.557063  0.208946  1
  O  O14  1  0.573527  0.442937  0.791054  1
  O  O15  1  0.208946  0.426473  0.557063  1
  O  O16  1  0.920336  0.317610  0.061527  1
  O  O17  1  0.557063  0.208946  0.426473  1
  O  O18  1  0.317610  0.061527  0.920336  1
  O  O19  1  0.938473  0.079664  0.682390  1
