# generated using pymatgen
data_IF17
_symmetry_space_group_name_H-M   'P 1'
_cell_length_a   8.83142019
_cell_length_b   8.61120846
_cell_length_c   10.18425771
_cell_angle_alpha   83.13339884
_cell_angle_beta   87.70714845
_cell_angle_gamma   67.78582503
_symmetry_Int_Tables_number   1
_chemical_formula_structural   IF17
_chemical_formula_sum   'I2 F34'
_cell_volume   711.86426063
_cell_formula_units_Z   2
loop_
 _symmetry_equiv_pos_site_id
 _symmetry_equiv_pos_as_xyz
  1  'x, y, z'
loop_
 _atom_site_type_symbol
 _atom_site_label
 _atom_site_symmetry_multiplicity
 _atom_site_fract_x
 _atom_site_fract_y
 _atom_site_fract_z
 _atom_site_occupancy
  I  I0  1  0.866934  0.250897  0.761134  1
  I  I1  1  0.133066  0.749103  0.238866  1
  F  F2  1  0.610397  0.201828  0.475662  1
  F  F3  1  0.389603  0.798172  0.524338  1
  F  F4  1  0.815911  0.704429  0.724385  1
  F  F5  1  0.184089  0.295571  0.275615  1
  F  F6  1  0.088781  0.755094  0.856745  1
  F  F7  1  0.911219  0.244906  0.143255  1
  F  F8  1  0.560156  0.136671  0.369895  1
  F  F9  1  0.439844  0.863329  0.630105  1
  F  F10  1  0.646011  0.326690  0.695663  1
  F  F11  1  0.353989  0.673310  0.304337  1
  F  F12  1  0.935786  0.070223  0.651894  1
  F  F13  1  0.064214  0.929777  0.348106  1
  F  F14  1  0.917254  0.387409  0.616796  1
  F  F15  1  0.082746  0.612591  0.383204  1
  F  F16  1  0.845817  0.806943  0.613895  1
  F  F17  1  0.154183  0.193057  0.386105  1
  F  F18  1  0.804204  0.435659  0.867881  1
  F  F19  1  0.195796  0.564341  0.132119  1
  F  F20  1  0.216803  0.685179  0.766148  1
  F  F21  1  0.783197  0.314821  0.233852  1
  F  F22  1  0.915084  0.823722  0.169263  1
  F  F23  1  0.084916  0.176278  0.830737  1
  F  F24  1  0.814642  0.108062  0.901000  1
  F  F25  1  0.185358  0.891938  0.099000  1
  F  F26  1  0.487809  0.587141  0.988220  1
  F  F27  1  0.512191  0.412859  0.011780  1
  F  F28  1  0.447531  0.087962  0.870092  1
  F  F29  1  0.552469  0.912038  0.129908  1
  F  F30  1  0.294491  0.255007  0.608701  1
  F  F31  1  0.705509  0.744993  0.391299  1
  F  F32  1  0.261727  0.398544  0.678358  1
  F  F33  1  0.738273  0.601456  0.321642  1
  F  F34  1  0.561592  0.930881  0.834451  1
  F  F35  1  0.438408  0.069119  0.165549  1
