# generated using pymatgen
data_Tm2LuHg5
_symmetry_space_group_name_H-M   'P 1'
_cell_length_a   6.32449800
_cell_length_b   6.32449837
_cell_length_c   10.08251800
_cell_angle_alpha   90.00000000
_cell_angle_beta   90.00000000
_cell_angle_gamma   105.09426367
_symmetry_Int_Tables_number   1
_chemical_formula_structural   Tm2LuHg5
_chemical_formula_sum   'Tm4 Lu2 Hg10'
_cell_volume   389.37928846
_cell_formula_units_Z   2
loop_
 _symmetry_equiv_pos_site_id
 _symmetry_equiv_pos_as_xyz
  1  'x, y, z'
loop_
 _atom_site_type_symbol
 _atom_site_label
 _atom_site_symmetry_multiplicity
 _atom_site_fract_x
 _atom_site_fract_y
 _atom_site_fract_z
 _atom_site_occupancy
  Tm  Tm0  1  0.217099  0.782901  0.500000  1
  Tm  Tm1  1  0.217099  0.782901  0.000000  1
  Tm  Tm2  1  0.782901  0.217099  0.500000  1
  Tm  Tm3  1  0.782901  0.217099  0.000000  1
  Lu  Lu4  1  0.566408  0.566408  0.250000  1
  Lu  Lu5  1  0.433592  0.433592  0.750000  1
  Hg  Hg6  1  0.967369  0.967369  0.250000  1
  Hg  Hg7  1  0.032631  0.032631  0.750000  1
  Hg  Hg8  1  0.292181  0.292181  0.028882  1
  Hg  Hg9  1  0.707819  0.707819  0.971118  1
  Hg  Hg10  1  0.292181  0.292181  0.471118  1
  Hg  Hg11  1  0.707819  0.707819  0.528882  1
  Hg  Hg12  1  0.479736  0.037071  0.250000  1
  Hg  Hg13  1  0.962929  0.520264  0.750000  1
  Hg  Hg14  1  0.520264  0.962929  0.750000  1
  Hg  Hg15  1  0.037071  0.479736  0.250000  1
