# generated using pymatgen
data_Ti18NbSi16Pd
_symmetry_space_group_name_H-M   'P 1'
_cell_length_a   6.71941499
_cell_length_b   6.71941546
_cell_length_c   12.17067891
_cell_angle_alpha   89.66560943
_cell_angle_beta   90.33439124
_cell_angle_gamma   89.92266726
_symmetry_Int_Tables_number   1
_chemical_formula_structural   Ti18NbSi16Pd
_chemical_formula_sum   'Ti18 Nb1 Si16 Pd1'
_cell_volume   549.49349306
_cell_formula_units_Z   1
loop_
 _symmetry_equiv_pos_site_id
 _symmetry_equiv_pos_as_xyz
  1  'x, y, z'
loop_
 _atom_site_type_symbol
 _atom_site_label
 _atom_site_symmetry_multiplicity
 _atom_site_fract_x
 _atom_site_fract_y
 _atom_site_fract_z
 _atom_site_occupancy
  Ti  Ti0  1  0.996007  0.146454  0.623776  1
  Ti  Ti1  1  0.355197  0.498353  0.870115  1
  Ti  Ti2  1  0.648734  0.504394  0.370742  1
  Ti  Ti3  1  0.498353  0.355197  0.129885  1
  Ti  Ti4  1  0.504394  0.648734  0.629258  1
  Ti  Ti5  1  0.003726  0.850628  0.119836  1
  Ti  Ti6  1  0.146454  0.996007  0.376224  1
  Ti  Ti7  1  0.850628  0.003726  0.880164  1
  Ti  Ti8  1  0.000225  0.347524  0.218147  1
  Ti  Ti9  1  0.154415  0.501658  0.468462  1
  Ti  Ti10  1  0.840362  0.498541  0.970262  1
  Ti  Ti11  1  0.501658  0.154415  0.531538  1
  Ti  Ti12  1  0.498541  0.840362  0.029738  1
  Ti  Ti13  1  0.997306  0.655491  0.719548  1
  Ti  Ti14  1  0.347524  0.000225  0.781853  1
  Ti  Ti15  1  0.655491  0.997306  0.280452  1
  Ti  Ti16  1  0.328112  0.671866  0.248062  1
  Ti  Ti17  1  0.671866  0.328112  0.751938  1
  Nb  Nb18  1  0.828750  0.828750  0.500000  1
  Si  Si19  1  0.047149  0.300863  0.814598  1
  Si  Si20  1  0.202842  0.547769  0.061784  1
  Si  Si21  1  0.800122  0.451752  0.564712  1
  Si  Si22  1  0.547769  0.202842  0.938216  1
  Si  Si23  1  0.451752  0.800122  0.435288  1
  Si  Si24  1  0.956866  0.697548  0.311460  1
  Si  Si25  1  0.300863  0.047149  0.185402  1
  Si  Si26  1  0.697548  0.956866  0.688540  1
  Si  Si27  1  0.294341  0.356563  0.673031  1
  Si  Si28  1  0.137188  0.785842  0.920085  1
  Si  Si29  1  0.858151  0.207940  0.422259  1
  Si  Si30  1  0.785842  0.137188  0.079915  1
  Si  Si31  1  0.207940  0.858151  0.577741  1
  Si  Si32  1  0.705067  0.645104  0.172838  1
  Si  Si33  1  0.356563  0.294341  0.326969  1
  Si  Si34  1  0.645104  0.705067  0.827162  1
  Pd  Pd35  1  0.177151  0.177151  0.000000  1
