# generated using pymatgen
data_Tb5(MnB3)2
_symmetry_space_group_name_H-M   'P 1'
_cell_length_a   5.43933363
_cell_length_b   5.43933352
_cell_length_c   8.39014552
_cell_angle_alpha   71.08590432
_cell_angle_beta   71.08590670
_cell_angle_gamma   60.00001552
_symmetry_Int_Tables_number   1
_chemical_formula_structural   Tb5(MnB3)2
_chemical_formula_sum   'Tb5 Mn2 B6'
_cell_volume   199.34994343
_cell_formula_units_Z   1
loop_
 _symmetry_equiv_pos_site_id
 _symmetry_equiv_pos_as_xyz
  1  'x, y, z'
loop_
 _atom_site_type_symbol
 _atom_site_label
 _atom_site_symmetry_multiplicity
 _atom_site_fract_x
 _atom_site_fract_y
 _atom_site_fract_z
 _atom_site_occupancy
  Tb  Tb0  1  0.000000  0.000000  0.000000  1
  Tb  Tb1  1  0.250679  0.250679  0.247962  1
  Tb  Tb2  1  0.749321  0.749321  0.752038  1
  Tb  Tb3  1  0.416495  0.416495  0.750514  1
  Tb  Tb4  1  0.583505  0.583505  0.249486  1
  Mn  Mn5  1  0.115869  0.115869  0.652392  1
  Mn  Mn6  1  0.884131  0.884131  0.347608  1
  B  B7  1  0.165882  0.834118  0.500000  1
  B  B8  1  0.834118  0.500000  0.500000  1
  B  B9  1  0.500000  0.165882  0.500000  1
  B  B10  1  0.165882  0.500000  0.500000  1
  B  B11  1  0.500000  0.834118  0.500000  1
  B  B12  1  0.834118  0.165882  0.500000  1
