# generated using pymatgen
data_Tb4Eu2Co17MoP12
_symmetry_space_group_name_H-M   'P 1'
_cell_length_a   3.74454100
_cell_length_b   10.61016200
_cell_length_c   12.31772900
_cell_angle_alpha   90.00000000
_cell_angle_beta   90.00000000
_cell_angle_gamma   90.00000000
_symmetry_Int_Tables_number   1
_chemical_formula_structural   Tb4Eu2Co17MoP12
_chemical_formula_sum   'Tb4 Eu2 Co17 Mo1 P12'
_cell_volume   489.38567197
_cell_formula_units_Z   1
loop_
 _symmetry_equiv_pos_site_id
 _symmetry_equiv_pos_as_xyz
  1  'x, y, z'
loop_
 _atom_site_type_symbol
 _atom_site_label
 _atom_site_symmetry_multiplicity
 _atom_site_fract_x
 _atom_site_fract_y
 _atom_site_fract_z
 _atom_site_occupancy
  Tb  Tb0  1  0.500000  0.818257  0.205289  1
  Tb  Tb1  1  0.500000  0.181743  0.205289  1
  Tb  Tb2  1  0.000000  0.682867  0.796717  1
  Tb  Tb3  1  0.000000  0.317133  0.796717  1
  Eu  Eu4  1  0.000000  0.500000  0.525126  1
  Eu  Eu5  1  0.500000  0.000000  0.477482  1
  Co  Co6  1  0.000000  0.000000  0.841974  1
  Co  Co7  1  0.500000  0.500000  0.702630  1
  Co  Co8  1  0.000000  0.000000  0.295598  1
  Co  Co9  1  0.000000  0.500000  0.985384  1
  Co  Co10  1  0.500000  0.000000  0.014438  1
  Co  Co11  1  0.500000  0.331268  0.990141  1
  Co  Co12  1  0.500000  0.668732  0.990141  1
  Co  Co13  1  0.000000  0.165518  0.006313  1
  Co  Co14  1  0.000000  0.834482  0.006313  1
  Co  Co15  1  0.500000  0.295018  0.430476  1
  Co  Co16  1  0.500000  0.704982  0.430476  1
  Co  Co17  1  0.000000  0.204077  0.570521  1
  Co  Co18  1  0.000000  0.795923  0.570521  1
  Co  Co19  1  0.500000  0.880097  0.711416  1
  Co  Co20  1  0.500000  0.119903  0.711416  1
  Co  Co21  1  0.000000  0.621337  0.290024  1
  Co  Co22  1  0.000000  0.378663  0.290024  1
  Mo  Mo23  1  0.500000  0.500000  0.153870  1
  P  P24  1  0.500000  0.500000  0.881440  1
  P  P25  1  0.000000  0.000000  0.116710  1
  P  P26  1  0.500000  0.500000  0.345503  1
  P  P27  1  0.000000  0.000000  0.660627  1
  P  P28  1  0.500000  0.306236  0.617355  1
  P  P29  1  0.500000  0.693764  0.617355  1
  P  P30  1  0.000000  0.192510  0.384225  1
  P  P31  1  0.000000  0.807490  0.384225  1
  P  P32  1  0.500000  0.849802  0.893247  1
  P  P33  1  0.500000  0.150198  0.893247  1
  P  P34  1  0.000000  0.656135  0.103887  1
  P  P35  1  0.000000  0.343865  0.103887  1
