# generated using pymatgen
data_HfTa(PRu)2
_symmetry_space_group_name_H-M   'P 1'
_cell_length_a   3.80776700
_cell_length_b   6.36064000
_cell_length_c   7.28120800
_cell_angle_alpha   90.00000000
_cell_angle_beta   90.00000000
_cell_angle_gamma   90.00000000
_symmetry_Int_Tables_number   1
_chemical_formula_structural   HfTa(PRu)2
_chemical_formula_sum   'Hf2 Ta2 P4 Ru4'
_cell_volume   176.34965702
_cell_formula_units_Z   2
loop_
 _symmetry_equiv_pos_site_id
 _symmetry_equiv_pos_as_xyz
  1  'x, y, z'
loop_
 _atom_site_type_symbol
 _atom_site_label
 _atom_site_symmetry_multiplicity
 _atom_site_fract_x
 _atom_site_fract_y
 _atom_site_fract_z
 _atom_site_occupancy
  Hf  Hf0  1  0.250000  0.023842  0.822844  1
  Hf  Hf1  1  0.250000  0.523842  0.677156  1
  Ta  Ta2  1  0.750000  0.976691  0.175817  1
  Ta  Ta3  1  0.750000  0.476691  0.324183  1
  P  P4  1  0.250000  0.770841  0.372961  1
  P  P5  1  0.250000  0.270841  0.127039  1
  P  P6  1  0.750000  0.231064  0.619580  1
  P  P7  1  0.750000  0.731064  0.880420  1
  Ru  Ru8  1  0.250000  0.149045  0.435719  1
  Ru  Ru9  1  0.250000  0.649045  0.064281  1
  Ru  Ru10  1  0.750000  0.848517  0.556150  1
  Ru  Ru11  1  0.750000  0.348517  0.943850  1
