# generated using pymatgen
data_Th10Tl2Bi5Pb
_symmetry_space_group_name_H-M   'P 1'
_cell_length_a   9.75928500
_cell_length_b   9.76606293
_cell_length_c   6.65762600
_cell_angle_alpha   90.00000000
_cell_angle_beta   90.00000000
_cell_angle_gamma   120.02298515
_symmetry_Int_Tables_number   1
_chemical_formula_structural   Th10Tl2Bi5Pb
_chemical_formula_sum   'Th10 Tl2 Bi5 Pb1'
_cell_volume   549.39779270
_cell_formula_units_Z   1
loop_
 _symmetry_equiv_pos_site_id
 _symmetry_equiv_pos_as_xyz
  1  'x, y, z'
loop_
 _atom_site_type_symbol
 _atom_site_label
 _atom_site_symmetry_multiplicity
 _atom_site_fract_x
 _atom_site_fract_y
 _atom_site_fract_z
 _atom_site_occupancy
  Th  Th0  1  0.667309  0.333389  0.500166  1
  Th  Th1  1  0.332691  0.666081  0.500166  1
  Th  Th2  1  0.332691  0.666081  0.999834  1
  Th  Th3  1  0.667309  0.333389  0.999834  1
  Th  Th4  1  0.719121  0.718952  0.250000  1
  Th  Th5  1  0.280879  0.999830  0.250000  1
  Th  Th6  1  0.000000  0.281412  0.250000  1
  Th  Th7  1  0.281276  0.282028  0.750000  1
  Th  Th8  1  0.718724  0.000751  0.750000  1
  Th  Th9  1  0.000000  0.718231  0.750000  1
  Tl  Tl10  1  0.000000  0.000460  0.500801  1
  Tl  Tl11  1  0.000000  0.000460  0.999199  1
  Bi  Bi12  1  0.379553  0.379853  0.250000  1
  Bi  Bi13  1  0.620447  0.000301  0.250000  1
  Bi  Bi14  1  0.000000  0.619813  0.250000  1
  Bi  Bi15  1  0.620422  0.620419  0.750000  1
  Bi  Bi16  1  0.379578  0.999998  0.750000  1
  Pb  Pb17  1  0.000000  0.378553  0.750000  1
