# generated using pymatgen
data_UCuNiRh3S8
_symmetry_space_group_name_H-M   'P 1'
_cell_length_a   6.92112656
_cell_length_b   6.92112634
_cell_length_c   6.92112711
_cell_angle_alpha   62.96232459
_cell_angle_beta   62.96232253
_cell_angle_gamma   62.96232044
_symmetry_Int_Tables_number   1
_chemical_formula_structural   UCuNiRh3S8
_chemical_formula_sum   'U1 Cu1 Ni1 Rh3 S8'
_cell_volume   249.85307944
_cell_formula_units_Z   1
loop_
 _symmetry_equiv_pos_site_id
 _symmetry_equiv_pos_as_xyz
  1  'x, y, z'
loop_
 _atom_site_type_symbol
 _atom_site_label
 _atom_site_symmetry_multiplicity
 _atom_site_fract_x
 _atom_site_fract_y
 _atom_site_fract_z
 _atom_site_occupancy
  U  U0  1  0.123101  0.123101  0.123101  1
  Cu  Cu1  1  0.500849  0.500849  0.500849  1
  Ni  Ni2  1  0.748510  0.748510  0.748510  1
  Rh  Rh3  1  0.124477  0.124477  0.627034  1
  Rh  Rh4  1  0.124477  0.627034  0.124477  1
  Rh  Rh5  1  0.627034  0.124477  0.124477  1
  S  S6  1  0.865031  0.370821  0.865031  1
  S  S7  1  0.382331  0.382331  0.888596  1
  S  S8  1  0.364549  0.364549  0.364549  1
  S  S9  1  0.888596  0.382331  0.382331  1
  S  S10  1  0.882863  0.882863  0.882863  1
  S  S11  1  0.370821  0.865031  0.865031  1
  S  S12  1  0.382331  0.888596  0.382331  1
  S  S13  1  0.865031  0.865031  0.370821  1
