# generated using pymatgen
data_Ho3Er2Sn3Cl
_symmetry_space_group_name_H-M   'P 1'
_cell_length_a   9.07447800
_cell_length_b   9.07447759
_cell_length_c   6.51107300
_cell_angle_alpha   90.00000000
_cell_angle_beta   90.00000000
_cell_angle_gamma   120.00000150
_symmetry_Int_Tables_number   1
_chemical_formula_structural   Ho3Er2Sn3Cl
_chemical_formula_sum   'Ho6 Er4 Sn6 Cl2'
_cell_volume   464.32971155
_cell_formula_units_Z   2
loop_
 _symmetry_equiv_pos_site_id
 _symmetry_equiv_pos_as_xyz
  1  'x, y, z'
loop_
 _atom_site_type_symbol
 _atom_site_label
 _atom_site_symmetry_multiplicity
 _atom_site_fract_x
 _atom_site_fract_y
 _atom_site_fract_z
 _atom_site_occupancy
  Ho  Ho0  1  0.737999  0.000000  0.750000  1
  Ho  Ho1  1  0.737999  0.737999  0.250000  1
  Ho  Ho2  1  0.000000  0.262001  0.250000  1
  Ho  Ho3  1  0.000000  0.737999  0.750000  1
  Ho  Ho4  1  0.262001  0.262001  0.750000  1
  Ho  Ho5  1  0.262001  0.000000  0.250000  1
  Er  Er6  1  0.666667  0.333333  0.000000  1
  Er  Er7  1  0.333333  0.666667  0.500000  1
  Er  Er8  1  0.666667  0.333333  0.500000  1
  Er  Er9  1  0.333333  0.666667  0.000000  1
  Sn  Sn10  1  0.609629  0.609629  0.750000  1
  Sn  Sn11  1  0.000000  0.609629  0.250000  1
  Sn  Sn12  1  0.609629  0.000000  0.250000  1
  Sn  Sn13  1  0.390371  0.000000  0.750000  1
  Sn  Sn14  1  0.000000  0.390371  0.750000  1
  Sn  Sn15  1  0.390371  0.390371  0.250000  1
  Cl  Cl16  1  0.000000  0.000000  0.500000  1
  Cl  Cl17  1  0.000000  0.000000  0.000000  1
