# generated using pymatgen
data_Tm4Tc5Ge8Mo
_symmetry_space_group_name_H-M   'P 1'
_cell_length_a   6.92352924
_cell_length_b   6.87305722
_cell_length_c   6.93227110
_cell_angle_alpha   69.86503906
_cell_angle_beta   90.05875788
_cell_angle_gamma   90.22554138
_symmetry_Int_Tables_number   1
_chemical_formula_structural   Tm4Tc5Ge8Mo
_chemical_formula_sum   'Tm4 Tc5 Ge8 Mo1'
_cell_volume   309.71465204
_cell_formula_units_Z   1
loop_
 _symmetry_equiv_pos_site_id
 _symmetry_equiv_pos_as_xyz
  1  'x, y, z'
loop_
 _atom_site_type_symbol
 _atom_site_label
 _atom_site_symmetry_multiplicity
 _atom_site_fract_x
 _atom_site_fract_y
 _atom_site_fract_z
 _atom_site_occupancy
  Tm  Tm0  1  0.329780  0.552846  0.806943  1
  Tm  Tm1  1  0.829783  0.946451  0.193714  1
  Tm  Tm2  1  0.670220  0.447154  0.193057  1
  Tm  Tm3  1  0.170217  0.053549  0.806286  1
  Tc  Tc4  1  0.500000  0.000000  0.500000  1
  Tc  Tc5  1  0.852102  0.754913  0.760472  1
  Tc  Tc6  1  0.351953  0.743289  0.233533  1
  Tc  Tc7  1  0.147898  0.245087  0.239528  1
  Tc  Tc8  1  0.648047  0.256711  0.766467  1
  Ge  Ge9  1  0.552169  0.867935  0.897229  1
  Ge  Ge10  1  0.048894  0.635678  0.097193  1
  Ge  Ge11  1  0.447831  0.132065  0.102771  1
  Ge  Ge12  1  0.951106  0.364322  0.902807  1
  Ge  Ge13  1  0.146418  0.865130  0.486259  1
  Ge  Ge14  1  0.642580  0.636523  0.509649  1
  Ge  Ge15  1  0.853582  0.134870  0.513741  1
  Ge  Ge16  1  0.357420  0.363477  0.490351  1
  Mo  Mo17  1  0.000000  0.500000  0.500000  1
