# generated using pymatgen
data_CaZnH4
_symmetry_space_group_name_H-M   'P 1'
_cell_length_a   4.58291336
_cell_length_b   4.86016986
_cell_length_c   4.85052336
_cell_angle_alpha   89.84739911
_cell_angle_beta   58.14061691
_cell_angle_gamma   58.21279176
_symmetry_Int_Tables_number   1
_chemical_formula_structural   CaZnH4
_chemical_formula_sum   'Ca1 Zn1 H4'
_cell_volume   72.10198147
_cell_formula_units_Z   1
loop_
 _symmetry_equiv_pos_site_id
 _symmetry_equiv_pos_as_xyz
  1  'x, y, z'
loop_
 _atom_site_type_symbol
 _atom_site_label
 _atom_site_symmetry_multiplicity
 _atom_site_fract_x
 _atom_site_fract_y
 _atom_site_fract_z
 _atom_site_occupancy
  Ca  Ca0  1  0.845049  0.225146  0.673233  1
  Zn  Zn1  1  0.844947  0.722406  0.169656  1
  H  H2  1  0.173349  0.364515  0.192857  1
  H  H3  1  0.175909  0.743364  0.811303  1
  H  H4  1  0.524089  0.073157  0.521829  1
  H  H5  1  0.508933  0.701245  0.150220  1
