# generated using pymatgen
data_Dy6Tm2Sc12Si15Sb
_symmetry_space_group_name_H-M   'P 1'
_cell_length_a   7.14800480
_cell_length_b   7.39101032
_cell_length_c   14.02170279
_cell_angle_alpha   90.05299581
_cell_angle_beta   88.83433269
_cell_angle_gamma   90.19561936
_symmetry_Int_Tables_number   1
_chemical_formula_structural   Dy6Tm2Sc12Si15Sb
_chemical_formula_sum   'Dy6 Tm2 Sc12 Si15 Sb1'
_cell_volume   740.62237167
_cell_formula_units_Z   1
loop_
 _symmetry_equiv_pos_site_id
 _symmetry_equiv_pos_as_xyz
  1  'x, y, z'
loop_
 _atom_site_type_symbol
 _atom_site_label
 _atom_site_symmetry_multiplicity
 _atom_site_fract_x
 _atom_site_fract_y
 _atom_site_fract_z
 _atom_site_occupancy
  Dy  Dy0  1  0.010963  0.176415  0.097056  1
  Dy  Dy1  1  0.989094  0.824710  0.903455  1
  Dy  Dy2  1  0.489193  0.675181  0.904137  1
  Dy  Dy3  1  0.993181  0.827984  0.597463  1
  Dy  Dy4  1  0.511066  0.325054  0.096936  1
  Dy  Dy5  1  0.001549  0.172545  0.400803  1
  Tm  Tm6  1  0.508513  0.318908  0.399341  1
  Tm  Tm7  1  0.509526  0.684098  0.600203  1
  Sc  Sc8  1  0.165289  0.500987  0.753678  1
  Sc  Sc9  1  0.833884  0.498299  0.251891  1
  Sc  Sc10  1  0.334410  0.002145  0.250760  1
  Sc  Sc11  1  0.667026  0.998356  0.750584  1
  Sc  Sc12  1  0.347278  0.160613  0.630299  1
  Sc  Sc13  1  0.658993  0.826382  0.373013  1
  Sc  Sc14  1  0.155050  0.681015  0.370682  1
  Sc  Sc15  1  0.666693  0.823212  0.124701  1
  Sc  Sc16  1  0.830576  0.326410  0.625289  1
  Sc  Sc17  1  0.331652  0.175714  0.874793  1
  Sc  Sc18  1  0.832555  0.323312  0.875126  1
  Sc  Sc19  1  0.167657  0.676743  0.125222  1
  Si  Si20  1  0.037466  0.118732  0.750554  1
  Si  Si21  1  0.960199  0.884533  0.247177  1
  Si  Si22  1  0.460219  0.615929  0.248497  1
  Si  Si23  1  0.537641  0.384627  0.751895  1
  Si  Si24  1  0.291014  0.868039  0.751533  1
  Si  Si25  1  0.709214  0.127186  0.248026  1
  Si  Si26  1  0.209965  0.374062  0.249768  1
  Si  Si27  1  0.792379  0.627511  0.750782  1
  Si  Si28  1  0.811513  0.539532  0.457205  1
  Si  Si29  1  0.332659  0.963523  0.460087  1
  Si  Si30  1  0.843509  0.535187  0.039613  1
  Si  Si31  1  0.668825  0.037900  0.538796  1
  Si  Si32  1  0.155638  0.464991  0.961044  1
  Si  Si33  1  0.655717  0.034820  0.960206  1
  Si  Si34  1  0.343157  0.965989  0.040047  1
  Sb  Sb35  1  0.186733  0.459352  0.539343  1
