# generated using pymatgen
data_SrNdTi3P7Rh9
_symmetry_space_group_name_H-M   'P 1'
_cell_length_a   3.86667500
_cell_length_b   9.70688748
_cell_length_c   9.70639000
_cell_angle_alpha   119.99585789
_cell_angle_beta   90.00094834
_cell_angle_gamma   89.99879397
_symmetry_Int_Tables_number   1
_chemical_formula_structural   SrNdTi3P7Rh9
_chemical_formula_sum   'Sr1 Nd1 Ti3 P7 Rh9'
_cell_volume   315.51801435
_cell_formula_units_Z   1
loop_
 _symmetry_equiv_pos_site_id
 _symmetry_equiv_pos_as_xyz
  1  'x, y, z'
loop_
 _atom_site_type_symbol
 _atom_site_label
 _atom_site_symmetry_multiplicity
 _atom_site_fract_x
 _atom_site_fract_y
 _atom_site_fract_z
 _atom_site_occupancy
  Sr  Sr0  1  0.261888  0.666723  0.333368  1
  Nd  Nd1  1  0.761754  0.333338  0.666617  1
  Ti  Ti2  1  0.761975  0.100793  0.881447  1
  Ti  Ti3  1  0.761964  0.118371  0.219253  1
  Ti  Ti4  1  0.761965  0.780701  0.899248  1
  P  P5  1  0.262194  0.999905  0.999931  1
  P  P6  1  0.761950  0.883037  0.594836  1
  P  P7  1  0.761960  0.405150  0.288038  1
  P  P8  1  0.761941  0.711816  0.116884  1
  P  P9  1  0.261852  0.112882  0.413902  1
  P  P10  1  0.261872  0.586150  0.699078  1
  P  P11  1  0.261870  0.301090  0.887208  1
  Rh  Rh12  1  0.261829  0.885101  0.157698  1
  Rh  Rh13  1  0.261871  0.842428  0.727530  1
  Rh  Rh14  1  0.261855  0.272526  0.114896  1
  Rh  Rh15  1  0.761877  0.608412  0.564603  1
  Rh  Rh16  1  0.761866  0.435319  0.043727  1
  Rh  Rh17  1  0.761847  0.956263  0.391684  1
  Rh  Rh18  1  0.261915  0.364233  0.433585  1
  Rh  Rh19  1  0.261895  0.566439  0.930618  1
  Rh  Rh20  1  0.261860  0.069320  0.635854  1
