# generated using pymatgen
data_AcY3(Si5Os3)2
_symmetry_space_group_name_H-M   'P 1'
_cell_length_a   8.20959087
_cell_length_b   8.23004513
_cell_length_c   5.86934087
_cell_angle_alpha   70.26336944
_cell_angle_beta   70.62169384
_cell_angle_gamma   93.84021735
_symmetry_Int_Tables_number   1
_chemical_formula_structural   AcY3(Si5Os3)2
_chemical_formula_sum   'Ac1 Y3 Si10 Os6'
_cell_volume   344.89023838
_cell_formula_units_Z   1
loop_
 _symmetry_equiv_pos_site_id
 _symmetry_equiv_pos_as_xyz
  1  'x, y, z'
loop_
 _atom_site_type_symbol
 _atom_site_label
 _atom_site_symmetry_multiplicity
 _atom_site_fract_x
 _atom_site_fract_y
 _atom_site_fract_z
 _atom_site_occupancy
  Ac  Ac0  1  0.601967  0.866776  0.257094  1
  Y  Y1  1  0.867237  0.601686  0.753626  1
  Y  Y2  1  0.397469  0.133619  0.744725  1
  Y  Y3  1  0.131429  0.399289  0.246686  1
  Si  Si4  1  0.065414  0.259341  0.835102  1
  Si  Si5  1  0.741964  0.936339  0.664123  1
  Si  Si6  1  0.942395  0.736270  0.162865  1
  Si  Si7  1  0.260144  0.069807  0.334561  1
  Si  Si8  1  0.206214  0.790567  0.751267  1
  Si  Si9  1  0.797379  0.213533  0.248275  1
  Si  Si10  1  0.510377  0.483694  0.753719  1
  Si  Si11  1  0.484112  0.505939  0.252757  1
  Si  Si12  1  0.773229  0.232618  0.744018  1
  Si  Si13  1  0.220048  0.771063  0.250838  1
  Os  Os14  1  0.252233  0.540224  0.632364  1
  Os  Os15  1  0.455585  0.741534  0.871835  1
  Os  Os16  1  0.743460  0.458298  0.365522  1
  Os  Os17  1  0.543875  0.257808  0.132716  1
  Os  Os18  1  0.005792  0.997899  0.748083  1
  Os  Os19  1  0.999679  0.003696  0.249824  1
