# generated using pymatgen
data_Er8MgTlPd2
_symmetry_space_group_name_H-M   'P 1'
_cell_length_a   9.66593465
_cell_length_b   9.66593338
_cell_length_c   9.64472600
_cell_angle_alpha   60.07255838
_cell_angle_beta   60.07256273
_cell_angle_gamma   60.24180203
_symmetry_Int_Tables_number   1
_chemical_formula_structural   Er8MgTlPd2
_chemical_formula_sum   'Er16 Mg2 Tl2 Pd4'
_cell_volume   639.03860397
_cell_formula_units_Z   2
loop_
 _symmetry_equiv_pos_site_id
 _symmetry_equiv_pos_as_xyz
  1  'x, y, z'
loop_
 _atom_site_type_symbol
 _atom_site_label
 _atom_site_symmetry_multiplicity
 _atom_site_fract_x
 _atom_site_fract_y
 _atom_site_fract_z
 _atom_site_occupancy
  Er  Er0  1  0.350364  0.350364  0.350119  1
  Er  Er1  1  0.350364  0.350364  0.949153  1
  Er  Er2  1  0.354831  0.941448  0.351859  1
  Er  Er3  1  0.941448  0.354831  0.351859  1
  Er  Er4  1  0.810296  0.188341  0.190261  1
  Er  Er5  1  0.188341  0.810296  0.811100  1
  Er  Er6  1  0.188341  0.810296  0.190261  1
  Er  Er7  1  0.810296  0.188341  0.811100  1
  Er  Er8  1  0.186749  0.186749  0.813251  1
  Er  Er9  1  0.808845  0.808845  0.191155  1
  Er  Er10  1  0.935434  0.566160  0.565490  1
  Er  Er11  1  0.566160  0.935434  0.932917  1
  Er  Er12  1  0.566160  0.935434  0.565490  1
  Er  Er13  1  0.935434  0.566160  0.932917  1
  Er  Er14  1  0.566397  0.566397  0.933603  1
  Er  Er15  1  0.934585  0.934585  0.565415  1
  Mg  Mg16  1  0.579306  0.263636  0.578529  1
  Mg  Mg17  1  0.263636  0.579306  0.578529  1
  Tl  Tl18  1  0.583010  0.583010  0.587742  1
  Tl  Tl19  1  0.583010  0.583010  0.246237  1
  Pd  Pd20  1  0.142992  0.142992  0.146488  1
  Pd  Pd21  1  0.142992  0.142992  0.567529  1
  Pd  Pd22  1  0.141231  0.569776  0.144496  1
  Pd  Pd23  1  0.569776  0.141231  0.144496  1
