# generated using pymatgen
data_Yb11PrIrRu3
_symmetry_space_group_name_H-M   'P 1'
_cell_length_a   6.16634393
_cell_length_b   7.74062805
_cell_length_c   9.20550300
_cell_angle_alpha   90.00000000
_cell_angle_beta   90.00000000
_cell_angle_gamma   89.61829860
_symmetry_Int_Tables_number   1
_chemical_formula_structural   Yb11PrIrRu3
_chemical_formula_sum   'Yb11 Pr1 Ir1 Ru3'
_cell_volume   439.38156325
_cell_formula_units_Z   1
loop_
 _symmetry_equiv_pos_site_id
 _symmetry_equiv_pos_as_xyz
  1  'x, y, z'
loop_
 _atom_site_type_symbol
 _atom_site_label
 _atom_site_symmetry_multiplicity
 _atom_site_fract_x
 _atom_site_fract_y
 _atom_site_fract_z
 _atom_site_occupancy
  Yb  Yb0  1  0.350388  0.666213  0.067371  1
  Yb  Yb1  1  0.148465  0.167275  0.431936  1
  Yb  Yb2  1  0.647559  0.333621  0.563202  1
  Yb  Yb3  1  0.854528  0.832093  0.936098  1
  Yb  Yb4  1  0.647559  0.333621  0.936798  1
  Yb  Yb5  1  0.854528  0.832093  0.563902  1
  Yb  Yb6  1  0.350388  0.666213  0.432629  1
  Yb  Yb7  1  0.148465  0.167275  0.068064  1
  Yb  Yb8  1  0.873941  0.535721  0.250000  1
  Yb  Yb9  1  0.623755  0.036261  0.250000  1
  Yb  Yb10  1  0.125629  0.461679  0.750000  1
  Pr  Pr11  1  0.382160  0.963108  0.750000  1
  Ir  Ir12  1  0.050883  0.872188  0.250000  1
  Ru  Ru13  1  0.455475  0.372857  0.250000  1
  Ru  Ru14  1  0.949928  0.123494  0.750000  1
  Ru  Ru15  1  0.536348  0.636290  0.750000  1
