# generated using pymatgen
data_Li2Tb3Lu(Co3P2)6
_symmetry_space_group_name_H-M   'P 1'
_cell_length_a   3.67367900
_cell_length_b   10.26583209
_cell_length_c   11.82832811
_cell_angle_alpha   89.98465081
_cell_angle_beta   90.00000000
_cell_angle_gamma   90.00000000
_symmetry_Int_Tables_number   1
_chemical_formula_structural   Li2Tb3Lu(Co3P2)6
_chemical_formula_sum   'Li2 Tb3 Lu1 Co18 P12'
_cell_volume   446.08611933
_cell_formula_units_Z   1
loop_
 _symmetry_equiv_pos_site_id
 _symmetry_equiv_pos_as_xyz
  1  'x, y, z'
loop_
 _atom_site_type_symbol
 _atom_site_label
 _atom_site_symmetry_multiplicity
 _atom_site_fract_x
 _atom_site_fract_y
 _atom_site_fract_z
 _atom_site_occupancy
  Li  Li0  1  0.250000  0.702222  0.990606  1
  Li  Li1  1  0.250000  0.797139  0.491443  1
  Tb  Tb2  1  0.250000  0.920108  0.201980  1
  Tb  Tb3  1  0.750000  0.420028  0.297404  1
  Tb  Tb4  1  0.750000  0.080373  0.797490  1
  Lu  Lu5  1  0.250000  0.579382  0.701878  1
  Co  Co6  1  0.750000  0.289214  0.008051  1
  Co  Co7  1  0.750000  0.211478  0.509869  1
  Co  Co8  1  0.250000  0.404544  0.488433  1
  Co  Co9  1  0.250000  0.096486  0.987571  1
  Co  Co10  1  0.750000  0.591504  0.516965  1
  Co  Co11  1  0.750000  0.909202  0.013702  1
  Co  Co12  1  0.250000  0.224136  0.174731  1
  Co  Co13  1  0.250000  0.276676  0.674917  1
  Co  Co14  1  0.750000  0.779230  0.825644  1
  Co  Co15  1  0.750000  0.719201  0.326734  1
  Co  Co16  1  0.250000  0.879632  0.698859  1
  Co  Co17  1  0.250000  0.618576  0.198087  1
  Co  Co18  1  0.750000  0.120959  0.300400  1
  Co  Co19  1  0.750000  0.381105  0.798766  1
  Co  Co20  1  0.250000  0.464822  0.929789  1
  Co  Co21  1  0.250000  0.036045  0.432125  1
  Co  Co22  1  0.750000  0.533143  0.064745  1
  Co  Co23  1  0.750000  0.965686  0.566834  1
  P  P24  1  0.250000  0.422270  0.110519  1
  P  P25  1  0.250000  0.077433  0.612041  1
  P  P26  1  0.750000  0.577781  0.882173  1
  P  P27  1  0.750000  0.922483  0.384819  1
  P  P28  1  0.250000  0.269042  0.866957  1
  P  P29  1  0.250000  0.231484  0.367592  1
  P  P30  1  0.750000  0.728244  0.138149  1
  P  P31  1  0.750000  0.768201  0.638602  1
  P  P32  1  0.250000  0.601637  0.393650  1
  P  P33  1  0.250000  0.898305  0.893573  1
  P  P34  1  0.750000  0.397153  0.607907  1
  P  P35  1  0.750000  0.105077  0.106996  1
