# generated using pymatgen
data_LaYbI26
_symmetry_space_group_name_H-M   'P 1'
_cell_length_a   13.00953500
_cell_length_b   11.53260459
_cell_length_c   15.30554494
_cell_angle_alpha   122.66637909
_cell_angle_beta   90.53375398
_cell_angle_gamma   101.63219744
_symmetry_Int_Tables_number   1
_chemical_formula_structural   LaYbI26
_chemical_formula_sum   'La1 Yb1 I26'
_cell_volume   1873.89064244
_cell_formula_units_Z   1
loop_
 _symmetry_equiv_pos_site_id
 _symmetry_equiv_pos_as_xyz
  1  'x, y, z'
loop_
 _atom_site_type_symbol
 _atom_site_label
 _atom_site_symmetry_multiplicity
 _atom_site_fract_x
 _atom_site_fract_y
 _atom_site_fract_z
 _atom_site_occupancy
  La  La0  1  0.666435  0.118912  0.061962  1
  Yb  Yb1  1  0.328528  0.874279  0.935166  1
  I  I2  1  0.388852  0.665420  0.986378  1
  I  I3  1  0.600049  0.330091  0.007214  1
  I  I4  1  0.584029  0.815434  0.393054  1
  I  I5  1  0.420118  0.194934  0.610063  1
  I  I6  1  0.739535  0.689012  0.020876  1
  I  I7  1  0.261204  0.308219  0.982413  1
  I  I8  1  0.728284  0.967522  0.178135  1
  I  I9  1  0.274996  0.031300  0.829843  1
  I  I10  1  0.446152  0.150911  0.143142  1
  I  I11  1  0.550246  0.840083  0.854297  1
  I  I12  1  0.223396  0.655282  0.698179  1
  I  I13  1  0.778680  0.352334  0.304400  1
  I  I14  1  0.096733  0.828783  0.980694  1
  I  I15  1  0.902377  0.169597  0.015456  1
  I  I16  1  0.077768  0.076580  0.191080  1
  I  I17  1  0.922694  0.912126  0.801110  1
  I  I18  1  0.276265  0.921512  0.459121  1
  I  I19  1  0.728245  0.086049  0.544918  1
  I  I20  1  0.317152  0.421178  0.648157  1
  I  I21  1  0.683986  0.588806  0.352651  1
  I  I22  1  0.859843  0.372661  0.706397  1
  I  I23  1  0.144450  0.636271  0.299789  1
  I  I24  1  0.945883  0.692214  0.602534  1
  I  I25  1  0.055770  0.295188  0.393912  1
  I  I26  1  0.261430  0.638514  0.131320  1
  I  I27  1  0.736898  0.366789  0.867739  1
