# generated using pymatgen
data_Dy2Tm2Th(FeB3)2
_symmetry_space_group_name_H-M   'P 1'
_cell_length_a   5.40149054
_cell_length_b   5.40149121
_cell_length_c   8.10182223
_cell_angle_alpha   70.52774720
_cell_angle_beta   70.52774844
_cell_angle_gamma   59.99997945
_symmetry_Int_Tables_number   1
_chemical_formula_structural   Dy2Tm2Th(FeB3)2
_chemical_formula_sum   'Dy2 Tm2 Th1 Fe2 B6'
_cell_volume   188.93775125
_cell_formula_units_Z   1
loop_
 _symmetry_equiv_pos_site_id
 _symmetry_equiv_pos_as_xyz
  1  'x, y, z'
loop_
 _atom_site_type_symbol
 _atom_site_label
 _atom_site_symmetry_multiplicity
 _atom_site_fract_x
 _atom_site_fract_y
 _atom_site_fract_z
 _atom_site_occupancy
  Dy  Dy0  1  0.414491  0.414491  0.756527  1
  Dy  Dy1  1  0.585509  0.585509  0.243473  1
  Tm  Tm2  1  0.250161  0.250161  0.249516  1
  Tm  Tm3  1  0.749839  0.749839  0.750484  1
  Th  Th4  1  0.000000  0.000000  0.000000  1
  Fe  Fe5  1  0.111925  0.111925  0.664225  1
  Fe  Fe6  1  0.888075  0.888075  0.335775  1
  B  B7  1  0.167546  0.832454  0.500000  1
  B  B8  1  0.832454  0.500000  0.500000  1
  B  B9  1  0.500000  0.167546  0.500000  1
  B  B10  1  0.167546  0.500000  0.500000  1
  B  B11  1  0.500000  0.832454  0.500000  1
  B  B12  1  0.832454  0.167546  0.500000  1
