# generated using pymatgen
data_Hf8GaMo3Ir4
_symmetry_space_group_name_H-M   'P 1'
_cell_length_a   6.59040000
_cell_length_b   4.65725200
_cell_length_c   9.28177700
_cell_angle_alpha   90.00000000
_cell_angle_beta   89.99988107
_cell_angle_gamma   90.00000000
_symmetry_Int_Tables_number   1
_chemical_formula_structural   Hf8GaMo3Ir4
_chemical_formula_sum   'Hf8 Ga1 Mo3 Ir4'
_cell_volume   284.88700696
_cell_formula_units_Z   1
loop_
 _symmetry_equiv_pos_site_id
 _symmetry_equiv_pos_as_xyz
  1  'x, y, z'
loop_
 _atom_site_type_symbol
 _atom_site_label
 _atom_site_symmetry_multiplicity
 _atom_site_fract_x
 _atom_site_fract_y
 _atom_site_fract_z
 _atom_site_occupancy
  Hf  Hf0  1  0.006767  0.750000  0.125000  1
  Hf  Hf1  1  0.493216  0.750000  0.125001  1
  Hf  Hf2  1  0.002894  0.250001  0.379211  1
  Hf  Hf3  1  0.497101  0.250001  0.379213  1
  Hf  Hf4  1  0.498954  0.750000  0.625020  1
  Hf  Hf5  1  0.001055  0.750000  0.625021  1
  Hf  Hf6  1  0.497131  0.250001  0.870781  1
  Hf  Hf7  1  0.002881  0.250001  0.870784  1
  Ga  Ga8  1  0.749992  0.250001  0.125001  1
  Mo  Mo9  1  0.249996  0.750000  0.373173  1
  Mo  Mo10  1  0.750006  0.250001  0.625000  1
  Mo  Mo11  1  0.250005  0.750000  0.876818  1
  Ir  Ir12  1  0.249995  0.250001  0.124992  1
  Ir  Ir13  1  0.749995  0.750000  0.372678  1
  Ir  Ir14  1  0.250005  0.250001  0.624995  1
  Ir  Ir15  1  0.750007  0.750000  0.877314  1
