# generated using pymatgen
data_Tb8Er12Si15Sn
_symmetry_space_group_name_H-M   'P 1'
_cell_length_a   7.39774211
_cell_length_b   7.70137148
_cell_length_c   14.61128600
_cell_angle_alpha   90.05958474
_cell_angle_beta   88.73499885
_cell_angle_gamma   90.00774885
_symmetry_Int_Tables_number   1
_chemical_formula_structural   Tb8Er12Si15Sn
_chemical_formula_sum   'Tb8 Er12 Si15 Sn1'
_cell_volume   832.24195405
_cell_formula_units_Z   1
loop_
 _symmetry_equiv_pos_site_id
 _symmetry_equiv_pos_as_xyz
  1  'x, y, z'
loop_
 _atom_site_type_symbol
 _atom_site_label
 _atom_site_symmetry_multiplicity
 _atom_site_fract_x
 _atom_site_fract_y
 _atom_site_fract_z
 _atom_site_occupancy
  Tb  Tb0  1  0.018740  0.180960  0.097992  1
  Tb  Tb1  1  0.980284  0.819523  0.902813  1
  Tb  Tb2  1  0.480323  0.681963  0.902437  1
  Tb  Tb3  1  0.985912  0.825614  0.598998  1
  Tb  Tb4  1  0.519367  0.317992  0.098748  1
  Tb  Tb5  1  0.009901  0.173255  0.399188  1
  Tb  Tb6  1  0.516755  0.316480  0.399851  1
  Tb  Tb7  1  0.496521  0.688378  0.600673  1
  Er  Er8  1  0.161284  0.509217  0.752747  1
  Er  Er9  1  0.837641  0.489594  0.250668  1
  Er  Er10  1  0.338270  0.010989  0.250431  1
  Er  Er11  1  0.664023  0.989329  0.750708  1
  Er  Er12  1  0.340842  0.163491  0.628267  1
  Er  Er13  1  0.664844  0.824244  0.375458  1
  Er  Er14  1  0.163325  0.686334  0.370409  1
  Er  Er15  1  0.674114  0.820932  0.122109  1
  Er  Er16  1  0.823662  0.323350  0.624657  1
  Er  Er17  1  0.324370  0.177807  0.877957  1
  Er  Er18  1  0.824873  0.321352  0.877366  1
  Er  Er19  1  0.174911  0.678272  0.122890  1
  Si  Si20  1  0.033940  0.109319  0.752190  1
  Si  Si21  1  0.964103  0.894987  0.245773  1
  Si  Si22  1  0.466562  0.606738  0.248018  1
  Si  Si23  1  0.531301  0.393976  0.753262  1
  Si  Si24  1  0.279583  0.869613  0.753004  1
  Si  Si25  1  0.720184  0.127316  0.247459  1
  Si  Si26  1  0.220040  0.372427  0.248567  1
  Si  Si27  1  0.781305  0.628714  0.751948  1
  Si  Si28  1  0.829096  0.535141  0.459326  1
  Si  Si29  1  0.332103  0.967684  0.459660  1
  Si  Si30  1  0.849779  0.530115  0.039601  1
  Si  Si31  1  0.668980  0.033256  0.539012  1
  Si  Si32  1  0.148527  0.469130  0.961212  1
  Si  Si33  1  0.649832  0.031103  0.960757  1
  Si  Si34  1  0.349093  0.969767  0.040148  1
  Sn  Sn35  1  0.175613  0.461636  0.535695  1
