# generated using pymatgen
data_Gd2Ho2ReB12Ir
_symmetry_space_group_name_H-M   'P 1'
_cell_length_a   3.67942700
_cell_length_b   9.17833226
_cell_length_c   11.57502528
_cell_angle_alpha   90.31085451
_cell_angle_beta   90.00000000
_cell_angle_gamma   90.00000000
_symmetry_Int_Tables_number   1
_chemical_formula_structural   Gd2Ho2ReB12Ir
_chemical_formula_sum   'Gd4 Ho4 Re2 B24 Ir2'
_cell_volume   390.89446642
_cell_formula_units_Z   2
loop_
 _symmetry_equiv_pos_site_id
 _symmetry_equiv_pos_as_xyz
  1  'x, y, z'
loop_
 _atom_site_type_symbol
 _atom_site_label
 _atom_site_symmetry_multiplicity
 _atom_site_fract_x
 _atom_site_fract_y
 _atom_site_fract_z
 _atom_site_occupancy
  Gd  Gd0  1  0.000000  0.317609  0.410255  1
  Gd  Gd1  1  0.000000  0.682391  0.589745  1
  Gd  Gd2  1  0.000000  0.826260  0.082708  1
  Gd  Gd3  1  0.000000  0.173740  0.917292  1
  Ho  Ho4  1  0.000000  0.946191  0.372200  1
  Ho  Ho5  1  0.000000  0.053809  0.627800  1
  Ho  Ho6  1  0.000000  0.441720  0.125800  1
  Ho  Ho7  1  0.000000  0.558280  0.874200  1
  Re  Re8  1  0.000000  0.138567  0.180042  1
  Re  Re9  1  0.000000  0.861433  0.819958  1
  B  B10  1  0.500000  0.554568  0.433350  1
  B  B11  1  0.500000  0.445432  0.566650  1
  B  B12  1  0.500000  0.053590  0.067701  1
  B  B13  1  0.500000  0.946410  0.932299  1
  B  B14  1  0.500000  0.749662  0.420699  1
  B  B15  1  0.500000  0.250338  0.579301  1
  B  B16  1  0.500000  0.247932  0.081123  1
  B  B17  1  0.500000  0.752068  0.918877  1
  B  B18  1  0.500000  0.790814  0.266258  1
  B  B19  1  0.500000  0.209186  0.733742  1
  B  B20  1  0.500000  0.291974  0.233992  1
  B  B21  1  0.500000  0.708026  0.766008  1
  B  B22  1  0.500000  0.631491  0.184112  1
  B  B23  1  0.500000  0.368509  0.815888  1
  B  B24  1  0.500000  0.131556  0.314505  1
  B  B25  1  0.500000  0.868444  0.685495  1
  B  B26  1  0.500000  0.983369  0.213153  1
  B  B27  1  0.500000  0.016631  0.786847  1
  B  B28  1  0.500000  0.483066  0.286955  1
  B  B29  1  0.500000  0.516934  0.713045  1
  B  B30  1  0.500000  0.606269  0.029780  1
  B  B31  1  0.500000  0.393731  0.970220  1
  B  B32  1  0.500000  0.106879  0.471022  1
  B  B33  1  0.500000  0.893121  0.528978  1
  Ir  Ir34  1  0.000000  0.637166  0.321833  1
  Ir  Ir35  1  0.000000  0.362834  0.678167  1
