# generated using pymatgen
data_Ca7In(SnN)2
_symmetry_space_group_name_H-M   'P 1'
_cell_length_a   12.43195008
_cell_length_b   12.43194989
_cell_length_c   4.93148200
_cell_angle_alpha   90.00000000
_cell_angle_beta   90.00000000
_cell_angle_gamma   157.17536418
_symmetry_Int_Tables_number   1
_chemical_formula_structural   Ca7In(SnN)2
_chemical_formula_sum   'Ca7 In1 Sn2 N2'
_cell_volume   295.65763387
_cell_formula_units_Z   1
loop_
 _symmetry_equiv_pos_site_id
 _symmetry_equiv_pos_as_xyz
  1  'x, y, z'
loop_
 _atom_site_type_symbol
 _atom_site_label
 _atom_site_symmetry_multiplicity
 _atom_site_fract_x
 _atom_site_fract_y
 _atom_site_fract_z
 _atom_site_occupancy
  Ca  Ca0  1  0.903355  0.096644  0.000000  1
  Ca  Ca1  1  0.696159  0.303840  0.000000  1
  Ca  Ca2  1  0.500523  0.499477  0.000000  1
  Ca  Ca3  1  0.302140  0.697859  0.000000  1
  Ca  Ca4  1  0.098127  0.901872  0.000000  1
  Ca  Ca5  1  0.597453  0.402547  0.500001  1
  Ca  Ca6  1  0.403941  0.596059  0.500001  1
  In  In7  1  0.792654  0.207345  0.500001  1
  Sn  Sn8  1  0.999743  0.000257  0.500001  1
  Sn  Sn9  1  0.207181  0.792818  0.500001  1
  N  N10  1  0.602169  0.397830  0.000000  1
  N  N11  1  0.396550  0.603449  0.000000  1
