# generated using pymatgen
data_Pr4DyCrP12Ru5Rh13
_symmetry_space_group_name_H-M   'P 1'
_cell_length_a   12.74975100
_cell_length_b   12.76093096
_cell_length_c   3.98332200
_cell_angle_alpha   90.00000000
_cell_angle_beta   90.00000000
_cell_angle_gamma   120.11118513
_symmetry_Int_Tables_number   1
_chemical_formula_structural   Pr4DyCrP12Ru5Rh13
_chemical_formula_sum   'Pr4 Dy1 Cr1 P12 Ru5 Rh13'
_cell_volume   560.62498029
_cell_formula_units_Z   1
loop_
 _symmetry_equiv_pos_site_id
 _symmetry_equiv_pos_as_xyz
  1  'x, y, z'
loop_
 _atom_site_type_symbol
 _atom_site_label
 _atom_site_symmetry_multiplicity
 _atom_site_fract_x
 _atom_site_fract_y
 _atom_site_fract_z
 _atom_site_occupancy
  Pr  Pr0  1  0.668749  0.333112  0.000000  1
  Pr  Pr1  1  0.813737  0.001033  0.500000  1
  Pr  Pr2  1  0.185849  0.187035  0.500000  1
  Pr  Pr3  1  0.999164  0.810930  0.500000  1
  Dy  Dy4  1  0.331856  0.666771  0.000000  1
  Cr  Cr5  1  0.003553  0.447335  0.000000  1
  P  P6  1  0.632949  0.999605  0.000000  1
  P  P7  1  0.367552  0.366722  0.000000  1
  P  P8  1  0.000469  0.627274  0.000000  1
  P  P9  1  0.689551  0.521842  0.500000  1
  P  P10  1  0.835629  0.311515  0.500000  1
  P  P11  1  0.313782  0.831093  0.500000  1
  P  P12  1  0.516575  0.692625  0.500000  1
  P  P13  1  0.184122  0.999021  0.000000  1
  P  P14  1  0.813521  0.814906  0.000000  1
  P  P15  1  0.997656  0.184317  0.000000  1
  P  P16  1  0.478183  0.167176  0.500000  1
  P  P17  1  0.167003  0.481976  0.500000  1
  Ru  Ru18  1  0.510738  0.873321  0.500000  1
  Ru  Ru19  1  0.709870  0.712445  0.500000  1
  Ru  Ru20  1  0.003175  0.288382  0.500000  1
  Ru  Ru21  1  0.818973  0.198554  0.000000  1
  Ru  Ru22  1  0.285873  0.998459  0.500000  1
  Rh  Rh23  1  0.617644  0.800040  0.000000  1
  Rh  Rh24  1  0.183916  0.381011  0.000000  1
  Rh  Rh25  1  0.378808  0.180724  0.000000  1
  Rh  Rh26  1  0.199357  0.818623  0.000000  1
  Rh  Rh27  1  0.800000  0.620277  0.000000  1
  Rh  Rh28  1  0.876076  0.513225  0.500000  1
  Rh  Rh29  1  0.488360  0.361274  0.500000  1
  Rh  Rh30  1  0.637020  0.127396  0.500000  1
  Rh  Rh31  1  0.129997  0.639774  0.500000  1
  Rh  Rh32  1  0.360392  0.495023  0.500000  1
  Rh  Rh33  1  0.999528  0.998712  0.000000  1
  Rh  Rh34  1  0.453306  0.001077  0.000000  1
  Rh  Rh35  1  0.547064  0.547398  0.000000  1
