# generated using pymatgen
data_Tm4B16Ir2RuRh
_symmetry_space_group_name_H-M   'P 1'
_cell_length_a   3.54371700
_cell_length_b   5.93828849
_cell_length_c   11.51385155
_cell_angle_alpha   90.03482205
_cell_angle_beta   90.00000000
_cell_angle_gamma   90.00000000
_symmetry_Int_Tables_number   1
_chemical_formula_structural   Tm4B16Ir2RuRh
_chemical_formula_sum   'Tm4 B16 Ir2 Ru1 Rh1'
_cell_volume   242.29300153
_cell_formula_units_Z   1
loop_
 _symmetry_equiv_pos_site_id
 _symmetry_equiv_pos_as_xyz
  1  'x, y, z'
loop_
 _atom_site_type_symbol
 _atom_site_label
 _atom_site_symmetry_multiplicity
 _atom_site_fract_x
 _atom_site_fract_y
 _atom_site_fract_z
 _atom_site_occupancy
  Tm  Tm0  1  0.500000  0.132237  0.147418  1
  Tm  Tm1  1  0.500000  0.869488  0.851196  1
  Tm  Tm2  1  0.500000  0.631550  0.351863  1
  Tm  Tm3  1  0.500000  0.367534  0.650751  1
  B  B4  1  0.000000  0.472178  0.192228  1
  B  B5  1  0.000000  0.523771  0.807147  1
  B  B6  1  0.000000  0.976494  0.306438  1
  B  B7  1  0.000000  0.023502  0.693609  1
  B  B8  1  0.000000  0.292396  0.312330  1
  B  B9  1  0.000000  0.707916  0.687860  1
  B  B10  1  0.000000  0.793513  0.187560  1
  B  B11  1  0.000000  0.208410  0.813511  1
  B  B12  1  0.000000  0.364399  0.469872  1
  B  B13  1  0.000000  0.635139  0.529847  1
  B  B14  1  0.000000  0.864225  0.029483  1
  B  B15  1  0.000000  0.134648  0.969138  1
  B  B16  1  0.000000  0.385802  0.045903  1
  B  B17  1  0.000000  0.611786  0.951850  1
  B  B18  1  0.000000  0.886984  0.452935  1
  B  B19  1  0.000000  0.113034  0.547997  1
  Ir  Ir20  1  0.500000  0.857414  0.595484  1
  Ir  Ir21  1  0.500000  0.644626  0.096791  1
  Ru  Ru22  1  0.500000  0.358616  0.905834  1
  Rh  Rh23  1  0.500000  0.144339  0.402955  1
