# generated using pymatgen
data_Dy8Si16TcW11
_symmetry_space_group_name_H-M   'P 1'
_cell_length_a   6.87233967
_cell_length_b   6.87681844
_cell_length_c   12.79050580
_cell_angle_alpha   90.07057560
_cell_angle_beta   89.90206276
_cell_angle_gamma   90.00002694
_symmetry_Int_Tables_number   1
_chemical_formula_structural   Dy8Si16TcW11
_chemical_formula_sum   'Dy8 Si16 Tc1 W11'
_cell_volume   604.47581595
_cell_formula_units_Z   1
loop_
 _symmetry_equiv_pos_site_id
 _symmetry_equiv_pos_as_xyz
  1  'x, y, z'
loop_
 _atom_site_type_symbol
 _atom_site_label
 _atom_site_symmetry_multiplicity
 _atom_site_fract_x
 _atom_site_fract_y
 _atom_site_fract_z
 _atom_site_occupancy
  Dy  Dy0  1  0.001806  0.662140  0.031348  1
  Dy  Dy1  1  0.998796  0.338826  0.530512  1
  Dy  Dy2  1  0.662115  0.002081  0.969285  1
  Dy  Dy3  1  0.162597  0.499200  0.780654  1
  Dy  Dy4  1  0.837429  0.502320  0.280774  1
  Dy  Dy5  1  0.498759  0.159282  0.219345  1
  Dy  Dy6  1  0.501482  0.837878  0.718549  1
  Dy  Dy7  1  0.339002  0.996182  0.468719  1
  Si  Si8  1  0.037209  0.713530  0.434482  1
  Si  Si9  1  0.963370  0.288062  0.935704  1
  Si  Si10  1  0.713852  0.037489  0.563427  1
  Si  Si11  1  0.213820  0.466999  0.189057  1
  Si  Si12  1  0.789887  0.537505  0.685682  1
  Si  Si13  1  0.462075  0.211373  0.814911  1
  Si  Si14  1  0.531557  0.778615  0.315337  1
  Si  Si15  1  0.287123  0.964048  0.063787  1
  Si  Si16  1  0.798877  0.875140  0.183948  1
  Si  Si17  1  0.302142  0.625440  0.564467  1
  Si  Si18  1  0.700765  0.374738  0.066391  1
  Si  Si19  1  0.623181  0.302559  0.434450  1
  Si  Si20  1  0.373951  0.701137  0.933833  1
  Si  Si21  1  0.125471  0.200054  0.315973  1
  Si  Si22  1  0.201024  0.126856  0.683477  1
  Si  Si23  1  0.873438  0.798904  0.815692  1
  Tc  Tc24  1  0.328631  0.487575  0.378400  1
  W  W25  1  0.833392  0.003949  0.372966  1
  W  W26  1  0.000942  0.168015  0.125687  1
  W  W27  1  0.003540  0.834656  0.625723  1
  W  W28  1  0.501460  0.336262  0.625429  1
  W  W29  1  0.163759  0.998705  0.873605  1
  W  W30  1  0.670420  0.668450  0.500586  1
  W  W31  1  0.832860  0.167502  0.749081  1
  W  W32  1  0.167860  0.834006  0.248735  1
  W  W33  1  0.331582  0.334139  0.001841  1
  W  W34  1  0.501186  0.666898  0.122794  1
  W  W35  1  0.664641  0.499485  0.875351  1
