# generated using pymatgen
data_Ca(NpS3)2
_symmetry_space_group_name_H-M   'P 1'
_cell_length_a   3.89638890
_cell_length_b   5.13807627
_cell_length_c   10.25879863
_cell_angle_alpha   104.50253612
_cell_angle_beta   100.94723151
_cell_angle_gamma   89.99999848
_symmetry_Int_Tables_number   1
_chemical_formula_structural   Ca(NpS3)2
_chemical_formula_sum   'Ca1 Np2 S6'
_cell_volume   194.97361933
_cell_formula_units_Z   1
loop_
 _symmetry_equiv_pos_site_id
 _symmetry_equiv_pos_as_xyz
  1  'x, y, z'
loop_
 _atom_site_type_symbol
 _atom_site_label
 _atom_site_symmetry_multiplicity
 _atom_site_fract_x
 _atom_site_fract_y
 _atom_site_fract_z
 _atom_site_occupancy
  Ca  Ca0  1  0.000000  0.000000  0.000000  1
  Np  Np1  1  0.177751  0.677752  0.355504  1
  Np  Np2  1  0.822248  0.322249  0.644496  1
  S  S3  1  0.593842  0.341487  0.187685  1
  S  S4  1  0.593842  0.846198  0.187685  1
  S  S5  1  0.224001  0.224001  0.448002  1
  S  S6  1  0.775998  0.775999  0.551998  1
  S  S7  1  0.406158  0.153803  0.812315  1
  S  S8  1  0.406158  0.658513  0.812315  1
