# generated using pymatgen
data_Tm3Sc4Sn23Ir6
_symmetry_space_group_name_H-M   'P 1'
_cell_length_a   9.80398530
_cell_length_b   9.80431251
_cell_length_c   9.99864800
_cell_angle_alpha   90.00000000
_cell_angle_beta   90.04701604
_cell_angle_gamma   120.00110733
_symmetry_Int_Tables_number   1
_chemical_formula_structural   Tm3Sc4Sn23Ir6
_chemical_formula_sum   'Tm3 Sc4 Sn23 Ir6'
_cell_volume   832.31297927
_cell_formula_units_Z   1
loop_
 _symmetry_equiv_pos_site_id
 _symmetry_equiv_pos_as_xyz
  1  'x, y, z'
loop_
 _atom_site_type_symbol
 _atom_site_label
 _atom_site_symmetry_multiplicity
 _atom_site_fract_x
 _atom_site_fract_y
 _atom_site_fract_z
 _atom_site_occupancy
  Tm  Tm0  1  0.997345  0.998677  0.003585  1
  Tm  Tm1  1  0.516715  0.035230  0.691897  1
  Tm  Tm2  1  0.516716  0.481487  0.691891  1
  Sc  Sc3  1  0.031442  0.515724  0.306018  1
  Sc  Sc4  1  0.485142  0.969709  0.308195  1
  Sc  Sc5  1  0.485151  0.515439  0.308241  1
  Sc  Sc6  1  0.967297  0.483648  0.692233  1
  Sn  Sn7  1  0.998706  0.999349  0.498274  1
  Sn  Sn8  1  0.123073  0.877649  0.284743  1
  Sn  Sn9  1  0.754551  0.877263  0.285078  1
  Sn  Sn10  1  0.123081  0.245418  0.284761  1
  Sn  Sn11  1  0.880277  0.122467  0.714665  1
  Sn  Sn12  1  0.236883  0.118450  0.715072  1
  Sn  Sn13  1  0.880270  0.757820  0.714636  1
  Sn  Sn14  1  0.352571  0.999847  0.000101  1
  Sn  Sn15  1  0.646793  0.646718  0.000597  1
  Sn  Sn16  1  0.000114  0.353148  0.000400  1
  Sn  Sn17  1  0.352589  0.352735  0.000098  1
  Sn  Sn18  1  0.000113  0.646961  0.000390  1
  Sn  Sn19  1  0.646793  0.000068  0.000600  1
  Sn  Sn20  1  0.778357  0.551918  0.457361  1
  Sn  Sn21  1  0.778359  0.226421  0.457366  1
  Sn  Sn22  1  0.446685  0.223339  0.455933  1
  Sn  Sn23  1  0.220176  0.448151  0.539634  1
  Sn  Sn24  1  0.220176  0.772038  0.539632  1
  Sn  Sn25  1  0.549912  0.774962  0.538185  1
  Sn  Sn26  1  0.666726  0.333358  0.171017  1
  Sn  Sn27  1  0.332964  0.666495  0.832916  1
  Sn  Sn28  1  0.674496  0.337245  0.867665  1
  Sn  Sn29  1  0.335288  0.667643  0.140166  1
  Ir  Ir30  1  0.169566  0.828844  0.799991  1
  Ir  Ir31  1  0.661258  0.830627  0.799852  1
  Ir  Ir32  1  0.169579  0.340748  0.800001  1
  Ir  Ir33  1  0.831073  0.169509  0.199990  1
  Ir  Ir34  1  0.338707  0.169359  0.198835  1
  Ir  Ir35  1  0.831057  0.661536  0.199986  1
