# generated using pymatgen
data_Ta2TiNb(PRu)4
_symmetry_space_group_name_H-M   'P 1'
_cell_length_a   3.74427900
_cell_length_b   6.32296503
_cell_length_c   7.18914264
_cell_angle_alpha   89.97055683
_cell_angle_beta   90.00000000
_cell_angle_gamma   90.00000000
_symmetry_Int_Tables_number   1
_chemical_formula_structural   Ta2TiNb(PRu)4
_chemical_formula_sum   'Ta2 Ti1 Nb1 P4 Ru4'
_cell_volume   170.20253541
_cell_formula_units_Z   1
loop_
 _symmetry_equiv_pos_site_id
 _symmetry_equiv_pos_as_xyz
  1  'x, y, z'
loop_
 _atom_site_type_symbol
 _atom_site_label
 _atom_site_symmetry_multiplicity
 _atom_site_fract_x
 _atom_site_fract_y
 _atom_site_fract_z
 _atom_site_occupancy
  Ta  Ta0  1  0.250000  0.523260  0.673236  1
  Ta  Ta1  1  0.750000  0.474547  0.327647  1
  Ti  Ti2  1  0.250000  0.025655  0.823825  1
  Nb  Nb3  1  0.750000  0.975787  0.171924  1
  P  P4  1  0.250000  0.769750  0.375794  1
  P  P5  1  0.250000  0.268285  0.122835  1
  P  P6  1  0.750000  0.228773  0.627067  1
  P  P7  1  0.750000  0.735077  0.875858  1
  Ru  Ru8  1  0.250000  0.149697  0.439440  1
  Ru  Ru9  1  0.250000  0.646561  0.061114  1
  Ru  Ru10  1  0.750000  0.851347  0.562992  1
  Ru  Ru11  1  0.750000  0.351259  0.938269  1
