# generated using pymatgen
data_TbHo15In4PtRh3
_symmetry_space_group_name_H-M   'P 1'
_cell_length_a   9.64744144
_cell_length_b   9.65189930
_cell_length_c   9.64221100
_cell_angle_alpha   60.03320236
_cell_angle_beta   60.01793626
_cell_angle_gamma   60.02289493
_symmetry_Int_Tables_number   1
_chemical_formula_structural   TbHo15In4PtRh3
_chemical_formula_sum   'Tb1 Ho15 In4 Pt1 Rh3'
_cell_volume   635.22771173
_cell_formula_units_Z   1
loop_
 _symmetry_equiv_pos_site_id
 _symmetry_equiv_pos_as_xyz
  1  'x, y, z'
loop_
 _atom_site_type_symbol
 _atom_site_label
 _atom_site_symmetry_multiplicity
 _atom_site_fract_x
 _atom_site_fract_y
 _atom_site_fract_z
 _atom_site_occupancy
  Tb  Tb0  1  0.187991  0.187855  0.812077  1
  Ho  Ho1  1  0.601353  0.597834  0.199951  1
  Ho  Ho2  1  0.439708  0.063041  0.439420  1
  Ho  Ho3  1  0.438964  0.439013  0.061011  1
  Ho  Ho4  1  0.811945  0.187834  0.811938  1
  Ho  Ho5  1  0.187956  0.811464  0.188311  1
  Ho  Ho6  1  0.439708  0.063041  0.057831  1
  Ho  Ho7  1  0.187956  0.811464  0.812269  1
  Ho  Ho8  1  0.060837  0.439123  0.061287  1
  Ho  Ho9  1  0.812512  0.811600  0.187944  1
  Ho  Ho10  1  0.199365  0.598277  0.601179  1
  Ho  Ho11  1  0.060837  0.439123  0.438753  1
  Ho  Ho12  1  0.057468  0.063270  0.439631  1
  Ho  Ho13  1  0.811945  0.187834  0.188283  1
  Ho  Ho14  1  0.600182  0.201156  0.599332  1
  Ho  Ho15  1  0.601353  0.597834  0.600863  1
  In  In16  1  0.833294  0.833070  0.833346  1
  In  In17  1  0.833294  0.833070  0.500290  1
  In  In18  1  0.500832  0.832748  0.833210  1
  In  In19  1  0.832628  0.501524  0.832925  1
  Pt  Pt20  1  0.392530  0.821967  0.392752  1
  Rh  Rh21  1  0.392349  0.392670  0.392153  1
  Rh  Rh22  1  0.822644  0.392521  0.392418  1
  Rh  Rh23  1  0.392349  0.392670  0.822828  1
