# generated using pymatgen
data_TbYbDy2(Al8Pt3)3
_symmetry_space_group_name_H-M   'P 1'
_cell_length_a   7.53610469
_cell_length_b   7.55496844
_cell_length_c   13.20634227
_cell_angle_alpha   84.60472916
_cell_angle_beta   79.11281462
_cell_angle_gamma   59.91670048
_symmetry_Int_Tables_number   1
_chemical_formula_structural   TbYbDy2(Al8Pt3)3
_chemical_formula_sum   'Tb1 Yb1 Dy2 Al24 Pt9'
_cell_volume   638.90958196
_cell_formula_units_Z   1
loop_
 _symmetry_equiv_pos_site_id
 _symmetry_equiv_pos_as_xyz
  1  'x, y, z'
loop_
 _atom_site_type_symbol
 _atom_site_label
 _atom_site_symmetry_multiplicity
 _atom_site_fract_x
 _atom_site_fract_y
 _atom_site_fract_z
 _atom_site_occupancy
  Tb  Tb0  1  0.605237  0.832572  0.191680  1
  Yb  Yb1  1  0.393954  0.168382  0.807366  1
  Dy  Dy2  1  0.733808  0.498586  0.807847  1
  Dy  Dy3  1  0.266692  0.500624  0.192044  1
  Al  Al4  1  0.684226  0.833893  0.944432  1
  Al  Al5  1  0.315382  0.166495  0.054661  1
  Al  Al6  1  0.146801  0.832345  0.561122  1
  Al  Al7  1  0.853224  0.167808  0.438187  1
  Al  Al8  1  0.479856  0.166699  0.559080  1
  Al  Al9  1  0.520284  0.833655  0.440861  1
  Al  Al10  1  0.217353  0.165318  0.329607  1
  Al  Al11  1  0.781946  0.835798  0.670332  1
  Al  Al12  1  0.436929  0.505857  0.670044  1
  Al  Al13  1  0.563088  0.492953  0.329830  1
  Al  Al14  1  0.110470  0.160065  0.668812  1
  Al  Al15  1  0.890475  0.839926  0.331128  1
  Al  Al16  1  0.352710  0.499179  0.944739  1
  Al  Al17  1  0.646919  0.500547  0.055806  1
  Al  Al18  1  0.015576  0.167945  0.954040  1
  Al  Al19  1  0.984533  0.831808  0.046607  1
  Al  Al20  1  0.186754  0.499164  0.440888  1
  Al  Al21  1  0.813699  0.500304  0.558545  1
  Al  Al22  1  0.734168  0.164792  0.183618  1
  Al  Al23  1  0.266795  0.833329  0.816752  1
  Al  Al24  1  0.059342  0.632455  0.815758  1
  Al  Al25  1  0.938671  0.368868  0.184797  1
  Al  Al26  1  0.856376  0.042694  0.816392  1
  Al  Al27  1  0.144986  0.958252  0.184047  1
  Pt  Pt28  1  0.119889  0.492841  0.637892  1
  Pt  Pt29  1  0.879991  0.508050  0.361613  1
  Pt  Pt30  1  0.657145  0.171194  0.000654  1
  Pt  Pt31  1  0.342139  0.828396  0.001007  1
  Pt  Pt32  1  0.537993  0.166795  0.361671  1
  Pt  Pt33  1  0.461957  0.832606  0.637828  1
  Pt  Pt34  1  0.779977  0.174519  0.636587  1
  Pt  Pt35  1  0.221106  0.824929  0.362763  1
  Pt  Pt36  1  0.999546  0.500355  0.000960  1
