# generated using pymatgen
data_Lu5(SiSb)2
_symmetry_space_group_name_H-M   'P 1'
_cell_length_a   8.34731338
_cell_length_b   8.34731384
_cell_length_c   7.70076400
_cell_angle_alpha   90.00000000
_cell_angle_beta   90.00000000
_cell_angle_gamma   125.23473109
_symmetry_Int_Tables_number   1
_chemical_formula_structural   Lu5(SiSb)2
_chemical_formula_sum   'Lu10 Si4 Sb4'
_cell_volume   438.26876634
_cell_formula_units_Z   2
loop_
 _symmetry_equiv_pos_site_id
 _symmetry_equiv_pos_as_xyz
  1  'x, y, z'
loop_
 _atom_site_type_symbol
 _atom_site_label
 _atom_site_symmetry_multiplicity
 _atom_site_fract_x
 _atom_site_fract_y
 _atom_site_fract_z
 _atom_site_occupancy
  Lu  Lu0  1  0.039761  0.289715  0.335830  1
  Lu  Lu1  1  0.960239  0.710285  0.664170  1
  Lu  Lu2  1  0.460239  0.210285  0.835830  1
  Lu  Lu3  1  0.789715  0.539761  0.164170  1
  Lu  Lu4  1  0.539761  0.789715  0.164170  1
  Lu  Lu5  1  0.210285  0.460239  0.835830  1
  Lu  Lu6  1  0.710285  0.960239  0.664170  1
  Lu  Lu7  1  0.289715  0.039761  0.335830  1
  Lu  Lu8  1  0.000000  0.000000  0.000000  1
  Lu  Lu9  1  0.500000  0.500000  0.500000  1
  Si  Si10  1  0.366002  0.366002  0.133101  1
  Si  Si11  1  0.633998  0.633998  0.866899  1
  Si  Si12  1  0.133998  0.133998  0.633101  1
  Si  Si13  1  0.866002  0.866002  0.366899  1
  Sb  Sb14  1  0.794168  0.205832  0.000000  1
  Sb  Sb15  1  0.205832  0.794168  0.000000  1
  Sb  Sb16  1  0.705832  0.294168  0.500000  1
  Sb  Sb17  1  0.294168  0.705832  0.500000  1
