# generated using pymatgen
data_Nd4Sc3AlPt4
_symmetry_space_group_name_H-M   'P 1'
_cell_length_a   4.57460900
_cell_length_b   7.25458873
_cell_length_c   8.43909147
_cell_angle_alpha   93.63913492
_cell_angle_beta   90.00000000
_cell_angle_gamma   90.00000000
_symmetry_Int_Tables_number   1
_chemical_formula_structural   Nd4Sc3AlPt4
_chemical_formula_sum   'Nd4 Sc3 Al1 Pt4'
_cell_volume   279.50261745
_cell_formula_units_Z   1
loop_
 _symmetry_equiv_pos_site_id
 _symmetry_equiv_pos_as_xyz
  1  'x, y, z'
loop_
 _atom_site_type_symbol
 _atom_site_label
 _atom_site_symmetry_multiplicity
 _atom_site_fract_x
 _atom_site_fract_y
 _atom_site_fract_z
 _atom_site_occupancy
  Nd  Nd0  1  0.750000  0.460549  0.175033  1
  Nd  Nd1  1  0.250000  0.031702  0.682945  1
  Nd  Nd2  1  0.750000  0.975572  0.312084  1
  Nd  Nd3  1  0.250000  0.514651  0.839510  1
  Sc  Sc4  1  0.750000  0.864964  0.933255  1
  Sc  Sc5  1  0.250000  0.632422  0.432845  1
  Sc  Sc6  1  0.750000  0.368452  0.569543  1
  Al  Al7  1  0.250000  0.138966  0.067700  1
  Pt  Pt8  1  0.750000  0.740387  0.598233  1
  Pt  Pt9  1  0.750000  0.229866  0.885134  1
  Pt  Pt10  1  0.250000  0.263961  0.392404  1
  Pt  Pt11  1  0.250000  0.778509  0.111314  1
