# generated using pymatgen
data_La3(CuRu2)2
_symmetry_space_group_name_H-M   'P 1'
_cell_length_a   5.35989694
_cell_length_b   5.43330077
_cell_length_c   13.11090300
_cell_angle_alpha   89.76944751
_cell_angle_beta   92.45162213
_cell_angle_gamma   119.58950308
_symmetry_Int_Tables_number   1
_chemical_formula_structural   La3(CuRu2)2
_chemical_formula_sum   'La6 Cu4 Ru8'
_cell_volume   331.65245707
_cell_formula_units_Z   2
loop_
 _symmetry_equiv_pos_site_id
 _symmetry_equiv_pos_as_xyz
  1  'x, y, z'
loop_
 _atom_site_type_symbol
 _atom_site_label
 _atom_site_symmetry_multiplicity
 _atom_site_fract_x
 _atom_site_fract_y
 _atom_site_fract_z
 _atom_site_occupancy
  La  La0  1  0.672579  0.342560  0.209495  1
  La  La1  1  0.008053  0.006819  0.870898  1
  La  La2  1  0.337598  0.676776  0.538573  1
  La  La3  1  0.662402  0.323224  0.461427  1
  La  La4  1  0.991947  0.993181  0.129102  1
  La  La5  1  0.327421  0.657440  0.790505  1
  Cu  Cu6  1  0.500000  0.000000  0.000000  1
  Cu  Cu7  1  0.831756  0.666723  0.667016  1
  Cu  Cu8  1  0.168244  0.333277  0.332984  1
  Cu  Cu9  1  0.500000  0.500000  0.000000  1
  Ru  Ru10  1  0.832765  0.168043  0.669385  1
  Ru  Ru11  1  0.167235  0.831957  0.330615  1
  Ru  Ru12  1  0.672603  0.338975  0.837496  1
  Ru  Ru13  1  0.000000  0.000000  0.500000  1
  Ru  Ru14  1  0.327397  0.661025  0.162504  1
  Ru  Ru15  1  0.000000  0.500000  0.000000  1
  Ru  Ru16  1  0.332709  0.166020  0.668008  1
  Ru  Ru17  1  0.667291  0.833980  0.331992  1
