# generated using pymatgen
data_CaTb3Sn3Sb3Rh7
_symmetry_space_group_name_H-M   'P 1'
_cell_length_a   7.63020923
_cell_length_b   7.63155628
_cell_length_c   7.63155648
_cell_angle_alpha   109.47479851
_cell_angle_beta   109.46764949
_cell_angle_gamma   109.46764131
_symmetry_Int_Tables_number   1
_chemical_formula_structural   CaTb3Sn3Sb3Rh7
_chemical_formula_sum   'Ca1 Tb3 Sn3 Sb3 Rh7'
_cell_volume   342.10540452
_cell_formula_units_Z   1
loop_
 _symmetry_equiv_pos_site_id
 _symmetry_equiv_pos_as_xyz
  1  'x, y, z'
loop_
 _atom_site_type_symbol
 _atom_site_label
 _atom_site_symmetry_multiplicity
 _atom_site_fract_x
 _atom_site_fract_y
 _atom_site_fract_z
 _atom_site_occupancy
  Ca  Ca0  1  0.487681  0.000000  0.000000  1
  Tb  Tb1  1  0.998122  0.504204  0.000000  1
  Tb  Tb2  1  0.998122  0.000000  0.504204  1
  Tb  Tb3  1  0.493917  0.495796  0.495796  1
  Sn  Sn4  1  0.989036  0.304482  0.304482  1
  Sn  Sn5  1  0.684554  0.000000  0.695518  1
  Sn  Sn6  1  0.684554  0.695518  0.000000  1
  Sb  Sb7  1  0.997802  0.674847  0.674847  1
  Sb  Sb8  1  0.322955  0.000000  0.325153  1
  Sb  Sb9  1  0.322955  0.325153  0.000000  1
  Rh  Rh10  1  0.014083  0.000000  0.000000  1
  Rh  Rh11  1  0.504128  0.752067  0.257210  1
  Rh  Rh12  1  0.752061  0.505143  0.247933  1
  Rh  Rh13  1  0.246918  0.742790  0.494857  1
  Rh  Rh14  1  0.246918  0.494857  0.742790  1
  Rh  Rh15  1  0.504128  0.257210  0.752067  1
  Rh  Rh16  1  0.752061  0.247933  0.505143  1
