# generated using pymatgen
data_Yb3Fe(GeO4)2
_symmetry_space_group_name_H-M   'P 1'
_cell_length_a   5.14757100
_cell_length_b   6.54977265
_cell_length_c   11.26264600
_cell_angle_alpha   88.18316384
_cell_angle_beta   90.00000000
_cell_angle_gamma   90.00000000
_symmetry_Int_Tables_number   1
_chemical_formula_structural   Yb3Fe(GeO4)2
_chemical_formula_sum   'Yb6 Fe2 Ge4 O16'
_cell_volume   379.53394511
_cell_formula_units_Z   2
loop_
 _symmetry_equiv_pos_site_id
 _symmetry_equiv_pos_as_xyz
  1  'x, y, z'
loop_
 _atom_site_type_symbol
 _atom_site_label
 _atom_site_symmetry_multiplicity
 _atom_site_fract_x
 _atom_site_fract_y
 _atom_site_fract_z
 _atom_site_occupancy
  Yb  Yb0  1  0.491288  0.753169  0.776147  1
  Yb  Yb1  1  0.991288  0.246831  0.723853  1
  Yb  Yb2  1  0.508712  0.246831  0.223853  1
  Yb  Yb3  1  0.008712  0.753169  0.276147  1
  Yb  Yb4  1  0.500000  0.500000  0.500000  1
  Yb  Yb5  1  0.000000  0.500000  0.000000  1
  Fe  Fe6  1  0.500000  0.000000  0.500000  1
  Fe  Fe7  1  0.000000  0.000000  0.000000  1
  Ge  Ge8  1  0.927129  0.762532  0.590971  1
  Ge  Ge9  1  0.427129  0.237468  0.909029  1
  Ge  Ge10  1  0.072871  0.237468  0.409029  1
  Ge  Ge11  1  0.572871  0.762532  0.090971  1
  O  O12  1  0.216565  0.456978  0.337708  1
  O  O13  1  0.716565  0.543022  0.162292  1
  O  O14  1  0.765041  0.971084  0.657495  1
  O  O15  1  0.265041  0.028916  0.842505  1
  O  O16  1  0.783435  0.543022  0.662292  1
  O  O17  1  0.283435  0.456978  0.837708  1
  O  O18  1  0.234959  0.028916  0.342505  1
  O  O19  1  0.734959  0.971084  0.157495  1
  O  O20  1  0.773511  0.766983  0.447235  1
  O  O21  1  0.273511  0.233017  0.052765  1
  O  O22  1  0.226489  0.233017  0.552765  1
  O  O23  1  0.726489  0.766983  0.947235  1
  O  O24  1  0.229934  0.761315  0.088651  1
  O  O25  1  0.729934  0.238685  0.411349  1
  O  O26  1  0.770066  0.238685  0.911349  1
  O  O27  1  0.270066  0.761315  0.588651  1
