# generated using pymatgen
data_Er4ScZn(B2Ir5)2
_symmetry_space_group_name_H-M   'P 1'
_cell_length_a   3.15364100
_cell_length_b   9.67815000
_cell_length_c   9.67815000
_cell_angle_alpha   90.00000000
_cell_angle_beta   90.00000000
_cell_angle_gamma   90.00000000
_symmetry_Int_Tables_number   1
_chemical_formula_structural   Er4ScZn(B2Ir5)2
_chemical_formula_sum   'Er4 Sc1 Zn1 B4 Ir10'
_cell_volume   295.39079043
_cell_formula_units_Z   1
loop_
 _symmetry_equiv_pos_site_id
 _symmetry_equiv_pos_as_xyz
  1  'x, y, z'
loop_
 _atom_site_type_symbol
 _atom_site_label
 _atom_site_symmetry_multiplicity
 _atom_site_fract_x
 _atom_site_fract_y
 _atom_site_fract_z
 _atom_site_occupancy
  Er  Er0  1  0.000000  0.174721  0.678126  1
  Er  Er1  1  0.000000  0.825279  0.321874  1
  Er  Er2  1  0.000000  0.321874  0.174721  1
  Er  Er3  1  0.000000  0.678126  0.825279  1
  Sc  Sc4  1  0.000000  0.500000  0.500000  1
  Zn  Zn5  1  0.000000  0.000000  0.000000  1
  B  B6  1  0.000000  0.628007  0.118486  1
  B  B7  1  0.000000  0.371993  0.881514  1
  B  B8  1  0.000000  0.881514  0.628007  1
  B  B9  1  0.000000  0.118486  0.371993  1
  Ir  Ir10  1  0.500000  0.067785  0.219256  1
  Ir  Ir11  1  0.500000  0.932215  0.780744  1
  Ir  Ir12  1  0.500000  0.780744  0.067785  1
  Ir  Ir13  1  0.500000  0.428051  0.725250  1
  Ir  Ir14  1  0.500000  0.219256  0.932215  1
  Ir  Ir15  1  0.500000  0.571949  0.274750  1
  Ir  Ir16  1  0.500000  0.725250  0.571949  1
  Ir  Ir17  1  0.500000  0.274750  0.428051  1
  Ir  Ir18  1  0.500000  0.000000  0.500000  1
  Ir  Ir19  1  0.500000  0.500000  0.000000  1
