# generated using pymatgen
data_La11PrOs(PtBr4)3
_symmetry_space_group_name_H-M   'P 1'
_cell_length_a   10.79334631
_cell_length_b   10.67268556
_cell_length_c   10.66048707
_cell_angle_alpha   108.96156253
_cell_angle_beta   109.70745851
_cell_angle_gamma   110.03103753
_symmetry_Int_Tables_number   1
_chemical_formula_structural   La11PrOs(PtBr4)3
_chemical_formula_sum   'La11 Pr1 Os1 Pt3 Br12'
_cell_volume   941.91269109
_cell_formula_units_Z   1
loop_
 _symmetry_equiv_pos_site_id
 _symmetry_equiv_pos_as_xyz
  1  'x, y, z'
loop_
 _atom_site_type_symbol
 _atom_site_label
 _atom_site_symmetry_multiplicity
 _atom_site_fract_x
 _atom_site_fract_y
 _atom_site_fract_z
 _atom_site_occupancy
  La  La0  1  0.468261  0.490177  0.229797  1
  La  La1  1  0.749153  0.235916  0.263131  1
  La  La2  1  0.751347  0.015807  0.485602  1
  La  La3  1  0.234618  0.469245  0.485888  1
  La  La4  1  0.262085  0.742885  0.232607  1
  La  La5  1  0.031871  0.269831  0.009404  1
  La  La6  1  0.013725  0.028555  0.264679  1
  La  La7  1  0.478204  0.739411  0.009374  1
  La  La8  1  0.486071  0.235985  0.472213  1
  La  La9  1  0.021883  0.489421  0.759635  1
  La  La10  1  0.264877  0.014953  0.029537  1
  Pr  Pr11  1  0.237811  0.267447  0.756978  1
  Os  Os12  1  0.250073  0.501136  0.001428  1
  Pt  Pt13  1  0.250077  0.249682  0.250333  1
  Pt  Pt14  1  0.500265  0.000682  0.250265  1
  Pt  Pt15  1  0.999857  0.249454  0.499229  1
  Br  Br16  1  0.250063  0.755036  0.744917  1
  Br  Br17  1  0.507917  0.501921  0.753201  1
  Br  Br18  1  0.991472  0.746986  0.996716  1
  Br  Br19  1  0.744675  0.249477  0.753256  1
  Br  Br20  1  0.996598  0.990740  0.745004  1
  Br  Br21  1  0.249836  0.997638  0.503972  1
  Br  Br22  1  0.752975  0.505882  0.502794  1
  Br  Br23  1  0.504073  0.249668  0.995262  1
  Br  Br24  1  0.755269  0.746763  0.250428  1
  Br  Br25  1  0.747053  0.997148  0.994119  1
  Br  Br26  1  0.995009  0.503453  0.250377  1
  Br  Br27  1  0.504885  0.754699  0.509856  1
