# generated using pymatgen
data_Ho6TeO12
_symmetry_space_group_name_H-M   'P 1'
_cell_length_a   6.46948679
_cell_length_b   6.46948770
_cell_length_c   6.46948689
_cell_angle_alpha   98.71627304
_cell_angle_beta   98.71626966
_cell_angle_gamma   98.71626661
_symmetry_Int_Tables_number   1
_chemical_formula_structural   Ho6TeO12
_chemical_formula_sum   'Ho6 Te1 O12'
_cell_volume   260.30330388
_cell_formula_units_Z   1
loop_
 _symmetry_equiv_pos_site_id
 _symmetry_equiv_pos_as_xyz
  1  'x, y, z'
loop_
 _atom_site_type_symbol
 _atom_site_label
 _atom_site_symmetry_multiplicity
 _atom_site_fract_x
 _atom_site_fract_y
 _atom_site_fract_z
 _atom_site_occupancy
  Ho  Ho0  1  0.854854  0.390033  0.683605  1
  Ho  Ho1  1  0.609967  0.316395  0.145146  1
  Ho  Ho2  1  0.316395  0.145146  0.609967  1
  Ho  Ho3  1  0.683605  0.854854  0.390033  1
  Ho  Ho4  1  0.390033  0.683605  0.854854  1
  Ho  Ho5  1  0.145146  0.609967  0.316395  1
  Te  Te6  1  0.000000  0.000000  0.000000  1
  O  O7  1  0.928394  0.034583  0.701549  1
  O  O8  1  0.965417  0.298451  0.071606  1
  O  O9  1  0.592540  0.177302  0.432817  1
  O  O10  1  0.822698  0.567183  0.407460  1
  O  O11  1  0.298451  0.071606  0.965417  1
  O  O12  1  0.567183  0.407460  0.822698  1
  O  O13  1  0.432817  0.592540  0.177302  1
  O  O14  1  0.701549  0.928394  0.034583  1
  O  O15  1  0.177302  0.432817  0.592540  1
  O  O16  1  0.407460  0.822698  0.567183  1
  O  O17  1  0.034583  0.701549  0.928394  1
  O  O18  1  0.071606  0.965417  0.298451  1
