# generated using pymatgen
data_CaTmFe3Re14C3
_symmetry_space_group_name_H-M   'P 1'
_cell_length_a   6.92407613
_cell_length_b   6.92407762
_cell_length_c   6.92407664
_cell_angle_alpha   82.46623317
_cell_angle_beta   82.46622467
_cell_angle_gamma   82.46622869
_symmetry_Int_Tables_number   1
_chemical_formula_structural   CaTmFe3Re14C3
_chemical_formula_sum   'Ca1 Tm1 Fe3 Re14 C3'
_cell_volume   324.05436181
_cell_formula_units_Z   1
loop_
 _symmetry_equiv_pos_site_id
 _symmetry_equiv_pos_as_xyz
  1  'x, y, z'
loop_
 _atom_site_type_symbol
 _atom_site_label
 _atom_site_symmetry_multiplicity
 _atom_site_fract_x
 _atom_site_fract_y
 _atom_site_fract_z
 _atom_site_occupancy
  Ca  Ca0  1  0.647905  0.647905  0.647905  1
  Tm  Tm1  1  0.351837  0.351837  0.351837  1
  Fe  Fe2  1  0.997851  0.997851  0.501126  1
  Fe  Fe3  1  0.501126  0.997851  0.997851  1
  Fe  Fe4  1  0.997851  0.501126  0.997851  1
  Re  Re5  1  0.720932  0.278086  0.000327  1
  Re  Re6  1  0.000327  0.720932  0.278086  1
  Re  Re7  1  0.278086  0.000327  0.720932  1
  Re  Re8  1  0.000327  0.278086  0.720932  1
  Re  Re9  1  0.720932  0.000327  0.278086  1
  Re  Re10  1  0.278086  0.720932  0.000327  1
  Re  Re11  1  0.345607  0.345607  0.863918  1
  Re  Re12  1  0.863918  0.345607  0.345607  1
  Re  Re13  1  0.345607  0.863918  0.345607  1
  Re  Re14  1  0.653221  0.653221  0.141265  1
  Re  Re15  1  0.141265  0.653221  0.653221  1
  Re  Re16  1  0.653221  0.141265  0.653221  1
  Re  Re17  1  0.898300  0.898300  0.898300  1
  Re  Re18  1  0.102361  0.102361  0.102361  1
  C  C19  1  0.496799  0.496799  0.007644  1
  C  C20  1  0.007644  0.496799  0.496799  1
  C  C21  1  0.496799  0.007644  0.496799  1
