# generated using pymatgen
data_Ta2Co2B6Mo3W
_symmetry_space_group_name_H-M   'P 1'
_cell_length_a   3.20331500
_cell_length_b   4.56639642
_cell_length_c   10.91028783
_cell_angle_alpha   89.93602074
_cell_angle_beta   90.00000000
_cell_angle_gamma   110.53312104
_symmetry_Int_Tables_number   1
_chemical_formula_structural   Ta2Co2B6Mo3W
_chemical_formula_sum   'Ta2 Co2 B6 Mo3 W1'
_cell_volume   149.45238015
_cell_formula_units_Z   1
loop_
 _symmetry_equiv_pos_site_id
 _symmetry_equiv_pos_as_xyz
  1  'x, y, z'
loop_
 _atom_site_type_symbol
 _atom_site_label
 _atom_site_symmetry_multiplicity
 _atom_site_fract_x
 _atom_site_fract_y
 _atom_site_fract_z
 _atom_site_occupancy
  Ta  Ta0  1  0.792301  0.584602  0.605459  1
  Ta  Ta1  1  0.208209  0.416418  0.104144  1
  Co  Co2  1  0.501826  0.003652  0.498459  1
  Co  Co3  1  0.498454  0.996909  0.998658  1
  B  B4  1  0.913480  0.826961  0.395650  1
  B  B5  1  0.086639  0.173279  0.604894  1
  B  B6  1  0.914118  0.828235  0.104669  1
  B  B7  1  0.085829  0.171660  0.895695  1
  B  B8  1  0.791953  0.583906  0.250273  1
  B  B9  1  0.207341  0.414681  0.750922  1
  Mo  Mo10  1  0.788048  0.576096  0.893552  1
  Mo  Mo11  1  0.497949  0.995898  0.252018  1
  Mo  Mo12  1  0.502420  0.004840  0.751952  1
  W  W13  1  0.211432  0.422864  0.393655  1
