# generated using pymatgen
data_Tm12Co4SnIr
_symmetry_space_group_name_H-M   'P 1'
_cell_length_a   8.17542202
_cell_length_b   8.17542336
_cell_length_c   8.17542263
_cell_angle_alpha   111.17553279
_cell_angle_beta   110.79391263
_cell_angle_gamma   106.48509932
_symmetry_Int_Tables_number   1
_chemical_formula_structural   Tm12Co4SnIr
_chemical_formula_sum   'Tm12 Co4 Sn1 Ir1'
_cell_volume   419.78206463
_cell_formula_units_Z   1
loop_
 _symmetry_equiv_pos_site_id
 _symmetry_equiv_pos_as_xyz
  1  'x, y, z'
loop_
 _atom_site_type_symbol
 _atom_site_label
 _atom_site_symmetry_multiplicity
 _atom_site_fract_x
 _atom_site_fract_y
 _atom_site_fract_z
 _atom_site_occupancy
  Tm  Tm0  1  0.414302  0.218799  0.195503  1
  Tm  Tm1  1  0.585698  0.781201  0.804497  1
  Tm  Tm2  1  0.023296  0.218799  0.804497  1
  Tm  Tm3  1  0.976704  0.781201  0.195503  1
  Tm  Tm4  1  0.183351  0.283378  0.466730  1
  Tm  Tm5  1  0.816649  0.716622  0.533270  1
  Tm  Tm6  1  0.183351  0.716622  0.899973  1
  Tm  Tm7  1  0.816649  0.283378  0.100027  1
  Tm  Tm8  1  0.314671  0.621837  0.307165  1
  Tm  Tm9  1  0.685329  0.378163  0.692835  1
  Tm  Tm10  1  0.314671  0.007507  0.692835  1
  Tm  Tm11  1  0.685329  0.992493  0.307165  1
  Co  Co12  1  0.373452  0.000000  0.373452  1
  Co  Co13  1  0.626548  0.000000  0.626548  1
  Co  Co14  1  0.112067  0.612067  0.500000  1
  Co  Co15  1  0.887933  0.387933  0.500000  1
  Sn  Sn16  1  0.500000  0.500000  0.000000  1
  Ir  Ir17  1  0.000000  0.000000  0.000000  1
