# generated using pymatgen
data_Th3Al2IrPt2Au
_symmetry_space_group_name_H-M   'P 1'
_cell_length_a   7.60991750
_cell_length_b   7.32802425
_cell_length_c   4.06306500
_cell_angle_alpha   90.00000000
_cell_angle_beta   90.00000000
_cell_angle_gamma   121.05024876
_symmetry_Int_Tables_number   1
_chemical_formula_structural   Th3Al2IrPt2Au
_chemical_formula_sum   'Th3 Al2 Ir1 Pt2 Au1'
_cell_volume   194.11412080
_cell_formula_units_Z   1
loop_
 _symmetry_equiv_pos_site_id
 _symmetry_equiv_pos_as_xyz
  1  'x, y, z'
loop_
 _atom_site_type_symbol
 _atom_site_label
 _atom_site_symmetry_multiplicity
 _atom_site_fract_x
 _atom_site_fract_y
 _atom_site_fract_z
 _atom_site_occupancy
  Th  Th0  1  0.423588  0.005422  0.500000  1
  Th  Th1  1  0.985222  0.397130  0.500000  1
  Th  Th2  1  0.594803  0.598834  0.500000  1
  Al  Al3  1  0.000049  0.759542  0.000000  1
  Al  Al4  1  0.244092  0.238858  0.000000  1
  Ir  Ir5  1  0.658200  0.356582  0.000000  1
  Pt  Pt6  1  0.303719  0.644328  0.000000  1
  Pt  Pt7  1  0.039086  0.001123  0.500000  1
  Au  Au8  1  0.751240  0.998182  0.000000  1
