# generated using pymatgen
data_Tb12Pd2PtRh
_symmetry_space_group_name_H-M   'P 1'
_cell_length_a   6.43515769
_cell_length_b   7.11598661
_cell_length_c   9.71043500
_cell_angle_alpha   90.00000000
_cell_angle_beta   90.00000000
_cell_angle_gamma   89.85886046
_symmetry_Int_Tables_number   1
_chemical_formula_structural   Tb12Pd2PtRh
_chemical_formula_sum   'Tb12 Pd2 Pt1 Rh1'
_cell_volume   444.66370652
_cell_formula_units_Z   1
loop_
 _symmetry_equiv_pos_site_id
 _symmetry_equiv_pos_as_xyz
  1  'x, y, z'
loop_
 _atom_site_type_symbol
 _atom_site_label
 _atom_site_symmetry_multiplicity
 _atom_site_fract_x
 _atom_site_fract_y
 _atom_site_fract_z
 _atom_site_occupancy
  Tb  Tb0  1  0.327270  0.682443  0.059176  1
  Tb  Tb1  1  0.169715  0.177944  0.440091  1
  Tb  Tb2  1  0.669653  0.324306  0.563096  1
  Tb  Tb3  1  0.825872  0.817163  0.938247  1
  Tb  Tb4  1  0.669653  0.324306  0.936904  1
  Tb  Tb5  1  0.825872  0.817163  0.561753  1
  Tb  Tb6  1  0.327270  0.682443  0.440824  1
  Tb  Tb7  1  0.169715  0.177944  0.059909  1
  Tb  Tb8  1  0.866245  0.527965  0.250000  1
  Tb  Tb9  1  0.636840  0.025466  0.250000  1
  Tb  Tb10  1  0.141075  0.475232  0.750000  1
  Tb  Tb11  1  0.370333  0.964968  0.750000  1
  Pd  Pd12  1  0.435286  0.387147  0.250000  1
  Pd  Pd13  1  0.940221  0.114103  0.750000  1
  Pt  Pt14  1  0.062974  0.884767  0.250000  1
  Rh  Rh15  1  0.562008  0.616640  0.750000  1
