# generated using pymatgen
data_Tb2YTm(Si3Ni5)4
_symmetry_space_group_name_H-M   'P 1'
_cell_length_a   3.80486100
_cell_length_b   6.60036529
_cell_length_c   18.78479839
_cell_angle_alpha   90.05613728
_cell_angle_beta   90.00000000
_cell_angle_gamma   90.00000000
_symmetry_Int_Tables_number   1
_chemical_formula_structural   Tb2YTm(Si3Ni5)4
_chemical_formula_sum   'Tb2 Y1 Tm1 Si12 Ni20'
_cell_volume   471.75129087
_cell_formula_units_Z   1
loop_
 _symmetry_equiv_pos_site_id
 _symmetry_equiv_pos_as_xyz
  1  'x, y, z'
loop_
 _atom_site_type_symbol
 _atom_site_label
 _atom_site_symmetry_multiplicity
 _atom_site_fract_x
 _atom_site_fract_y
 _atom_site_fract_z
 _atom_site_occupancy
  Tb  Tb0  1  0.250000  0.624173  0.643551  1
  Tb  Tb1  1  0.750000  0.123747  0.856318  1
  Y  Y2  1  0.250000  0.876258  0.144054  1
  Tm  Tm3  1  0.750000  0.376558  0.355769  1
  Si  Si4  1  0.250000  0.842444  0.926452  1
  Si  Si5  1  0.750000  0.157469  0.073940  1
  Si  Si6  1  0.750000  0.342554  0.573606  1
  Si  Si7  1  0.250000  0.655408  0.425861  1
  Si  Si8  1  0.750000  0.618818  0.762809  1
  Si  Si9  1  0.250000  0.380819  0.237945  1
  Si  Si10  1  0.250000  0.422949  0.913721  1
  Si  Si11  1  0.750000  0.577195  0.086741  1
  Si  Si12  1  0.750000  0.923103  0.585819  1
  Si  Si13  1  0.250000  0.080156  0.413289  1
  Si  Si14  1  0.250000  0.118583  0.737012  1
  Si  Si15  1  0.750000  0.881286  0.262960  1
  Ni  Ni16  1  0.250000  0.135154  0.994611  1
  Ni  Ni17  1  0.750000  0.386445  0.984034  1
  Ni  Ni18  1  0.750000  0.115199  0.482973  1
  Ni  Ni19  1  0.250000  0.613489  0.016413  1
  Ni  Ni20  1  0.250000  0.354739  0.116228  1
  Ni  Ni21  1  0.750000  0.645281  0.884241  1
  Ni  Ni22  1  0.750000  0.853298  0.384221  1
  Ni  Ni23  1  0.250000  0.145356  0.615597  1
  Ni  Ni24  1  0.250000  0.072586  0.293304  1
  Ni  Ni25  1  0.750000  0.927957  0.706916  1
  Ni  Ni26  1  0.750000  0.571096  0.207756  1
  Ni  Ni27  1  0.250000  0.428009  0.792853  1
  Ni  Ni28  1  0.750000  0.634184  0.505111  1
  Ni  Ni29  1  0.250000  0.365268  0.494127  1
  Ni  Ni30  1  0.250000  0.812819  0.800935  1
  Ni  Ni31  1  0.750000  0.187494  0.199497  1
  Ni  Ni32  1  0.750000  0.312620  0.698960  1
  Ni  Ni33  1  0.250000  0.685726  0.301398  1
  Ni  Ni34  1  0.250000  0.886524  0.515333  1
  Ni  Ni35  1  0.750000  0.865238  0.005649  1
