# generated using pymatgen
data_TbDySi7Pd12
_symmetry_space_group_name_H-M   'P 1'
_cell_length_a   10.00042400
_cell_length_b   10.00042293
_cell_length_c   3.90954700
_cell_angle_alpha   90.00000000
_cell_angle_beta   90.00000000
_cell_angle_gamma   120.00000353
_symmetry_Int_Tables_number   1
_chemical_formula_structural   TbDySi7Pd12
_chemical_formula_sum   'Tb1 Dy1 Si7 Pd12'
_cell_volume   338.60536565
_cell_formula_units_Z   1
loop_
 _symmetry_equiv_pos_site_id
 _symmetry_equiv_pos_as_xyz
  1  'x, y, z'
loop_
 _atom_site_type_symbol
 _atom_site_label
 _atom_site_symmetry_multiplicity
 _atom_site_fract_x
 _atom_site_fract_y
 _atom_site_fract_z
 _atom_site_occupancy
  Tb  Tb0  1  0.666667  0.333333  0.248059  1
  Dy  Dy1  1  0.000000  0.000000  0.750156  1
  Si  Si2  1  0.333333  0.666667  0.466877  1
  Si  Si3  1  0.740545  0.784572  0.249425  1
  Si  Si4  1  0.044025  0.259455  0.249425  1
  Si  Si5  1  0.215428  0.955975  0.249425  1
  Si  Si6  1  0.925750  0.549411  0.749153  1
  Si  Si7  1  0.623662  0.074250  0.749153  1
  Si  Si8  1  0.450589  0.376338  0.749153  1
  Pd  Pd9  1  0.776137  0.046655  0.248406  1
  Pd  Pd10  1  0.270518  0.223863  0.248406  1
  Pd  Pd11  1  0.953345  0.729482  0.248406  1
  Pd  Pd12  1  0.891422  0.286514  0.750300  1
  Pd  Pd13  1  0.395093  0.108578  0.750300  1
  Pd  Pd14  1  0.713486  0.604907  0.750300  1
  Pd  Pd15  1  0.481698  0.554247  0.249181  1
  Pd  Pd16  1  0.072548  0.518302  0.249181  1
  Pd  Pd17  1  0.445753  0.927452  0.249181  1
  Pd  Pd18  1  0.188080  0.775746  0.749009  1
  Pd  Pd19  1  0.587666  0.811920  0.749009  1
  Pd  Pd20  1  0.224254  0.412334  0.749009  1
