# generated using pymatgen
data_RbNa3(In3Te5)4
_symmetry_space_group_name_H-M   'P 1'
_cell_length_a   11.13733689
_cell_length_b   11.13733619
_cell_length_c   11.13733757
_cell_angle_alpha   89.66165517
_cell_angle_beta   89.66165088
_cell_angle_gamma   89.66165281
_symmetry_Int_Tables_number   1
_chemical_formula_structural   RbNa3(In3Te5)4
_chemical_formula_sum   'Rb1 Na3 In12 Te20'
_cell_volume   1381.40632680
_cell_formula_units_Z   1
loop_
 _symmetry_equiv_pos_site_id
 _symmetry_equiv_pos_as_xyz
  1  'x, y, z'
loop_
 _atom_site_type_symbol
 _atom_site_label
 _atom_site_symmetry_multiplicity
 _atom_site_fract_x
 _atom_site_fract_y
 _atom_site_fract_z
 _atom_site_occupancy
  Rb  Rb0  1  0.500000  0.500000  0.500000  1
  Na  Na1  1  0.256006  0.000000  0.743994  1
  Na  Na2  1  0.743994  0.256006  0.000000  1
  Na  Na3  1  0.000000  0.743994  0.256006  1
  In  In4  1  0.841685  0.878655  0.573582  1
  In  In5  1  0.573582  0.841685  0.878655  1
  In  In6  1  0.878655  0.573582  0.841685  1
  In  In7  1  0.158315  0.426418  0.121345  1
  In  In8  1  0.121345  0.158315  0.426418  1
  In  In9  1  0.426418  0.121345  0.158315  1
  In  In10  1  0.748301  0.163597  0.340653  1
  In  In11  1  0.340653  0.748301  0.163597  1
  In  In12  1  0.163597  0.340653  0.748301  1
  In  In13  1  0.251699  0.659347  0.836403  1
  In  In14  1  0.836403  0.251699  0.659347  1
  In  In15  1  0.659347  0.836403  0.251699  1
  Te  Te16  1  0.168000  0.832000  0.000000  1
  Te  Te17  1  0.832000  0.000000  0.168000  1
  Te  Te18  1  0.170709  0.170709  0.170709  1
  Te  Te19  1  0.829291  0.829291  0.829291  1
  Te  Te20  1  0.000000  0.168000  0.832000  1
  Te  Te21  1  0.917981  0.500000  0.082019  1
  Te  Te22  1  0.082019  0.917981  0.500000  1
  Te  Te23  1  0.500000  0.082019  0.917981  1
  Te  Te24  1  0.764997  0.688241  0.426572  1
  Te  Te25  1  0.426572  0.764997  0.688241  1
  Te  Te26  1  0.688241  0.426572  0.764997  1
  Te  Te27  1  0.235003  0.573428  0.311759  1
  Te  Te28  1  0.311759  0.235003  0.573428  1
  Te  Te29  1  0.573428  0.311759  0.235003  1
  Te  Te30  1  0.671402  0.072243  0.571353  1
  Te  Te31  1  0.571353  0.671402  0.072243  1
  Te  Te32  1  0.072243  0.571353  0.671402  1
  Te  Te33  1  0.328598  0.428647  0.927757  1
  Te  Te34  1  0.927757  0.328598  0.428647  1
  Te  Te35  1  0.428647  0.927757  0.328598  1
