# generated using pymatgen
data_TbDy3Al4Ir3Au
_symmetry_space_group_name_H-M   'P 1'
_cell_length_a   4.34471400
_cell_length_b   6.86820159
_cell_length_c   7.90941961
_cell_angle_alpha   89.99868556
_cell_angle_beta   90.00000000
_cell_angle_gamma   90.00000000
_symmetry_Int_Tables_number   1
_chemical_formula_structural   TbDy3Al4Ir3Au
_chemical_formula_sum   'Tb1 Dy3 Al4 Ir3 Au1'
_cell_volume   236.02002013
_cell_formula_units_Z   1
loop_
 _symmetry_equiv_pos_site_id
 _symmetry_equiv_pos_as_xyz
  1  'x, y, z'
loop_
 _atom_site_type_symbol
 _atom_site_label
 _atom_site_symmetry_multiplicity
 _atom_site_fract_x
 _atom_site_fract_y
 _atom_site_fract_z
 _atom_site_occupancy
  Tb  Tb0  1  0.250000  0.025002  0.326031  1
  Dy  Dy1  1  0.250000  0.541742  0.182682  1
  Dy  Dy2  1  0.750000  0.969201  0.678909  1
  Dy  Dy3  1  0.750000  0.476097  0.813134  1
  Al  Al4  1  0.250000  0.135840  0.930845  1
  Al  Al5  1  0.250000  0.641277  0.562693  1
  Al  Al6  1  0.750000  0.847300  0.060526  1
  Al  Al7  1  0.750000  0.364542  0.444757  1
  Ir  Ir8  1  0.250000  0.268708  0.618997  1
  Ir  Ir9  1  0.250000  0.766416  0.881453  1
  Ir  Ir10  1  0.750000  0.733412  0.379478  1
  Au  Au11  1  0.750000  0.230464  0.120495  1
