# generated using pymatgen
data_CuF8
_symmetry_space_group_name_H-M   'P 1'
_cell_length_a   3.82031362
_cell_length_b   3.79822268
_cell_length_c   9.85629487
_cell_angle_alpha   99.43581578
_cell_angle_beta   91.47908125
_cell_angle_gamma   89.01908410
_symmetry_Int_Tables_number   1
_chemical_formula_structural   CuF8
_chemical_formula_sum   'Cu1 F8'
_cell_volume   141.02468520
_cell_formula_units_Z   1
loop_
 _symmetry_equiv_pos_site_id
 _symmetry_equiv_pos_as_xyz
  1  'x, y, z'
loop_
 _atom_site_type_symbol
 _atom_site_label
 _atom_site_symmetry_multiplicity
 _atom_site_fract_x
 _atom_site_fract_y
 _atom_site_fract_z
 _atom_site_occupancy
  Cu  Cu0  1  0.798962  0.099594  0.308408  1
  F  F1  1  0.152270  0.738163  0.701638  1
  F  F2  1  0.297750  0.100626  0.300928  1
  F  F3  1  0.460463  0.849901  0.643716  1
  F  F4  1  0.787503  0.024931  0.126292  1
  F  F5  1  0.465234  0.416998  0.936848  1
  F  F6  1  0.817409  0.175662  0.491253  1
  F  F7  1  0.789649  0.603031  0.315083  1
  F  F8  1  0.803155  0.475052  0.888296  1
