# generated using pymatgen
data_AgBi3(Rh2O7)2
_symmetry_space_group_name_H-M   'P 1'
_cell_length_a   7.37882397
_cell_length_b   7.19535114
_cell_length_c   7.37882300
_cell_angle_alpha   59.15285974
_cell_angle_beta   59.99999987
_cell_angle_gamma   59.15285979
_symmetry_Int_Tables_number   1
_chemical_formula_structural   AgBi3(Rh2O7)2
_chemical_formula_sum   'Ag1 Bi3 Rh4 O14'
_cell_volume   273.41980696
_cell_formula_units_Z   1
loop_
 _symmetry_equiv_pos_site_id
 _symmetry_equiv_pos_as_xyz
  1  'x, y, z'
loop_
 _atom_site_type_symbol
 _atom_site_label
 _atom_site_symmetry_multiplicity
 _atom_site_fract_x
 _atom_site_fract_y
 _atom_site_fract_z
 _atom_site_occupancy
  Ag  Ag0  1  0.125000  0.625000  0.125000  1
  Bi  Bi1  1  0.125000  0.125000  0.125000  1
  Bi  Bi2  1  0.625000  0.125000  0.125000  1
  Bi  Bi3  1  0.125000  0.125000  0.625000  1
  Rh  Rh4  1  0.625000  0.625000  0.625000  1
  Rh  Rh5  1  0.625000  0.625000  0.125000  1
  Rh  Rh6  1  0.125000  0.625000  0.625000  1
  Rh  Rh7  1  0.625000  0.125000  0.625000  1
  O  O8  1  0.245125  0.264624  0.245125  1
  O  O9  1  0.298101  0.708004  0.298101  1
  O  O10  1  0.956527  0.962291  0.540591  1
  O  O11  1  0.540591  0.962291  0.540591  1
  O  O12  1  0.695795  0.708004  0.298101  1
  O  O13  1  0.951899  0.541996  0.554205  1
  O  O14  1  0.709409  0.287709  0.709409  1
  O  O15  1  0.293473  0.287709  0.709409  1
  O  O16  1  0.709409  0.287709  0.293473  1
  O  O17  1  0.298101  0.708004  0.695795  1
  O  O18  1  0.951899  0.541996  0.951899  1
  O  O19  1  0.554205  0.541996  0.951899  1
  O  O20  1  0.004875  0.985376  0.004875  1
  O  O21  1  0.540591  0.962291  0.956527  1
