# generated using pymatgen
data_Y9Ho(GaBi)3
_symmetry_space_group_name_H-M   'P 1'
_cell_length_a   8.85687403
_cell_length_b   8.88846291
_cell_length_c   6.56145402
_cell_angle_alpha   89.99176137
_cell_angle_beta   89.99967196
_cell_angle_gamma   119.87302915
_symmetry_Int_Tables_number   1
_chemical_formula_structural   Y9Ho(GaBi)3
_chemical_formula_sum   'Y9 Ho1 Ga3 Bi3'
_cell_volume   447.91136475
_cell_formula_units_Z   1
loop_
 _symmetry_equiv_pos_site_id
 _symmetry_equiv_pos_as_xyz
  1  'x, y, z'
loop_
 _atom_site_type_symbol
 _atom_site_label
 _atom_site_symmetry_multiplicity
 _atom_site_fract_x
 _atom_site_fract_y
 _atom_site_fract_z
 _atom_site_occupancy
  Y  Y0  1  0.656699  0.332002  0.495396  1
  Y  Y1  1  0.656661  0.332008  0.004555  1
  Y  Y2  1  0.324325  0.668022  0.494978  1
  Y  Y3  1  0.234360  0.000542  0.249839  1
  Y  Y4  1  0.243626  0.227217  0.750108  1
  Y  Y5  1  0.015377  0.772348  0.750212  1
  Y  Y6  1  0.017360  0.250705  0.249867  1
  Y  Y7  1  0.766320  0.749303  0.249934  1
  Y  Y8  1  0.754276  0.999719  0.750090  1
  Ho  Ho9  1  0.323779  0.668086  0.005287  1
  Ga  Ga10  1  0.998501  0.601355  0.249330  1
  Ga  Ga11  1  0.396154  0.398463  0.249497  1
  Ga  Ga12  1  0.399603  0.999813  0.750561  1
  Bi  Bi13  1  0.611854  0.999848  0.249609  1
  Bi  Bi14  1  0.604739  0.608902  0.750382  1
  Bi  Bi15  1  0.996367  0.391668  0.750356  1
