# generated using pymatgen
data_ErMgCuNi3
_symmetry_space_group_name_H-M   'P 1'
_cell_length_a   4.99452925
_cell_length_b   4.99452952
_cell_length_c   4.94633343
_cell_angle_alpha   59.67714144
_cell_angle_beta   59.67714576
_cell_angle_gamma   60.00000516
_symmetry_Int_Tables_number   1
_chemical_formula_structural   ErMgCuNi3
_chemical_formula_sum   'Er1 Mg1 Cu1 Ni3'
_cell_volume   86.82021939
_cell_formula_units_Z   1
loop_
 _symmetry_equiv_pos_site_id
 _symmetry_equiv_pos_as_xyz
  1  'x, y, z'
loop_
 _atom_site_type_symbol
 _atom_site_label
 _atom_site_symmetry_multiplicity
 _atom_site_fract_x
 _atom_site_fract_y
 _atom_site_fract_z
 _atom_site_occupancy
  Er  Er0  1  0.248748  0.248748  0.253755  1
  Mg  Mg1  1  0.000242  0.000242  0.999275  1
  Cu  Cu2  1  0.625958  0.625958  0.122126  1
  Ni  Ni3  1  0.626542  0.121968  0.624948  1
  Ni  Ni4  1  0.121968  0.626542  0.624948  1
  Ni  Ni5  1  0.626542  0.626542  0.624948  1
