# generated using pymatgen
data_Er3SnPt(RhPb)2
_symmetry_space_group_name_H-M   'P 1'
_cell_length_a   7.77560190
_cell_length_b   7.81676091
_cell_length_c   3.72055600
_cell_angle_alpha   90.00000000
_cell_angle_beta   90.00000000
_cell_angle_gamma   119.92476263
_symmetry_Int_Tables_number   1
_chemical_formula_structural   Er3SnPt(RhPb)2
_chemical_formula_sum   'Er3 Sn1 Pt1 Rh2 Pb2'
_cell_volume   195.98736802
_cell_formula_units_Z   1
loop_
 _symmetry_equiv_pos_site_id
 _symmetry_equiv_pos_as_xyz
  1  'x, y, z'
loop_
 _atom_site_type_symbol
 _atom_site_label
 _atom_site_symmetry_multiplicity
 _atom_site_fract_x
 _atom_site_fract_y
 _atom_site_fract_z
 _atom_site_occupancy
  Er  Er0  1  0.399627  0.397272  0.000000  1
  Er  Er1  1  0.008633  0.605937  0.000000  1
  Er  Er2  1  0.594346  0.996486  0.000000  1
  Sn  Sn3  1  0.264876  0.996062  0.500000  1
  Pt  Pt4  1  0.656325  0.326273  0.500000  1
  Rh  Rh5  1  0.011879  0.000147  0.000000  1
  Rh  Rh6  1  0.330213  0.673619  0.500000  1
  Pb  Pb7  1  0.730636  0.734899  0.500000  1
  Pb  Pb8  1  0.003463  0.269305  0.500000  1
