# generated using pymatgen
data_Tm8CdInRu2
_symmetry_space_group_name_H-M   'P 1'
_cell_length_a   9.51255877
_cell_length_b   9.51257189
_cell_length_c   9.56639200
_cell_angle_alpha   59.81258363
_cell_angle_beta   59.81253422
_cell_angle_gamma   59.74943321
_symmetry_Int_Tables_number   1
_chemical_formula_structural   Tm8CdInRu2
_chemical_formula_sum   'Tm16 Cd2 In2 Ru4'
_cell_volume   609.21099768
_cell_formula_units_Z   2
loop_
 _symmetry_equiv_pos_site_id
 _symmetry_equiv_pos_as_xyz
  1  'x, y, z'
loop_
 _atom_site_type_symbol
 _atom_site_label
 _atom_site_symmetry_multiplicity
 _atom_site_fract_x
 _atom_site_fract_y
 _atom_site_fract_z
 _atom_site_occupancy
  Tm  Tm0  1  0.348317  0.348313  0.345275  1
  Tm  Tm1  1  0.348325  0.348320  0.958106  1
  Tm  Tm2  1  0.350461  0.955362  0.347108  1
  Tm  Tm3  1  0.955352  0.350459  0.347113  1
  Tm  Tm4  1  0.809618  0.190166  0.189622  1
  Tm  Tm5  1  0.190181  0.809618  0.810622  1
  Tm  Tm6  1  0.190169  0.809619  0.189621  1
  Tm  Tm7  1  0.809615  0.190179  0.810626  1
  Tm  Tm8  1  0.187906  0.187902  0.812121  1
  Tm  Tm9  1  0.808474  0.808478  0.191532  1
  Tm  Tm10  1  0.941400  0.560001  0.558623  1
  Tm  Tm11  1  0.560005  0.941417  0.939995  1
  Tm  Tm12  1  0.560008  0.941398  0.558623  1
  Tm  Tm13  1  0.941420  0.560004  0.939996  1
  Tm  Tm14  1  0.560551  0.560548  0.939448  1
  Tm  Tm15  1  0.942656  0.942654  0.557360  1
  Cd  Cd16  1  0.578864  0.256776  0.582178  1
  Cd  Cd17  1  0.256776  0.578866  0.582177  1
  In  In18  1  0.580718  0.580720  0.584432  1
  In  In19  1  0.580774  0.580772  0.253807  1
  Ru  Ru20  1  0.139578  0.139576  0.141411  1
  Ru  Ru21  1  0.139519  0.139534  0.579554  1
  Ru  Ru22  1  0.140000  0.579314  0.140327  1
  Ru  Ru23  1  0.579316  0.140003  0.140327  1
