# generated using pymatgen
data_Y3Pu5(ReB6)4
_symmetry_space_group_name_H-M   'P 1'
_cell_length_a   3.68569000
_cell_length_b   9.18394706
_cell_length_c   11.52468778
_cell_angle_alpha   90.18463938
_cell_angle_beta   90.00000000
_cell_angle_gamma   90.00000000
_symmetry_Int_Tables_number   1
_chemical_formula_structural   Y3Pu5(ReB6)4
_chemical_formula_sum   'Y3 Pu5 Re4 B24'
_cell_volume   390.09922700
_cell_formula_units_Z   1
loop_
 _symmetry_equiv_pos_site_id
 _symmetry_equiv_pos_as_xyz
  1  'x, y, z'
loop_
 _atom_site_type_symbol
 _atom_site_label
 _atom_site_symmetry_multiplicity
 _atom_site_fract_x
 _atom_site_fract_y
 _atom_site_fract_z
 _atom_site_occupancy
  Y  Y0  1  0.000000  0.555170  0.875106  1
  Y  Y1  1  0.000000  0.944814  0.373863  1
  Y  Y2  1  0.000000  0.054731  0.625106  1
  Pu  Pu3  1  0.000000  0.822430  0.085861  1
  Pu  Pu4  1  0.000000  0.177395  0.913082  1
  Pu  Pu5  1  0.000000  0.324430  0.412616  1
  Pu  Pu6  1  0.000000  0.674546  0.588253  1
  Pu  Pu7  1  0.000000  0.442724  0.128007  1
  Re  Re8  1  0.000000  0.143877  0.177427  1
  Re  Re9  1  0.000000  0.861712  0.822589  1
  Re  Re10  1  0.000000  0.635276  0.317123  1
  Re  Re11  1  0.000000  0.362206  0.678163  1
  B  B12  1  0.500000  0.052646  0.067315  1
  B  B13  1  0.500000  0.947936  0.933423  1
  B  B14  1  0.500000  0.552743  0.433128  1
  B  B15  1  0.500000  0.447896  0.566640  1
  B  B16  1  0.500000  0.250192  0.080856  1
  B  B17  1  0.500000  0.753274  0.920372  1
  B  B18  1  0.500000  0.746478  0.420038  1
  B  B19  1  0.500000  0.253493  0.579189  1
  B  B20  1  0.500000  0.295462  0.233867  1
  B  B21  1  0.500000  0.706463  0.766632  1
  B  B22  1  0.500000  0.793236  0.266247  1
  B  B23  1  0.500000  0.206911  0.733462  1
  B  B24  1  0.500000  0.134082  0.314275  1
  B  B25  1  0.500000  0.865353  0.685890  1
  B  B26  1  0.500000  0.631022  0.185006  1
  B  B27  1  0.500000  0.366605  0.813657  1
  B  B28  1  0.500000  0.480780  0.286212  1
  B  B29  1  0.500000  0.517805  0.713117  1
  B  B30  1  0.500000  0.983061  0.212652  1
  B  B31  1  0.500000  0.017413  0.787055  1
  B  B32  1  0.500000  0.117427  0.466972  1
  B  B33  1  0.500000  0.881676  0.532125  1
  B  B34  1  0.500000  0.607197  0.032297  1
  B  B35  1  0.500000  0.391542  0.972375  1
