# generated using pymatgen
data_Y19Ho(Bi2Os)4
_symmetry_space_group_name_H-M   'P 1'
_cell_length_a   7.98632771
_cell_length_b   9.05320147
_cell_length_c   12.54245148
_cell_angle_alpha   89.99621598
_cell_angle_beta   89.96848728
_cell_angle_gamma   89.96328672
_symmetry_Int_Tables_number   1
_chemical_formula_structural   Y19Ho(Bi2Os)4
_chemical_formula_sum   'Y19 Ho1 Bi8 Os4'
_cell_volume   906.84191686
_cell_formula_units_Z   1
loop_
 _symmetry_equiv_pos_site_id
 _symmetry_equiv_pos_as_xyz
  1  'x, y, z'
loop_
 _atom_site_type_symbol
 _atom_site_label
 _atom_site_symmetry_multiplicity
 _atom_site_fract_x
 _atom_site_fract_y
 _atom_site_fract_z
 _atom_site_occupancy
  Y  Y0  1  0.839565  0.749773  0.791466  1
  Y  Y1  1  0.160593  0.250055  0.208497  1
  Y  Y2  1  0.339338  0.250073  0.708591  1
  Y  Y3  1  0.660595  0.749936  0.291448  1
  Y  Y4  1  0.374541  0.749882  0.691302  1
  Y  Y5  1  0.625459  0.250031  0.308775  1
  Y  Y6  1  0.874687  0.250163  0.808779  1
  Y  Y7  1  0.125536  0.749762  0.191118  1
  Y  Y8  1  0.944125  0.749959  0.504281  1
  Y  Y9  1  0.055839  0.250036  0.495741  1
  Y  Y10  1  0.443901  0.250448  0.995643  1
  Y  Y11  1  0.555727  0.749724  0.004239  1
  Y  Y12  1  0.674552  0.041306  0.565235  1
  Y  Y13  1  0.325441  0.958674  0.434748  1
  Y  Y14  1  0.174453  0.958610  0.934806  1
  Y  Y15  1  0.325444  0.541318  0.434727  1
  Y  Y16  1  0.825441  0.041369  0.065227  1
  Y  Y17  1  0.674579  0.458681  0.565252  1
  Y  Y18  1  0.825677  0.458770  0.065122  1
  Ho  Ho19  1  0.172680  0.541137  0.935461  1
  Bi  Bi20  1  0.566229  0.493249  0.827631  1
  Bi  Bi21  1  0.433743  0.506722  0.172428  1
  Bi  Bi22  1  0.066487  0.506723  0.672492  1
  Bi  Bi23  1  0.433635  0.993285  0.172371  1
  Bi  Bi24  1  0.933676  0.493249  0.327608  1
  Bi  Bi25  1  0.566359  0.006718  0.827614  1
  Bi  Bi26  1  0.933687  0.006721  0.327581  1
  Bi  Bi27  1  0.066375  0.993272  0.672424  1
  Os  Os28  1  0.575100  0.750020  0.509667  1
  Os  Os29  1  0.424890  0.249996  0.490390  1
  Os  Os30  1  0.075657  0.251243  0.990068  1
  Os  Os31  1  0.925989  0.749095  0.009268  1
