# generated using pymatgen
data_Li6CdIn11Pd6
_symmetry_space_group_name_H-M   'P 1'
_cell_length_a   4.64296045
_cell_length_b   6.77427001
_cell_length_c   13.75858007
_cell_angle_alpha   89.99740944
_cell_angle_beta   90.83911562
_cell_angle_gamma   89.99382096
_symmetry_Int_Tables_number   1
_chemical_formula_structural   Li6CdIn11Pd6
_chemical_formula_sum   'Li6 Cd1 In11 Pd6'
_cell_volume   432.69763651
_cell_formula_units_Z   1
loop_
 _symmetry_equiv_pos_site_id
 _symmetry_equiv_pos_as_xyz
  1  'x, y, z'
loop_
 _atom_site_type_symbol
 _atom_site_label
 _atom_site_symmetry_multiplicity
 _atom_site_fract_x
 _atom_site_fract_y
 _atom_site_fract_z
 _atom_site_occupancy
  Li  Li0  1  0.000576  0.999098  0.999270  1
  Li  Li1  1  0.499774  0.500471  0.166385  1
  Li  Li2  1  0.999453  0.999374  0.333222  1
  Li  Li3  1  0.499920  0.499538  0.500066  1
  Li  Li4  1  0.000703  0.998120  0.667430  1
  Li  Li5  1  0.499698  0.502115  0.833279  1
  Cd  Cd6  1  0.999835  0.750822  0.833508  1
  In  In7  1  0.500417  0.251497  0.999753  1
  In  In8  1  0.499862  0.749241  0.997520  1
  In  In9  1  0.999592  0.249153  0.167008  1
  In  In10  1  0.999725  0.750946  0.166196  1
  In  In11  1  0.499384  0.250998  0.333139  1
  In  In12  1  0.499376  0.749251  0.333296  1
  In  In13  1  0.000143  0.248675  0.499926  1
  In  In14  1  0.000223  0.750660  0.500434  1
  In  In15  1  0.500569  0.251034  0.667171  1
  In  In16  1  0.500540  0.748734  0.668753  1
  In  In17  1  0.000047  0.249673  0.833276  1
  Pd  Pd18  1  0.000604  0.498064  0.002052  1
  Pd  Pd19  1  0.499758  0.998580  0.167047  1
  Pd  Pd20  1  0.999096  0.501621  0.333357  1
  Pd  Pd21  1  0.500464  0.998901  0.499517  1
  Pd  Pd22  1  0.000494  0.498682  0.665077  1
  Pd  Pd23  1  0.499746  0.004757  0.833318  1
