# generated using pymatgen
data_AcCe(Ni9P5)2
_symmetry_space_group_name_H-M   'P 1'
_cell_length_a   6.46931600
_cell_length_b   6.46931650
_cell_length_c   10.75192100
_cell_angle_alpha   90.00000000
_cell_angle_beta   90.00000000
_cell_angle_gamma   120.00000767
_symmetry_Int_Tables_number   1
_chemical_formula_structural   AcCe(Ni9P5)2
_chemical_formula_sum   'Ac1 Ce1 Ni18 P10'
_cell_volume   389.70271075
_cell_formula_units_Z   1
loop_
 _symmetry_equiv_pos_site_id
 _symmetry_equiv_pos_as_xyz
  1  'x, y, z'
loop_
 _atom_site_type_symbol
 _atom_site_label
 _atom_site_symmetry_multiplicity
 _atom_site_fract_x
 _atom_site_fract_y
 _atom_site_fract_z
 _atom_site_occupancy
  Ac  Ac0  1  0.000000  0.000000  0.500000  1
  Ce  Ce1  1  0.000000  0.000000  0.000000  1
  Ni  Ni2  1  0.464301  0.928601  0.894966  1
  Ni  Ni3  1  0.928601  0.464301  0.105034  1
  Ni  Ni4  1  0.535699  0.071399  0.105034  1
  Ni  Ni5  1  0.070414  0.535207  0.607528  1
  Ni  Ni6  1  0.202035  0.404071  0.247473  1
  Ni  Ni7  1  0.797965  0.202035  0.752527  1
  Ni  Ni8  1  0.404071  0.202035  0.752527  1
  Ni  Ni9  1  0.595929  0.797965  0.247473  1
  Ni  Ni10  1  0.202035  0.797965  0.247473  1
  Ni  Ni11  1  0.797965  0.595929  0.752527  1
  Ni  Ni12  1  0.464793  0.929586  0.607528  1
  Ni  Ni13  1  0.535207  0.464793  0.392472  1
  Ni  Ni14  1  0.929586  0.464793  0.392472  1
  Ni  Ni15  1  0.071399  0.535699  0.894966  1
  Ni  Ni16  1  0.464301  0.535699  0.894966  1
  Ni  Ni17  1  0.535207  0.070414  0.392472  1
  Ni  Ni18  1  0.535699  0.464301  0.105034  1
  Ni  Ni19  1  0.464793  0.535207  0.607528  1
  P  P20  1  0.174161  0.348322  0.752492  1
  P  P21  1  0.825839  0.174161  0.247508  1
  P  P22  1  0.174161  0.825839  0.752492  1
  P  P23  1  0.825839  0.651678  0.247508  1
  P  P24  1  0.333333  0.666667  0.438719  1
  P  P25  1  0.666667  0.333333  0.937786  1
  P  P26  1  0.666667  0.333333  0.561281  1
  P  P27  1  0.333333  0.666667  0.062214  1
  P  P28  1  0.348322  0.174161  0.247508  1
  P  P29  1  0.651678  0.825839  0.752492  1
