# generated using pymatgen
data_Tb4Sm3Th(ReB6)4
_symmetry_space_group_name_H-M   'P 1'
_cell_length_a   3.74236500
_cell_length_b   9.25051488
_cell_length_c   11.67805704
_cell_angle_alpha   90.05719520
_cell_angle_beta   90.00000000
_cell_angle_gamma   90.00000000
_symmetry_Int_Tables_number   1
_chemical_formula_structural   Tb4Sm3Th(ReB6)4
_chemical_formula_sum   'Tb4 Sm3 Th1 Re4 B24'
_cell_volume   404.28015620
_cell_formula_units_Z   1
loop_
 _symmetry_equiv_pos_site_id
 _symmetry_equiv_pos_as_xyz
  1  'x, y, z'
loop_
 _atom_site_type_symbol
 _atom_site_label
 _atom_site_symmetry_multiplicity
 _atom_site_fract_x
 _atom_site_fract_y
 _atom_site_fract_z
 _atom_site_occupancy
  Tb  Tb0  1  0.000000  0.941786  0.369122  1
  Tb  Tb1  1  0.000000  0.056758  0.631334  1
  Tb  Tb2  1  0.000000  0.443001  0.129198  1
  Tb  Tb3  1  0.000000  0.557629  0.869641  1
  Sm  Sm4  1  0.000000  0.677491  0.586832  1
  Sm  Sm5  1  0.000000  0.823458  0.085279  1
  Sm  Sm6  1  0.000000  0.176039  0.913997  1
  Th  Th7  1  0.000000  0.322766  0.414276  1
  Re  Re8  1  0.000000  0.637553  0.320791  1
  Re  Re9  1  0.000000  0.361897  0.679444  1
  Re  Re10  1  0.000000  0.139018  0.179671  1
  Re  Re11  1  0.000000  0.861612  0.820497  1
  B  B12  1  0.500000  0.554869  0.431101  1
  B  B13  1  0.500000  0.445616  0.569427  1
  B  B14  1  0.500000  0.054153  0.068121  1
  B  B15  1  0.500000  0.945962  0.931710  1
  B  B16  1  0.500000  0.748988  0.416437  1
  B  B17  1  0.500000  0.251538  0.584619  1
  B  B18  1  0.500000  0.248492  0.082637  1
  B  B19  1  0.500000  0.751349  0.916797  1
  B  B20  1  0.500000  0.790451  0.265845  1
  B  B21  1  0.500000  0.209504  0.734642  1
  B  B22  1  0.500000  0.290166  0.233189  1
  B  B23  1  0.500000  0.709296  0.766120  1
  B  B24  1  0.500000  0.630724  0.185926  1
  B  B25  1  0.500000  0.369935  0.813908  1
  B  B26  1  0.500000  0.130073  0.312739  1
  B  B27  1  0.500000  0.869593  0.686767  1
  B  B28  1  0.500000  0.984184  0.211890  1
  B  B29  1  0.500000  0.015727  0.787951  1
  B  B30  1  0.500000  0.485200  0.286868  1
  B  B31  1  0.500000  0.516147  0.713220  1
  B  B32  1  0.500000  0.598954  0.027370  1
  B  B33  1  0.500000  0.401435  0.972067  1
  B  B34  1  0.500000  0.097892  0.472635  1
  B  B35  1  0.500000  0.900740  0.527925  1
