# generated using pymatgen
data_Tb7Dy(TmPb3)2
_symmetry_space_group_name_H-M   'P 1'
_cell_length_a   9.07003700
_cell_length_b   9.07003772
_cell_length_c   6.64625500
_cell_angle_alpha   90.00000000
_cell_angle_beta   90.00000000
_cell_angle_gamma   120.00000101
_symmetry_Int_Tables_number   1
_chemical_formula_structural   Tb7Dy(TmPb3)2
_chemical_formula_sum   'Tb7 Dy1 Tm2 Pb6'
_cell_volume   473.50631920
_cell_formula_units_Z   1
loop_
 _symmetry_equiv_pos_site_id
 _symmetry_equiv_pos_as_xyz
  1  'x, y, z'
loop_
 _atom_site_type_symbol
 _atom_site_label
 _atom_site_symmetry_multiplicity
 _atom_site_fract_x
 _atom_site_fract_y
 _atom_site_fract_z
 _atom_site_occupancy
  Tb  Tb0  1  0.666667  0.333333  0.500000  1
  Tb  Tb1  1  0.761340  0.761380  0.750589  1
  Tb  Tb2  1  0.238620  0.999960  0.750589  1
  Tb  Tb3  1  0.000040  0.238660  0.750589  1
  Tb  Tb4  1  0.238620  0.238660  0.249411  1
  Tb  Tb5  1  0.761340  0.999960  0.249411  1
  Tb  Tb6  1  0.000040  0.761380  0.249411  1
  Dy  Dy7  1  0.333333  0.666667  0.500000  1
  Tm  Tm8  1  0.666667  0.333333  0.000000  1
  Tm  Tm9  1  0.333333  0.666667  0.000000  1
  Pb  Pb10  1  0.395156  0.395307  0.751813  1
  Pb  Pb11  1  0.604693  0.999849  0.751813  1
  Pb  Pb12  1  0.000151  0.604844  0.751813  1
  Pb  Pb13  1  0.604693  0.604844  0.248187  1
  Pb  Pb14  1  0.395156  0.999849  0.248187  1
  Pb  Pb15  1  0.000151  0.395307  0.248187  1
