# generated using pymatgen
data_SrNdH3Pd17
_symmetry_space_group_name_H-M   'P 1'
_cell_length_a   7.03454690
_cell_length_b   7.03454701
_cell_length_c   7.03454751
_cell_angle_alpha   82.81960023
_cell_angle_beta   82.81960706
_cell_angle_gamma   82.81960343
_symmetry_Int_Tables_number   1
_chemical_formula_structural   SrNdH3Pd17
_chemical_formula_sum   'Sr1 Nd1 H3 Pd17'
_cell_volume   340.54336185
_cell_formula_units_Z   1
loop_
 _symmetry_equiv_pos_site_id
 _symmetry_equiv_pos_as_xyz
  1  'x, y, z'
loop_
 _atom_site_type_symbol
 _atom_site_label
 _atom_site_symmetry_multiplicity
 _atom_site_fract_x
 _atom_site_fract_y
 _atom_site_fract_z
 _atom_site_occupancy
  Sr  Sr0  1  0.664268  0.664268  0.664268  1
  Nd  Nd1  1  0.330628  0.330628  0.330628  1
  H  H2  1  0.499423  0.499423  0.001489  1
  H  H3  1  0.001489  0.499423  0.499423  1
  H  H4  1  0.499423  0.001489  0.499423  1
  Pd  Pd5  1  0.999884  0.999884  0.499951  1
  Pd  Pd6  1  0.499951  0.999884  0.999884  1
  Pd  Pd7  1  0.999884  0.499951  0.999884  1
  Pd  Pd8  1  0.702539  0.296254  0.001928  1
  Pd  Pd9  1  0.001928  0.702539  0.296254  1
  Pd  Pd10  1  0.296254  0.001928  0.702539  1
  Pd  Pd11  1  0.001928  0.296254  0.702539  1
  Pd  Pd12  1  0.702539  0.001928  0.296254  1
  Pd  Pd13  1  0.296254  0.702539  0.001928  1
  Pd  Pd14  1  0.348553  0.348553  0.848695  1
  Pd  Pd15  1  0.848695  0.348553  0.348553  1
  Pd  Pd16  1  0.348553  0.848695  0.348553  1
  Pd  Pd17  1  0.649263  0.649263  0.155162  1
  Pd  Pd18  1  0.155162  0.649263  0.649263  1
  Pd  Pd19  1  0.649263  0.155162  0.649263  1
  Pd  Pd20  1  0.902526  0.902526  0.902526  1
  Pd  Pd21  1  0.101595  0.101595  0.101595  1
