# generated using pymatgen
data_TbY3Hf4F28
_symmetry_space_group_name_H-M   'P 1'
_cell_length_a   5.71636120
_cell_length_b   9.06805528
_cell_length_c   12.19742506
_cell_angle_alpha   62.30087298
_cell_angle_beta   90.01050812
_cell_angle_gamma   90.00030672
_symmetry_Int_Tables_number   1
_chemical_formula_structural   TbY3Hf4F28
_chemical_formula_sum   'Tb1 Y3 Hf4 F28'
_cell_volume   559.81152653
_cell_formula_units_Z   1
loop_
 _symmetry_equiv_pos_site_id
 _symmetry_equiv_pos_as_xyz
  1  'x, y, z'
loop_
 _atom_site_type_symbol
 _atom_site_label
 _atom_site_symmetry_multiplicity
 _atom_site_fract_x
 _atom_site_fract_y
 _atom_site_fract_z
 _atom_site_occupancy
  Tb  Tb0  1  0.242715  0.814394  0.766169  1
  Y  Y1  1  0.257311  0.814415  0.266155  1
  Y  Y2  1  0.742655  0.185878  0.733853  1
  Y  Y3  1  0.757299  0.185608  0.233841  1
  Hf  Hf4  1  0.756279  0.725755  0.045108  1
  Hf  Hf5  1  0.243544  0.273998  0.955222  1
  Hf  Hf6  1  0.256585  0.274382  0.455058  1
  Hf  Hf7  1  0.743717  0.725668  0.544607  1
  F  F8  1  0.962319  0.708817  0.422622  1
  F  F9  1  0.037765  0.291049  0.577028  1
  F  F10  1  0.462224  0.290889  0.077193  1
  F  F11  1  0.537409  0.709243  0.923012  1
  F  F12  1  0.488467  0.732959  0.148380  1
  F  F13  1  0.511620  0.267158  0.851934  1
  F  F14  1  0.988864  0.266970  0.351655  1
  F  F15  1  0.011974  0.732905  0.647692  1
  F  F16  1  0.966655  0.744446  0.171652  1
  F  F17  1  0.033355  0.255343  0.828605  1
  F  F18  1  0.467003  0.255411  0.328639  1
  F  F19  1  0.534052  0.744478  0.671249  1
  F  F20  1  0.771462  0.477000  0.140615  1
  F  F21  1  0.227948  0.522620  0.859631  1
  F  F22  1  0.271756  0.523055  0.359329  1
  F  F23  1  0.728244  0.477000  0.640492  1
  F  F24  1  0.955162  0.278897  0.048990  1
  F  F25  1  0.044527  0.720922  0.951290  1
  F  F26  1  0.455049  0.720827  0.451058  1
  F  F27  1  0.545019  0.279187  0.548849  1
  F  F28  1  0.740329  0.974056  0.443059  1
  F  F29  1  0.259887  0.025947  0.557016  1
  F  F30  1  0.240178  0.025625  0.056870  1
  F  F31  1  0.759757  0.974077  0.943244  1
  F  F32  1  0.574831  0.973322  0.232887  1
  F  F33  1  0.425046  0.027608  0.767124  1
  F  F34  1  0.074837  0.026667  0.267136  1
  F  F35  1  0.924156  0.973423  0.732736  1
