# generated using pymatgen
data_CsU6O18
_symmetry_space_group_name_H-M   'P 1'
_cell_length_a   9.10428026
_cell_length_b   9.10428093
_cell_length_c   9.10428089
_cell_angle_alpha   127.15605575
_cell_angle_beta   125.33566156
_cell_angle_gamma   79.49312178
_symmetry_Int_Tables_number   1
_chemical_formula_structural   CsU6O18
_chemical_formula_sum   'Cs1 U6 O18'
_cell_volume   474.18502602
_cell_formula_units_Z   1
loop_
 _symmetry_equiv_pos_site_id
 _symmetry_equiv_pos_as_xyz
  1  'x, y, z'
loop_
 _atom_site_type_symbol
 _atom_site_label
 _atom_site_symmetry_multiplicity
 _atom_site_fract_x
 _atom_site_fract_y
 _atom_site_fract_z
 _atom_site_occupancy
  Cs  Cs0  1  0.000000  0.000000  0.000000  1
  U  U1  1  0.000000  0.000000  0.500000  1
  U  U2  1  0.000000  0.500000  0.000000  1
  U  U3  1  0.500000  0.000000  0.000000  1
  U  U4  1  0.500000  0.500000  0.500000  1
  U  U5  1  0.250345  0.500000  0.750345  1
  U  U6  1  0.749655  0.500000  0.249655  1
  O  O7  1  0.750577  0.000167  0.249589  1
  O  O8  1  0.648430  0.210244  0.069034  1
  O  O9  1  0.141210  0.210244  0.561814  1
  O  O10  1  0.964575  0.210315  0.754259  1
  O  O11  1  0.456056  0.210315  0.245741  1
  O  O12  1  0.648430  0.579395  0.438186  1
  O  O13  1  0.141210  0.579395  0.930966  1
  O  O14  1  0.249423  0.999833  0.750411  1
  O  O15  1  0.249423  0.499012  0.249589  1
  O  O16  1  0.750577  0.500988  0.750411  1
  O  O17  1  0.351570  0.420605  0.561814  1
  O  O18  1  0.858790  0.420605  0.069034  1
  O  O19  1  0.035425  0.789685  0.245741  1
  O  O20  1  0.500000  0.500000  0.000000  1
  O  O21  1  0.000000  0.500000  0.500000  1
  O  O22  1  0.543944  0.789685  0.754259  1
  O  O23  1  0.351570  0.789756  0.930966  1
  O  O24  1  0.858790  0.789756  0.438186  1
