# generated using pymatgen
data_Y2ThAlIn2Ir3
_symmetry_space_group_name_H-M   'P 1'
_cell_length_a   7.52886026
_cell_length_b   7.52886070
_cell_length_c   3.92593000
_cell_angle_alpha   90.00000000
_cell_angle_beta   90.00000000
_cell_angle_gamma   119.84710473
_symmetry_Int_Tables_number   1
_chemical_formula_structural   Y2ThAlIn2Ir3
_chemical_formula_sum   'Y2 Th1 Al1 In2 Ir3'
_cell_volume   193.01840759
_cell_formula_units_Z   1
loop_
 _symmetry_equiv_pos_site_id
 _symmetry_equiv_pos_as_xyz
  1  'x, y, z'
loop_
 _atom_site_type_symbol
 _atom_site_label
 _atom_site_symmetry_multiplicity
 _atom_site_fract_x
 _atom_site_fract_y
 _atom_site_fract_z
 _atom_site_occupancy
  Y  Y0  1  0.409985  0.008588  0.500000  1
  Y  Y1  1  0.008588  0.409985  0.500000  1
  Th  Th2  1  0.568709  0.568709  0.500000  1
  Al  Al3  1  0.236301  0.236301  0.000000  1
  In  In4  1  0.748567  0.010098  0.000000  1
  In  In5  1  0.010098  0.748567  0.000000  1
  Ir  Ir6  1  0.342876  0.653042  0.000000  1
  Ir  Ir7  1  0.653042  0.342876  0.000000  1
  Ir  Ir8  1  0.021835  0.021835  0.500000  1
