# generated using pymatgen
data_Nd4Gd2YRhO12
_symmetry_space_group_name_H-M   'P 1'
_cell_length_a   6.80780692
_cell_length_b   6.82441681
_cell_length_c   6.82364535
_cell_angle_alpha   95.98903597
_cell_angle_beta   95.89604319
_cell_angle_gamma   96.05304644
_symmetry_Int_Tables_number   1
_chemical_formula_structural   Nd4Gd2YRhO12
_chemical_formula_sum   'Nd4 Gd2 Y1 Rh1 O12'
_cell_volume   311.45384535
_cell_formula_units_Z   1
loop_
 _symmetry_equiv_pos_site_id
 _symmetry_equiv_pos_as_xyz
  1  'x, y, z'
loop_
 _atom_site_type_symbol
 _atom_site_label
 _atom_site_symmetry_multiplicity
 _atom_site_fract_x
 _atom_site_fract_y
 _atom_site_fract_z
 _atom_site_occupancy
  Nd  Nd0  1  0.728686  0.908488  0.421607  1
  Nd  Nd1  1  0.423171  0.729353  0.905087  1
  Nd  Nd2  1  0.094882  0.580194  0.273333  1
  Nd  Nd3  1  0.907439  0.421412  0.732353  1
  Gd  Gd4  1  0.576419  0.267035  0.090355  1
  Gd  Gd5  1  0.268434  0.092524  0.578703  1
  Y  Y6  1  0.003528  0.004317  0.002731  1
  Rh  Rh7  1  0.499354  0.497458  0.499306  1
  O  O8  1  0.067302  0.923428  0.318363  1
  O  O9  1  0.684738  0.940942  0.080845  1
  O  O10  1  0.441155  0.796322  0.574462  1
  O  O11  1  0.083117  0.686887  0.939348  1
  O  O12  1  0.797216  0.579804  0.450352  1
  O  O13  1  0.424962  0.544554  0.201629  1
  O  O14  1  0.577175  0.444062  0.797450  1
  O  O15  1  0.204698  0.413955  0.551807  1
  O  O16  1  0.912510  0.317396  0.065590  1
  O  O17  1  0.545108  0.202558  0.416660  1
  O  O18  1  0.318761  0.068568  0.915231  1
  O  O19  1  0.941345  0.080743  0.684788  1
