# generated using pymatgen
data_Dy8Al(Pd3Pt5)3
_symmetry_space_group_name_H-M   'P 1'
_cell_length_a   8.33738736
_cell_length_b   8.33738672
_cell_length_c   8.33738700
_cell_angle_alpha   90.01689175
_cell_angle_beta   90.01689175
_cell_angle_gamma   89.98311015
_symmetry_Int_Tables_number   1
_chemical_formula_structural   Dy8Al(Pd3Pt5)3
_chemical_formula_sum   'Dy8 Al1 Pd9 Pt15'
_cell_volume   579.54855895
_cell_formula_units_Z   1
loop_
 _symmetry_equiv_pos_site_id
 _symmetry_equiv_pos_as_xyz
  1  'x, y, z'
loop_
 _atom_site_type_symbol
 _atom_site_label
 _atom_site_symmetry_multiplicity
 _atom_site_fract_x
 _atom_site_fract_y
 _atom_site_fract_z
 _atom_site_occupancy
  Dy  Dy0  1  0.251850  0.251850  0.748150  1
  Dy  Dy1  1  0.252125  0.748016  0.251984  1
  Dy  Dy2  1  0.748016  0.252125  0.251984  1
  Dy  Dy3  1  0.748016  0.748016  0.747875  1
  Dy  Dy4  1  0.748098  0.748098  0.251902  1
  Dy  Dy5  1  0.748195  0.252100  0.747900  1
  Dy  Dy6  1  0.252100  0.748195  0.747900  1
  Dy  Dy7  1  0.252100  0.252100  0.251805  1
  Al  Al8  1  0.000120  0.000120  0.999880  1
  Pd  Pd9  1  0.499828  0.499828  0.252806  1
  Pd  Pd10  1  0.499828  0.747194  0.500172  1
  Pd  Pd11  1  0.747194  0.499828  0.500172  1
  Pd  Pd12  1  0.999850  0.999850  0.710470  1
  Pd  Pd13  1  0.999850  0.289530  0.000150  1
  Pd  Pd14  1  0.289530  0.999850  0.000150  1
  Pd  Pd15  1  0.999816  0.999816  0.289138  1
  Pd  Pd16  1  0.999816  0.710862  0.000184  1
  Pd  Pd17  1  0.710862  0.999816  0.000184  1
  Pt  Pt18  1  0.499651  0.499651  0.747368  1
  Pt  Pt19  1  0.499651  0.252632  0.500349  1
  Pt  Pt20  1  0.252632  0.499651  0.500349  1
  Pt  Pt21  1  0.000103  0.500177  0.740773  1
  Pt  Pt22  1  0.500177  0.259227  0.999897  1
  Pt  Pt23  1  0.259227  0.000103  0.499823  1
  Pt  Pt24  1  0.000103  0.259227  0.499823  1
  Pt  Pt25  1  0.500177  0.000103  0.740773  1
  Pt  Pt26  1  0.259227  0.500177  0.999897  1
  Pt  Pt27  1  0.000216  0.500131  0.259416  1
  Pt  Pt28  1  0.500131  0.740584  0.999784  1
  Pt  Pt29  1  0.000216  0.740584  0.499869  1
  Pt  Pt30  1  0.500131  0.000216  0.259416  1
  Pt  Pt31  1  0.740584  0.000216  0.499869  1
  Pt  Pt32  1  0.740584  0.500131  0.999784  1
