# generated using pymatgen
data_Ho4Er4Ti11Si16Mo
_symmetry_space_group_name_H-M   'P 1'
_cell_length_a   7.01720717
_cell_length_b   7.01734000
_cell_length_c   12.89275408
_cell_angle_alpha   89.97553250
_cell_angle_beta   90.02862956
_cell_angle_gamma   90.01422381
_symmetry_Int_Tables_number   1
_chemical_formula_structural   Ho4Er4Ti11Si16Mo
_chemical_formula_sum   'Ho4 Er4 Ti11 Si16 Mo1'
_cell_volume   634.86649709
_cell_formula_units_Z   1
loop_
 _symmetry_equiv_pos_site_id
 _symmetry_equiv_pos_as_xyz
  1  'x, y, z'
loop_
 _atom_site_type_symbol
 _atom_site_label
 _atom_site_symmetry_multiplicity
 _atom_site_fract_x
 _atom_site_fract_y
 _atom_site_fract_z
 _atom_site_occupancy
  Ho  Ho0  1  0.340947  0.002748  0.466989  1
  Ho  Ho1  1  0.497474  0.840566  0.717380  1
  Ho  Ho2  1  0.500961  0.159232  0.215574  1
  Ho  Ho3  1  0.840625  0.497488  0.282652  1
  Er  Er4  1  0.159148  0.500834  0.784451  1
  Er  Er5  1  0.657543  0.999043  0.967057  1
  Er  Er6  1  0.002699  0.341053  0.533015  1
  Er  Er7  1  0.999076  0.657558  0.032938  1
  Ti  Ti8  1  0.173811  0.827465  0.249538  1
  Ti  Ti9  1  0.827525  0.173909  0.750463  1
  Ti  Ti10  1  0.673006  0.672904  0.500002  1
  Ti  Ti11  1  0.152900  0.008472  0.876106  1
  Ti  Ti12  1  0.492282  0.651005  0.124124  1
  Ti  Ti13  1  0.506874  0.349099  0.625994  1
  Ti  Ti14  1  0.650980  0.492276  0.875859  1
  Ti  Ti15  1  0.349021  0.506879  0.374035  1
  Ti  Ti16  1  0.848631  0.992787  0.375423  1
  Ti  Ti17  1  0.008460  0.152931  0.123879  1
  Ti  Ti18  1  0.992805  0.848620  0.624608  1
  Si  Si19  1  0.202717  0.131402  0.683765  1
  Si  Si20  1  0.369164  0.702036  0.933679  1
  Si  Si21  1  0.631345  0.296866  0.433673  1
  Si  Si22  1  0.702131  0.369263  0.066234  1
  Si  Si23  1  0.296742  0.631125  0.566375  1
  Si  Si24  1  0.797078  0.868769  0.183655  1
  Si  Si25  1  0.131161  0.202867  0.316242  1
  Si  Si26  1  0.868850  0.796986  0.816362  1
  Si  Si27  1  0.290889  0.953331  0.064576  1
  Si  Si28  1  0.546470  0.791686  0.314746  1
  Si  Si29  1  0.452640  0.208407  0.815259  1
  Si  Si30  1  0.791910  0.546350  0.685248  1
  Si  Si31  1  0.208305  0.452714  0.184759  1
  Si  Si32  1  0.708714  0.047239  0.564731  1
  Si  Si33  1  0.953408  0.290981  0.935361  1
  Si  Si34  1  0.047127  0.708490  0.435295  1
  Mo  Mo35  1  0.326583  0.326621  0.999953  1
