# generated using pymatgen
data_Tb7Ho(TmBi)12
_symmetry_space_group_name_H-M   'P 1'
_cell_length_a   8.22411241
_cell_length_b   9.43325400
_cell_length_c   12.03932800
_cell_angle_alpha   90.00000000
_cell_angle_beta   89.98190024
_cell_angle_gamma   90.00000000
_symmetry_Int_Tables_number   1
_chemical_formula_structural   Tb7Ho(TmBi)12
_chemical_formula_sum   'Tb7 Ho1 Tm12 Bi12'
_cell_volume   934.01272069
_cell_formula_units_Z   1
loop_
 _symmetry_equiv_pos_site_id
 _symmetry_equiv_pos_as_xyz
  1  'x, y, z'
loop_
 _atom_site_type_symbol
 _atom_site_label
 _atom_site_symmetry_multiplicity
 _atom_site_fract_x
 _atom_site_fract_y
 _atom_site_fract_z
 _atom_site_occupancy
  Tb  Tb0  1  0.186513  0.750000  0.718503  1
  Tb  Tb1  1  0.686049  0.750000  0.781240  1
  Tb  Tb2  1  0.813658  0.250000  0.281457  1
  Tb  Tb3  1  0.313638  0.250000  0.218591  1
  Tb  Tb4  1  0.353740  0.750000  0.216127  1
  Tb  Tb5  1  0.853935  0.750000  0.283724  1
  Tb  Tb6  1  0.645835  0.250000  0.783666  1
  Ho  Ho7  1  0.146261  0.250000  0.716410  1
  Tm  Tm8  1  0.025090  0.750000  0.988692  1
  Tm  Tm9  1  0.524719  0.750000  0.511442  1
  Tm  Tm10  1  0.975500  0.250000  0.011035  1
  Tm  Tm11  1  0.475036  0.250000  0.488663  1
  Tm  Tm12  1  0.307249  0.433940  0.940339  1
  Tm  Tm13  1  0.807336  0.065848  0.559479  1
  Tm  Tm14  1  0.692677  0.934203  0.059472  1
  Tm  Tm15  1  0.192613  0.565793  0.440664  1
  Tm  Tm16  1  0.692677  0.565797  0.059472  1
  Tm  Tm17  1  0.192613  0.934207  0.440664  1
  Tm  Tm18  1  0.307249  0.066060  0.940339  1
  Tm  Tm19  1  0.807336  0.434152  0.559479  1
  Bi  Bi20  1  0.433622  0.004328  0.672485  1
  Bi  Bi21  1  0.934268  0.495349  0.827447  1
  Bi  Bi22  1  0.566083  0.504059  0.327591  1
  Bi  Bi23  1  0.066081  0.995895  0.172369  1
  Bi  Bi24  1  0.566083  0.995941  0.327591  1
  Bi  Bi25  1  0.066081  0.504105  0.172369  1
  Bi  Bi26  1  0.433622  0.495672  0.672485  1
  Bi  Bi27  1  0.934268  0.004651  0.827447  1
  Bi  Bi28  1  0.406263  0.750000  0.957363  1
  Bi  Bi29  1  0.906081  0.750000  0.542479  1
  Bi  Bi30  1  0.593802  0.250000  0.042660  1
  Bi  Bi31  1  0.094021  0.250000  0.458256  1
