# generated using pymatgen
data_YEr19(Ga2Pb)4
_symmetry_space_group_name_H-M   'P 1'
_cell_length_a   7.82209406
_cell_length_b   7.82233407
_cell_length_c   13.76544623
_cell_angle_alpha   89.98475507
_cell_angle_beta   89.98588492
_cell_angle_gamma   90.00011626
_symmetry_Int_Tables_number   1
_chemical_formula_structural   YEr19(Ga2Pb)4
_chemical_formula_sum   'Y1 Er19 Ga8 Pb4'
_cell_volume   842.26675511
_cell_formula_units_Z   1
loop_
 _symmetry_equiv_pos_site_id
 _symmetry_equiv_pos_as_xyz
  1  'x, y, z'
loop_
 _atom_site_type_symbol
 _atom_site_label
 _atom_site_symmetry_multiplicity
 _atom_site_fract_x
 _atom_site_fract_y
 _atom_site_fract_z
 _atom_site_occupancy
  Y  Y0  1  0.339515  0.338556  0.105724  1
  Er  Er1  1  0.839734  0.838576  0.892910  1
  Er  Er2  1  0.161391  0.160228  0.607139  1
  Er  Er3  1  0.839683  0.161319  0.392822  1
  Er  Er4  1  0.160179  0.838544  0.392823  1
  Er  Er5  1  0.338687  0.339809  0.392794  1
  Er  Er6  1  0.838665  0.160333  0.107410  1
  Er  Er7  1  0.338555  0.660648  0.892706  1
  Er  Er8  1  0.161512  0.839784  0.107414  1
  Er  Er9  1  0.500042  0.999884  0.751571  1
  Er  Er10  1  0.999589  0.500187  0.248836  1
  Er  Er11  1  0.339726  0.661464  0.607228  1
  Er  Er12  1  0.660654  0.661796  0.107474  1
  Er  Er13  1  0.660298  0.338555  0.607226  1
  Er  Er14  1  0.999882  0.500031  0.748546  1
  Er  Er15  1  0.838685  0.839823  0.607121  1
  Er  Er16  1  0.661812  0.339735  0.892709  1
  Er  Er17  1  0.159815  0.160977  0.892570  1
  Er  Er18  1  0.500184  0.999621  0.251814  1
  Er  Er19  1  0.661404  0.660266  0.392826  1
  Ga  Ga20  1  0.632384  0.367701  0.250064  1
  Ga  Ga21  1  0.367727  0.632418  0.250110  1
  Ga  Ga22  1  0.132320  0.132339  0.250036  1
  Ga  Ga23  1  0.367523  0.367455  0.750039  1
  Ga  Ga24  1  0.132515  0.867513  0.750117  1
  Ga  Ga25  1  0.867619  0.867599  0.249984  1
  Ga  Ga26  1  0.632452  0.632509  0.750060  1
  Ga  Ga27  1  0.867479  0.132490  0.750109  1
  Pb  Pb28  1  0.999519  0.500380  0.999962  1
  Pb  Pb29  1  0.500398  0.999462  0.000218  1
  Pb  Pb30  1  0.500000  0.000030  0.499915  1
  Pb  Pb31  1  0.000051  0.499967  0.499724  1
