# generated using pymatgen
data_Th3Co9(NiB2)2
_symmetry_space_group_name_H-M   'P 1'
_cell_length_a   5.04085700
_cell_length_b   5.04085669
_cell_length_c   10.06087900
_cell_angle_alpha   90.00000000
_cell_angle_beta   90.00000000
_cell_angle_gamma   120.00002169
_symmetry_Int_Tables_number   1
_chemical_formula_structural   Th3Co9(NiB2)2
_chemical_formula_sum   'Th3 Co9 Ni2 B4'
_cell_volume   221.39876360
_cell_formula_units_Z   1
loop_
 _symmetry_equiv_pos_site_id
 _symmetry_equiv_pos_as_xyz
  1  'x, y, z'
loop_
 _atom_site_type_symbol
 _atom_site_label
 _atom_site_symmetry_multiplicity
 _atom_site_fract_x
 _atom_site_fract_y
 _atom_site_fract_z
 _atom_site_occupancy
  Th  Th0  1  0.000000  0.000000  0.661361  1
  Th  Th1  1  0.000000  0.000000  0.338639  1
  Th  Th2  1  0.000000  0.000000  0.000000  1
  Co  Co3  1  0.500000  0.500000  0.500000  1
  Co  Co4  1  0.000000  0.500000  0.500000  1
  Co  Co5  1  0.500000  0.000000  0.204544  1
  Co  Co6  1  0.500000  0.500000  0.204544  1
  Co  Co7  1  0.000000  0.500000  0.204544  1
  Co  Co8  1  0.500000  0.000000  0.795456  1
  Co  Co9  1  0.500000  0.500000  0.795456  1
  Co  Co10  1  0.000000  0.500000  0.795456  1
  Co  Co11  1  0.500000  0.000000  0.500000  1
  Ni  Ni12  1  0.333333  0.666667  0.000000  1
  Ni  Ni13  1  0.666667  0.333333  0.000000  1
  B  B14  1  0.333333  0.666667  0.650795  1
  B  B15  1  0.666667  0.333333  0.650795  1
  B  B16  1  0.666667  0.333333  0.349205  1
  B  B17  1  0.333333  0.666667  0.349205  1
