# generated using pymatgen
data_Ca2Si7(NiRu)6
_symmetry_space_group_name_H-M   'P 1'
_cell_length_a   9.47181200
_cell_length_b   9.47181043
_cell_length_c   3.76582200
_cell_angle_alpha   90.00000000
_cell_angle_beta   90.00000000
_cell_angle_gamma   120.00001153
_symmetry_Int_Tables_number   1
_chemical_formula_structural   Ca2Si7(NiRu)6
_chemical_formula_sum   'Ca2 Si7 Ni6 Ru6'
_cell_volume   292.58795022
_cell_formula_units_Z   1
loop_
 _symmetry_equiv_pos_site_id
 _symmetry_equiv_pos_as_xyz
  1  'x, y, z'
loop_
 _atom_site_type_symbol
 _atom_site_label
 _atom_site_symmetry_multiplicity
 _atom_site_fract_x
 _atom_site_fract_y
 _atom_site_fract_z
 _atom_site_occupancy
  Ca  Ca0  1  0.000000  0.000000  0.000000  1
  Ca  Ca1  1  0.666667  0.333333  0.500000  1
  Si  Si2  1  0.619626  0.555901  0.000000  1
  Si  Si3  1  0.936275  0.380374  0.000000  1
  Si  Si4  1  0.444099  0.063725  0.000000  1
  Si  Si5  1  0.732003  0.951839  0.500000  1
  Si  Si6  1  0.219836  0.267997  0.500000  1
  Si  Si7  1  0.048161  0.780164  0.500000  1
  Si  Si8  1  0.333333  0.666667  0.000000  1
  Ni  Ni9  1  0.391459  0.294952  0.000000  1
  Ni  Ni10  1  0.903492  0.608541  0.000000  1
  Ni  Ni11  1  0.705048  0.096508  0.000000  1
  Ni  Ni12  1  0.609921  0.791450  0.000000  1
  Ni  Ni13  1  0.181529  0.390079  0.000000  1
  Ni  Ni14  1  0.208550  0.818471  0.000000  1
  Ru  Ru15  1  0.769428  0.713859  0.500000  1
  Ru  Ru16  1  0.944432  0.230572  0.500000  1
  Ru  Ru17  1  0.286141  0.055568  0.500000  1
  Ru  Ru18  1  0.426411  0.548788  0.500000  1
  Ru  Ru19  1  0.122377  0.573589  0.500000  1
  Ru  Ru20  1  0.451212  0.877623  0.500000  1
