# generated using pymatgen
data_Pt(SeBr2)2
_symmetry_space_group_name_H-M   'P 1'
_cell_length_a   11.20822539
_cell_length_b   11.21781253
_cell_length_c   11.21713848
_cell_angle_alpha   115.24302203
_cell_angle_beta   115.27249646
_cell_angle_gamma   98.40748334
_symmetry_Int_Tables_number   1
_chemical_formula_structural   Pt(SeBr2)2
_chemical_formula_sum   'Pt4 Se8 Br16'
_cell_volume   1056.58777024
_cell_formula_units_Z   4
loop_
 _symmetry_equiv_pos_site_id
 _symmetry_equiv_pos_as_xyz
  1  'x, y, z'
loop_
 _atom_site_type_symbol
 _atom_site_label
 _atom_site_symmetry_multiplicity
 _atom_site_fract_x
 _atom_site_fract_y
 _atom_site_fract_z
 _atom_site_occupancy
  Pt  Pt0  1  0.736340  0.548154  0.106000  1
  Pt  Pt1  1  0.442153  0.630172  0.894035  1
  Pt  Pt2  1  0.369828  0.264031  0.812177  1
  Pt  Pt3  1  0.451708  0.557776  0.187946  1
  Se  Se4  1  0.913386  0.437394  0.094320  1
  Se  Se5  1  0.342872  0.818596  0.905438  1
  Se  Se6  1  0.181363  0.087102  0.524598  1
  Se  Se7  1  0.562422  0.656834  0.475531  1
  Se  Se8  1  0.544522  0.443818  0.828735  1
  Se  Se9  1  0.615081  0.715624  0.171277  1
  Se  Se10  1  0.284106  0.455687  0.899376  1
  Se  Se11  1  0.556338  0.384981  0.100769  1
  Br  Br12  1  0.857226  0.313055  0.830610  1
  Br  Br13  1  0.482513  0.026036  0.169178  1
  Br  Br14  1  0.973328  0.142960  0.455918  1
  Br  Br15  1  0.687079  0.517470  0.543708  1
  Br  Br16  1  0.918559  0.705420  0.098355  1
  Br  Br17  1  0.607534  0.820173  0.902322  1
  Br  Br18  1  0.179620  0.082078  0.787123  1
  Br  Br19  1  0.294265  0.392603  0.212447  1
  Br  Br20  1  0.931015  0.636019  0.385821  1
  Br  Br21  1  0.249788  0.544769  0.614216  1
  Br  Br22  1  0.455452  0.069647  0.705788  1
  Br  Br23  1  0.363612  0.749682  0.294399  1
  Br  Br24  1  0.859974  0.235238  0.113919  1
  Br  Br25  1  0.121011  0.745825  0.885929  1
  Br  Br26  1  0.254235  0.140245  0.375606  1
  Br  Br27  1  0.764669  0.878616  0.624460  1
