# generated using pymatgen
data_Ho6Co16Si11PRu2
_symmetry_space_group_name_H-M   'P 1'
_cell_length_a   3.79102000
_cell_length_b   10.67364712
_cell_length_c   12.39816275
_cell_angle_alpha   89.89950484
_cell_angle_beta   90.00000000
_cell_angle_gamma   90.00000000
_symmetry_Int_Tables_number   1
_chemical_formula_structural   Ho6Co16Si11PRu2
_chemical_formula_sum   'Ho6 Co16 Si11 P1 Ru2'
_cell_volume   501.67860615
_cell_formula_units_Z   1
loop_
 _symmetry_equiv_pos_site_id
 _symmetry_equiv_pos_as_xyz
  1  'x, y, z'
loop_
 _atom_site_type_symbol
 _atom_site_label
 _atom_site_symmetry_multiplicity
 _atom_site_fract_x
 _atom_site_fract_y
 _atom_site_fract_z
 _atom_site_occupancy
  Ho  Ho0  1  0.000000  0.499979  0.525809  1
  Ho  Ho1  1  0.500000  0.000213  0.473689  1
  Ho  Ho2  1  0.500000  0.816203  0.205269  1
  Ho  Ho3  1  0.500000  0.185478  0.203536  1
  Ho  Ho4  1  0.000000  0.683702  0.796247  1
  Ho  Ho5  1  0.000000  0.316439  0.793442  1
  Co  Co6  1  0.000000  0.495509  0.983794  1
  Co  Co7  1  0.500000  0.001433  0.020465  1
  Co  Co8  1  0.500000  0.301810  0.428234  1
  Co  Co9  1  0.500000  0.698441  0.430602  1
  Co  Co10  1  0.000000  0.199047  0.568589  1
  Co  Co11  1  0.000000  0.801265  0.570345  1
  Co  Co12  1  0.500000  0.882199  0.707818  1
  Co  Co13  1  0.500000  0.118865  0.706959  1
  Co  Co14  1  0.000000  0.617656  0.292443  1
  Co  Co15  1  0.000000  0.380845  0.286416  1
  Co  Co16  1  0.500000  0.330217  0.994300  1
  Co  Co17  1  0.500000  0.668345  0.991461  1
  Co  Co18  1  0.000000  0.171587  0.010329  1
  Co  Co19  1  0.000000  0.831035  0.008956  1
  Co  Co20  1  0.500000  0.499543  0.695643  1
  Co  Co21  1  0.000000  0.999935  0.305347  1
  Si  Si22  1  0.500000  0.304068  0.612586  1
  Si  Si23  1  0.500000  0.696252  0.614705  1
  Si  Si24  1  0.000000  0.196940  0.384386  1
  Si  Si25  1  0.000000  0.803255  0.386330  1
  Si  Si26  1  0.500000  0.498976  0.881464  1
  Si  Si27  1  0.000000  0.000054  0.119981  1
  Si  Si28  1  0.500000  0.851865  0.895755  1
  Si  Si29  1  0.500000  0.149439  0.894869  1
  Si  Si30  1  0.000000  0.649224  0.105112  1
  Si  Si31  1  0.500000  0.500133  0.341613  1
  Si  Si32  1  0.000000  0.000317  0.658750  1
  P  P33  1  0.000000  0.348076  0.103620  1
  Ru  Ru34  1  0.500000  0.500027  0.151102  1
  Ru  Ru35  1  0.000000  0.001627  0.850032  1
