# generated using pymatgen
data_CeThGa12
_symmetry_space_group_name_H-M   'P 1'
_cell_length_a   6.03648500
_cell_length_b   6.03648500
_cell_length_c   7.64614200
_cell_angle_alpha   90.00000000
_cell_angle_beta   90.00000000
_cell_angle_gamma   90.00000000
_symmetry_Int_Tables_number   1
_chemical_formula_structural   CeThGa12
_chemical_formula_sum   'Ce1 Th1 Ga12'
_cell_volume   278.61892409
_cell_formula_units_Z   1
loop_
 _symmetry_equiv_pos_site_id
 _symmetry_equiv_pos_as_xyz
  1  'x, y, z'
loop_
 _atom_site_type_symbol
 _atom_site_label
 _atom_site_symmetry_multiplicity
 _atom_site_fract_x
 _atom_site_fract_y
 _atom_site_fract_z
 _atom_site_occupancy
  Ce  Ce0  1  0.500000  0.000000  0.000000  1
  Th  Th1  1  0.000000  0.500000  0.000000  1
  Ga  Ga2  1  0.680399  0.819601  0.351572  1
  Ga  Ga3  1  0.319601  0.180399  0.351572  1
  Ga  Ga4  1  0.000000  0.000000  0.163056  1
  Ga  Ga5  1  0.000000  0.000000  0.836944  1
  Ga  Ga6  1  0.500000  0.500000  0.836944  1
  Ga  Ga7  1  0.500000  0.500000  0.163056  1
  Ga  Ga8  1  0.182608  0.317392  0.645882  1
  Ga  Ga9  1  0.680399  0.180399  0.648428  1
  Ga  Ga10  1  0.319601  0.819601  0.648428  1
  Ga  Ga11  1  0.182608  0.682608  0.354118  1
  Ga  Ga12  1  0.817392  0.317392  0.354118  1
  Ga  Ga13  1  0.817392  0.682608  0.645882  1
