# generated using pymatgen
data_Er4Si4OsRuRh2
_symmetry_space_group_name_H-M   'P 1'
_cell_length_a   4.27211200
_cell_length_b   6.87818429
_cell_length_c   7.23663432
_cell_angle_alpha   90.00851107
_cell_angle_beta   90.00000000
_cell_angle_gamma   90.00000000
_symmetry_Int_Tables_number   1
_chemical_formula_structural   Er4Si4OsRuRh2
_chemical_formula_sum   'Er4 Si4 Os1 Ru1 Rh2'
_cell_volume   212.64396455
_cell_formula_units_Z   1
loop_
 _symmetry_equiv_pos_site_id
 _symmetry_equiv_pos_as_xyz
  1  'x, y, z'
loop_
 _atom_site_type_symbol
 _atom_site_label
 _atom_site_symmetry_multiplicity
 _atom_site_fract_x
 _atom_site_fract_y
 _atom_site_fract_z
 _atom_site_occupancy
  Er  Er0  1  0.250000  0.491810  0.688702  1
  Er  Er1  1  0.750000  0.509111  0.310725  1
  Er  Er2  1  0.250000  0.998216  0.813232  1
  Er  Er3  1  0.750000  0.002202  0.187013  1
  Si  Si4  1  0.250000  0.298151  0.114675  1
  Si  Si5  1  0.750000  0.701780  0.884365  1
  Si  Si6  1  0.250000  0.800006  0.400964  1
  Si  Si7  1  0.750000  0.199064  0.599715  1
  Os  Os8  1  0.750000  0.842931  0.568213  1
  Ru  Ru9  1  0.250000  0.155575  0.432825  1
  Rh  Rh10  1  0.750000  0.345312  0.934883  1
  Rh  Rh11  1  0.250000  0.655840  0.064691  1
