# generated using pymatgen
data_Sm3MnNbC6
_symmetry_space_group_name_H-M   'P 1'
_cell_length_a   8.39280900
_cell_length_b   8.39280879
_cell_length_c   5.20927200
_cell_angle_alpha   90.00000000
_cell_angle_beta   90.00000000
_cell_angle_gamma   119.99998796
_symmetry_Int_Tables_number   1
_chemical_formula_structural   Sm3MnNbC6
_chemical_formula_sum   'Sm6 Mn2 Nb2 C12'
_cell_volume   317.77694630
_cell_formula_units_Z   2
loop_
 _symmetry_equiv_pos_site_id
 _symmetry_equiv_pos_as_xyz
  1  'x, y, z'
loop_
 _atom_site_type_symbol
 _atom_site_label
 _atom_site_symmetry_multiplicity
 _atom_site_fract_x
 _atom_site_fract_y
 _atom_site_fract_z
 _atom_site_occupancy
  Sm  Sm0  1  0.617417  0.676500  0.750000  1
  Sm  Sm1  1  0.940916  0.617417  0.250000  1
  Sm  Sm2  1  0.676500  0.059084  0.250000  1
  Sm  Sm3  1  0.323500  0.940916  0.750000  1
  Sm  Sm4  1  0.059084  0.382583  0.750000  1
  Sm  Sm5  1  0.382583  0.323500  0.250000  1
  Mn  Mn6  1  0.666667  0.333333  0.750000  1
  Mn  Mn7  1  0.333333  0.666667  0.250000  1
  Nb  Nb8  1  0.000000  0.000000  0.500000  1
  Nb  Nb9  1  0.000000  0.000000  0.000000  1
  C  C10  1  0.959152  0.755406  0.750000  1
  C  C11  1  0.203746  0.959152  0.250000  1
  C  C12  1  0.755406  0.796254  0.250000  1
  C  C13  1  0.244594  0.203746  0.750000  1
  C  C14  1  0.796254  0.040848  0.750000  1
  C  C15  1  0.040848  0.244594  0.250000  1
  C  C16  1  0.859627  0.566943  0.750000  1
  C  C17  1  0.292682  0.859627  0.250000  1
  C  C18  1  0.566943  0.707318  0.250000  1
  C  C19  1  0.433057  0.292682  0.750000  1
  C  C20  1  0.140373  0.433057  0.250000  1
  C  C21  1  0.707318  0.140373  0.750000  1
