# generated using pymatgen
data_CsHo3CBr6
_symmetry_space_group_name_H-M   'P 1'
_cell_length_a   8.88915751
_cell_length_b   8.93859961
_cell_length_c   9.48598972
_cell_angle_alpha   70.87004594
_cell_angle_beta   84.90278501
_cell_angle_gamma   89.18265995
_symmetry_Int_Tables_number   1
_chemical_formula_structural   CsHo3CBr6
_chemical_formula_sum   'Cs2 Ho6 C2 Br12'
_cell_volume   709.19785796
_cell_formula_units_Z   2
loop_
 _symmetry_equiv_pos_site_id
 _symmetry_equiv_pos_as_xyz
  1  'x, y, z'
loop_
 _atom_site_type_symbol
 _atom_site_label
 _atom_site_symmetry_multiplicity
 _atom_site_fract_x
 _atom_site_fract_y
 _atom_site_fract_z
 _atom_site_occupancy
  Cs  Cs0  1  0.467303  0.366003  0.331221  1
  Cs  Cs1  1  0.532698  0.633997  0.668779  1
  Ho  Ho2  1  0.916807  0.750038  0.004979  1
  Ho  Ho3  1  0.083193  0.249962  0.995020  1
  Ho  Ho4  1  0.748383  0.085137  0.000858  1
  Ho  Ho5  1  0.251616  0.914863  0.999143  1
  Ho  Ho6  1  0.973453  0.887518  0.322377  1
  Ho  Ho7  1  0.026546  0.112482  0.677624  1
  C  C8  1  0.006388  0.026727  0.920199  1
  C  C9  1  0.993611  0.973273  0.079801  1
  Br  Br10  1  0.074260  0.192068  0.327846  1
  Br  Br11  1  0.925740  0.807932  0.672154  1
  Br  Br12  1  0.198111  0.597480  0.000826  1
  Br  Br13  1  0.801890  0.402520  0.999174  1
  Br  Br14  1  0.398568  0.195530  0.002700  1
  Br  Br15  1  0.601431  0.804471  0.997299  1
  Br  Br16  1  0.670011  0.000004  0.321453  1
  Br  Br17  1  0.329989  0.999996  0.678547  1
  Br  Br18  1  0.277643  0.779543  0.318695  1
  Br  Br19  1  0.722357  0.220457  0.681305  1
  Br  Br20  1  0.854768  0.594235  0.324489  1
  Br  Br21  1  0.145231  0.405765  0.675511  1
