# generated using pymatgen
data_YCoP3Rh4
_symmetry_space_group_name_H-M   'P 1'
_cell_length_a   3.85237600
_cell_length_b   10.79342700
_cell_length_c   12.42430200
_cell_angle_alpha   90.00000000
_cell_angle_beta   90.00000000
_cell_angle_gamma   90.00000000
_symmetry_Int_Tables_number   1
_chemical_formula_structural   YCoP3Rh4
_chemical_formula_sum   'Y4 Co4 P12 Rh16'
_cell_volume   516.60669065
_cell_formula_units_Z   4
loop_
 _symmetry_equiv_pos_site_id
 _symmetry_equiv_pos_as_xyz
  1  'x, y, z'
loop_
 _atom_site_type_symbol
 _atom_site_label
 _atom_site_symmetry_multiplicity
 _atom_site_fract_x
 _atom_site_fract_y
 _atom_site_fract_z
 _atom_site_occupancy
  Y  Y0  1  0.250000  0.914659  0.207166  1
  Y  Y1  1  0.750000  0.085341  0.792834  1
  Y  Y2  1  0.750000  0.414659  0.292834  1
  Y  Y3  1  0.250000  0.585341  0.707166  1
  Co  Co4  1  0.250000  0.035708  0.433753  1
  Co  Co5  1  0.750000  0.964292  0.566247  1
  Co  Co6  1  0.750000  0.535708  0.066247  1
  Co  Co7  1  0.250000  0.464292  0.933753  1
  P  P8  1  0.250000  0.075808  0.605813  1
  P  P9  1  0.750000  0.924192  0.394187  1
  P  P10  1  0.750000  0.575808  0.894187  1
  P  P11  1  0.250000  0.424192  0.105813  1
  P  P12  1  0.250000  0.227538  0.372692  1
  P  P13  1  0.750000  0.772462  0.627308  1
  P  P14  1  0.750000  0.727538  0.127308  1
  P  P15  1  0.250000  0.272462  0.872692  1
  P  P16  1  0.250000  0.900165  0.888472  1
  P  P17  1  0.750000  0.099835  0.111528  1
  P  P18  1  0.750000  0.400165  0.611528  1
  P  P19  1  0.250000  0.599835  0.388472  1
  Rh  Rh20  1  0.250000  0.783422  0.487908  1
  Rh  Rh21  1  0.750000  0.216578  0.512092  1
  Rh  Rh22  1  0.750000  0.283422  0.012092  1
  Rh  Rh23  1  0.250000  0.716578  0.987908  1
  Rh  Rh24  1  0.250000  0.091727  0.980389  1
  Rh  Rh25  1  0.750000  0.908273  0.019611  1
  Rh  Rh26  1  0.750000  0.591727  0.519611  1
  Rh  Rh27  1  0.250000  0.408273  0.480389  1
  Rh  Rh28  1  0.250000  0.271766  0.678441  1
  Rh  Rh29  1  0.750000  0.728234  0.321559  1
  Rh  Rh30  1  0.750000  0.771766  0.821559  1
  Rh  Rh31  1  0.250000  0.228234  0.178441  1
  Rh  Rh32  1  0.250000  0.613087  0.199266  1
  Rh  Rh33  1  0.750000  0.386913  0.800734  1
  Rh  Rh34  1  0.750000  0.113087  0.300734  1
  Rh  Rh35  1  0.250000  0.886913  0.699266  1
