# generated using pymatgen
data_Tm4Co11(Ni3As4)3
_symmetry_space_group_name_H-M   'P 1'
_cell_length_a   3.79337600
_cell_length_b   10.63925681
_cell_length_c   12.23079949
_cell_angle_alpha   89.65478499
_cell_angle_beta   90.00000000
_cell_angle_gamma   90.00000000
_symmetry_Int_Tables_number   1
_chemical_formula_structural   Tm4Co11(Ni3As4)3
_chemical_formula_sum   'Tm4 Co11 Ni9 As12'
_cell_volume   493.61022532
_cell_formula_units_Z   1
loop_
 _symmetry_equiv_pos_site_id
 _symmetry_equiv_pos_as_xyz
  1  'x, y, z'
loop_
 _atom_site_type_symbol
 _atom_site_label
 _atom_site_symmetry_multiplicity
 _atom_site_fract_x
 _atom_site_fract_y
 _atom_site_fract_z
 _atom_site_occupancy
  Tm  Tm0  1  0.250000  0.579914  0.702974  1
  Tm  Tm1  1  0.250000  0.919674  0.204255  1
  Tm  Tm2  1  0.750000  0.420541  0.296701  1
  Tm  Tm3  1  0.750000  0.080069  0.797093  1
  Co  Co4  1  0.250000  0.283437  0.677594  1
  Co  Co5  1  0.750000  0.783654  0.822256  1
  Co  Co6  1  0.750000  0.717280  0.321585  1
  Co  Co7  1  0.250000  0.882111  0.697017  1
  Co  Co8  1  0.250000  0.618337  0.196116  1
  Co  Co9  1  0.750000  0.118168  0.303852  1
  Co  Co10  1  0.750000  0.382900  0.802703  1
  Co  Co11  1  0.250000  0.468288  0.931738  1
  Co  Co12  1  0.250000  0.030578  0.432681  1
  Co  Co13  1  0.750000  0.531049  0.067673  1
  Co  Co14  1  0.750000  0.968932  0.568553  1
  Ni  Ni15  1  0.250000  0.708364  0.990369  1
  Ni  Ni16  1  0.250000  0.790294  0.491380  1
  Ni  Ni17  1  0.750000  0.288334  0.006845  1
  Ni  Ni18  1  0.750000  0.209417  0.509788  1
  Ni  Ni19  1  0.250000  0.410310  0.484730  1
  Ni  Ni20  1  0.250000  0.090865  0.985706  1
  Ni  Ni21  1  0.750000  0.590767  0.514616  1
  Ni  Ni22  1  0.750000  0.909327  0.014807  1
  Ni  Ni23  1  0.250000  0.216791  0.178745  1
  As  As24  1  0.250000  0.418670  0.114632  1
  As  As25  1  0.250000  0.083460  0.615192  1
  As  As26  1  0.750000  0.583216  0.884504  1
  As  As27  1  0.750000  0.916327  0.385761  1
  As  As28  1  0.250000  0.268657  0.867115  1
  As  As29  1  0.250000  0.231441  0.370054  1
  As  As30  1  0.750000  0.731737  0.132134  1
  As  As31  1  0.750000  0.768388  0.632333  1
  As  As32  1  0.250000  0.604795  0.387179  1
  As  As33  1  0.250000  0.896184  0.887605  1
  As  As34  1  0.750000  0.396521  0.612021  1
  As  As35  1  0.750000  0.101200  0.111691  1
