# generated using pymatgen
data_Ti15Si16W5
_symmetry_space_group_name_H-M   'P 1'
_cell_length_a   6.64359991
_cell_length_b   6.64913510
_cell_length_c   12.20867673
_cell_angle_alpha   90.00948210
_cell_angle_beta   90.13744584
_cell_angle_gamma   90.01738217
_symmetry_Int_Tables_number   1
_chemical_formula_structural   Ti15Si16W5
_chemical_formula_sum   'Ti15 Si16 W5'
_cell_volume   539.30686211
_cell_formula_units_Z   1
loop_
 _symmetry_equiv_pos_site_id
 _symmetry_equiv_pos_as_xyz
  1  'x, y, z'
loop_
 _atom_site_type_symbol
 _atom_site_label
 _atom_site_symmetry_multiplicity
 _atom_site_fract_x
 _atom_site_fract_y
 _atom_site_fract_z
 _atom_site_occupancy
  Ti  Ti0  1  0.349704  0.494853  0.871848  1
  Ti  Ti1  1  0.650258  0.504158  0.371864  1
  Ti  Ti2  1  0.494860  0.350076  0.127622  1
  Ti  Ti3  1  0.505589  0.649788  0.628138  1
  Ti  Ti4  1  0.004688  0.849965  0.121802  1
  Ti  Ti5  1  0.150082  0.996078  0.378135  1
  Ti  Ti6  1  0.851261  0.004660  0.877893  1
  Ti  Ti7  1  0.002350  0.340494  0.222225  1
  Ti  Ti8  1  0.160523  0.501161  0.471427  1
  Ti  Ti9  1  0.839612  0.497596  0.972077  1
  Ti  Ti10  1  0.502684  0.161405  0.528339  1
  Ti  Ti11  1  0.497797  0.840013  0.028069  1
  Ti  Ti12  1  0.998025  0.660620  0.722128  1
  Ti  Ti13  1  0.339033  0.000697  0.778052  1
  Ti  Ti14  1  0.660112  0.996767  0.278612  1
  Si  Si15  1  0.042443  0.304194  0.814756  1
  Si  Si16  1  0.197187  0.542591  0.064143  1
  Si  Si17  1  0.801289  0.456377  0.563250  1
  Si  Si18  1  0.543441  0.197007  0.935838  1
  Si  Si19  1  0.457353  0.802681  0.435615  1
  Si  Si20  1  0.957211  0.697959  0.313990  1
  Si  Si21  1  0.302999  0.042352  0.185932  1
  Si  Si22  1  0.695965  0.957442  0.686590  1
  Si  Si23  1  0.293358  0.361507  0.673204  1
  Si  Si24  1  0.140803  0.793316  0.922923  1
  Si  Si25  1  0.859178  0.206822  0.421770  1
  Si  Si26  1  0.793981  0.141077  0.077582  1
  Si  Si27  1  0.206665  0.857292  0.576771  1
  Si  Si28  1  0.706074  0.640721  0.172482  1
  Si  Si29  1  0.359430  0.293953  0.326790  1
  Si  Si30  1  0.640735  0.706512  0.828122  1
  W  W31  1  0.996564  0.150417  0.621574  1
  W  W32  1  0.170343  0.169805  0.999880  1
  W  W33  1  0.329769  0.669889  0.250179  1
  W  W34  1  0.669224  0.331519  0.750146  1
  W  W35  1  0.829407  0.828234  0.500234  1
