# generated using pymatgen
data_TbSm6As12Rh17
_symmetry_space_group_name_H-M   'P 1'
_cell_length_a   4.09916300
_cell_length_b   11.64975000
_cell_length_c   13.38532300
_cell_angle_alpha   90.00000000
_cell_angle_beta   90.00000000
_cell_angle_gamma   90.00000000
_symmetry_Int_Tables_number   1
_chemical_formula_structural   TbSm6As12Rh17
_chemical_formula_sum   'Tb1 Sm6 As12 Rh17'
_cell_volume   639.20571499
_cell_formula_units_Z   1
loop_
 _symmetry_equiv_pos_site_id
 _symmetry_equiv_pos_as_xyz
  1  'x, y, z'
loop_
 _atom_site_type_symbol
 _atom_site_label
 _atom_site_symmetry_multiplicity
 _atom_site_fract_x
 _atom_site_fract_y
 _atom_site_fract_z
 _atom_site_occupancy
  Tb  Tb0  1  0.500000  0.500000  0.154594  1
  Sm  Sm1  1  0.000000  0.500000  0.523274  1
  Sm  Sm2  1  0.500000  0.000000  0.476310  1
  Sm  Sm3  1  0.500000  0.819044  0.208004  1
  Sm  Sm4  1  0.500000  0.180956  0.208004  1
  Sm  Sm5  1  0.000000  0.684041  0.798101  1
  Sm  Sm6  1  0.000000  0.315959  0.798101  1
  As  As7  1  0.500000  0.500000  0.879584  1
  As  As8  1  0.000000  0.000000  0.121749  1
  As  As9  1  0.500000  0.500000  0.363995  1
  As  As10  1  0.000000  0.000000  0.645882  1
  As  As11  1  0.500000  0.314309  0.619260  1
  As  As12  1  0.500000  0.685691  0.619260  1
  As  As13  1  0.000000  0.186156  0.385316  1
  As  As14  1  0.000000  0.813844  0.385316  1
  As  As15  1  0.500000  0.854794  0.886369  1
  As  As16  1  0.500000  0.145206  0.886369  1
  As  As17  1  0.000000  0.666613  0.105525  1
  As  As18  1  0.000000  0.333387  0.105525  1
  Rh  Rh19  1  0.000000  0.000000  0.826723  1
  Rh  Rh20  1  0.500000  0.500000  0.701856  1
  Rh  Rh21  1  0.000000  0.000000  0.300296  1
  Rh  Rh22  1  0.000000  0.500000  0.982855  1
  Rh  Rh23  1  0.500000  0.000000  0.022407  1
  Rh  Rh24  1  0.500000  0.326037  0.988784  1
  Rh  Rh25  1  0.500000  0.673963  0.988784  1
  Rh  Rh26  1  0.000000  0.160877  0.000313  1
  Rh  Rh27  1  0.000000  0.839123  0.000313  1
  Rh  Rh28  1  0.500000  0.289143  0.435411  1
  Rh  Rh29  1  0.500000  0.710857  0.435411  1
  Rh  Rh30  1  0.000000  0.204763  0.572108  1
  Rh  Rh31  1  0.000000  0.795237  0.572108  1
  Rh  Rh32  1  0.500000  0.877494  0.705162  1
  Rh  Rh33  1  0.500000  0.122506  0.705162  1
  Rh  Rh34  1  0.000000  0.626424  0.295886  1
  Rh  Rh35  1  0.000000  0.373576  0.295886  1
