# generated using pymatgen
data_CaYb2TmSb3
_symmetry_space_group_name_H-M   'P 1'
_cell_length_a   8.16817471
_cell_length_b   8.14898464
_cell_length_c   8.08969317
_cell_angle_alpha   109.45191125
_cell_angle_beta   109.54594745
_cell_angle_gamma   109.76174823
_symmetry_Int_Tables_number   1
_chemical_formula_structural   CaYb2TmSb3
_chemical_formula_sum   'Ca2 Yb4 Tm2 Sb6'
_cell_volume   412.73190124
_cell_formula_units_Z   2
loop_
 _symmetry_equiv_pos_site_id
 _symmetry_equiv_pos_as_xyz
  1  'x, y, z'
loop_
 _atom_site_type_symbol
 _atom_site_label
 _atom_site_symmetry_multiplicity
 _atom_site_fract_x
 _atom_site_fract_y
 _atom_site_fract_z
 _atom_site_occupancy
  Ca  Ca0  1  0.004182  0.355358  0.499246  1
  Ca  Ca1  1  0.351258  0.494174  0.995888  1
  Yb  Yb2  1  0.004880  0.855919  0.500562  1
  Yb  Yb3  1  0.855347  0.498395  0.004245  1
  Yb  Yb4  1  0.499110  0.004349  0.858394  1
  Yb  Yb5  1  0.140760  0.145789  0.141584  1
  Tm  Tm6  1  0.498904  0.000204  0.353651  1
  Tm  Tm7  1  0.645356  0.646459  0.646314  1
  Sb  Sb8  1  0.863411  0.113375  0.737596  1
  Sb  Sb9  1  0.383652  0.253276  0.620124  1
  Sb  Sb10  1  0.121876  0.751906  0.880157  1
  Sb  Sb11  1  0.741870  0.871573  0.119901  1
  Sb  Sb12  1  0.263405  0.633300  0.379865  1
  Sb  Sb13  1  0.625988  0.375921  0.262472  1
