# generated using pymatgen
data_Sc7Co6Sn22Hg
_symmetry_space_group_name_H-M   'P 1'
_cell_length_a   9.50035700
_cell_length_b   9.50035718
_cell_length_c   9.82764500
_cell_angle_alpha   90.00000000
_cell_angle_beta   90.00000000
_cell_angle_gamma   119.99999590
_symmetry_Int_Tables_number   1
_chemical_formula_structural   Sc7Co6Sn22Hg
_chemical_formula_sum   'Sc7 Co6 Sn22 Hg1'
_cell_volume   768.17464536
_cell_formula_units_Z   1
loop_
 _symmetry_equiv_pos_site_id
 _symmetry_equiv_pos_as_xyz
  1  'x, y, z'
loop_
 _atom_site_type_symbol
 _atom_site_label
 _atom_site_symmetry_multiplicity
 _atom_site_fract_x
 _atom_site_fract_y
 _atom_site_fract_z
 _atom_site_occupancy
  Sc  Sc0  1  0.000000  0.000000  0.000000  1
  Sc  Sc1  1  0.481139  0.518861  0.308346  1
  Sc  Sc2  1  0.518861  0.481139  0.691654  1
  Sc  Sc3  1  0.481139  0.962278  0.308346  1
  Sc  Sc4  1  0.518861  0.037722  0.691654  1
  Sc  Sc5  1  0.037722  0.518861  0.308346  1
  Sc  Sc6  1  0.962278  0.481139  0.691654  1
  Co  Co7  1  0.830363  0.169637  0.199965  1
  Co  Co8  1  0.169637  0.830363  0.800035  1
  Co  Co9  1  0.830363  0.660725  0.199965  1
  Co  Co10  1  0.169637  0.339275  0.800035  1
  Co  Co11  1  0.339275  0.169637  0.199965  1
  Co  Co12  1  0.660725  0.830363  0.800035  1
  Sn  Sn13  1  0.345838  0.000000  0.000000  1
  Sn  Sn14  1  0.654162  0.000000  0.000000  1
  Sn  Sn15  1  0.000000  0.345838  0.000000  1
  Sn  Sn16  1  0.000000  0.654162  0.000000  1
  Sn  Sn17  1  0.654162  0.654162  0.000000  1
  Sn  Sn18  1  0.345838  0.345838  0.000000  1
  Sn  Sn19  1  0.333333  0.666667  0.819509  1
  Sn  Sn20  1  0.666667  0.333333  0.180491  1
  Sn  Sn21  1  0.780519  0.219481  0.455327  1
  Sn  Sn22  1  0.219481  0.780519  0.544673  1
  Sn  Sn23  1  0.780519  0.561040  0.455327  1
  Sn  Sn24  1  0.219481  0.438960  0.544673  1
  Sn  Sn25  1  0.438960  0.219481  0.455327  1
  Sn  Sn26  1  0.561040  0.780519  0.544673  1
  Sn  Sn27  1  0.333333  0.666667  0.134940  1
  Sn  Sn28  1  0.666667  0.333333  0.865060  1
  Sn  Sn29  1  0.119782  0.880218  0.269988  1
  Sn  Sn30  1  0.880218  0.119782  0.730012  1
  Sn  Sn31  1  0.119782  0.239562  0.269988  1
  Sn  Sn32  1  0.880218  0.760438  0.730012  1
  Sn  Sn33  1  0.760438  0.880218  0.269988  1
  Sn  Sn34  1  0.239562  0.119782  0.730012  1
  Hg  Hg35  1  0.000000  0.000000  0.500000  1
