# generated using pymatgen
data_Ho2UMnCo
_symmetry_space_group_name_H-M   'P 1'
_cell_length_a   5.87894432
_cell_length_b   5.87894532
_cell_length_c   5.87894481
_cell_angle_alpha   144.00442069
_cell_angle_beta   121.21391329
_cell_angle_gamma   70.89520345
_symmetry_Int_Tables_number   1
_chemical_formula_structural   Ho2UMnCo
_chemical_formula_sum   'Ho2 U1 Mn1 Co1'
_cell_volume   100.40625218
_cell_formula_units_Z   1
loop_
 _symmetry_equiv_pos_site_id
 _symmetry_equiv_pos_as_xyz
  1  'x, y, z'
loop_
 _atom_site_type_symbol
 _atom_site_label
 _atom_site_symmetry_multiplicity
 _atom_site_fract_x
 _atom_site_fract_y
 _atom_site_fract_z
 _atom_site_occupancy
  Ho  Ho0  1  0.688654  0.198225  0.490429  1
  Ho  Ho1  1  0.292205  0.801776  0.490430  1
  U  U2  1  0.981655  0.000000  0.981655  1
  Mn  Mn3  1  0.740132  0.500000  0.240132  1
  Co  Co4  1  0.297356  0.500001  0.797357  1
