# generated using pymatgen
data_HfZr5Co20P13
_symmetry_space_group_name_H-M   'P 1'
_cell_length_a   12.35870337
_cell_length_b   12.38010128
_cell_length_c   3.60930900
_cell_angle_alpha   90.00000000
_cell_angle_beta   90.00000000
_cell_angle_gamma   119.89576510
_symmetry_Int_Tables_number   1
_chemical_formula_structural   HfZr5Co20P13
_chemical_formula_sum   'Hf1 Zr5 Co20 P13'
_cell_volume   478.74803187
_cell_formula_units_Z   1
loop_
 _symmetry_equiv_pos_site_id
 _symmetry_equiv_pos_as_xyz
  1  'x, y, z'
loop_
 _atom_site_type_symbol
 _atom_site_label
 _atom_site_symmetry_multiplicity
 _atom_site_fract_x
 _atom_site_fract_y
 _atom_site_fract_z
 _atom_site_occupancy
  Hf  Hf0  1  0.807173  0.284815  0.500000  1
  Zr  Zr1  1  0.715882  0.523478  0.500000  1
  Zr  Zr2  1  0.476606  0.192038  0.500000  1
  Zr  Zr3  1  0.193095  0.717228  0.000000  1
  Zr  Zr4  1  0.282465  0.475780  0.000000  1
  Zr  Zr5  1  0.524306  0.806842  0.000000  1
  Co  Co6  1  0.420723  0.981384  0.000000  1
  Co  Co7  1  0.017722  0.438465  0.000000  1
  Co  Co8  1  0.584766  0.019692  0.500000  1
  Co  Co9  1  0.560872  0.579447  0.000000  1
  Co  Co10  1  0.980468  0.564440  0.500000  1
  Co  Co11  1  0.919413  0.083573  0.500000  1
  Co  Co12  1  0.164237  0.080635  0.500000  1
  Co  Co13  1  0.916162  0.835503  0.500000  1
  Co  Co14  1  0.096360  0.897760  0.000000  1
  Co  Co15  1  0.801053  0.903491  0.000000  1
  Co  Co16  1  0.101891  0.198976  0.000000  1
  Co  Co17  1  0.333521  0.666729  0.500000  1
  Co  Co18  1  0.667572  0.332972  0.000000  1
  Co  Co19  1  0.676321  0.745749  0.500000  1
  Co  Co20  1  0.254285  0.930366  0.500000  1
  Co  Co21  1  0.922959  0.677055  0.000000  1
  Co  Co22  1  0.322693  0.245541  0.000000  1
  Co  Co23  1  0.755050  0.078464  0.000000  1
  Co  Co24  1  0.434992  0.415604  0.500000  1
  Co  Co25  1  0.068879  0.323851  0.500000  1
  P  P26  1  0.999948  0.000112  0.000000  1
  P  P27  1  0.229557  0.283951  0.500000  1
  P  P28  1  0.716085  0.945852  0.500000  1
  P  P29  1  0.054034  0.770033  0.500000  1
  P  P30  1  0.766648  0.712834  0.000000  1
  P  P31  1  0.287300  0.053732  0.000000  1
  P  P32  1  0.473158  0.612658  0.500000  1
  P  P33  1  0.387440  0.860389  0.500000  1
  P  P34  1  0.859168  0.474846  0.000000  1
  P  P35  1  0.524668  0.383503  0.000000  1
  P  P36  1  0.617087  0.141150  0.000000  1
  P  P37  1  0.945577  0.234019  0.000000  1
  P  P38  1  0.139865  0.527040  0.500000  1
