# generated using pymatgen
data_K5CaTaP4
_symmetry_space_group_name_H-M   'P 1'
_cell_length_a   10.16777154
_cell_length_b   10.16777151
_cell_length_c   7.59761428
_cell_angle_alpha   87.91604069
_cell_angle_beta   87.91603839
_cell_angle_gamma   120.43939292
_symmetry_Int_Tables_number   1
_chemical_formula_structural   K5CaTaP4
_chemical_formula_sum   'K10 Ca2 Ta2 P8'
_cell_volume   675.38644324
_cell_formula_units_Z   2
loop_
 _symmetry_equiv_pos_site_id
 _symmetry_equiv_pos_as_xyz
  1  'x, y, z'
loop_
 _atom_site_type_symbol
 _atom_site_label
 _atom_site_symmetry_multiplicity
 _atom_site_fract_x
 _atom_site_fract_y
 _atom_site_fract_z
 _atom_site_occupancy
  K  K0  1  0.464908  0.526509  0.496333  1
  K  K1  1  0.061474  0.531103  0.499442  1
  K  K2  1  0.526509  0.464908  0.996333  1
  K  K3  1  0.531103  0.061474  0.999442  1
  K  K4  1  0.861642  0.141855  0.682252  1
  K  K5  1  0.292303  0.153519  0.722307  1
  K  K6  1  0.853953  0.715330  0.658884  1
  K  K7  1  0.141855  0.861642  0.182252  1
  K  K8  1  0.715330  0.853953  0.158884  1
  K  K9  1  0.153519  0.292303  0.222307  1
  Ca  Ca10  1  0.459250  0.931208  0.493928  1
  Ca  Ca11  1  0.931208  0.459250  0.993928  1
  Ta  Ta12  1  0.672132  0.328476  0.392619  1
  Ta  Ta13  1  0.328476  0.672132  0.892619  1
  P  P14  1  0.694123  0.345092  0.707642  1
  P  P15  1  0.345092  0.694123  0.207642  1
  P  P16  1  0.796066  0.196705  0.280550  1
  P  P17  1  0.405050  0.183096  0.326892  1
  P  P18  1  0.802520  0.583685  0.253440  1
  P  P19  1  0.196705  0.796066  0.780550  1
  P  P20  1  0.583685  0.802520  0.753440  1
  P  P21  1  0.183096  0.405050  0.826892  1
