# generated using pymatgen
data_Hf12Ti4Re5Os3
_symmetry_space_group_name_H-M   'P 1'
_cell_length_a   8.60596043
_cell_length_b   8.60150715
_cell_length_c   8.60150700
_cell_angle_alpha   59.99999673
_cell_angle_beta   60.01711286
_cell_angle_gamma   60.01711615
_symmetry_Int_Tables_number   1
_chemical_formula_structural   Hf12Ti4Re5Os3
_chemical_formula_sum   'Hf12 Ti4 Re5 Os3'
_cell_volume   450.34540459
_cell_formula_units_Z   1
loop_
 _symmetry_equiv_pos_site_id
 _symmetry_equiv_pos_as_xyz
  1  'x, y, z'
loop_
 _atom_site_type_symbol
 _atom_site_label
 _atom_site_symmetry_multiplicity
 _atom_site_fract_x
 _atom_site_fract_y
 _atom_site_fract_z
 _atom_site_occupancy
  Hf  Hf0  1  0.807053  0.807402  0.192772  1
  Hf  Hf1  1  0.193304  0.192149  0.807273  1
  Hf  Hf2  1  0.807053  0.192772  0.807402  1
  Hf  Hf3  1  0.193304  0.807273  0.192149  1
  Hf  Hf4  1  0.193304  0.807273  0.807273  1
  Hf  Hf5  1  0.807053  0.192772  0.192772  1
  Hf  Hf6  1  0.442491  0.443887  0.056811  1
  Hf  Hf7  1  0.057213  0.057104  0.442841  1
  Hf  Hf8  1  0.442491  0.056811  0.443887  1
  Hf  Hf9  1  0.057213  0.442841  0.057104  1
  Hf  Hf10  1  0.057213  0.442841  0.442841  1
  Hf  Hf11  1  0.442491  0.056811  0.056811  1
  Ti  Ti12  1  0.120684  0.626439  0.626439  1
  Ti  Ti13  1  0.626787  0.122932  0.625140  1
  Ti  Ti14  1  0.626787  0.625140  0.122932  1
  Ti  Ti15  1  0.626787  0.625140  0.625140  1
  Re  Re16  1  0.752723  0.415758  0.415758  1
  Re  Re17  1  0.414088  0.755030  0.415440  1
  Re  Re18  1  0.414088  0.415440  0.755030  1
  Re  Re19  1  0.414088  0.415440  0.415440  1
  Re  Re20  1  0.498083  0.833973  0.833973  1
  Os  Os21  1  0.835233  0.493856  0.835457  1
  Os  Os22  1  0.835233  0.835457  0.493856  1
  Os  Os23  1  0.835233  0.835457  0.835457  1
