# generated using pymatgen
data_Tm3Hf5(Si4Mo)2
_symmetry_space_group_name_H-M   'P 1'
_cell_length_a   7.08864339
_cell_length_b   7.08533439
_cell_length_c   12.91035600
_cell_angle_alpha   90.00000000
_cell_angle_beta   90.00000000
_cell_angle_gamma   89.92823261
_symmetry_Int_Tables_number   1
_chemical_formula_structural   Tm3Hf5(Si4Mo)2
_chemical_formula_sum   'Tm6 Hf10 Si16 Mo4'
_cell_volume   648.42739902
_cell_formula_units_Z   2
loop_
 _symmetry_equiv_pos_site_id
 _symmetry_equiv_pos_as_xyz
  1  'x, y, z'
loop_
 _atom_site_type_symbol
 _atom_site_label
 _atom_site_symmetry_multiplicity
 _atom_site_fract_x
 _atom_site_fract_y
 _atom_site_fract_z
 _atom_site_occupancy
  Tm  Tm0  1  0.498156  0.155365  0.533170  1
  Tm  Tm1  1  0.501844  0.844635  0.033170  1
  Tm  Tm2  1  0.656741  0.002785  0.282586  1
  Tm  Tm3  1  0.343259  0.997215  0.782586  1
  Tm  Tm4  1  0.844780  0.501616  0.967717  1
  Tm  Tm5  1  0.155220  0.498384  0.467717  1
  Hf  Hf6  1  0.997902  0.654180  0.716866  1
  Hf  Hf7  1  0.002098  0.345820  0.216866  1
  Hf  Hf8  1  0.493891  0.355099  0.125239  1
  Hf  Hf9  1  0.506109  0.644901  0.625239  1
  Hf  Hf10  1  0.857136  0.006928  0.874276  1
  Hf  Hf11  1  0.142864  0.993072  0.374276  1
  Hf  Hf12  1  0.645382  0.504462  0.374602  1
  Hf  Hf13  1  0.354618  0.495538  0.874602  1
  Hf  Hf14  1  0.006271  0.855689  0.125460  1
  Hf  Hf15  1  0.993729  0.144311  0.625460  1
  Si  Si16  1  0.800694  0.145749  0.071922  1
  Si  Si17  1  0.199306  0.854251  0.571922  1
  Si  Si18  1  0.646837  0.701326  0.817652  1
  Si  Si19  1  0.353163  0.298674  0.317652  1
  Si  Si20  1  0.859099  0.205843  0.429785  1
  Si  Si21  1  0.140901  0.794157  0.929785  1
  Si  Si22  1  0.706706  0.639544  0.180528  1
  Si  Si23  1  0.293294  0.360456  0.680528  1
  Si  Si24  1  0.551556  0.203012  0.933919  1
  Si  Si25  1  0.448444  0.796988  0.433919  1
  Si  Si26  1  0.703388  0.947626  0.683566  1
  Si  Si27  1  0.296612  0.052374  0.183566  1
  Si  Si28  1  0.800351  0.452331  0.567418  1
  Si  Si29  1  0.199649  0.547669  0.067418  1
  Si  Si30  1  0.951215  0.696837  0.315091  1
  Si  Si31  1  0.048785  0.303163  0.815091  1
  Mo  Mo32  1  0.678362  0.326612  0.749881  1
  Mo  Mo33  1  0.321638  0.673388  0.249881  1
  Mo  Mo34  1  0.826056  0.822217  0.500323  1
  Mo  Mo35  1  0.173944  0.177783  0.000323  1
