# generated using pymatgen
data_Sm2HgRhPb
_symmetry_space_group_name_H-M   'P 1'
_cell_length_a   8.32636989
_cell_length_b   8.32636955
_cell_length_c   3.69474400
_cell_angle_alpha   90.00000000
_cell_angle_beta   90.00000000
_cell_angle_gamma   89.13462905
_symmetry_Int_Tables_number   1
_chemical_formula_structural   Sm2HgRhPb
_chemical_formula_sum   'Sm4 Hg2 Rh2 Pb2'
_cell_volume   256.12159490
_cell_formula_units_Z   2
loop_
 _symmetry_equiv_pos_site_id
 _symmetry_equiv_pos_as_xyz
  1  'x, y, z'
loop_
 _atom_site_type_symbol
 _atom_site_label
 _atom_site_symmetry_multiplicity
 _atom_site_fract_x
 _atom_site_fract_y
 _atom_site_fract_z
 _atom_site_occupancy
  Sm  Sm0  1  0.651617  0.151617  0.500000  1
  Sm  Sm1  1  0.348383  0.848383  0.500000  1
  Sm  Sm2  1  0.194225  0.305775  0.500000  1
  Sm  Sm3  1  0.805775  0.694225  0.500000  1
  Hg  Hg4  1  0.125581  0.625581  0.000000  1
  Hg  Hg5  1  0.874419  0.374419  0.000000  1
  Rh  Rh6  1  0.626176  0.873824  0.000000  1
  Rh  Rh7  1  0.373824  0.126176  0.000000  1
  Pb  Pb8  1  0.000000  0.000000  0.000000  1
  Pb  Pb9  1  0.500000  0.500000  0.000000  1
