# generated using pymatgen
data_TbU2NiSn3Ir2
_symmetry_space_group_name_H-M   'P 1'
_cell_length_a   7.51849118
_cell_length_b   7.51849089
_cell_length_c   3.91117200
_cell_angle_alpha   90.00000000
_cell_angle_beta   90.00000000
_cell_angle_gamma   121.64766454
_symmetry_Int_Tables_number   1
_chemical_formula_structural   TbU2NiSn3Ir2
_chemical_formula_sum   'Tb1 U2 Ni1 Sn3 Ir2'
_cell_volume   188.21151651
_cell_formula_units_Z   1
loop_
 _symmetry_equiv_pos_site_id
 _symmetry_equiv_pos_as_xyz
  1  'x, y, z'
loop_
 _atom_site_type_symbol
 _atom_site_label
 _atom_site_symmetry_multiplicity
 _atom_site_fract_x
 _atom_site_fract_y
 _atom_site_fract_z
 _atom_site_occupancy
  Tb  Tb0  1  0.408338  0.408338  0.500000  1
  U  U1  1  0.581923  0.998846  0.500000  1
  U  U2  1  0.998846  0.581923  0.500000  1
  Ni  Ni3  1  0.996124  0.996124  0.500000  1
  Sn  Sn4  1  0.747917  0.747917  0.000000  1
  Sn  Sn5  1  0.246065  0.005368  0.000000  1
  Sn  Sn6  1  0.005368  0.246065  0.000000  1
  Ir  Ir7  1  0.683939  0.331479  0.000000  1
  Ir  Ir8  1  0.331479  0.683939  0.000000  1
