# generated using pymatgen
data_Lu2P7Ru11Rh
_symmetry_space_group_name_H-M   'P 1'
_cell_length_a   9.36361856
_cell_length_b   9.41574739
_cell_length_c   3.93232200
_cell_angle_alpha   90.00000000
_cell_angle_beta   90.00000000
_cell_angle_gamma   119.69487684
_symmetry_Int_Tables_number   1
_chemical_formula_structural   Lu2P7Ru11Rh
_chemical_formula_sum   'Lu2 P7 Ru11 Rh1'
_cell_volume   301.16556598
_cell_formula_units_Z   1
loop_
 _symmetry_equiv_pos_site_id
 _symmetry_equiv_pos_as_xyz
  1  'x, y, z'
loop_
 _atom_site_type_symbol
 _atom_site_label
 _atom_site_symmetry_multiplicity
 _atom_site_fract_x
 _atom_site_fract_y
 _atom_site_fract_z
 _atom_site_occupancy
  Lu  Lu0  1  0.669100  0.335031  0.500000  1
  Lu  Lu1  1  0.330623  0.661646  0.000000  1
  P  P2  1  0.598504  0.713161  0.500000  1
  P  P3  1  0.996935  0.999280  0.000000  1
  P  P4  1  0.279058  0.880365  0.500000  1
  P  P5  1  0.118763  0.401362  0.500000  1
  P  P6  1  0.885199  0.576912  0.000000  1
  P  P7  1  0.426468  0.308259  0.000000  1
  P  P8  1  0.697455  0.121800  0.000000  1
  Ru  Ru9  1  0.391304  0.443303  0.500000  1
  Ru  Ru10  1  0.912287  0.125168  0.500000  1
  Ru  Ru11  1  0.211330  0.087107  0.500000  1
  Ru  Ru12  1  0.877128  0.793398  0.500000  1
  Ru  Ru13  1  0.722990  0.890430  0.000000  1
  Ru  Ru14  1  0.109977  0.838070  0.000000  1
  Ru  Ru15  1  0.163609  0.270437  0.000000  1
  Ru  Ru16  1  0.430425  0.067415  0.000000  1
  Ru  Ru17  1  0.935507  0.362854  0.000000  1
  Ru  Ru18  1  0.640292  0.573170  0.000000  1
  Ru  Ru19  1  0.053554  0.608952  0.500000  1
  Rh  Rh20  1  0.549493  0.941877  0.500000  1
