# generated using pymatgen
data_Pa6SCl15
_symmetry_space_group_name_H-M   'P 1'
_cell_length_a   9.42612207
_cell_length_b   9.42612202
_cell_length_c   9.42612300
_cell_angle_alpha   109.47122274
_cell_angle_beta   109.47122264
_cell_angle_gamma   109.47122176
_symmetry_Int_Tables_number   1
_chemical_formula_structural   Pa6SCl15
_chemical_formula_sum   'Pa6 S1 Cl15'
_cell_volume   644.72914142
_cell_formula_units_Z   1
loop_
 _symmetry_equiv_pos_site_id
 _symmetry_equiv_pos_as_xyz
  1  'x, y, z'
loop_
 _atom_site_type_symbol
 _atom_site_label
 _atom_site_symmetry_multiplicity
 _atom_site_fract_x
 _atom_site_fract_y
 _atom_site_fract_z
 _atom_site_occupancy
  Pa  Pa0  1  0.000000  0.241877  0.241877  1
  Pa  Pa1  1  0.000000  0.758123  0.758123  1
  Pa  Pa2  1  0.241877  0.000000  0.241877  1
  Pa  Pa3  1  0.758123  0.000000  0.758123  1
  Pa  Pa4  1  0.241877  0.241877  0.000000  1
  Pa  Pa5  1  0.758123  0.758123  0.000000  1
  S  S6  1  0.000000  0.000000  0.000000  1
  Cl  Cl7  1  0.500626  0.250314  0.250314  1
  Cl  Cl8  1  0.499374  0.749686  0.749686  1
  Cl  Cl9  1  0.000000  0.250314  0.749686  1
  Cl  Cl10  1  0.000000  0.749686  0.250314  1
  Cl  Cl11  1  0.250314  0.500626  0.250314  1
  Cl  Cl12  1  0.749686  0.000000  0.250314  1
  Cl  Cl13  1  0.749686  0.499374  0.749686  1
  Cl  Cl14  1  0.250314  0.000000  0.749686  1
  Cl  Cl15  1  0.250314  0.250314  0.500626  1
  Cl  Cl16  1  0.749686  0.749686  0.499374  1
  Cl  Cl17  1  0.749686  0.250314  0.000000  1
  Cl  Cl18  1  0.250314  0.749686  0.000000  1
  Cl  Cl19  1  0.000000  0.500000  0.500000  1
  Cl  Cl20  1  0.500000  0.000000  0.500000  1
  Cl  Cl21  1  0.500000  0.500000  0.000000  1
