# generated using pymatgen
data_Y3ScAl8
_symmetry_space_group_name_H-M   'P 1'
_cell_length_a   9.57804634
_cell_length_b   9.57804662
_cell_length_c   9.57804671
_cell_angle_alpha   33.53532694
_cell_angle_beta   33.53532593
_cell_angle_gamma   33.53533081
_symmetry_Int_Tables_number   1
_chemical_formula_structural   Y3ScAl8
_chemical_formula_sum   'Y3 Sc1 Al8'
_cell_volume   238.86123077
_cell_formula_units_Z   1
loop_
 _symmetry_equiv_pos_site_id
 _symmetry_equiv_pos_as_xyz
  1  'x, y, z'
loop_
 _atom_site_type_symbol
 _atom_site_label
 _atom_site_symmetry_multiplicity
 _atom_site_fract_x
 _atom_site_fract_y
 _atom_site_fract_z
 _atom_site_occupancy
  Y  Y0  1  0.375064  0.375064  0.375064  1
  Y  Y1  1  0.998752  0.998752  0.998752  1
  Y  Y2  1  0.500891  0.500891  0.500891  1
  Sc  Sc3  1  0.874975  0.874975  0.874975  1
  Al  Al4  1  0.436647  0.935662  0.436647  1
  Al  Al5  1  0.938044  0.440160  0.938044  1
  Al  Al6  1  0.436647  0.436647  0.935662  1
  Al  Al7  1  0.938044  0.938044  0.440160  1
  Al  Al8  1  0.187726  0.187726  0.187726  1
  Al  Al9  1  0.687389  0.687389  0.687389  1
  Al  Al10  1  0.935662  0.436647  0.436647  1
  Al  Al11  1  0.440160  0.938044  0.938044  1
