# generated using pymatgen
data_Gd2SnIr2
_symmetry_space_group_name_H-M   'P 1'
_cell_length_a   5.79971500
_cell_length_b   5.79971488
_cell_length_c   7.97380100
_cell_angle_alpha   102.78372921
_cell_angle_beta   102.78372896
_cell_angle_gamma   58.40717919
_symmetry_Int_Tables_number   1
_chemical_formula_structural   Gd2SnIr2
_chemical_formula_sum   'Gd4 Sn2 Ir4'
_cell_volume   220.99909012
_cell_formula_units_Z   2
loop_
 _symmetry_equiv_pos_site_id
 _symmetry_equiv_pos_as_xyz
  1  'x, y, z'
loop_
 _atom_site_type_symbol
 _atom_site_label
 _atom_site_symmetry_multiplicity
 _atom_site_fract_x
 _atom_site_fract_y
 _atom_site_fract_z
 _atom_site_occupancy
  Gd  Gd0  1  0.804291  0.489332  0.149806  1
  Gd  Gd1  1  0.510668  0.195709  0.350195  1
  Gd  Gd2  1  0.489332  0.804291  0.649805  1
  Gd  Gd3  1  0.195709  0.510668  0.850195  1
  Sn  Sn4  1  0.164560  0.835440  0.250000  1
  Sn  Sn5  1  0.835440  0.164560  0.750001  1
  Ir  Ir6  1  0.276321  0.003919  0.997766  1
  Ir  Ir7  1  0.996081  0.723678  0.502235  1
  Ir  Ir8  1  0.003918  0.276321  0.497765  1
  Ir  Ir9  1  0.723678  0.996081  0.002235  1
