# generated using pymatgen
data_Ho10In2Hg6PdPt3
_symmetry_space_group_name_H-M   'P 1'
_cell_length_a   3.61347500
_cell_length_b   7.95444418
_cell_length_c   18.34589103
_cell_angle_alpha   89.45353890
_cell_angle_beta   90.00000000
_cell_angle_gamma   90.00000000
_symmetry_Int_Tables_number   1
_chemical_formula_structural   Ho10In2Hg6PdPt3
_chemical_formula_sum   'Ho10 In2 Hg6 Pd1 Pt3'
_cell_volume   527.29535952
_cell_formula_units_Z   1
loop_
 _symmetry_equiv_pos_site_id
 _symmetry_equiv_pos_as_xyz
  1  'x, y, z'
loop_
 _atom_site_type_symbol
 _atom_site_label
 _atom_site_symmetry_multiplicity
 _atom_site_fract_x
 _atom_site_fract_y
 _atom_site_fract_z
 _atom_site_occupancy
  Ho  Ho0  1  0.000000  0.500078  0.499949  1
  Ho  Ho1  1  0.000000  0.999762  0.999880  1
  Ho  Ho2  1  0.000000  0.731377  0.284848  1
  Ho  Ho3  1  0.000000  0.264182  0.715222  1
  Ho  Ho4  1  0.000000  0.753464  0.780623  1
  Ho  Ho5  1  0.000000  0.250369  0.218582  1
  Ho  Ho6  1  0.000000  0.610895  0.083980  1
  Ho  Ho7  1  0.000000  0.389111  0.915782  1
  Ho  Ho8  1  0.000000  0.887106  0.585700  1
  Ho  Ho9  1  0.000000  0.113337  0.415673  1
  In  In10  1  0.500000  0.923193  0.150207  1
  In  In11  1  0.500000  0.077880  0.850501  1
  Hg  Hg12  1  0.500000  0.716959  0.934178  1
  Hg  Hg13  1  0.500000  0.283100  0.066052  1
  Hg  Hg14  1  0.500000  0.789294  0.434794  1
  Hg  Hg15  1  0.500000  0.212477  0.564028  1
  Hg  Hg16  1  0.500000  0.580161  0.645401  1
  Hg  Hg17  1  0.500000  0.417016  0.354361  1
  Pd  Pd18  1  0.500000  0.025753  0.302681  1
  Pt  Pt19  1  0.500000  0.532932  0.196316  1
  Pt  Pt20  1  0.500000  0.466954  0.803728  1
  Pt  Pt21  1  0.500000  0.974600  0.697512  1
