# generated using pymatgen
data_SrPa2S5
_symmetry_space_group_name_H-M   'P 1'
_cell_length_a   7.42169000
_cell_length_b   8.30986523
_cell_length_c   11.84954622
_cell_angle_alpha   89.64233783
_cell_angle_beta   90.00000000
_cell_angle_gamma   90.00000000
_symmetry_Int_Tables_number   1
_chemical_formula_structural   SrPa2S5
_chemical_formula_sum   'Sr4 Pa8 S20'
_cell_volume   730.78571261
_cell_formula_units_Z   4
loop_
 _symmetry_equiv_pos_site_id
 _symmetry_equiv_pos_as_xyz
  1  'x, y, z'
loop_
 _atom_site_type_symbol
 _atom_site_label
 _atom_site_symmetry_multiplicity
 _atom_site_fract_x
 _atom_site_fract_y
 _atom_site_fract_z
 _atom_site_occupancy
  Sr  Sr0  1  0.045957  0.491378  0.329262  1
  Sr  Sr1  1  0.545957  0.508622  0.170738  1
  Sr  Sr2  1  0.954043  0.508622  0.670738  1
  Sr  Sr3  1  0.454043  0.491378  0.829262  1
  Pa  Pa4  1  0.023834  0.999331  0.319617  1
  Pa  Pa5  1  0.523834  0.000669  0.180383  1
  Pa  Pa6  1  0.976166  0.000669  0.680383  1
  Pa  Pa7  1  0.476166  0.999331  0.819617  1
  Pa  Pa8  1  0.071909  0.754689  0.008769  1
  Pa  Pa9  1  0.571909  0.245311  0.491231  1
  Pa  Pa10  1  0.928091  0.245311  0.991231  1
  Pa  Pa11  1  0.428091  0.754689  0.508769  1
  S  S12  1  0.663262  0.955142  0.400630  1
  S  S13  1  0.163262  0.044858  0.099370  1
  S  S14  1  0.336738  0.044858  0.599370  1
  S  S15  1  0.836738  0.955142  0.900630  1
  S  S16  1  0.453357  0.783784  0.002039  1
  S  S17  1  0.953357  0.216216  0.497961  1
  S  S18  1  0.546643  0.216216  0.997961  1
  S  S19  1  0.046643  0.783784  0.502039  1
  S  S20  1  0.835141  0.775238  0.187757  1
  S  S21  1  0.335141  0.224762  0.312243  1
  S  S22  1  0.164859  0.224762  0.812243  1
  S  S23  1  0.664859  0.775238  0.687757  1
  S  S24  1  0.308064  0.765543  0.283749  1
  S  S25  1  0.808064  0.234457  0.216251  1
  S  S26  1  0.691936  0.234457  0.716251  1
  S  S27  1  0.191936  0.765543  0.783749  1
  S  S28  1  0.175703  0.461176  0.079612  1
  S  S29  1  0.675703  0.538824  0.420388  1
  S  S30  1  0.824297  0.538824  0.920388  1
  S  S31  1  0.324297  0.461176  0.579612  1
