# generated using pymatgen
data_Tm20InBi7Ir4
_symmetry_space_group_name_H-M   'P 1'
_cell_length_a   7.90143444
_cell_length_b   9.00306343
_cell_length_c   12.38510800
_cell_angle_alpha   90.13043094
_cell_angle_beta   90.22410242
_cell_angle_gamma   90.06051409
_symmetry_Int_Tables_number   1
_chemical_formula_structural   Tm20InBi7Ir4
_chemical_formula_sum   'Tm20 In1 Bi7 Ir4'
_cell_volume   881.03133623
_cell_formula_units_Z   1
loop_
 _symmetry_equiv_pos_site_id
 _symmetry_equiv_pos_as_xyz
  1  'x, y, z'
loop_
 _atom_site_type_symbol
 _atom_site_label
 _atom_site_symmetry_multiplicity
 _atom_site_fract_x
 _atom_site_fract_y
 _atom_site_fract_z
 _atom_site_occupancy
  Tm  Tm0  1  0.666106  0.752636  0.709962  1
  Tm  Tm1  1  0.339334  0.248769  0.293864  1
  Tm  Tm2  1  0.155995  0.245151  0.791120  1
  Tm  Tm3  1  0.840481  0.748928  0.207162  1
  Tm  Tm4  1  0.117044  0.754002  0.806589  1
  Tm  Tm5  1  0.876842  0.250703  0.190276  1
  Tm  Tm6  1  0.630035  0.247190  0.691089  1
  Tm  Tm7  1  0.377944  0.751444  0.308865  1
  Tm  Tm8  1  0.554532  0.748814  0.998433  1
  Tm  Tm9  1  0.442616  0.250941  0.001845  1
  Tm  Tm10  1  0.054632  0.246352  0.504697  1
  Tm  Tm11  1  0.944407  0.753436  0.500227  1
  Tm  Tm12  1  0.824900  0.456149  0.933129  1
  Tm  Tm13  1  0.173351  0.543733  0.065617  1
  Tm  Tm14  1  0.328002  0.543625  0.567317  1
  Tm  Tm15  1  0.172861  0.957636  0.066288  1
  Tm  Tm16  1  0.675202  0.458831  0.434667  1
  Tm  Tm17  1  0.828034  0.040726  0.927928  1
  Tm  Tm18  1  0.674575  0.042642  0.435178  1
  Tm  Tm19  1  0.323076  0.959256  0.567652  1
  In  In20  1  0.931808  0.006149  0.669266  1
  Bi  Bi21  1  0.066662  0.991519  0.326078  1
  Bi  Bi22  1  0.432314  0.991211  0.828828  1
  Bi  Bi23  1  0.068941  0.508550  0.329238  1
  Bi  Bi24  1  0.566983  0.008778  0.171724  1
  Bi  Bi25  1  0.933994  0.491525  0.671513  1
  Bi  Bi26  1  0.565980  0.491170  0.173422  1
  Bi  Bi27  1  0.432711  0.507809  0.826828  1
  Ir  Ir28  1  0.925729  0.749742  0.991074  1
  Ir  Ir29  1  0.072565  0.250314  0.008243  1
  Ir  Ir30  1  0.429418  0.251406  0.509039  1
  Ir  Ir31  1  0.572927  0.750870  0.492842  1
