# generated using pymatgen
data_Y8SiPd23Au
_symmetry_space_group_name_H-M   'P 1'
_cell_length_a   8.33832000
_cell_length_b   8.37507700
_cell_length_c   8.37919900
_cell_angle_alpha   90.00000000
_cell_angle_beta   90.00000000
_cell_angle_gamma   90.00000000
_symmetry_Int_Tables_number   1
_chemical_formula_structural   Y8SiPd23Au
_chemical_formula_sum   'Y8 Si1 Pd23 Au1'
_cell_volume   585.15358669
_cell_formula_units_Z   1
loop_
 _symmetry_equiv_pos_site_id
 _symmetry_equiv_pos_as_xyz
  1  'x, y, z'
loop_
 _atom_site_type_symbol
 _atom_site_label
 _atom_site_symmetry_multiplicity
 _atom_site_fract_x
 _atom_site_fract_y
 _atom_site_fract_z
 _atom_site_occupancy
  Y  Y0  1  0.253332  0.250039  0.257750  1
  Y  Y1  1  0.746546  0.746695  0.745765  1
  Y  Y2  1  0.746546  0.746695  0.254235  1
  Y  Y3  1  0.746546  0.253305  0.745765  1
  Y  Y4  1  0.253332  0.250039  0.742250  1
  Y  Y5  1  0.253332  0.749961  0.257750  1
  Y  Y6  1  0.253332  0.749961  0.742250  1
  Y  Y7  1  0.746546  0.253305  0.254235  1
  Si  Si8  1  0.000032  0.000000  0.000000  1
  Pd  Pd9  1  0.742775  0.500000  0.000000  1
  Pd  Pd10  1  0.999957  0.257204  0.500000  1
  Pd  Pd11  1  0.499813  0.256788  0.000000  1
  Pd  Pd12  1  0.999957  0.742796  0.500000  1
  Pd  Pd13  1  0.499813  0.743212  0.000000  1
  Pd  Pd14  1  0.500185  0.000000  0.257723  1
  Pd  Pd15  1  0.257225  0.000000  0.500000  1
  Pd  Pd16  1  0.500185  0.000000  0.742277  1
  Pd  Pd17  1  0.742658  0.000000  0.500000  1
  Pd  Pd18  1  0.000182  0.500000  0.258030  1
  Pd  Pd19  1  0.000182  0.500000  0.741970  1
  Pd  Pd20  1  0.252345  0.500000  0.500000  1
  Pd  Pd21  1  0.747625  0.500000  0.500000  1
  Pd  Pd22  1  0.500167  0.252375  0.500000  1
  Pd  Pd23  1  0.500167  0.747625  0.500000  1
  Pd  Pd24  1  0.499821  0.500000  0.253406  1
  Pd  Pd25  1  0.499821  0.500000  0.746594  1
  Pd  Pd26  1  0.280478  0.000000  0.000000  1
  Pd  Pd27  1  0.719294  0.000000  0.000000  1
  Pd  Pd28  1  0.999983  0.279043  0.000000  1
  Pd  Pd29  1  0.999983  0.720957  0.000000  1
  Pd  Pd30  1  0.999661  0.000000  0.279799  1
  Pd  Pd31  1  0.999661  0.000000  0.720201  1
  Au  Au32  1  0.258519  0.500000  0.000000  1
