# generated using pymatgen
data_Tm3In3BiIr2
_symmetry_space_group_name_H-M   'P 1'
_cell_length_a   7.70914900
_cell_length_b   7.70914886
_cell_length_c   4.02267800
_cell_angle_alpha   90.00000000
_cell_angle_beta   90.00000000
_cell_angle_gamma   119.99999632
_symmetry_Int_Tables_number   1
_chemical_formula_structural   Tm3In3BiIr2
_chemical_formula_sum   'Tm3 In3 Bi1 Ir2'
_cell_volume   207.04215981
_cell_formula_units_Z   1
loop_
 _symmetry_equiv_pos_site_id
 _symmetry_equiv_pos_as_xyz
  1  'x, y, z'
loop_
 _atom_site_type_symbol
 _atom_site_label
 _atom_site_symmetry_multiplicity
 _atom_site_fract_x
 _atom_site_fract_y
 _atom_site_fract_z
 _atom_site_occupancy
  Tm  Tm0  1  0.581317  0.615041  0.000000  1
  Tm  Tm1  1  0.384959  0.966276  0.000000  1
  Tm  Tm2  1  0.033724  0.418683  0.000000  1
  In  In3  1  0.020512  0.762875  0.500000  1
  In  In4  1  0.237125  0.257638  0.500000  1
  In  In5  1  0.742362  0.979488  0.500000  1
  Bi  Bi6  1  0.666667  0.333333  0.500000  1
  Ir  Ir7  1  0.000000  0.000000  0.000000  1
  Ir  Ir8  1  0.333333  0.666667  0.500000  1
