# generated using pymatgen
data_Ho4Cr3ReB16
_symmetry_space_group_name_H-M   'P 1'
_cell_length_a   3.48463900
_cell_length_b   5.93607253
_cell_length_c   11.46877295
_cell_angle_alpha   89.91783532
_cell_angle_beta   90.00000000
_cell_angle_gamma   90.00000000
_symmetry_Int_Tables_number   1
_chemical_formula_structural   Ho4Cr3ReB16
_chemical_formula_sum   'Ho4 Cr3 Re1 B16'
_cell_volume   237.23212537
_cell_formula_units_Z   1
loop_
 _symmetry_equiv_pos_site_id
 _symmetry_equiv_pos_as_xyz
  1  'x, y, z'
loop_
 _atom_site_type_symbol
 _atom_site_label
 _atom_site_symmetry_multiplicity
 _atom_site_fract_x
 _atom_site_fract_y
 _atom_site_fract_z
 _atom_site_occupancy
  Ho  Ho0  1  0.000000  0.624103  0.351817  1
  Ho  Ho1  1  0.000000  0.375487  0.650157  1
  Ho  Ho2  1  0.000000  0.126489  0.152149  1
  Ho  Ho3  1  0.000000  0.875304  0.847637  1
  Cr  Cr4  1  0.000000  0.370830  0.916690  1
  Cr  Cr5  1  0.000000  0.123803  0.418284  1
  Cr  Cr6  1  0.000000  0.876167  0.580067  1
  Re  Re7  1  0.000000  0.627361  0.083500  1
  B  B8  1  0.500000  0.784923  0.186461  1
  B  B9  1  0.500000  0.217085  0.814707  1
  B  B10  1  0.500000  0.282469  0.316950  1
  B  B11  1  0.500000  0.717660  0.683729  1
  B  B12  1  0.500000  0.865303  0.031368  1
  B  B13  1  0.500000  0.136478  0.966769  1
  B  B14  1  0.500000  0.362954  0.468228  1
  B  B15  1  0.500000  0.637289  0.532662  1
  B  B16  1  0.500000  0.886955  0.453540  1
  B  B17  1  0.500000  0.113921  0.547108  1
  B  B18  1  0.500000  0.384033  0.046067  1
  B  B19  1  0.500000  0.612532  0.951166  1
  B  B20  1  0.500000  0.976608  0.309226  1
  B  B21  1  0.500000  0.024229  0.691368  1
  B  B22  1  0.500000  0.473781  0.193290  1
  B  B23  1  0.500000  0.524237  0.807059  1
