# generated using pymatgen
data_YbDy7(ReC2)4
_symmetry_space_group_name_H-M   'P 1'
_cell_length_a   5.12275400
_cell_length_b   6.57500309
_cell_length_c   9.94151625
_cell_angle_alpha   89.39077229
_cell_angle_beta   90.00000000
_cell_angle_gamma   90.00000000
_symmetry_Int_Tables_number   1
_chemical_formula_structural   YbDy7(ReC2)4
_chemical_formula_sum   'Yb1 Dy7 Re4 C8'
_cell_volume   334.83244759
_cell_formula_units_Z   1
loop_
 _symmetry_equiv_pos_site_id
 _symmetry_equiv_pos_as_xyz
  1  'x, y, z'
loop_
 _atom_site_type_symbol
 _atom_site_label
 _atom_site_symmetry_multiplicity
 _atom_site_fract_x
 _atom_site_fract_y
 _atom_site_fract_z
 _atom_site_occupancy
  Yb  Yb0  1  0.250000  0.031250  0.280181  1
  Dy  Dy1  1  0.250000  0.686030  0.554033  1
  Dy  Dy2  1  0.750000  0.313000  0.444023  1
  Dy  Dy3  1  0.750000  0.816008  0.055997  1
  Dy  Dy4  1  0.250000  0.182126  0.945841  1
  Dy  Dy5  1  0.250000  0.529578  0.220612  1
  Dy  Dy6  1  0.750000  0.469360  0.781262  1
  Dy  Dy7  1  0.750000  0.968832  0.718742  1
  Re  Re8  1  0.250000  0.723778  0.862877  1
  Re  Re9  1  0.750000  0.275941  0.135318  1
  Re  Re10  1  0.750000  0.774525  0.364192  1
  Re  Re11  1  0.250000  0.227797  0.636227  1
  C  C12  1  0.250000  0.458500  0.759816  1
  C  C13  1  0.750000  0.541574  0.241034  1
  C  C14  1  0.750000  0.040923  0.258660  1
  C  C15  1  0.250000  0.960071  0.739883  1
  C  C16  1  0.250000  0.813276  0.045314  1
  C  C17  1  0.750000  0.177601  0.952559  1
  C  C18  1  0.750000  0.683058  0.549310  1
  C  C19  1  0.250000  0.326775  0.454117  1
