# generated using pymatgen
data_Tb3Y(HoBi)6
_symmetry_space_group_name_H-M   'P 1'
_cell_length_a   8.27271500
_cell_length_b   9.48964200
_cell_length_c   12.08841500
_cell_angle_alpha   90.00000000
_cell_angle_beta   90.00000000
_cell_angle_gamma   90.00000000
_symmetry_Int_Tables_number   1
_chemical_formula_structural   Tb3Y(HoBi)6
_chemical_formula_sum   'Tb6 Y2 Ho12 Bi12'
_cell_volume   949.00227336
_cell_formula_units_Z   2
loop_
 _symmetry_equiv_pos_site_id
 _symmetry_equiv_pos_as_xyz
  1  'x, y, z'
loop_
 _atom_site_type_symbol
 _atom_site_label
 _atom_site_symmetry_multiplicity
 _atom_site_fract_x
 _atom_site_fract_y
 _atom_site_fract_z
 _atom_site_occupancy
  Tb  Tb0  1  0.186343  0.750000  0.718948  1
  Tb  Tb1  1  0.686343  0.750000  0.781052  1
  Tb  Tb2  1  0.813541  0.250000  0.281150  1
  Tb  Tb3  1  0.313541  0.250000  0.218850  1
  Tb  Tb4  1  0.354090  0.750000  0.215976  1
  Tb  Tb5  1  0.854090  0.750000  0.284024  1
  Y  Y6  1  0.645816  0.250000  0.784495  1
  Y  Y7  1  0.145816  0.250000  0.715505  1
  Ho  Ho8  1  0.025843  0.750000  0.988251  1
  Ho  Ho9  1  0.525843  0.750000  0.511749  1
  Ho  Ho10  1  0.974391  0.250000  0.011590  1
  Ho  Ho11  1  0.474391  0.250000  0.488410  1
  Ho  Ho12  1  0.306569  0.435626  0.940386  1
  Ho  Ho13  1  0.806569  0.064374  0.559614  1
  Ho  Ho14  1  0.693295  0.935580  0.059676  1
  Ho  Ho15  1  0.193295  0.564420  0.440324  1
  Ho  Ho16  1  0.693295  0.564420  0.059676  1
  Ho  Ho17  1  0.193295  0.935580  0.440324  1
  Ho  Ho18  1  0.306569  0.064374  0.940386  1
  Ho  Ho19  1  0.806569  0.435626  0.559614  1
  Bi  Bi20  1  0.433754  0.004235  0.673308  1
  Bi  Bi21  1  0.933754  0.495765  0.826692  1
  Bi  Bi22  1  0.566339  0.504079  0.326759  1
  Bi  Bi23  1  0.066339  0.995921  0.173241  1
  Bi  Bi24  1  0.566339  0.995921  0.326759  1
  Bi  Bi25  1  0.066339  0.504079  0.173241  1
  Bi  Bi26  1  0.433754  0.495765  0.673308  1
  Bi  Bi27  1  0.933754  0.004235  0.826692  1
  Bi  Bi28  1  0.408350  0.750000  0.957613  1
  Bi  Bi29  1  0.908350  0.750000  0.542387  1
  Bi  Bi30  1  0.591713  0.250000  0.041812  1
  Bi  Bi31  1  0.091713  0.250000  0.458188  1
