# generated using pymatgen
data_Ac3Yb(MgIr)4
_symmetry_space_group_name_H-M   'P 1'
_cell_length_a   4.30041100
_cell_length_b   7.46080890
_cell_length_c   8.75066073
_cell_angle_alpha   89.81514064
_cell_angle_beta   90.00000000
_cell_angle_gamma   90.00000000
_symmetry_Int_Tables_number   1
_chemical_formula_structural   Ac3Yb(MgIr)4
_chemical_formula_sum   'Ac3 Yb1 Mg4 Ir4'
_cell_volume   280.75950389
_cell_formula_units_Z   1
loop_
 _symmetry_equiv_pos_site_id
 _symmetry_equiv_pos_as_xyz
  1  'x, y, z'
loop_
 _atom_site_type_symbol
 _atom_site_label
 _atom_site_symmetry_multiplicity
 _atom_site_fract_x
 _atom_site_fract_y
 _atom_site_fract_z
 _atom_site_occupancy
  Ac  Ac0  1  0.250000  0.535456  0.178696  1
  Ac  Ac1  1  0.750000  0.465323  0.817671  1
  Ac  Ac2  1  0.250000  0.032665  0.329617  1
  Yb  Yb3  1  0.750000  0.964008  0.678928  1
  Mg  Mg4  1  0.250000  0.642316  0.560498  1
  Mg  Mg5  1  0.750000  0.365582  0.447544  1
  Mg  Mg6  1  0.250000  0.126054  0.936145  1
  Mg  Mg7  1  0.750000  0.870411  0.049033  1
  Ir  Ir8  1  0.750000  0.735531  0.375320  1
  Ir  Ir9  1  0.250000  0.264072  0.627414  1
  Ir  Ir10  1  0.750000  0.235103  0.127255  1
  Ir  Ir11  1  0.250000  0.763480  0.871880  1
