# generated using pymatgen
data_TbY(HoBi)3
_symmetry_space_group_name_H-M   'P 1'
_cell_length_a   8.25949100
_cell_length_b   9.50408100
_cell_length_c   12.06964900
_cell_angle_alpha   90.00000000
_cell_angle_beta   90.00000000
_cell_angle_gamma   90.00000000
_symmetry_Int_Tables_number   1
_chemical_formula_structural   TbY(HoBi)3
_chemical_formula_sum   'Tb4 Y4 Ho12 Bi12'
_cell_volume   947.45382569
_cell_formula_units_Z   4
loop_
 _symmetry_equiv_pos_site_id
 _symmetry_equiv_pos_as_xyz
  1  'x, y, z'
loop_
 _atom_site_type_symbol
 _atom_site_label
 _atom_site_symmetry_multiplicity
 _atom_site_fract_x
 _atom_site_fract_y
 _atom_site_fract_z
 _atom_site_occupancy
  Tb  Tb0  1  0.186243  0.750000  0.719110  1
  Tb  Tb1  1  0.686243  0.750000  0.780890  1
  Tb  Tb2  1  0.813757  0.250000  0.280890  1
  Tb  Tb3  1  0.313757  0.250000  0.219110  1
  Y  Y4  1  0.353822  0.750000  0.215360  1
  Y  Y5  1  0.853822  0.750000  0.284640  1
  Y  Y6  1  0.646178  0.250000  0.784640  1
  Y  Y7  1  0.146178  0.250000  0.715360  1
  Ho  Ho8  1  0.026031  0.750000  0.988873  1
  Ho  Ho9  1  0.526031  0.750000  0.511127  1
  Ho  Ho10  1  0.973969  0.250000  0.011127  1
  Ho  Ho11  1  0.473969  0.250000  0.488873  1
  Ho  Ho12  1  0.306289  0.436557  0.940194  1
  Ho  Ho13  1  0.806289  0.063443  0.559806  1
  Ho  Ho14  1  0.693711  0.936557  0.059806  1
  Ho  Ho15  1  0.193711  0.563443  0.440194  1
  Ho  Ho16  1  0.693711  0.563443  0.059806  1
  Ho  Ho17  1  0.193711  0.936557  0.440194  1
  Ho  Ho18  1  0.306289  0.063443  0.940194  1
  Ho  Ho19  1  0.806289  0.436557  0.559806  1
  Bi  Bi20  1  0.433630  0.003911  0.673399  1
  Bi  Bi21  1  0.933630  0.496089  0.826601  1
  Bi  Bi22  1  0.566370  0.503911  0.326601  1
  Bi  Bi23  1  0.066370  0.996089  0.173399  1
  Bi  Bi24  1  0.566370  0.996089  0.326601  1
  Bi  Bi25  1  0.066370  0.503911  0.173399  1
  Bi  Bi26  1  0.433630  0.496089  0.673399  1
  Bi  Bi27  1  0.933630  0.003911  0.826601  1
  Bi  Bi28  1  0.409090  0.750000  0.958236  1
  Bi  Bi29  1  0.909090  0.750000  0.541764  1
  Bi  Bi30  1  0.590910  0.250000  0.041764  1
  Bi  Bi31  1  0.090910  0.250000  0.458236  1
