# generated using pymatgen
data_Br17N
_symmetry_space_group_name_H-M   'P 1'
_cell_length_a   18.94965300
_cell_length_b   7.13214293
_cell_length_c   9.77336500
_cell_angle_alpha   75.72344601
_cell_angle_beta   90.00000000
_cell_angle_gamma   90.00000000
_symmetry_Int_Tables_number   1
_chemical_formula_structural   Br17N
_chemical_formula_sum   'Br34 N2'
_cell_volume   1280.09295328
_cell_formula_units_Z   2
loop_
 _symmetry_equiv_pos_site_id
 _symmetry_equiv_pos_as_xyz
  1  'x, y, z'
loop_
 _atom_site_type_symbol
 _atom_site_label
 _atom_site_symmetry_multiplicity
 _atom_site_fract_x
 _atom_site_fract_y
 _atom_site_fract_z
 _atom_site_occupancy
  Br  Br0  1  0.317674  0.032939  0.414944  1
  Br  Br1  1  0.817674  0.967061  0.585056  1
  Br  Br2  1  0.990837  0.779307  0.051362  1
  Br  Br3  1  0.490837  0.220693  0.948638  1
  Br  Br4  1  0.057835  0.296887  0.325263  1
  Br  Br5  1  0.557835  0.703113  0.674737  1
  Br  Br6  1  0.666467  0.768851  0.300338  1
  Br  Br7  1  0.166467  0.231149  0.699662  1
  Br  Br8  1  0.186124  0.051239  0.937923  1
  Br  Br9  1  0.686124  0.948761  0.062077  1
  Br  Br10  1  0.850354  0.062647  0.279210  1
  Br  Br11  1  0.544048  0.219278  0.181025  1
  Br  Br12  1  0.739513  0.382327  0.169946  1
  Br  Br13  1  0.239513  0.617673  0.830054  1
  Br  Br14  1  0.042151  0.067129  0.185411  1
  Br  Br15  1  0.542151  0.932871  0.814589  1
  Br  Br16  1  0.910967  0.354109  0.889076  1
  Br  Br17  1  0.350354  0.937353  0.720790  1
  Br  Br18  1  0.481961  0.344053  0.536714  1
  Br  Br19  1  0.410967  0.645891  0.110924  1
  Br  Br20  1  0.748132  0.442809  0.750227  1
  Br  Br21  1  0.248132  0.557191  0.249773  1
  Br  Br22  1  0.981961  0.655947  0.463286  1
  Br  Br23  1  0.164580  0.812484  0.219493  1
  Br  Br24  1  0.595258  0.227292  0.428217  1
  Br  Br25  1  0.095258  0.772708  0.571783  1
  Br  Br26  1  0.019877  0.291121  0.796778  1
  Br  Br27  1  0.519877  0.708879  0.203222  1
  Br  Br28  1  0.839953  0.878111  0.827979  1
  Br  Br29  1  0.339953  0.121889  0.172021  1
  Br  Br30  1  0.871691  0.583522  0.349648  1
  Br  Br31  1  0.371691  0.416478  0.650352  1
  Br  Br32  1  0.664580  0.187516  0.780507  1
  Br  Br33  1  0.044048  0.780722  0.818975  1
  N  N34  1  0.834457  0.321256  0.184701  1
  N  N35  1  0.334457  0.678744  0.815299  1
