# generated using pymatgen
data_YEr3Al18(PtRh2)2
_symmetry_space_group_name_H-M   'P 1'
_cell_length_a   7.56900997
_cell_length_b   7.57133254
_cell_length_c   9.44315420
_cell_angle_alpha   89.97614325
_cell_angle_beta   89.96191114
_cell_angle_gamma   119.57869559
_symmetry_Int_Tables_number   1
_chemical_formula_structural   YEr3Al18(PtRh2)2
_chemical_formula_sum   'Y1 Er3 Al18 Pt2 Rh4'
_cell_volume   470.63798405
_cell_formula_units_Z   1
loop_
 _symmetry_equiv_pos_site_id
 _symmetry_equiv_pos_as_xyz
  1  'x, y, z'
loop_
 _atom_site_type_symbol
 _atom_site_label
 _atom_site_symmetry_multiplicity
 _atom_site_fract_x
 _atom_site_fract_y
 _atom_site_fract_z
 _atom_site_occupancy
  Y  Y0  1  0.995098  0.669681  0.750072  1
  Er  Er1  1  0.004768  0.329872  0.249751  1
  Er  Er2  1  0.669997  0.995271  0.750248  1
  Er  Er3  1  0.330015  0.004907  0.249743  1
  Al  Al4  1  0.125733  0.126255  0.750885  1
  Al  Al5  1  0.874292  0.874480  0.249106  1
  Al  Al6  1  0.000668  0.330364  0.577394  1
  Al  Al7  1  0.999360  0.668999  0.421178  1
  Al  Al8  1  0.000755  0.665256  0.075690  1
  Al  Al9  1  0.335300  0.999821  0.925680  1
  Al  Al10  1  0.999269  0.334030  0.925728  1
  Al  Al11  1  0.665291  0.000784  0.074987  1
  Al  Al12  1  0.668973  0.999397  0.421922  1
  Al  Al13  1  0.331623  0.001306  0.577407  1
  Al  Al14  1  0.331667  0.331692  0.051960  1
  Al  Al15  1  0.667832  0.668331  0.948941  1
  Al  Al16  1  0.669334  0.669884  0.556573  1
  Al  Al17  1  0.330179  0.330197  0.442505  1
  Al  Al18  1  0.340656  0.547458  0.753923  1
  Al  Al19  1  0.659782  0.452399  0.246127  1
  Al  Al20  1  0.546705  0.339265  0.753934  1
  Al  Al21  1  0.452503  0.659968  0.246117  1
  Pt  Pt22  1  0.672280  0.327537  0.499799  1
  Pt  Pt23  1  0.327713  0.672351  0.499802  1
  Rh  Rh24  1  0.327991  0.672189  0.000270  1
  Rh  Rh25  1  0.671975  0.327586  0.000284  1
  Rh  Rh26  1  0.000124  0.000379  0.499629  1
  Rh  Rh27  1  0.000115  0.000342  0.000348  1
