# generated using pymatgen
data_Ho12Th8Si15Ir
_symmetry_space_group_name_H-M   'P 1'
_cell_length_a   7.50834657
_cell_length_b   7.76150957
_cell_length_c   14.74039200
_cell_angle_alpha   89.88889284
_cell_angle_beta   89.91863121
_cell_angle_gamma   90.23428148
_symmetry_Int_Tables_number   1
_chemical_formula_structural   Ho12Th8Si15Ir
_chemical_formula_sum   'Ho12 Th8 Si15 Ir1'
_cell_volume   859.00294108
_cell_formula_units_Z   1
loop_
 _symmetry_equiv_pos_site_id
 _symmetry_equiv_pos_as_xyz
  1  'x, y, z'
loop_
 _atom_site_type_symbol
 _atom_site_label
 _atom_site_symmetry_multiplicity
 _atom_site_fract_x
 _atom_site_fract_y
 _atom_site_fract_z
 _atom_site_occupancy
  Ho  Ho0  1  0.648241  0.993737  0.250572  1
  Ho  Ho1  1  0.150060  0.510687  0.249383  1
  Ho  Ho2  1  0.848283  0.493256  0.754211  1
  Ho  Ho3  1  0.350440  0.009064  0.751938  1
  Ho  Ho4  1  0.679734  0.813310  0.882269  1
  Ho  Ho5  1  0.177247  0.679960  0.621731  1
  Ho  Ho6  1  0.820756  0.330576  0.120827  1
  Ho  Ho7  1  0.319248  0.177749  0.376428  1
  Ho  Ho8  1  0.321468  0.176724  0.123237  1
  Ho  Ho9  1  0.821048  0.321648  0.376642  1
  Ho  Ho10  1  0.175211  0.675904  0.877976  1
  Ho  Ho11  1  0.679889  0.823454  0.621923  1
  Th  Th12  1  0.978695  0.814284  0.096097  1
  Th  Th13  1  0.477306  0.679947  0.401931  1
  Th  Th14  1  0.529210  0.326648  0.902668  1
  Th  Th15  1  0.022571  0.179760  0.599304  1
  Th  Th16  1  0.022992  0.184113  0.902211  1
  Th  Th17  1  0.522903  0.320352  0.598870  1
  Th  Th18  1  0.475947  0.680692  0.099437  1
  Th  Th19  1  0.977787  0.819339  0.401201  1
  Si  Si20  1  0.769059  0.628157  0.251208  1
  Si  Si21  1  0.269761  0.873642  0.250382  1
  Si  Si22  1  0.731237  0.123844  0.749623  1
  Si  Si23  1  0.230825  0.377259  0.747391  1
  Si  Si24  1  0.023047  0.106336  0.248582  1
  Si  Si25  1  0.525053  0.392657  0.249786  1
  Si  Si26  1  0.470770  0.610686  0.747333  1
  Si  Si27  1  0.973027  0.891926  0.748526  1
  Si  Si28  1  0.350346  0.971902  0.540311  1
  Si  Si29  1  0.648926  0.028917  0.042472  1
  Si  Si30  1  0.149681  0.470168  0.460190  1
  Si  Si31  1  0.156993  0.468442  0.040488  1
  Si  Si32  1  0.647795  0.028926  0.459053  1
  Si  Si33  1  0.350261  0.969107  0.960813  1
  Si  Si34  1  0.850082  0.529070  0.538825  1
  Ir  Ir35  1  0.854102  0.517757  0.956165  1
