# generated using pymatgen
data_Tb3Al2Si2AgPd
_symmetry_space_group_name_H-M   'P 1'
_cell_length_a   7.04354900
_cell_length_b   6.88660749
_cell_length_c   4.32704800
_cell_angle_alpha   90.00000000
_cell_angle_beta   90.00000000
_cell_angle_gamma   120.75677887
_symmetry_Int_Tables_number   1
_chemical_formula_structural   Tb3Al2Si2AgPd
_chemical_formula_sum   'Tb3 Al2 Si2 Ag1 Pd1'
_cell_volume   180.36679965
_cell_formula_units_Z   1
loop_
 _symmetry_equiv_pos_site_id
 _symmetry_equiv_pos_as_xyz
  1  'x, y, z'
loop_
 _atom_site_type_symbol
 _atom_site_label
 _atom_site_symmetry_multiplicity
 _atom_site_fract_x
 _atom_site_fract_y
 _atom_site_fract_z
 _atom_site_occupancy
  Tb  Tb0  1  0.423561  0.000000  0.000000  1
  Tb  Tb1  1  0.994495  0.413389  0.000000  1
  Tb  Tb2  1  0.581104  0.586610  0.000000  1
  Al  Al3  1  0.232403  0.235709  0.500000  1
  Al  Al4  1  0.996696  0.764291  0.500000  1
  Si  Si5  1  0.666166  0.341422  0.500000  1
  Si  Si6  1  0.324745  0.658577  0.500000  1
  Ag  Ag7  1  0.750913  0.000000  0.500000  1
  Pd  Pd8  1  0.029915  0.000000  0.000000  1
