# generated using pymatgen
data_Cs2Ca(BrCl)2
_symmetry_space_group_name_H-M   'P 1'
_cell_length_a   9.95433312
_cell_length_b   9.95433240
_cell_length_c   7.72797200
_cell_angle_alpha   90.00000000
_cell_angle_beta   90.00000000
_cell_angle_gamma   134.22256509
_symmetry_Int_Tables_number   1
_chemical_formula_structural   Cs2Ca(BrCl)2
_chemical_formula_sum   'Cs4 Ca2 Br4 Cl4'
_cell_volume   548.76759745
_cell_formula_units_Z   2
loop_
 _symmetry_equiv_pos_site_id
 _symmetry_equiv_pos_as_xyz
  1  'x, y, z'
loop_
 _atom_site_type_symbol
 _atom_site_label
 _atom_site_symmetry_multiplicity
 _atom_site_fract_x
 _atom_site_fract_y
 _atom_site_fract_z
 _atom_site_occupancy
  Cs  Cs0  1  0.860893  0.139107  0.500000  1
  Cs  Cs1  1  0.360893  0.639107  0.000000  1
  Cs  Cs2  1  0.139107  0.860893  0.500000  1
  Cs  Cs3  1  0.639107  0.360893  0.000000  1
  Ca  Ca4  1  0.000000  0.000000  0.000000  1
  Ca  Ca5  1  0.500000  0.500000  0.500000  1
  Br  Br6  1  0.841371  0.158629  0.000000  1
  Br  Br7  1  0.158629  0.841371  0.000000  1
  Br  Br8  1  0.341371  0.658629  0.500000  1
  Br  Br9  1  0.658629  0.341371  0.500000  1
  Cl  Cl10  1  0.750043  0.750043  0.249893  1
  Cl  Cl11  1  0.249957  0.249957  0.750107  1
  Cl  Cl12  1  0.250043  0.250043  0.250107  1
  Cl  Cl13  1  0.749957  0.749957  0.749893  1
