# generated using pymatgen
data_Ti4ZnGa7
_symmetry_space_group_name_H-M   'P 1'
_cell_length_a   3.92093689
_cell_length_b   3.95684471
_cell_length_c   12.45605944
_cell_angle_alpha   99.13911220
_cell_angle_beta   99.05547751
_cell_angle_gamma   90.00000200
_symmetry_Int_Tables_number   1
_chemical_formula_structural   Ti4ZnGa7
_chemical_formula_sum   'Ti4 Zn1 Ga7'
_cell_volume   188.35686456
_cell_formula_units_Z   1
loop_
 _symmetry_equiv_pos_site_id
 _symmetry_equiv_pos_as_xyz
  1  'x, y, z'
loop_
 _atom_site_type_symbol
 _atom_site_label
 _atom_site_symmetry_multiplicity
 _atom_site_fract_x
 _atom_site_fract_y
 _atom_site_fract_z
 _atom_site_occupancy
  Ti  Ti0  1  0.078386  0.078386  0.156772  1
  Ti  Ti1  1  0.173385  0.673385  0.346771  1
  Ti  Ti2  1  0.326393  0.826393  0.652787  1
  Ti  Ti3  1  0.921931  0.921931  0.843859  1
  Zn  Zn4  1  0.999372  0.499371  0.998741  1
  Ga  Ga5  1  0.500478  0.000478  0.000956  1
  Ga  Ga6  1  0.586606  0.586606  0.173211  1
  Ga  Ga7  1  0.661614  0.161614  0.323227  1
  Ga  Ga8  1  0.749408  0.749408  0.498814  1
  Ga  Ga9  1  0.250390  0.250390  0.500780  1
  Ga  Ga10  1  0.838813  0.338812  0.677624  1
  Ga  Ga11  1  0.413229  0.413229  0.826456  1
