# generated using pymatgen
data_YEr19Cd6IrRu
_symmetry_space_group_name_H-M   'P 1'
_cell_length_a   9.52610901
_cell_length_b   9.52534323
_cell_length_c   9.75622400
_cell_angle_alpha   90.00000000
_cell_angle_beta   90.00000000
_cell_angle_gamma   119.99734420
_symmetry_Int_Tables_number   1
_chemical_formula_structural   YEr19Cd6IrRu
_chemical_formula_sum   'Y1 Er19 Cd6 Ir1 Ru1'
_cell_volume   766.69070376
_cell_formula_units_Z   1
loop_
 _symmetry_equiv_pos_site_id
 _symmetry_equiv_pos_as_xyz
  1  'x, y, z'
loop_
 _atom_site_type_symbol
 _atom_site_label
 _atom_site_symmetry_multiplicity
 _atom_site_fract_x
 _atom_site_fract_y
 _atom_site_fract_z
 _atom_site_occupancy
  Y  Y0  1  0.917316  0.458658  0.250000  1
  Er  Er1  1  0.000017  0.000009  0.499551  1
  Er  Er2  1  0.000017  0.000009  0.000449  1
  Er  Er3  1  0.209584  0.790965  0.441080  1
  Er  Er4  1  0.209584  0.418619  0.441080  1
  Er  Er5  1  0.581414  0.790707  0.440973  1
  Er  Er6  1  0.790287  0.209356  0.559791  1
  Er  Er7  1  0.790287  0.580929  0.559791  1
  Er  Er8  1  0.419127  0.209562  0.559642  1
  Er  Er9  1  0.790287  0.209356  0.940209  1
  Er  Er10  1  0.790287  0.580929  0.940209  1
  Er  Er11  1  0.419127  0.209562  0.940358  1
  Er  Er12  1  0.209584  0.790965  0.058920  1
  Er  Er13  1  0.209584  0.418619  0.058920  1
  Er  Er14  1  0.581414  0.790707  0.059027  1
  Er  Er15  1  0.540952  0.458793  0.250000  1
  Er  Er16  1  0.540952  0.082159  0.250000  1
  Er  Er17  1  0.458710  0.541237  0.750000  1
  Er  Er18  1  0.458710  0.917473  0.750000  1
  Er  Er19  1  0.082466  0.541233  0.750000  1
  Cd  Cd20  1  0.885356  0.114213  0.250000  1
  Cd  Cd21  1  0.885356  0.771143  0.250000  1
  Cd  Cd22  1  0.229192  0.114596  0.250000  1
  Cd  Cd23  1  0.114700  0.885460  0.750000  1
  Cd  Cd24  1  0.114700  0.229239  0.750000  1
  Cd  Cd25  1  0.770730  0.885365  0.750000  1
  Ir  Ir26  1  0.333525  0.666763  0.250000  1
  Ru  Ru27  1  0.666742  0.333371  0.750000  1
