# generated using pymatgen
data_YPu3(AlB4)4
_symmetry_space_group_name_H-M   'P 1'
_cell_length_a   3.58558000
_cell_length_b   5.94254985
_cell_length_c   11.52487304
_cell_angle_alpha   89.99373386
_cell_angle_beta   90.00000000
_cell_angle_gamma   90.00000000
_symmetry_Int_Tables_number   1
_chemical_formula_structural   YPu3(AlB4)4
_chemical_formula_sum   'Y1 Pu3 Al4 B16'
_cell_volume   245.56609129
_cell_formula_units_Z   1
loop_
 _symmetry_equiv_pos_site_id
 _symmetry_equiv_pos_as_xyz
  1  'x, y, z'
loop_
 _atom_site_type_symbol
 _atom_site_label
 _atom_site_symmetry_multiplicity
 _atom_site_fract_x
 _atom_site_fract_y
 _atom_site_fract_z
 _atom_site_occupancy
  Y  Y0  1  0.000000  0.128515  0.150377  1
  Pu  Pu1  1  0.000000  0.369803  0.649901  1
  Pu  Pu2  1  0.000000  0.630791  0.350056  1
  Pu  Pu3  1  0.000000  0.869759  0.850454  1
  Al  Al4  1  0.000000  0.361772  0.908041  1
  Al  Al5  1  0.000000  0.638171  0.089928  1
  Al  Al6  1  0.000000  0.860781  0.591016  1
  Al  Al7  1  0.000000  0.139790  0.410556  1
  B  B8  1  0.500000  0.026373  0.692857  1
  B  B9  1  0.500000  0.972734  0.307512  1
  B  B10  1  0.500000  0.527572  0.806841  1
  B  B11  1  0.500000  0.475281  0.192775  1
  B  B12  1  0.500000  0.114124  0.547103  1
  B  B13  1  0.500000  0.886774  0.453114  1
  B  B14  1  0.500000  0.613355  0.953483  1
  B  B15  1  0.500000  0.385339  0.046660  1
  B  B16  1  0.500000  0.291485  0.312770  1
  B  B17  1  0.500000  0.709871  0.687850  1
  B  B18  1  0.500000  0.788227  0.188238  1
  B  B19  1  0.500000  0.208881  0.812340  1
  B  B20  1  0.500000  0.367463  0.468141  1
  B  B21  1  0.500000  0.633243  0.531000  1
  B  B22  1  0.500000  0.866808  0.030643  1
  B  B23  1  0.500000  0.133087  0.968341  1
