# generated using pymatgen
data_Sc12TiAl9Rh8
_symmetry_space_group_name_H-M   'P 1'
_cell_length_a   9.09741386
_cell_length_b   9.09741347
_cell_length_c   9.11737668
_cell_angle_alpha   59.60702005
_cell_angle_beta   59.60702625
_cell_angle_gamma   59.47204847
_symmetry_Int_Tables_number   1
_chemical_formula_structural   Sc12TiAl9Rh8
_chemical_formula_sum   'Sc12 Ti1 Al9 Rh8'
_cell_volume   528.25460898
_cell_formula_units_Z   1
loop_
 _symmetry_equiv_pos_site_id
 _symmetry_equiv_pos_as_xyz
  1  'x, y, z'
loop_
 _atom_site_type_symbol
 _atom_site_label
 _atom_site_symmetry_multiplicity
 _atom_site_fract_x
 _atom_site_fract_y
 _atom_site_fract_z
 _atom_site_occupancy
  Sc  Sc0  1  0.214747  0.214747  0.786166  1
  Sc  Sc1  1  0.790725  0.201662  0.221138  1
  Sc  Sc2  1  0.201662  0.790725  0.221138  1
  Sc  Sc3  1  0.800872  0.800872  0.186285  1
  Sc  Sc4  1  0.179743  0.798699  0.797867  1
  Sc  Sc5  1  0.798699  0.179743  0.797867  1
  Sc  Sc6  1  0.381201  0.381201  0.380826  1
  Sc  Sc7  1  0.380945  0.863207  0.380218  1
  Sc  Sc8  1  0.863207  0.380945  0.380218  1
  Sc  Sc9  1  0.382035  0.382035  0.859106  1
  Sc  Sc10  1  0.835506  0.481714  0.838386  1
  Sc  Sc11  1  0.481714  0.835506  0.838386  1
  Ti  Ti12  1  0.832294  0.832294  0.497320  1
  Al  Al13  1  0.161865  0.161865  0.158015  1
  Al  Al14  1  0.163674  0.517828  0.160561  1
  Al  Al15  1  0.517828  0.163674  0.160561  1
  Al  Al16  1  0.161893  0.161893  0.522437  1
  Al  Al17  1  0.619318  0.619318  0.611257  1
  Al  Al18  1  0.621424  0.143997  0.618011  1
  Al  Al19  1  0.143997  0.621424  0.618011  1
  Al  Al20  1  0.618763  0.618763  0.148551  1
  Al  Al21  1  0.825401  0.825401  0.826068  1
  Rh  Rh22  1  0.999334  0.999334  0.497187  1
  Rh  Rh23  1  0.503308  0.002405  0.001824  1
  Rh  Rh24  1  0.002405  0.503308  0.001824  1
  Rh  Rh25  1  0.495722  0.495722  0.007350  1
  Rh  Rh26  1  0.002452  0.511256  0.490416  1
  Rh  Rh27  1  0.511256  0.002452  0.490416  1
  Rh  Rh28  1  0.499822  0.499822  0.501330  1
  Rh  Rh29  1  0.008185  0.008185  0.001260  1
