# generated using pymatgen
data_Hf8Zr2Sn6Se
_symmetry_space_group_name_H-M   'P 1'
_cell_length_a   5.83273549
_cell_length_b   8.55072635
_cell_length_c   8.55417389
_cell_angle_alpha   119.98695228
_cell_angle_beta   89.92869003
_cell_angle_gamma   90.14208096
_symmetry_Int_Tables_number   1
_chemical_formula_structural   Hf8Zr2Sn6Se
_chemical_formula_sum   'Hf8 Zr2 Sn6 Se1'
_cell_volume   369.52152822
_cell_formula_units_Z   1
loop_
 _symmetry_equiv_pos_site_id
 _symmetry_equiv_pos_as_xyz
  1  'x, y, z'
loop_
 _atom_site_type_symbol
 _atom_site_label
 _atom_site_symmetry_multiplicity
 _atom_site_fract_x
 _atom_site_fract_y
 _atom_site_fract_z
 _atom_site_occupancy
  Hf  Hf0  1  0.500210  0.333746  0.666936  1
  Hf  Hf1  1  0.500209  0.666812  0.333066  1
  Hf  Hf2  1  0.999581  0.666758  0.333083  1
  Hf  Hf3  1  0.999578  0.333677  0.666920  1
  Hf  Hf4  1  0.764759  0.257604  0.999993  1
  Hf  Hf5  1  0.766136  0.742292  0.742806  1
  Hf  Hf6  1  0.766136  0.999497  0.257198  1
  Hf  Hf7  1  0.233918  0.743388  0.999998  1
  Zr  Zr8  1  0.233611  0.256204  0.256025  1
  Zr  Zr9  1  0.233613  0.000188  0.743981  1
  Sn  Sn10  1  0.747391  0.607686  0.000003  1
  Sn  Sn11  1  0.746939  0.392371  0.392384  1
  Sn  Sn12  1  0.746952  0.999970  0.607602  1
  Sn  Sn13  1  0.252469  0.393812  0.000001  1
  Sn  Sn14  1  0.252675  0.607727  0.608070  1
  Sn  Sn15  1  0.252672  0.999658  0.391933  1
  Se  Se16  1  0.503150  0.998611  0.000001  1
