# generated using pymatgen
data_Er2Tm8Si5Bi
_symmetry_space_group_name_H-M   'P 1'
_cell_length_a   8.45857630
_cell_length_b   8.45857600
_cell_length_c   6.26380600
_cell_angle_alpha   90.00000000
_cell_angle_beta   90.00000000
_cell_angle_gamma   120.29200563
_symmetry_Int_Tables_number   1
_chemical_formula_structural   Er2Tm8Si5Bi
_chemical_formula_sum   'Er2 Tm8 Si5 Bi1'
_cell_volume   386.97065787
_cell_formula_units_Z   1
loop_
 _symmetry_equiv_pos_site_id
 _symmetry_equiv_pos_as_xyz
  1  'x, y, z'
loop_
 _atom_site_type_symbol
 _atom_site_label
 _atom_site_symmetry_multiplicity
 _atom_site_fract_x
 _atom_site_fract_y
 _atom_site_fract_z
 _atom_site_occupancy
  Er  Er0  1  0.768612  0.768612  0.250000  1
  Er  Er1  1  0.239321  0.239321  0.750000  1
  Tm  Tm2  1  0.677102  0.330727  0.505036  1
  Tm  Tm3  1  0.330727  0.677102  0.505036  1
  Tm  Tm4  1  0.330727  0.677102  0.994964  1
  Tm  Tm5  1  0.677102  0.330727  0.994964  1
  Tm  Tm6  1  0.239127  0.984172  0.250000  1
  Tm  Tm7  1  0.984172  0.239127  0.250000  1
  Tm  Tm8  1  0.755567  0.998653  0.750000  1
  Tm  Tm9  1  0.998653  0.755567  0.750000  1
  Si  Si10  1  0.603792  0.998744  0.250000  1
  Si  Si11  1  0.998744  0.603792  0.250000  1
  Si  Si12  1  0.607180  0.607180  0.750000  1
  Si  Si13  1  0.393497  0.002579  0.750000  1
  Si  Si14  1  0.002579  0.393497  0.750000  1
  Bi  Bi15  1  0.393098  0.393098  0.250000  1
