# generated using pymatgen
data_YCrCo2P3Ir2
_symmetry_space_group_name_H-M   'P 1'
_cell_length_a   3.75852700
_cell_length_b   10.62954900
_cell_length_c   12.27029000
_cell_angle_alpha   90.00000000
_cell_angle_beta   90.00000000
_cell_angle_gamma   90.00000000
_symmetry_Int_Tables_number   1
_chemical_formula_structural   YCrCo2P3Ir2
_chemical_formula_sum   'Y4 Cr4 Co8 P12 Ir8'
_cell_volume   490.21583956
_cell_formula_units_Z   4
loop_
 _symmetry_equiv_pos_site_id
 _symmetry_equiv_pos_as_xyz
  1  'x, y, z'
loop_
 _atom_site_type_symbol
 _atom_site_label
 _atom_site_symmetry_multiplicity
 _atom_site_fract_x
 _atom_site_fract_y
 _atom_site_fract_z
 _atom_site_occupancy
  Y  Y0  1  0.250000  0.917181  0.212043  1
  Y  Y1  1  0.750000  0.082819  0.787957  1
  Y  Y2  1  0.750000  0.417181  0.287957  1
  Y  Y3  1  0.250000  0.582819  0.712043  1
  Cr  Cr4  1  0.250000  0.791525  0.489825  1
  Cr  Cr5  1  0.750000  0.208475  0.510175  1
  Cr  Cr6  1  0.750000  0.291525  0.010175  1
  Cr  Cr7  1  0.250000  0.708475  0.989825  1
  Co  Co8  1  0.250000  0.614510  0.194388  1
  Co  Co9  1  0.750000  0.385490  0.805612  1
  Co  Co10  1  0.750000  0.114510  0.305612  1
  Co  Co11  1  0.250000  0.885490  0.694388  1
  Co  Co12  1  0.250000  0.036733  0.433999  1
  Co  Co13  1  0.750000  0.963267  0.566001  1
  Co  Co14  1  0.750000  0.536733  0.066001  1
  Co  Co15  1  0.250000  0.463267  0.933999  1
  P  P16  1  0.250000  0.071926  0.608889  1
  P  P17  1  0.750000  0.928074  0.391111  1
  P  P18  1  0.750000  0.571926  0.891111  1
  P  P19  1  0.250000  0.428074  0.108889  1
  P  P20  1  0.250000  0.225675  0.369896  1
  P  P21  1  0.750000  0.774325  0.630104  1
  P  P22  1  0.750000  0.725675  0.130104  1
  P  P23  1  0.250000  0.274325  0.869896  1
  P  P24  1  0.250000  0.902483  0.881652  1
  P  P25  1  0.750000  0.097517  0.118348  1
  P  P26  1  0.750000  0.402483  0.618348  1
  P  P27  1  0.250000  0.597517  0.381652  1
  Ir  Ir28  1  0.250000  0.096330  0.980268  1
  Ir  Ir29  1  0.750000  0.903670  0.019732  1
  Ir  Ir30  1  0.750000  0.596330  0.519732  1
  Ir  Ir31  1  0.250000  0.403670  0.480268  1
  Ir  Ir32  1  0.250000  0.274721  0.678919  1
  Ir  Ir33  1  0.750000  0.725279  0.321081  1
  Ir  Ir34  1  0.750000  0.774721  0.821081  1
  Ir  Ir35  1  0.250000  0.225279  0.178919  1
