# generated using pymatgen
data_Ho3Sc(Ga2Ag)4
_symmetry_space_group_name_H-M   'P 1'
_cell_length_a   4.33946800
_cell_length_b   6.90979512
_cell_length_c   10.20011742
_cell_angle_alpha   89.64083588
_cell_angle_beta   90.00000000
_cell_angle_gamma   90.00000000
_symmetry_Int_Tables_number   1
_chemical_formula_structural   Ho3Sc(Ga2Ag)4
_chemical_formula_sum   'Ho3 Sc1 Ga8 Ag4'
_cell_volume   305.84282655
_cell_formula_units_Z   1
loop_
 _symmetry_equiv_pos_site_id
 _symmetry_equiv_pos_as_xyz
  1  'x, y, z'
loop_
 _atom_site_type_symbol
 _atom_site_label
 _atom_site_symmetry_multiplicity
 _atom_site_fract_x
 _atom_site_fract_y
 _atom_site_fract_z
 _atom_site_occupancy
  Ho  Ho0  1  0.250000  0.779166  0.821212  1
  Ho  Ho1  1  0.750000  0.222395  0.177175  1
  Ho  Ho2  1  0.750000  0.721836  0.323583  1
  Sc  Sc3  1  0.250000  0.279309  0.677864  1
  Ga  Ga4  1  0.250000  0.693381  0.535318  1
  Ga  Ga5  1  0.750000  0.298187  0.468943  1
  Ga  Ga6  1  0.750000  0.802700  0.033499  1
  Ga  Ga7  1  0.250000  0.203964  0.960609  1
  Ga  Ga8  1  0.250000  0.931569  0.154729  1
  Ga  Ga9  1  0.750000  0.075708  0.840349  1
  Ga  Ga10  1  0.750000  0.561728  0.656944  1
  Ga  Ga11  1  0.250000  0.428546  0.345224  1
  Ag  Ag12  1  0.250000  0.546869  0.095097  1
  Ag  Ag13  1  0.750000  0.454968  0.905192  1
  Ag  Ag14  1  0.750000  0.952872  0.596066  1
  Ag  Ag15  1  0.250000  0.046801  0.408195  1
