# generated using pymatgen
data_CsBeAlAs2
_symmetry_space_group_name_H-M   'P 1'
_cell_length_a   8.28705343
_cell_length_b   8.28705330
_cell_length_c   8.28705271
_cell_angle_alpha   152.04722902
_cell_angle_beta   152.04722953
_cell_angle_gamma   39.94433784
_symmetry_Int_Tables_number   1
_chemical_formula_structural   CsBeAlAs2
_chemical_formula_sum   'Cs1 Be1 Al1 As2'
_cell_volume   124.80620253
_cell_formula_units_Z   1
loop_
 _symmetry_equiv_pos_site_id
 _symmetry_equiv_pos_as_xyz
  1  'x, y, z'
loop_
 _atom_site_type_symbol
 _atom_site_label
 _atom_site_symmetry_multiplicity
 _atom_site_fract_x
 _atom_site_fract_y
 _atom_site_fract_z
 _atom_site_occupancy
  Cs  Cs0  1  0.000000  0.000000  0.000000  1
  Be  Be1  1  0.250000  0.750000  0.500000  1
  Al  Al2  1  0.750000  0.250000  0.500000  1
  As  As3  1  0.342293  0.342293  0.000000  1
  As  As4  1  0.657707  0.657707  0.000000  1
