# generated using pymatgen
data_Ba4DyIrO8
_symmetry_space_group_name_H-M   'P 1'
_cell_length_a   7.42608222
_cell_length_b   7.42608180
_cell_length_c   5.97318100
_cell_angle_alpha   90.00000000
_cell_angle_beta   90.00000000
_cell_angle_gamma   132.77569478
_symmetry_Int_Tables_number   1
_chemical_formula_structural   Ba4DyIrO8
_chemical_formula_sum   'Ba4 Dy1 Ir1 O8'
_cell_volume   241.78640634
_cell_formula_units_Z   1
loop_
 _symmetry_equiv_pos_site_id
 _symmetry_equiv_pos_as_xyz
  1  'x, y, z'
loop_
 _atom_site_type_symbol
 _atom_site_label
 _atom_site_symmetry_multiplicity
 _atom_site_fract_x
 _atom_site_fract_y
 _atom_site_fract_z
 _atom_site_occupancy
  Ba  Ba0  1  0.354839  0.645161  0.000000  1
  Ba  Ba1  1  0.853825  0.146175  0.500000  1
  Ba  Ba2  1  0.146175  0.853825  0.500000  1
  Ba  Ba3  1  0.645161  0.354839  0.000000  1
  Dy  Dy4  1  0.000000  0.000000  0.000000  1
  Ir  Ir5  1  0.500000  0.500000  0.500000  1
  O  O6  1  0.261164  0.261164  0.732875  1
  O  O7  1  0.738836  0.738836  0.267125  1
  O  O8  1  0.738836  0.738836  0.732875  1
  O  O9  1  0.261164  0.261164  0.267125  1
  O  O10  1  0.166105  0.833895  0.000000  1
  O  O11  1  0.649323  0.350677  0.500000  1
  O  O12  1  0.350677  0.649323  0.500000  1
  O  O13  1  0.833895  0.166105  0.000000  1
