# generated using pymatgen
data_Th2(AlGa)3
_symmetry_space_group_name_H-M   'P 1'
_cell_length_a   6.46729600
_cell_length_b   6.46729632
_cell_length_c   4.64688300
_cell_angle_alpha   90.00000000
_cell_angle_beta   90.00000000
_cell_angle_gamma   119.99999836
_symmetry_Int_Tables_number   1
_chemical_formula_structural   Th2(AlGa)3
_chemical_formula_sum   'Th2 Al3 Ga3'
_cell_volume   168.32083438
_cell_formula_units_Z   1
loop_
 _symmetry_equiv_pos_site_id
 _symmetry_equiv_pos_as_xyz
  1  'x, y, z'
loop_
 _atom_site_type_symbol
 _atom_site_label
 _atom_site_symmetry_multiplicity
 _atom_site_fract_x
 _atom_site_fract_y
 _atom_site_fract_z
 _atom_site_occupancy
  Th  Th0  1  0.333333  0.666667  0.750000  1
  Th  Th1  1  0.666667  0.333333  0.250000  1
  Al  Al2  1  0.140721  0.281442  0.250000  1
  Al  Al3  1  0.718558  0.859279  0.250000  1
  Al  Al4  1  0.140721  0.859279  0.250000  1
  Ga  Ga5  1  0.857668  0.715337  0.750000  1
  Ga  Ga6  1  0.284663  0.142332  0.750000  1
  Ga  Ga7  1  0.857668  0.142332  0.750000  1
