# generated using pymatgen
data_Dy2Mn4Ni(PRh)7
_symmetry_space_group_name_H-M   'P 1'
_cell_length_a   9.37198079
_cell_length_b   9.41682124
_cell_length_c   3.81635000
_cell_angle_alpha   90.00000000
_cell_angle_beta   90.00000000
_cell_angle_gamma   119.42068416
_symmetry_Int_Tables_number   1
_chemical_formula_structural   Dy2Mn4Ni(PRh)7
_chemical_formula_sum   'Dy2 Mn4 Ni1 P7 Rh7'
_cell_volume   293.37309668
_cell_formula_units_Z   1
loop_
 _symmetry_equiv_pos_site_id
 _symmetry_equiv_pos_as_xyz
  1  'x, y, z'
loop_
 _atom_site_type_symbol
 _atom_site_label
 _atom_site_symmetry_multiplicity
 _atom_site_fract_x
 _atom_site_fract_y
 _atom_site_fract_z
 _atom_site_occupancy
  Dy  Dy0  1  0.666155  0.332568  0.000000  1
  Dy  Dy1  1  0.334423  0.667748  0.500000  1
  Mn  Mn2  1  0.271758  0.159534  0.000000  1
  Mn  Mn3  1  0.840123  0.110386  0.000000  1
  Mn  Mn4  1  0.101378  0.221282  0.500000  1
  Mn  Mn5  1  0.775540  0.873319  0.500000  1
  Ni  Ni6  1  0.891323  0.730695  0.000000  1
  P  P7  1  0.110653  0.697660  0.000000  1
  P  P8  1  0.300012  0.408323  0.000000  1
  P  P9  1  0.591692  0.887814  0.000000  1
  P  P10  1  0.719177  0.602467  0.500000  1
  P  P11  1  0.396912  0.122309  0.500000  1
  P  P12  1  0.879397  0.275711  0.500000  1
  P  P13  1  0.003634  0.002548  0.000000  1
  Rh  Rh14  1  0.360244  0.933185  0.000000  1
  Rh  Rh15  1  0.065223  0.426487  0.000000  1
  Rh  Rh16  1  0.574294  0.634516  0.000000  1
  Rh  Rh17  1  0.945448  0.557616  0.500000  1
  Rh  Rh18  1  0.439686  0.387986  0.500000  1
  Rh  Rh19  1  0.609714  0.052690  0.500000  1
  Rh  Rh20  1  0.123213  0.915161  0.500000  1
