# generated using pymatgen
data_Y3Er5In3Fe
_symmetry_space_group_name_H-M   'P 1'
_cell_length_a   10.29645700
_cell_length_b   10.29645646
_cell_length_c   7.04600100
_cell_angle_alpha   90.00000000
_cell_angle_beta   90.00000000
_cell_angle_gamma   119.99999851
_symmetry_Int_Tables_number   1
_chemical_formula_structural   Y3Er5In3Fe
_chemical_formula_sum   'Y6 Er10 In6 Fe2'
_cell_volume   646.91755478
_cell_formula_units_Z   2
loop_
 _symmetry_equiv_pos_site_id
 _symmetry_equiv_pos_as_xyz
  1  'x, y, z'
loop_
 _atom_site_type_symbol
 _atom_site_label
 _atom_site_symmetry_multiplicity
 _atom_site_fract_x
 _atom_site_fract_y
 _atom_site_fract_z
 _atom_site_occupancy
  Y  Y0  1  0.534644  0.069286  0.792691  1
  Y  Y1  1  0.930714  0.465356  0.792691  1
  Y  Y2  1  0.534644  0.465356  0.792691  1
  Y  Y3  1  0.465356  0.930714  0.292691  1
  Y  Y4  1  0.069286  0.534644  0.292691  1
  Y  Y5  1  0.465356  0.534644  0.292691  1
  Er  Er6  1  0.821171  0.642343  0.497886  1
  Er  Er7  1  0.357657  0.178829  0.497886  1
  Er  Er8  1  0.821171  0.178829  0.497886  1
  Er  Er9  1  0.178829  0.357657  0.997886  1
  Er  Er10  1  0.642343  0.821171  0.997886  1
  Er  Er11  1  0.178829  0.821171  0.997886  1
  Er  Er12  1  0.666667  0.333333  0.180863  1
  Er  Er13  1  0.333333  0.666667  0.680863  1
  Er  Er14  1  0.000000  0.000000  0.780055  1
  Er  Er15  1  0.000000  0.000000  0.280055  1
  In  In16  1  0.837415  0.674830  0.040497  1
  In  In17  1  0.325170  0.162585  0.040497  1
  In  In18  1  0.837415  0.162585  0.040497  1
  In  In19  1  0.162585  0.325170  0.540497  1
  In  In20  1  0.674830  0.837415  0.540497  1
  In  In21  1  0.162585  0.837415  0.540497  1
  Fe  Fe22  1  0.666667  0.333333  0.563817  1
  Fe  Fe23  1  0.333333  0.666667  0.063817  1
