# generated using pymatgen
data_Pr12Rh3AuBr12
_symmetry_space_group_name_H-M   'P 1'
_cell_length_a   10.63721410
_cell_length_b   10.63808272
_cell_length_c   10.63764821
_cell_angle_alpha   109.71630177
_cell_angle_beta   109.88922889
_cell_angle_gamma   109.76187139
_symmetry_Int_Tables_number   1
_chemical_formula_structural   Pr12Rh3AuBr12
_chemical_formula_sum   'Pr12 Rh3 Au1 Br12'
_cell_volume   915.57735019
_cell_formula_units_Z   1
loop_
 _symmetry_equiv_pos_site_id
 _symmetry_equiv_pos_as_xyz
  1  'x, y, z'
loop_
 _atom_site_type_symbol
 _atom_site_label
 _atom_site_symmetry_multiplicity
 _atom_site_fract_x
 _atom_site_fract_y
 _atom_site_fract_z
 _atom_site_occupancy
  Pr  Pr0  1  0.473387  0.492836  0.232029  1
  Pr  Pr1  1  0.749977  0.234055  0.265972  1
  Pr  Pr2  1  0.749884  0.014009  0.485774  1
  Pr  Pr3  1  0.231832  0.473397  0.492789  1
  Pr  Pr4  1  0.266026  0.749986  0.234011  1
  Pr  Pr5  1  0.026522  0.267907  0.007102  1
  Pr  Pr6  1  0.007159  0.026537  0.268122  1
  Pr  Pr7  1  0.485941  0.749955  0.013942  1
  Pr  Pr8  1  0.492925  0.232050  0.473513  1
  Pr  Pr9  1  0.014251  0.486060  0.750147  1
  Pr  Pr10  1  0.268065  0.007210  0.026641  1
  Pr  Pr11  1  0.233978  0.265959  0.750042  1
  Rh  Rh12  1  0.501268  0.998753  0.250006  1
  Rh  Rh13  1  0.998710  0.249977  0.501272  1
  Rh  Rh14  1  0.249994  0.501298  0.998715  1
  Au  Au15  1  0.249993  0.249999  0.250014  1
  Br  Br16  1  0.250055  0.755979  0.744040  1
  Br  Br17  1  0.508587  0.503314  0.753302  1
  Br  Br18  1  0.991432  0.746717  0.996648  1
  Br  Br19  1  0.744036  0.250022  0.756001  1
  Br  Br20  1  0.996553  0.991358  0.746644  1
  Br  Br21  1  0.250002  0.996737  0.503284  1
  Br  Br22  1  0.753361  0.508601  0.503407  1
  Br  Br23  1  0.503362  0.249998  0.996623  1
  Br  Br24  1  0.755932  0.744027  0.249924  1
  Br  Br25  1  0.746665  0.996675  0.991388  1
  Br  Br26  1  0.996697  0.503284  0.250013  1
  Br  Br27  1  0.503404  0.753299  0.508635  1
