# generated using pymatgen
data_TbHoTm2Al16(SiIr3)2
_symmetry_space_group_name_H-M   'P 1'
_cell_length_a   7.54012300
_cell_length_b   7.53810282
_cell_length_c   9.46993700
_cell_angle_alpha   90.00000000
_cell_angle_beta   90.00000000
_cell_angle_gamma   119.50516632
_symmetry_Int_Tables_number   1
_chemical_formula_structural   TbHoTm2Al16(SiIr3)2
_chemical_formula_sum   'Tb1 Ho1 Tm2 Al16 Si2 Ir6'
_cell_volume   468.44886960
_cell_formula_units_Z   1
loop_
 _symmetry_equiv_pos_site_id
 _symmetry_equiv_pos_as_xyz
  1  'x, y, z'
loop_
 _atom_site_type_symbol
 _atom_site_label
 _atom_site_symmetry_multiplicity
 _atom_site_fract_x
 _atom_site_fract_y
 _atom_site_fract_z
 _atom_site_occupancy
  Tb  Tb0  1  0.676156  0.995262  0.250000  1
  Ho  Ho1  1  0.995500  0.676165  0.250000  1
  Tm  Tm2  1  0.004754  0.323300  0.750000  1
  Tm  Tm3  1  0.323152  0.004623  0.750000  1
  Al  Al4  1  0.001930  0.337167  0.074626  1
  Al  Al5  1  0.998998  0.663122  0.922906  1
  Al  Al6  1  0.998998  0.663122  0.577094  1
  Al  Al7  1  0.336498  0.001698  0.425298  1
  Al  Al8  1  0.001930  0.337167  0.425374  1
  Al  Al9  1  0.663088  0.998995  0.577535  1
  Al  Al10  1  0.663088  0.998995  0.922465  1
  Al  Al11  1  0.336498  0.001698  0.074702  1
  Al  Al12  1  0.335202  0.335195  0.558227  1
  Al  Al13  1  0.664459  0.664159  0.444819  1
  Al  Al14  1  0.664459  0.664159  0.055181  1
  Al  Al15  1  0.335202  0.335195  0.941773  1
  Al  Al16  1  0.334901  0.549016  0.250000  1
  Al  Al17  1  0.664286  0.449404  0.750000  1
  Al  Al18  1  0.549449  0.335798  0.250000  1
  Al  Al19  1  0.449223  0.664050  0.750000  1
  Si  Si20  1  0.129558  0.129186  0.250000  1
  Si  Si21  1  0.871851  0.871683  0.750000  1
  Ir  Ir22  1  0.671592  0.328464  0.999492  1
  Ir  Ir23  1  0.328249  0.671518  0.999483  1
  Ir  Ir24  1  0.328249  0.671518  0.500517  1
  Ir  Ir25  1  0.671592  0.328464  0.500508  1
  Ir  Ir26  1  0.000569  0.000439  0.998982  1
  Ir  Ir27  1  0.000569  0.000439  0.501018  1
