# generated using pymatgen
data_TbHo3Fe2(CoI)2
_symmetry_space_group_name_H-M   'P 1'
_cell_length_a   3.95187100
_cell_length_b   3.95187103
_cell_length_c   17.03030000
_cell_angle_alpha   90.00000000
_cell_angle_beta   90.00000000
_cell_angle_gamma   119.99999139
_symmetry_Int_Tables_number   1
_chemical_formula_structural   TbHo3Fe2(CoI)2
_chemical_formula_sum   'Tb1 Ho3 Fe2 Co2 I2'
_cell_volume   230.33423357
_cell_formula_units_Z   1
loop_
 _symmetry_equiv_pos_site_id
 _symmetry_equiv_pos_as_xyz
  1  'x, y, z'
loop_
 _atom_site_type_symbol
 _atom_site_label
 _atom_site_symmetry_multiplicity
 _atom_site_fract_x
 _atom_site_fract_y
 _atom_site_fract_z
 _atom_site_occupancy
  Tb  Tb0  1  0.000000  0.000000  0.103259  1
  Ho  Ho1  1  0.000000  0.000000  0.897187  1
  Ho  Ho2  1  0.000000  0.000000  0.603645  1
  Ho  Ho3  1  0.000000  0.000000  0.396648  1
  Fe  Fe4  1  0.333333  0.666667  0.505059  1
  Fe  Fe5  1  0.666667  0.333333  0.495276  1
  Co  Co6  1  0.666667  0.333333  0.000839  1
  Co  Co7  1  0.333333  0.666667  0.997243  1
  I  I8  1  0.333333  0.666667  0.248687  1
  I  I9  1  0.666667  0.333333  0.752156  1
