# generated using pymatgen
data_TbSm3(Sc4Bi3)4
_symmetry_space_group_name_H-M   'P 1'
_cell_length_a   7.94225800
_cell_length_b   9.09072200
_cell_length_c   11.63902100
_cell_angle_alpha   90.00000000
_cell_angle_beta   89.99823872
_cell_angle_gamma   90.00000000
_symmetry_Int_Tables_number   1
_chemical_formula_structural   TbSm3(Sc4Bi3)4
_chemical_formula_sum   'Tb1 Sm3 Sc16 Bi12'
_cell_volume   840.34732009
_cell_formula_units_Z   1
loop_
 _symmetry_equiv_pos_site_id
 _symmetry_equiv_pos_as_xyz
  1  'x, y, z'
loop_
 _atom_site_type_symbol
 _atom_site_label
 _atom_site_symmetry_multiplicity
 _atom_site_fract_x
 _atom_site_fract_y
 _atom_site_fract_z
 _atom_site_occupancy
  Tb  Tb0  1  0.183683  0.750000  0.718753  1
  Sm  Sm1  1  0.316892  0.250000  0.219296  1
  Sm  Sm2  1  0.816816  0.250000  0.280734  1
  Sm  Sm3  1  0.683259  0.750000  0.780683  1
  Sc  Sc4  1  0.347975  0.750000  0.221056  1
  Sc  Sc5  1  0.848158  0.750000  0.279062  1
  Sc  Sc6  1  0.651738  0.250000  0.778636  1
  Sc  Sc7  1  0.151973  0.250000  0.721165  1
  Sc  Sc8  1  0.692502  0.567417  0.062853  1
  Sc  Sc9  1  0.192737  0.932643  0.437337  1
  Sc  Sc10  1  0.307347  0.067438  0.936958  1
  Sc  Sc11  1  0.807047  0.432518  0.562914  1
  Sc  Sc12  1  0.307347  0.432562  0.936958  1
  Sc  Sc13  1  0.807047  0.067482  0.562914  1
  Sc  Sc14  1  0.692502  0.932583  0.062853  1
  Sc  Sc15  1  0.192737  0.567357  0.437337  1
  Sc  Sc16  1  0.481895  0.250000  0.489229  1
  Sc  Sc17  1  0.982320  0.250000  0.010826  1
  Sc  Sc18  1  0.517739  0.750000  0.511254  1
  Sc  Sc19  1  0.018095  0.750000  0.988849  1
  Bi  Bi20  1  0.400735  0.750000  0.968681  1
  Bi  Bi21  1  0.902839  0.750000  0.531753  1
  Bi  Bi22  1  0.598715  0.250000  0.030564  1
  Bi  Bi23  1  0.098467  0.250000  0.469399  1
  Bi  Bi24  1  0.563514  0.987432  0.329644  1
  Bi  Bi25  1  0.063422  0.512505  0.170496  1
  Bi  Bi26  1  0.435143  0.488595  0.670728  1
  Bi  Bi27  1  0.937639  0.011598  0.829100  1
  Bi  Bi28  1  0.435143  0.011405  0.670728  1
  Bi  Bi29  1  0.937639  0.488402  0.829100  1
  Bi  Bi30  1  0.563514  0.512568  0.329644  1
  Bi  Bi31  1  0.063422  0.987495  0.170496  1
