# generated using pymatgen
data_Pa4Re6Si7
_symmetry_space_group_name_H-M   'P 1'
_cell_length_a   7.22419806
_cell_length_b   7.22414372
_cell_length_c   7.22419728
_cell_angle_alpha   108.88426024
_cell_angle_beta   108.88487239
_cell_angle_gamma   110.65132403
_symmetry_Int_Tables_number   1
_chemical_formula_structural   Pa4Re6Si7
_chemical_formula_sum   'Pa4 Re6 Si7'
_cell_volume   290.13729440
_cell_formula_units_Z   1
loop_
 _symmetry_equiv_pos_site_id
 _symmetry_equiv_pos_as_xyz
  1  'x, y, z'
loop_
 _atom_site_type_symbol
 _atom_site_label
 _atom_site_symmetry_multiplicity
 _atom_site_fract_x
 _atom_site_fract_y
 _atom_site_fract_z
 _atom_site_occupancy
  Pa  Pa0  1  0.496811  0.503167  0.499973  1
  Pa  Pa1  1  0.003191  0.996831  0.500037  1
  Pa  Pa2  1  0.496794  0.996831  0.993640  1
  Pa  Pa3  1  0.003195  0.503167  0.006357  1
  Re  Re4  1  0.504504  0.251002  0.746499  1
  Re  Re5  1  0.504555  0.758030  0.253475  1
  Re  Re6  1  0.242008  0.495496  0.746507  1
  Re  Re7  1  0.748990  0.495496  0.253487  1
  Re  Re8  1  0.250011  0.750057  0.500046  1
  Re  Re9  1  0.999938  0.999927  0.999989  1
  Si  Si10  1  0.318080  0.318072  0.999992  1
  Si  Si11  1  0.003536  0.311918  0.308382  1
  Si  Si12  1  0.003545  0.695156  0.691611  1
  Si  Si13  1  0.688085  0.996464  0.691619  1
  Si  Si14  1  0.304846  0.996464  0.308380  1
  Si  Si15  1  0.681901  0.681907  0.000007  1
  Si  Si16  1  0.750012  0.250014  0.500001  1
