# generated using pymatgen
data_Pr2Nd3(Sn5Rh2)2
_symmetry_space_group_name_H-M   'P 1'
_cell_length_a   14.25556400
_cell_length_b   14.25556400
_cell_length_c   4.63895200
_cell_angle_alpha   90.00000000
_cell_angle_beta   90.00000000
_cell_angle_gamma   90.00000000
_symmetry_Int_Tables_number   1
_chemical_formula_structural   Pr2Nd3(Sn5Rh2)2
_chemical_formula_sum   'Pr4 Nd6 Sn20 Rh8'
_cell_volume   942.73295129
_cell_formula_units_Z   2
loop_
 _symmetry_equiv_pos_site_id
 _symmetry_equiv_pos_as_xyz
  1  'x, y, z'
loop_
 _atom_site_type_symbol
 _atom_site_label
 _atom_site_symmetry_multiplicity
 _atom_site_fract_x
 _atom_site_fract_y
 _atom_site_fract_z
 _atom_site_occupancy
  Pr  Pr0  1  0.888083  0.388083  0.500000  1
  Pr  Pr1  1  0.111917  0.611917  0.500000  1
  Pr  Pr2  1  0.388083  0.111917  0.500000  1
  Pr  Pr3  1  0.611917  0.888083  0.500000  1
  Nd  Nd4  1  0.500000  0.500000  0.000000  1
  Nd  Nd5  1  0.000000  0.000000  0.000000  1
  Nd  Nd6  1  0.678041  0.178041  0.500000  1
  Nd  Nd7  1  0.321959  0.821959  0.500000  1
  Nd  Nd8  1  0.178041  0.321959  0.500000  1
  Nd  Nd9  1  0.821959  0.678041  0.500000  1
  Sn  Sn10  1  0.569645  0.069645  0.000000  1
  Sn  Sn11  1  0.430355  0.930355  0.000000  1
  Sn  Sn12  1  0.069645  0.430355  0.000000  1
  Sn  Sn13  1  0.930355  0.569645  0.000000  1
  Sn  Sn14  1  0.653883  0.697801  0.000000  1
  Sn  Sn15  1  0.346117  0.302199  0.000000  1
  Sn  Sn16  1  0.153883  0.802199  0.000000  1
  Sn  Sn17  1  0.846117  0.197801  0.000000  1
  Sn  Sn18  1  0.302199  0.653883  0.000000  1
  Sn  Sn19  1  0.697801  0.346117  0.000000  1
  Sn  Sn20  1  0.197801  0.153883  0.000000  1
  Sn  Sn21  1  0.802199  0.846117  0.000000  1
  Sn  Sn22  1  0.663629  0.504826  0.500000  1
  Sn  Sn23  1  0.336371  0.495174  0.500000  1
  Sn  Sn24  1  0.163629  0.995174  0.500000  1
  Sn  Sn25  1  0.836371  0.004826  0.500000  1
  Sn  Sn26  1  0.495174  0.663629  0.500000  1
  Sn  Sn27  1  0.504826  0.336371  0.500000  1
  Sn  Sn28  1  0.004826  0.163629  0.500000  1
  Sn  Sn29  1  0.995174  0.836371  0.500000  1
  Rh  Rh30  1  0.746111  0.528008  0.000000  1
  Rh  Rh31  1  0.253889  0.471992  0.000000  1
  Rh  Rh32  1  0.246111  0.971992  0.000000  1
  Rh  Rh33  1  0.753889  0.028008  0.000000  1
  Rh  Rh34  1  0.471992  0.746111  0.000000  1
  Rh  Rh35  1  0.528008  0.253889  0.000000  1
  Rh  Rh36  1  0.028008  0.246111  0.000000  1
  Rh  Rh37  1  0.971992  0.753889  0.000000  1
