# generated using pymatgen
data_Tb8Ta3Si16Mo9
_symmetry_space_group_name_H-M   'P 1'
_cell_length_a   6.93930925
_cell_length_b   6.93930867
_cell_length_c   12.91654763
_cell_angle_alpha   90.02940964
_cell_angle_beta   89.97058607
_cell_angle_gamma   89.60609622
_symmetry_Int_Tables_number   1
_chemical_formula_structural   Tb8Ta3Si16Mo9
_chemical_formula_sum   'Tb8 Ta3 Si16 Mo9'
_cell_volume   621.96868527
_cell_formula_units_Z   1
loop_
 _symmetry_equiv_pos_site_id
 _symmetry_equiv_pos_as_xyz
  1  'x, y, z'
loop_
 _atom_site_type_symbol
 _atom_site_label
 _atom_site_symmetry_multiplicity
 _atom_site_fract_x
 _atom_site_fract_y
 _atom_site_fract_z
 _atom_site_occupancy
  Tb  Tb0  1  0.337403  0.000034  0.468529  1
  Tb  Tb1  1  0.498658  0.837801  0.719429  1
  Tb  Tb2  1  0.499222  0.163953  0.218067  1
  Tb  Tb3  1  0.837801  0.498658  0.280571  1
  Tb  Tb4  1  0.163953  0.499222  0.781933  1
  Tb  Tb5  1  0.661019  0.000960  0.968352  1
  Tb  Tb6  1  0.000034  0.337403  0.531471  1
  Tb  Tb7  1  0.000960  0.661019  0.031648  1
  Ta  Ta8  1  0.168984  0.832485  0.247991  1
  Ta  Ta9  1  0.832485  0.168984  0.752009  1
  Ta  Ta10  1  0.667069  0.667069  0.500000  1
  Si  Si11  1  0.203625  0.126818  0.684296  1
  Si  Si12  1  0.376735  0.695766  0.936124  1
  Si  Si13  1  0.626545  0.297423  0.433914  1
  Si  Si14  1  0.695766  0.376735  0.063876  1
  Si  Si15  1  0.297423  0.626545  0.566086  1
  Si  Si16  1  0.794865  0.873610  0.184207  1
  Si  Si17  1  0.126818  0.203625  0.315704  1
  Si  Si18  1  0.873610  0.794865  0.815793  1
  Si  Si19  1  0.286359  0.968806  0.059501  1
  Si  Si20  1  0.538697  0.789887  0.313645  1
  Si  Si21  1  0.458445  0.212801  0.816333  1
  Si  Si22  1  0.789887  0.538697  0.686355  1
  Si  Si23  1  0.212801  0.458445  0.183667  1
  Si  Si24  1  0.709961  0.038846  0.563013  1
  Si  Si25  1  0.968806  0.286359  0.940499  1
  Si  Si26  1  0.038846  0.709961  0.436987  1
  Mo  Mo27  1  0.333552  0.333552  0.000000  1
  Mo  Mo28  1  0.157757  0.999992  0.871478  1
  Mo  Mo29  1  0.495774  0.670917  0.125915  1
  Mo  Mo30  1  0.503645  0.337185  0.624355  1
  Mo  Mo31  1  0.670917  0.495774  0.874085  1
  Mo  Mo32  1  0.337185  0.503645  0.375645  1
  Mo  Mo33  1  0.839654  0.994748  0.374130  1
  Mo  Mo34  1  0.999992  0.157757  0.128522  1
  Mo  Mo35  1  0.994748  0.839654  0.625870  1
