# generated using pymatgen
data_Sr8Ir(RuN4)2
_symmetry_space_group_name_H-M   'P 1'
_cell_length_a   9.88436869
_cell_length_b   5.36100122
_cell_length_c   7.56672603
_cell_angle_alpha   90.00000077
_cell_angle_beta   75.70548547
_cell_angle_gamma   74.26515763
_symmetry_Int_Tables_number   1
_chemical_formula_structural   Sr8Ir(RuN4)2
_chemical_formula_sum   'Sr8 Ir1 Ru2 N8'
_cell_volume   373.02271101
_cell_formula_units_Z   1
loop_
 _symmetry_equiv_pos_site_id
 _symmetry_equiv_pos_as_xyz
  1  'x, y, z'
loop_
 _atom_site_type_symbol
 _atom_site_label
 _atom_site_symmetry_multiplicity
 _atom_site_fract_x
 _atom_site_fract_y
 _atom_site_fract_z
 _atom_site_occupancy
  Sr  Sr0  1  0.048686  0.975657  0.742338  1
  Sr  Sr1  1  0.951314  0.024343  0.257662  1
  Sr  Sr2  1  0.673791  0.663104  0.469657  1
  Sr  Sr3  1  0.326209  0.336896  0.530343  1
  Sr  Sr4  1  0.807379  0.596312  0.966334  1
  Sr  Sr5  1  0.192621  0.403688  0.033666  1
  Sr  Sr6  1  0.402524  0.798739  0.194521  1
  Sr  Sr7  1  0.597476  0.201261  0.805479  1
  Ir  Ir8  1  0.000000  0.500000  0.500000  1
  Ru  Ru9  1  0.373573  0.813214  0.789039  1
  Ru  Ru10  1  0.626427  0.186786  0.210961  1
  N  N11  1  0.206572  0.896715  0.994196  1
  N  N12  1  0.793428  0.103285  0.005804  1
  N  N13  1  0.349170  0.825416  0.554659  1
  N  N14  1  0.650830  0.174584  0.445341  1
  N  N15  1  0.558953  0.720524  0.830611  1
  N  N16  1  0.441047  0.279476  0.169389  1
  N  N17  1  0.946274  0.526864  0.270169  1
  N  N18  1  0.053726  0.473136  0.729831  1
