# generated using pymatgen
data_DyHoCdCuNi
_symmetry_space_group_name_H-M   'P 1'
_cell_length_a   7.45116893
_cell_length_b   7.45116894
_cell_length_c   3.63686600
_cell_angle_alpha   90.00000000
_cell_angle_beta   90.00000000
_cell_angle_gamma   90.77664376
_symmetry_Int_Tables_number   1
_chemical_formula_structural   DyHoCdCuNi
_chemical_formula_sum   'Dy2 Ho2 Cd2 Cu2 Ni2'
_cell_volume   201.89995417
_cell_formula_units_Z   2
loop_
 _symmetry_equiv_pos_site_id
 _symmetry_equiv_pos_as_xyz
  1  'x, y, z'
loop_
 _atom_site_type_symbol
 _atom_site_label
 _atom_site_symmetry_multiplicity
 _atom_site_fract_x
 _atom_site_fract_y
 _atom_site_fract_z
 _atom_site_occupancy
  Dy  Dy0  1  0.684477  0.184477  0.500000  1
  Dy  Dy1  1  0.315523  0.815523  0.500000  1
  Ho  Ho2  1  0.166434  0.333566  0.500000  1
  Ho  Ho3  1  0.833566  0.666434  0.500000  1
  Cd  Cd4  1  0.000000  0.000000  0.000000  1
  Cd  Cd5  1  0.500000  0.500000  0.000000  1
  Cu  Cu6  1  0.618787  0.881213  0.000000  1
  Cu  Cu7  1  0.381213  0.118787  0.000000  1
  Ni  Ni8  1  0.118875  0.618875  0.000000  1
  Ni  Ni9  1  0.881125  0.381125  0.000000  1
