# generated using pymatgen
data_CeDy11(SiOs)8
_symmetry_space_group_name_H-M   'P 1'
_cell_length_a   5.60068240
_cell_length_b   7.68388578
_cell_length_c   13.31695666
_cell_angle_alpha   90.08884536
_cell_angle_beta   89.92692591
_cell_angle_gamma   89.96306246
_symmetry_Int_Tables_number   1
_chemical_formula_structural   CeDy11(SiOs)8
_chemical_formula_sum   'Ce1 Dy11 Si8 Os8'
_cell_volume   573.09400647
_cell_formula_units_Z   1
loop_
 _symmetry_equiv_pos_site_id
 _symmetry_equiv_pos_as_xyz
  1  'x, y, z'
loop_
 _atom_site_type_symbol
 _atom_site_label
 _atom_site_symmetry_multiplicity
 _atom_site_fract_x
 _atom_site_fract_y
 _atom_site_fract_z
 _atom_site_occupancy
  Ce  Ce0  1  0.649605  0.099455  0.096249  1
  Dy  Dy1  1  0.127380  0.252073  0.749681  1
  Dy  Dy2  1  0.871916  0.746672  0.250598  1
  Dy  Dy3  1  0.128189  0.251214  0.251331  1
  Dy  Dy4  1  0.872412  0.751160  0.749342  1
  Dy  Dy5  1  0.642266  0.394351  0.601788  1
  Dy  Dy6  1  0.356638  0.604896  0.101471  1
  Dy  Dy7  1  0.643272  0.105004  0.398758  1
  Dy  Dy8  1  0.350801  0.892784  0.896238  1
  Dy  Dy9  1  0.356302  0.603710  0.399351  1
  Dy  Dy10  1  0.645800  0.399239  0.896912  1
  Dy  Dy11  1  0.357674  0.895387  0.601910  1
  Si  Si12  1  0.094090  0.250163  0.500125  1
  Si  Si13  1  0.905528  0.747665  0.000081  1
  Si  Si14  1  0.905455  0.750775  0.500950  1
  Si  Si15  1  0.101797  0.252628  0.997489  1
  Si  Si16  1  0.636961  0.098849  0.750865  1
  Si  Si17  1  0.357390  0.900920  0.251580  1
  Si  Si18  1  0.639551  0.401360  0.250516  1
  Si  Si19  1  0.360072  0.598200  0.749228  1
  Os  Os20  1  0.851995  0.027258  0.592433  1
  Os  Os21  1  0.152579  0.976199  0.091797  1
  Os  Os22  1  0.850188  0.473924  0.409252  1
  Os  Os23  1  0.150950  0.528479  0.908474  1
  Os  Os24  1  0.148228  0.973519  0.409640  1
  Os  Os25  1  0.845019  0.027408  0.911318  1
  Os  Os26  1  0.147865  0.526517  0.591334  1
  Os  Os27  1  0.850077  0.470190  0.091289  1
