# generated using pymatgen
data_RbSmCr2O8
_symmetry_space_group_name_H-M   'P 1'
_cell_length_a   5.85978400
_cell_length_b   5.85978467
_cell_length_c   8.01243800
_cell_angle_alpha   90.00000000
_cell_angle_beta   90.00000000
_cell_angle_gamma   120.00000751
_symmetry_Int_Tables_number   1
_chemical_formula_structural   RbSmCr2O8
_chemical_formula_sum   'Rb1 Sm1 Cr2 O8'
_cell_volume   238.26406425
_cell_formula_units_Z   1
loop_
 _symmetry_equiv_pos_site_id
 _symmetry_equiv_pos_as_xyz
  1  'x, y, z'
loop_
 _atom_site_type_symbol
 _atom_site_label
 _atom_site_symmetry_multiplicity
 _atom_site_fract_x
 _atom_site_fract_y
 _atom_site_fract_z
 _atom_site_occupancy
  Rb  Rb0  1  0.000000  0.000000  0.499999  1
  Sm  Sm1  1  0.000000  0.000000  0.000000  1
  Cr  Cr2  1  0.666666  0.333333  0.251752  1
  Cr  Cr3  1  0.333333  0.666666  0.748248  1
  O  O4  1  0.354043  0.177020  0.182811  1
  O  O5  1  0.822979  0.177020  0.182811  1
  O  O6  1  0.822978  0.645957  0.182811  1
  O  O7  1  0.333333  0.666666  0.545838  1
  O  O8  1  0.666666  0.333333  0.454163  1
  O  O9  1  0.177020  0.354042  0.817189  1
  O  O10  1  0.177021  0.822979  0.817189  1
  O  O11  1  0.645956  0.822979  0.817189  1
