# generated using pymatgen
data_Zr3Al2FeC
_symmetry_space_group_name_H-M   'P 1'
_cell_length_a   8.57819630
_cell_length_b   8.57819627
_cell_length_c   8.57819700
_cell_angle_alpha   60.00000106
_cell_angle_beta   60.00000115
_cell_angle_gamma   60.00000067
_symmetry_Int_Tables_number   1
_chemical_formula_structural   Zr3Al2FeC
_chemical_formula_sum   'Zr12 Al8 Fe4 C4'
_cell_volume   446.34737649
_cell_formula_units_Z   4
loop_
 _symmetry_equiv_pos_site_id
 _symmetry_equiv_pos_as_xyz
  1  'x, y, z'
loop_
 _atom_site_type_symbol
 _atom_site_label
 _atom_site_symmetry_multiplicity
 _atom_site_fract_x
 _atom_site_fract_y
 _atom_site_fract_z
 _atom_site_occupancy
  Zr  Zr0  1  0.551688  0.948312  0.551688  1
  Zr  Zr1  1  0.301688  0.698312  0.698312  1
  Zr  Zr2  1  0.698312  0.301688  0.301688  1
  Zr  Zr3  1  0.301688  0.698312  0.301688  1
  Zr  Zr4  1  0.698312  0.698312  0.301688  1
  Zr  Zr5  1  0.301688  0.301688  0.698312  1
  Zr  Zr6  1  0.551688  0.551688  0.948312  1
  Zr  Zr7  1  0.948312  0.551688  0.551688  1
  Zr  Zr8  1  0.551688  0.948312  0.948312  1
  Zr  Zr9  1  0.948312  0.948312  0.551688  1
  Zr  Zr10  1  0.698312  0.301688  0.698312  1
  Zr  Zr11  1  0.948312  0.551688  0.948312  1
  Al  Al12  1  0.920746  0.920746  0.920746  1
  Al  Al13  1  0.012237  0.329254  0.329254  1
  Al  Al14  1  0.329254  0.012237  0.329254  1
  Al  Al15  1  0.329254  0.329254  0.012237  1
  Al  Al16  1  0.920746  0.237763  0.920746  1
  Al  Al17  1  0.920746  0.920746  0.237763  1
  Al  Al18  1  0.237763  0.920746  0.920746  1
  Al  Al19  1  0.329254  0.329254  0.329254  1
  Fe  Fe20  1  0.125000  0.125000  0.125000  1
  Fe  Fe21  1  0.625000  0.125000  0.125000  1
  Fe  Fe22  1  0.125000  0.625000  0.125000  1
  Fe  Fe23  1  0.125000  0.125000  0.625000  1
  C  C24  1  0.625000  0.625000  0.625000  1
  C  C25  1  0.125000  0.625000  0.625000  1
  C  C26  1  0.625000  0.125000  0.625000  1
  C  C27  1  0.625000  0.625000  0.125000  1
