# generated using pymatgen
data_ErTm11Fe4SnRh
_symmetry_space_group_name_H-M   'P 1'
_cell_length_a   8.20122590
_cell_length_b   8.20167836
_cell_length_c   8.20167771
_cell_angle_alpha   110.74788128
_cell_angle_beta   111.06664675
_cell_angle_gamma   106.63809527
_symmetry_Int_Tables_number   1
_chemical_formula_structural   ErTm11Fe4SnRh
_chemical_formula_sum   'Er1 Tm11 Fe4 Sn1 Rh1'
_cell_volume   423.89141073
_cell_formula_units_Z   1
loop_
 _symmetry_equiv_pos_site_id
 _symmetry_equiv_pos_as_xyz
  1  'x, y, z'
loop_
 _atom_site_type_symbol
 _atom_site_label
 _atom_site_symmetry_multiplicity
 _atom_site_fract_x
 _atom_site_fract_y
 _atom_site_fract_z
 _atom_site_occupancy
  Er  Er0  1  0.413386  0.216629  0.196757  1
  Tm  Tm1  1  0.585429  0.783137  0.802292  1
  Tm  Tm2  1  0.018896  0.216631  0.802265  1
  Tm  Tm3  1  0.980247  0.783069  0.197179  1
  Tm  Tm4  1  0.186203  0.285851  0.472036  1
  Tm  Tm5  1  0.814600  0.714685  0.529025  1
  Tm  Tm6  1  0.186203  0.714167  0.900352  1
  Tm  Tm7  1  0.814600  0.285575  0.099916  1
  Tm  Tm8  1  0.311931  0.614090  0.301873  1
  Tm  Tm9  1  0.688305  0.386446  0.698722  1
  Tm  Tm10  1  0.311931  0.010058  0.697842  1
  Tm  Tm11  1  0.688305  0.989584  0.301857  1
  Fe  Fe12  1  0.382685  0.999815  0.382870  1
  Fe  Fe13  1  0.617184  0.000347  0.616838  1
  Fe  Fe14  1  0.109120  0.608949  0.500172  1
  Fe  Fe15  1  0.892838  0.391754  0.501083  1
  Sn  Sn16  1  0.499621  0.499890  0.999731  1
  Rh  Rh17  1  0.998513  0.999322  0.999192  1
