# generated using pymatgen
data_Cs6MnTe4
_symmetry_space_group_name_H-M   'P 1'
_cell_length_a   11.86249800
_cell_length_b   11.86249746
_cell_length_c   9.23491100
_cell_angle_alpha   90.00000000
_cell_angle_beta   90.00000000
_cell_angle_gamma   120.00000150
_symmetry_Int_Tables_number   1
_chemical_formula_structural   Cs6MnTe4
_chemical_formula_sum   'Cs12 Mn2 Te8'
_cell_volume   1125.42257960
_cell_formula_units_Z   2
loop_
 _symmetry_equiv_pos_site_id
 _symmetry_equiv_pos_as_xyz
  1  'x, y, z'
loop_
 _atom_site_type_symbol
 _atom_site_label
 _atom_site_symmetry_multiplicity
 _atom_site_fract_x
 _atom_site_fract_y
 _atom_site_fract_z
 _atom_site_occupancy
  Cs  Cs0  1  0.147623  0.852377  0.545426  1
  Cs  Cs1  1  0.295245  0.147623  0.045426  1
  Cs  Cs2  1  0.852377  0.704755  0.045426  1
  Cs  Cs3  1  0.147623  0.295245  0.545426  1
  Cs  Cs4  1  0.704755  0.852377  0.545426  1
  Cs  Cs5  1  0.852377  0.147623  0.045426  1
  Cs  Cs6  1  0.526094  0.473906  0.364395  1
  Cs  Cs7  1  0.052187  0.526094  0.864395  1
  Cs  Cs8  1  0.473906  0.947813  0.864395  1
  Cs  Cs9  1  0.526094  0.052187  0.364395  1
  Cs  Cs10  1  0.947813  0.473906  0.364395  1
  Cs  Cs11  1  0.473906  0.526094  0.864395  1
  Mn  Mn12  1  0.333333  0.666667  0.250747  1
  Mn  Mn13  1  0.666667  0.333333  0.750747  1
  Te  Te14  1  0.333333  0.666667  0.555844  1
  Te  Te15  1  0.666667  0.333333  0.055844  1
  Te  Te16  1  0.203032  0.796968  0.155148  1
  Te  Te17  1  0.406063  0.203032  0.655148  1
  Te  Te18  1  0.796968  0.593937  0.655148  1
  Te  Te19  1  0.203032  0.406063  0.155148  1
  Te  Te20  1  0.593937  0.796968  0.155148  1
  Te  Te21  1  0.796968  0.203032  0.655148  1
