# generated using pymatgen
data_Zr9TaCoRe3
_symmetry_space_group_name_H-M   'P 1'
_cell_length_a   8.74869300
_cell_length_b   8.74869291
_cell_length_c   8.53946500
_cell_angle_alpha   90.00000000
_cell_angle_beta   90.00000000
_cell_angle_gamma   120.00000411
_symmetry_Int_Tables_number   1
_chemical_formula_structural   Zr9TaCoRe3
_chemical_formula_sum   'Zr18 Ta2 Co2 Re6'
_cell_volume   566.04065691
_cell_formula_units_Z   2
loop_
 _symmetry_equiv_pos_site_id
 _symmetry_equiv_pos_as_xyz
  1  'x, y, z'
loop_
 _atom_site_type_symbol
 _atom_site_label
 _atom_site_symmetry_multiplicity
 _atom_site_fract_x
 _atom_site_fract_y
 _atom_site_fract_z
 _atom_site_occupancy
  Zr  Zr0  1  0.200844  0.799156  0.440423  1
  Zr  Zr1  1  0.200844  0.401687  0.440423  1
  Zr  Zr2  1  0.598313  0.799156  0.440423  1
  Zr  Zr3  1  0.799156  0.200844  0.559577  1
  Zr  Zr4  1  0.799156  0.598313  0.559577  1
  Zr  Zr5  1  0.401687  0.200844  0.559577  1
  Zr  Zr6  1  0.799156  0.200844  0.940423  1
  Zr  Zr7  1  0.799156  0.598313  0.940423  1
  Zr  Zr8  1  0.401687  0.200844  0.940423  1
  Zr  Zr9  1  0.200844  0.799156  0.059577  1
  Zr  Zr10  1  0.200844  0.401687  0.059577  1
  Zr  Zr11  1  0.598313  0.799156  0.059577  1
  Zr  Zr12  1  0.542638  0.457362  0.250000  1
  Zr  Zr13  1  0.542638  0.085273  0.250000  1
  Zr  Zr14  1  0.914727  0.457362  0.250000  1
  Zr  Zr15  1  0.457362  0.542638  0.750000  1
  Zr  Zr16  1  0.457362  0.914727  0.750000  1
  Zr  Zr17  1  0.085273  0.542638  0.750000  1
  Ta  Ta18  1  0.000000  0.000000  0.500000  1
  Ta  Ta19  1  0.000000  0.000000  0.000000  1
  Co  Co20  1  0.333333  0.666667  0.250000  1
  Co  Co21  1  0.666667  0.333333  0.750000  1
  Re  Re22  1  0.887858  0.112142  0.250000  1
  Re  Re23  1  0.887858  0.775717  0.250000  1
  Re  Re24  1  0.224283  0.112142  0.250000  1
  Re  Re25  1  0.112142  0.887858  0.750000  1
  Re  Re26  1  0.112142  0.224283  0.750000  1
  Re  Re27  1  0.775717  0.887858  0.750000  1
