# generated using pymatgen
data_Ba6Dy3Sn(WO9)2
_symmetry_space_group_name_H-M   'P 1'
_cell_length_a   10.51620436
_cell_length_b   10.51620457
_cell_length_c   10.51620400
_cell_angle_alpha   146.43131954
_cell_angle_beta   131.80894138
_cell_angle_gamma   60.00843670
_symmetry_Int_Tables_number   1
_chemical_formula_structural   Ba6Dy3Sn(WO9)2
_chemical_formula_sum   'Ba6 Dy3 Sn1 W2 O18'
_cell_volume   474.93863426
_cell_formula_units_Z   1
loop_
 _symmetry_equiv_pos_site_id
 _symmetry_equiv_pos_as_xyz
  1  'x, y, z'
loop_
 _atom_site_type_symbol
 _atom_site_label
 _atom_site_symmetry_multiplicity
 _atom_site_fract_x
 _atom_site_fract_y
 _atom_site_fract_z
 _atom_site_occupancy
  Ba  Ba0  1  0.582126  0.837049  0.745077  1
  Ba  Ba1  1  0.259770  0.500000  0.759770  1
  Ba  Ba2  1  0.908027  0.162951  0.745077  1
  Ba  Ba3  1  0.091973  0.837049  0.254923  1
  Ba  Ba4  1  0.740230  0.500000  0.240230  1
  Ba  Ba5  1  0.417874  0.162951  0.254923  1
  Dy  Dy6  1  0.331785  0.331785  0.000000  1
  Dy  Dy7  1  0.000000  0.000000  0.000000  1
  Dy  Dy8  1  0.668215  0.668215  0.000000  1
  Sn  Sn9  1  0.500000  0.000000  0.500000  1
  W  W10  1  0.165994  0.665994  0.500000  1
  W  W11  1  0.834006  0.334006  0.500000  1
  O  O12  1  0.602168  0.332413  0.269752  1
  O  O13  1  0.256821  0.000000  0.256821  1
  O  O14  1  0.937339  0.667587  0.269752  1
  O  O15  1  0.911095  0.645021  0.733928  1
  O  O16  1  0.582542  0.326505  0.743964  1
  O  O17  1  0.243896  0.978362  0.734466  1
  O  O18  1  0.756104  0.490570  0.734466  1
  O  O19  1  0.417458  0.161422  0.743964  1
  O  O20  1  0.088905  0.822833  0.733928  1
  O  O21  1  0.062661  0.332413  0.730248  1
  O  O22  1  0.743179  0.000000  0.743179  1
  O  O23  1  0.397832  0.667587  0.730248  1
  O  O24  1  0.756104  0.021638  0.265534  1
  O  O25  1  0.417458  0.673495  0.256036  1
  O  O26  1  0.088905  0.354979  0.266072  1
  O  O27  1  0.911095  0.177167  0.266072  1
  O  O28  1  0.582542  0.838578  0.256036  1
  O  O29  1  0.243896  0.509430  0.265534  1
