# generated using pymatgen
data_Ba6PrDy(BO3)6
_symmetry_space_group_name_H-M   'P 1'
_cell_length_a   8.27851719
_cell_length_b   8.27851785
_cell_length_c   8.27851675
_cell_angle_alpha   105.62091187
_cell_angle_beta   105.62091920
_cell_angle_gamma   105.62091124
_symmetry_Int_Tables_number   1
_chemical_formula_structural   Ba6PrDy(BO3)6
_chemical_formula_sum   'Ba6 Pr1 Dy1 B6 O18'
_cell_volume   489.19036976
_cell_formula_units_Z   1
loop_
 _symmetry_equiv_pos_site_id
 _symmetry_equiv_pos_as_xyz
  1  'x, y, z'
loop_
 _atom_site_type_symbol
 _atom_site_label
 _atom_site_symmetry_multiplicity
 _atom_site_fract_x
 _atom_site_fract_y
 _atom_site_fract_z
 _atom_site_occupancy
  Ba  Ba0  1  0.351581  0.733796  0.841827  1
  Ba  Ba1  1  0.841827  0.351581  0.733796  1
  Ba  Ba2  1  0.733796  0.841827  0.351581  1
  Ba  Ba3  1  0.648419  0.266204  0.158173  1
  Ba  Ba4  1  0.158173  0.648419  0.266204  1
  Ba  Ba5  1  0.266204  0.158173  0.648419  1
  Pr  Pr6  1  0.000000  0.000000  0.000000  1
  Dy  Dy7  1  0.500000  0.500000  0.500000  1
  B  B8  1  0.705915  0.620133  0.955922  1
  B  B9  1  0.955922  0.705915  0.620133  1
  B  B10  1  0.620133  0.955922  0.705915  1
  B  B11  1  0.044078  0.294085  0.379867  1
  B  B12  1  0.379867  0.044078  0.294085  1
  B  B13  1  0.294085  0.379867  0.044078  1
  O  O14  1  0.061991  0.804167  0.550796  1
  O  O15  1  0.550796  0.061991  0.804167  1
  O  O16  1  0.426526  0.493355  0.214163  1
  O  O17  1  0.493355  0.214163  0.426526  1
  O  O18  1  0.214163  0.426526  0.493355  1
  O  O19  1  0.785837  0.573474  0.506645  1
  O  O20  1  0.573474  0.506645  0.785837  1
  O  O21  1  0.506645  0.785837  0.573474  1
  O  O22  1  0.267837  0.195999  0.984127  1
  O  O23  1  0.195999  0.984127  0.267837  1
  O  O24  1  0.984127  0.267837  0.195999  1
  O  O25  1  0.732163  0.804001  0.015873  1
  O  O26  1  0.804001  0.015873  0.732163  1
  O  O27  1  0.015873  0.732163  0.804001  1
  O  O28  1  0.195833  0.449204  0.938009  1
  O  O29  1  0.449204  0.938009  0.195833  1
  O  O30  1  0.938009  0.195833  0.449204  1
  O  O31  1  0.804167  0.550796  0.061991  1
