# generated using pymatgen
data_Yb3SmYRu2
_symmetry_space_group_name_H-M   'P 1'
_cell_length_a   8.52824141
_cell_length_b   8.52824176
_cell_length_c   7.45268200
_cell_angle_alpha   83.30299840
_cell_angle_beta   83.30299136
_cell_angle_gamma   43.82780838
_symmetry_Int_Tables_number   1
_chemical_formula_structural   Yb3SmYRu2
_chemical_formula_sum   'Yb6 Sm2 Y2 Ru4'
_cell_volume   372.38203231
_cell_formula_units_Z   2
loop_
 _symmetry_equiv_pos_site_id
 _symmetry_equiv_pos_as_xyz
  1  'x, y, z'
loop_
 _atom_site_type_symbol
 _atom_site_label
 _atom_site_symmetry_multiplicity
 _atom_site_fract_x
 _atom_site_fract_y
 _atom_site_fract_z
 _atom_site_occupancy
  Yb  Yb0  1  0.201876  0.975886  0.583776  1
  Yb  Yb1  1  0.024114  0.798124  0.916224  1
  Yb  Yb2  1  0.202262  0.365923  0.317485  1
  Yb  Yb3  1  0.634077  0.797738  0.182515  1
  Yb  Yb4  1  0.804979  0.627208  0.677887  1
  Yb  Yb5  1  0.372792  0.195021  0.822113  1
  Sm  Sm6  1  0.969693  0.202792  0.079055  1
  Sm  Sm7  1  0.797208  0.030307  0.420945  1
  Y  Y8  1  0.561798  0.438202  0.750000  1
  Y  Y9  1  0.416874  0.583126  0.250000  1
  Ru  Ru10  1  0.178180  0.601279  0.575238  1
  Ru  Ru11  1  0.398721  0.821820  0.924762  1
  Ru  Ru12  1  0.819003  0.381578  0.418783  1
  Ru  Ru13  1  0.618422  0.180997  0.081217  1
