# generated using pymatgen
data_Dy5Hf(Be2Ir5)2
_symmetry_space_group_name_H-M   'P 1'
_cell_length_a   9.80861800
_cell_length_b   9.80861800
_cell_length_c   3.31502000
_cell_angle_alpha   90.00000000
_cell_angle_beta   90.00000000
_cell_angle_gamma   90.00000000
_symmetry_Int_Tables_number   1
_chemical_formula_structural   Dy5Hf(Be2Ir5)2
_chemical_formula_sum   'Dy5 Hf1 Be4 Ir10'
_cell_volume   318.93471632
_cell_formula_units_Z   1
loop_
 _symmetry_equiv_pos_site_id
 _symmetry_equiv_pos_as_xyz
  1  'x, y, z'
loop_
 _atom_site_type_symbol
 _atom_site_label
 _atom_site_symmetry_multiplicity
 _atom_site_fract_x
 _atom_site_fract_y
 _atom_site_fract_z
 _atom_site_occupancy
  Dy  Dy0  1  0.176169  0.676471  0.000000  1
  Dy  Dy1  1  0.323529  0.176169  0.000000  1
  Dy  Dy2  1  0.823831  0.323529  0.000000  1
  Dy  Dy3  1  0.500000  0.500000  0.000000  1
  Dy  Dy4  1  0.676471  0.823831  0.000000  1
  Hf  Hf5  1  0.000000  0.000000  0.000000  1
  Be  Be6  1  0.379334  0.880627  0.000000  1
  Be  Be7  1  0.119373  0.379334  0.000000  1
  Be  Be8  1  0.880627  0.620666  0.000000  1
  Be  Be9  1  0.620666  0.119373  0.000000  1
  Ir  Ir10  1  0.216688  0.933887  0.500000  1
  Ir  Ir11  1  0.933887  0.783312  0.500000  1
  Ir  Ir12  1  0.427534  0.724468  0.500000  1
  Ir  Ir13  1  0.572466  0.275532  0.500000  1
  Ir  Ir14  1  0.724468  0.572466  0.500000  1
  Ir  Ir15  1  0.275532  0.427534  0.500000  1
  Ir  Ir16  1  0.066113  0.216688  0.500000  1
  Ir  Ir17  1  0.000000  0.500000  0.500000  1
  Ir  Ir18  1  0.500000  0.000000  0.500000  1
  Ir  Ir19  1  0.783312  0.066113  0.500000  1
