# generated using pymatgen
data_Er20Si12O
_symmetry_space_group_name_H-M   'P 1'
_cell_length_a   6.24589629
_cell_length_b   8.32920307
_cell_length_c   14.50967500
_cell_angle_alpha   90.00000688
_cell_angle_beta   90.00000000
_cell_angle_gamma   89.95993367
_symmetry_Int_Tables_number   1
_chemical_formula_structural   Er20Si12O
_chemical_formula_sum   'Er20 Si12 O1'
_cell_volume   754.84155056
_cell_formula_units_Z   1
loop_
 _symmetry_equiv_pos_site_id
 _symmetry_equiv_pos_as_xyz
  1  'x, y, z'
loop_
 _atom_site_type_symbol
 _atom_site_label
 _atom_site_symmetry_multiplicity
 _atom_site_fract_x
 _atom_site_fract_y
 _atom_site_fract_z
 _atom_site_occupancy
  Er  Er0  1  0.500001  0.999998  0.334293  1
  Er  Er1  1  0.500001  0.500002  0.831092  1
  Er  Er2  1  0.500001  0.500002  0.168908  1
  Er  Er3  1  0.500001  0.999998  0.665707  1
  Er  Er4  1  0.000004  0.499993  0.163265  1
  Er  Er5  1  0.999999  0.000003  0.669248  1
  Er  Er6  1  0.999999  0.000003  0.330752  1
  Er  Er7  1  0.000004  0.499993  0.836735  1
  Er  Er8  1  0.736078  0.235503  0.000000  1
  Er  Er9  1  0.750777  0.744343  0.500000  1
  Er  Er10  1  0.751395  0.378164  0.378776  1
  Er  Er11  1  0.739856  0.880767  0.881986  1
  Er  Er12  1  0.739856  0.880767  0.118014  1
  Er  Er13  1  0.751395  0.378164  0.621224  1
  Er  Er14  1  0.263868  0.764505  0.000000  1
  Er  Er15  1  0.249281  0.255666  0.500000  1
  Er  Er16  1  0.260139  0.119232  0.118013  1
  Er  Er17  1  0.248602  0.621844  0.621221  1
  Er  Er18  1  0.248602  0.621844  0.378779  1
  Er  Er19  1  0.260139  0.119232  0.881987  1
  Si  Si20  1  0.743206  0.602629  0.000000  1
  Si  Si21  1  0.752903  0.105769  0.500000  1
  Si  Si22  1  0.748538  0.196915  0.197540  1
  Si  Si23  1  0.751985  0.696869  0.697999  1
  Si  Si24  1  0.751985  0.696869  0.302001  1
  Si  Si25  1  0.748538  0.196915  0.802460  1
  Si  Si26  1  0.256810  0.397367  0.000000  1
  Si  Si27  1  0.247093  0.894232  0.500000  1
  Si  Si28  1  0.248029  0.303129  0.302004  1
  Si  Si29  1  0.251455  0.803080  0.802457  1
  Si  Si30  1  0.251455  0.803080  0.197543  1
  Si  Si31  1  0.248029  0.303129  0.697996  1
  O  O32  1  0.499979  0.000000  0.000000  1
