# generated using pymatgen
data_Mg2FeNi2PdO8
_symmetry_space_group_name_H-M   'P 1'
_cell_length_a   6.04549439
_cell_length_b   5.97750035
_cell_length_c   5.97780120
_cell_angle_alpha   59.82583371
_cell_angle_beta   60.88606082
_cell_angle_gamma   60.89256573
_symmetry_Int_Tables_number   1
_chemical_formula_structural   Mg2FeNi2PdO8
_chemical_formula_sum   'Mg2 Fe1 Ni2 Pd1 O8'
_cell_volume   154.55997205
_cell_formula_units_Z   1
loop_
 _symmetry_equiv_pos_site_id
 _symmetry_equiv_pos_as_xyz
  1  'x, y, z'
loop_
 _atom_site_type_symbol
 _atom_site_label
 _atom_site_symmetry_multiplicity
 _atom_site_fract_x
 _atom_site_fract_y
 _atom_site_fract_z
 _atom_site_occupancy
  Mg  Mg0  1  0.100943  0.133916  0.133963  1
  Mg  Mg1  1  0.899028  0.866099  0.866043  1
  Fe  Fe2  1  0.500042  0.500030  0.500031  1
  Ni  Ni3  1  0.500073  0.500026  0.999809  1
  Ni  Ni4  1  0.500032  0.999841  0.500135  1
  Pd  Pd5  1  0.999886  0.500050  0.500035  1
  O  O6  1  0.750193  0.735664  0.735574  1
  O  O7  1  0.252497  0.265607  0.726029  1
  O  O8  1  0.252601  0.726009  0.265555  1
  O  O9  1  0.705158  0.266553  0.266572  1
  O  O10  1  0.747427  0.274012  0.734407  1
  O  O11  1  0.294805  0.733454  0.733446  1
  O  O12  1  0.249824  0.264320  0.264416  1
  O  O13  1  0.747491  0.734420  0.273983  1
