# generated using pymatgen
data_Yb2TmOsO6
_symmetry_space_group_name_H-M   'P 1'
_cell_length_a   5.49318162
_cell_length_b   5.75915000
_cell_length_c   9.60038718
_cell_angle_alpha   90.00000000
_cell_angle_beta   124.25490692
_cell_angle_gamma   90.00000000
_symmetry_Int_Tables_number   1
_chemical_formula_structural   Yb2TmOsO6
_chemical_formula_sum   'Yb4 Tm2 Os2 O12'
_cell_volume   251.03587197
_cell_formula_units_Z   2
loop_
 _symmetry_equiv_pos_site_id
 _symmetry_equiv_pos_as_xyz
  1  'x, y, z'
loop_
 _atom_site_type_symbol
 _atom_site_label
 _atom_site_symmetry_multiplicity
 _atom_site_fract_x
 _atom_site_fract_y
 _atom_site_fract_z
 _atom_site_occupancy
  Yb  Yb0  1  0.230800  0.436930  0.750985  1
  Yb  Yb1  1  0.230800  0.063070  0.250985  1
  Yb  Yb2  1  0.769200  0.563070  0.249015  1
  Yb  Yb3  1  0.769200  0.936930  0.749015  1
  Tm  Tm4  1  0.500000  0.500000  0.500000  1
  Tm  Tm5  1  0.500000  0.000000  0.000000  1
  Os  Os6  1  0.000000  0.500000  0.000000  1
  Os  Os7  1  0.000000  0.000000  0.500000  1
  O  O8  1  0.765505  0.186939  0.557295  1
  O  O9  1  0.765505  0.313061  0.057295  1
  O  O10  1  0.234495  0.813061  0.442705  1
  O  O11  1  0.234495  0.686939  0.942705  1
  O  O12  1  0.883378  0.711512  0.563217  1
  O  O13  1  0.883378  0.788488  0.063217  1
  O  O14  1  0.116622  0.288488  0.436783  1
  O  O15  1  0.116622  0.211512  0.936783  1
  O  O16  1  0.349447  0.044639  0.734864  1
  O  O17  1  0.349447  0.455361  0.234864  1
  O  O18  1  0.650553  0.955361  0.265136  1
  O  O19  1  0.650553  0.544639  0.765136  1
