# generated using pymatgen
data_Dy2Zr2AlOs7
_symmetry_space_group_name_H-M   'P 1'
_cell_length_a   5.31964800
_cell_length_b   5.31964997
_cell_length_c   8.57341200
_cell_angle_alpha   90.00000000
_cell_angle_beta   90.00000000
_cell_angle_gamma   120.00000021
_symmetry_Int_Tables_number   1
_chemical_formula_structural   Dy2Zr2AlOs7
_chemical_formula_sum   'Dy2 Zr2 Al1 Os7'
_cell_volume   210.11171997
_cell_formula_units_Z   1
loop_
 _symmetry_equiv_pos_site_id
 _symmetry_equiv_pos_as_xyz
  1  'x, y, z'
loop_
 _atom_site_type_symbol
 _atom_site_label
 _atom_site_symmetry_multiplicity
 _atom_site_fract_x
 _atom_site_fract_y
 _atom_site_fract_z
 _atom_site_occupancy
  Dy  Dy0  1  0.666667  0.333333  0.939372  1
  Dy  Dy1  1  0.333333  0.666667  0.060628  1
  Zr  Zr2  1  0.333333  0.666667  0.426658  1
  Zr  Zr3  1  0.666667  0.333333  0.573342  1
  Al  Al4  1  0.000000  0.000000  0.500000  1
  Os  Os5  1  0.000000  0.000000  0.000000  1
  Os  Os6  1  0.828065  0.171935  0.258040  1
  Os  Os7  1  0.828065  0.656130  0.258040  1
  Os  Os8  1  0.343870  0.171935  0.258040  1
  Os  Os9  1  0.171935  0.828065  0.741960  1
  Os  Os10  1  0.171935  0.343870  0.741960  1
  Os  Os11  1  0.656130  0.828065  0.741960  1
