# generated using pymatgen
data_HoEr3HgPd
_symmetry_space_group_name_H-M   'P 1'
_cell_length_a   9.59930203
_cell_length_b   9.59930106
_cell_length_c   9.59930300
_cell_angle_alpha   60.00000364
_cell_angle_beta   60.00000699
_cell_angle_gamma   60.00000728
_symmetry_Int_Tables_number   1
_chemical_formula_structural   HoEr3HgPd
_chemical_formula_sum   'Ho4 Er12 Hg4 Pd4'
_cell_volume   625.46646554
_cell_formula_units_Z   4
loop_
 _symmetry_equiv_pos_site_id
 _symmetry_equiv_pos_as_xyz
  1  'x, y, z'
loop_
 _atom_site_type_symbol
 _atom_site_label
 _atom_site_symmetry_multiplicity
 _atom_site_fract_x
 _atom_site_fract_y
 _atom_site_fract_z
 _atom_site_occupancy
  Ho  Ho0  1  0.356773  0.356773  0.356773  1
  Ho  Ho1  1  0.356773  0.356773  0.929681  1
  Ho  Ho2  1  0.356773  0.929681  0.356773  1
  Ho  Ho3  1  0.929681  0.356773  0.356773  1
  Er  Er4  1  0.811046  0.188954  0.188954  1
  Er  Er5  1  0.188954  0.811046  0.811046  1
  Er  Er6  1  0.188954  0.811046  0.188954  1
  Er  Er7  1  0.811046  0.188954  0.811046  1
  Er  Er8  1  0.188954  0.188954  0.811046  1
  Er  Er9  1  0.811046  0.811046  0.188954  1
  Er  Er10  1  0.934709  0.565291  0.565291  1
  Er  Er11  1  0.565291  0.934709  0.934709  1
  Er  Er12  1  0.565291  0.934709  0.565291  1
  Er  Er13  1  0.934709  0.565291  0.934709  1
  Er  Er14  1  0.565291  0.565291  0.934709  1
  Er  Er15  1  0.934709  0.934709  0.565291  1
  Hg  Hg16  1  0.587245  0.587245  0.587245  1
  Hg  Hg17  1  0.587245  0.587245  0.238262  1
  Hg  Hg18  1  0.587245  0.238262  0.587245  1
  Hg  Hg19  1  0.238262  0.587245  0.587245  1
  Pd  Pd20  1  0.145505  0.145505  0.145505  1
  Pd  Pd21  1  0.145505  0.145505  0.563486  1
  Pd  Pd22  1  0.145505  0.563486  0.145505  1
  Pd  Pd23  1  0.563486  0.145505  0.145505  1
