# generated using pymatgen
data_NaTi(NbSe2)6
_symmetry_space_group_name_H-M   'P 1'
_cell_length_a   6.05806400
_cell_length_b   6.05806509
_cell_length_c   14.43799100
_cell_angle_alpha   90.00000000
_cell_angle_beta   90.00000000
_cell_angle_gamma   120.00000498
_symmetry_Int_Tables_number   1
_chemical_formula_structural   NaTi(NbSe2)6
_chemical_formula_sum   'Na1 Ti1 Nb6 Se12'
_cell_volume   458.88638106
_cell_formula_units_Z   1
loop_
 _symmetry_equiv_pos_site_id
 _symmetry_equiv_pos_as_xyz
  1  'x, y, z'
loop_
 _atom_site_type_symbol
 _atom_site_label
 _atom_site_symmetry_multiplicity
 _atom_site_fract_x
 _atom_site_fract_y
 _atom_site_fract_z
 _atom_site_occupancy
  Na  Na0  1  0.333333  0.666667  0.250000  1
  Ti  Ti1  1  0.666667  0.333333  0.750000  1
  Nb  Nb2  1  0.000000  0.000000  0.527262  1
  Nb  Nb3  1  0.000000  0.000000  0.972738  1
  Nb  Nb4  1  0.333333  0.666667  0.972977  1
  Nb  Nb5  1  0.666667  0.333333  0.971519  1
  Nb  Nb6  1  0.666667  0.333333  0.528481  1
  Nb  Nb7  1  0.333333  0.666667  0.527023  1
  Se  Se8  1  0.334599  0.331388  0.411063  1
  Se  Se9  1  0.668612  0.003212  0.411063  1
  Se  Se10  1  0.996788  0.665401  0.411063  1
  Se  Se11  1  0.328342  0.334057  0.644173  1
  Se  Se12  1  0.005715  0.671658  0.644173  1
  Se  Se13  1  0.665943  0.994285  0.644173  1
  Se  Se14  1  0.665943  0.671658  0.855827  1
  Se  Se15  1  0.328342  0.994285  0.855827  1
  Se  Se16  1  0.005715  0.334057  0.855827  1
  Se  Se17  1  0.668612  0.665401  0.088937  1
  Se  Se18  1  0.996788  0.331388  0.088937  1
  Se  Se19  1  0.334599  0.003212  0.088937  1
