# generated using pymatgen
data_La3Dy2V3(P3Ir4)4
_symmetry_space_group_name_H-M   'P 1'
_cell_length_a   12.78271400
_cell_length_b   12.78271395
_cell_length_c   3.99572900
_cell_angle_alpha   90.00000000
_cell_angle_beta   90.00000000
_cell_angle_gamma   120.00000012
_symmetry_Int_Tables_number   1
_chemical_formula_structural   La3Dy2V3(P3Ir4)4
_chemical_formula_sum   'La3 Dy2 V3 P12 Ir16'
_cell_volume   565.42212641
_cell_formula_units_Z   1
loop_
 _symmetry_equiv_pos_site_id
 _symmetry_equiv_pos_as_xyz
  1  'x, y, z'
loop_
 _atom_site_type_symbol
 _atom_site_label
 _atom_site_symmetry_multiplicity
 _atom_site_fract_x
 _atom_site_fract_y
 _atom_site_fract_z
 _atom_site_occupancy
  La  La0  1  0.000000  0.811552  0.000000  1
  La  La1  1  0.188448  0.188448  0.000000  1
  La  La2  1  0.811552  0.000000  0.000000  1
  Dy  Dy3  1  0.333333  0.666667  0.500000  1
  Dy  Dy4  1  0.666667  0.333333  0.500000  1
  V  V5  1  0.000000  0.450206  0.500000  1
  V  V6  1  0.549794  0.549794  0.500000  1
  V  V7  1  0.450206  0.000000  0.500000  1
  P  P8  1  0.000000  0.631199  0.500000  1
  P  P9  1  0.368801  0.368801  0.500000  1
  P  P10  1  0.631199  0.000000  0.500000  1
  P  P11  1  0.516095  0.684181  0.000000  1
  P  P12  1  0.315819  0.831913  0.000000  1
  P  P13  1  0.168087  0.483905  0.000000  1
  P  P14  1  0.483905  0.168087  0.000000  1
  P  P15  1  0.684181  0.516095  0.000000  1
  P  P16  1  0.831913  0.315819  0.000000  1
  P  P17  1  0.000000  0.181591  0.500000  1
  P  P18  1  0.818409  0.818409  0.500000  1
  P  P19  1  0.181591  0.000000  0.500000  1
  Ir  Ir20  1  0.508291  0.867085  0.000000  1
  Ir  Ir21  1  0.132915  0.641207  0.000000  1
  Ir  Ir22  1  0.358793  0.491709  0.000000  1
  Ir  Ir23  1  0.491709  0.358793  0.000000  1
  Ir  Ir24  1  0.867085  0.508291  0.000000  1
  Ir  Ir25  1  0.641207  0.132915  0.000000  1
  Ir  Ir26  1  0.000000  0.288357  0.000000  1
  Ir  Ir27  1  0.711643  0.711643  0.000000  1
  Ir  Ir28  1  0.288357  0.000000  0.000000  1
  Ir  Ir29  1  0.620173  0.798851  0.500000  1
  Ir  Ir30  1  0.201149  0.821321  0.500000  1
  Ir  Ir31  1  0.178679  0.379827  0.500000  1
  Ir  Ir32  1  0.379827  0.178679  0.500000  1
  Ir  Ir33  1  0.798851  0.620173  0.500000  1
  Ir  Ir34  1  0.821321  0.201149  0.500000  1
  Ir  Ir35  1  0.000000  0.000000  0.500000  1
