# generated using pymatgen
data_La(In2Pt)2
_symmetry_space_group_name_H-M   'P 1'
_cell_length_a   18.70100400
_cell_length_b   4.64841400
_cell_length_c   7.32559600
_cell_angle_alpha   90.00000000
_cell_angle_beta   90.00000000
_cell_angle_gamma   90.00000000
_symmetry_Int_Tables_number   1
_chemical_formula_structural   La(In2Pt)2
_chemical_formula_sum   'La4 In16 Pt8'
_cell_volume   636.81412480
_cell_formula_units_Z   4
loop_
 _symmetry_equiv_pos_site_id
 _symmetry_equiv_pos_as_xyz
  1  'x, y, z'
loop_
 _atom_site_type_symbol
 _atom_site_label
 _atom_site_symmetry_multiplicity
 _atom_site_fract_x
 _atom_site_fract_y
 _atom_site_fract_z
 _atom_site_occupancy
  La  La0  1  0.139961  0.750000  0.519378  1
  La  La1  1  0.360039  0.250001  0.019378  1
  La  La2  1  0.639961  0.750000  0.980622  1
  La  La3  1  0.860039  0.250001  0.480623  1
  In  In4  1  0.191340  0.250001  0.229263  1
  In  In5  1  0.308660  0.750000  0.729262  1
  In  In6  1  0.691339  0.250001  0.270738  1
  In  In7  1  0.808661  0.750000  0.770738  1
  In  In8  1  0.430344  0.250001  0.492137  1
  In  In9  1  0.069656  0.750000  0.992136  1
  In  In10  1  0.930344  0.250001  0.007863  1
  In  In11  1  0.569656  0.750000  0.507864  1
  In  In12  1  0.034782  0.250001  0.347235  1
  In  In13  1  0.465218  0.750000  0.847236  1
  In  In14  1  0.534782  0.250001  0.152764  1
  In  In15  1  0.965218  0.750000  0.652764  1
  In  In16  1  0.185384  0.250001  0.821065  1
  In  In17  1  0.314616  0.750000  0.321065  1
  In  In18  1  0.685383  0.250001  0.678935  1
  In  In19  1  0.814617  0.750000  0.178934  1
  Pt  Pt20  1  0.282397  0.250001  0.529017  1
  Pt  Pt21  1  0.217603  0.750000  0.029018  1
  Pt  Pt22  1  0.782397  0.250001  0.970983  1
  Pt  Pt23  1  0.717603  0.750000  0.470983  1
  Pt  Pt24  1  0.039797  0.250001  0.742432  1
  Pt  Pt25  1  0.460203  0.750000  0.242433  1
  Pt  Pt26  1  0.539797  0.250001  0.757569  1
  Pt  Pt27  1  0.960204  0.750000  0.257568  1
