# generated using pymatgen
data_Tb16Tl3In(PtRh)2
_symmetry_space_group_name_H-M   'P 1'
_cell_length_a   9.76063046
_cell_length_b   9.76012480
_cell_length_c   9.76169660
_cell_angle_alpha   60.00533504
_cell_angle_beta   60.05997184
_cell_angle_gamma   60.00171804
_symmetry_Int_Tables_number   1
_chemical_formula_structural   Tb16Tl3In(PtRh)2
_chemical_formula_sum   'Tb16 Tl3 In1 Pt2 Rh2'
_cell_volume   657.90497191
_cell_formula_units_Z   1
loop_
 _symmetry_equiv_pos_site_id
 _symmetry_equiv_pos_as_xyz
  1  'x, y, z'
loop_
 _atom_site_type_symbol
 _atom_site_label
 _atom_site_symmetry_multiplicity
 _atom_site_fract_x
 _atom_site_fract_y
 _atom_site_fract_z
 _atom_site_occupancy
  Tb  Tb0  1  0.810894  0.809645  0.192744  1
  Tb  Tb1  1  0.810499  0.190180  0.809140  1
  Tb  Tb2  1  0.192550  0.186270  0.810543  1
  Tb  Tb3  1  0.649477  0.047827  0.648968  1
  Tb  Tb4  1  0.060509  0.062539  0.437682  1
  Tb  Tb5  1  0.438070  0.439619  0.060732  1
  Tb  Tb6  1  0.649477  0.653728  0.648968  1
  Tb  Tb7  1  0.810894  0.186717  0.192744  1
  Tb  Tb8  1  0.192550  0.810636  0.810543  1
  Tb  Tb9  1  0.053700  0.650382  0.645535  1
  Tb  Tb10  1  0.438070  0.061578  0.060732  1
  Tb  Tb11  1  0.437399  0.062652  0.437298  1
  Tb  Tb12  1  0.059449  0.439924  0.060702  1
  Tb  Tb13  1  0.645762  0.650173  0.053891  1
  Tb  Tb14  1  0.188908  0.811217  0.188659  1
  Tb  Tb15  1  0.060509  0.439269  0.437682  1
  Tl  Tl16  1  0.415899  0.414305  0.414737  1
  Tl  Tl17  1  0.416568  0.414378  0.754674  1
  Tl  Tl18  1  0.415899  0.755057  0.414737  1
  In  In19  1  0.750717  0.416118  0.417046  1
  Pt  Pt20  1  0.857876  0.428964  0.857957  1
  Pt  Pt21  1  0.857876  0.855204  0.857957  1
  Rh  Rh22  1  0.859018  0.856856  0.427270  1
  Rh  Rh23  1  0.427429  0.856760  0.859052  1
