# generated using pymatgen
data_Hf8Zr2Sn6Ge
_symmetry_space_group_name_H-M   'P 1'
_cell_length_a   5.85087863
_cell_length_b   8.55168200
_cell_length_c   8.55059130
_cell_angle_alpha   120.00422766
_cell_angle_beta   89.93481543
_cell_angle_gamma   90.13034223
_symmetry_Int_Tables_number   1
_chemical_formula_structural   Hf8Zr2Sn6Ge
_chemical_formula_sum   'Hf8 Zr2 Sn6 Ge1'
_cell_volume   370.49281161
_cell_formula_units_Z   1
loop_
 _symmetry_equiv_pos_site_id
 _symmetry_equiv_pos_as_xyz
  1  'x, y, z'
loop_
 _atom_site_type_symbol
 _atom_site_label
 _atom_site_symmetry_multiplicity
 _atom_site_fract_x
 _atom_site_fract_y
 _atom_site_fract_z
 _atom_site_occupancy
  Hf  Hf0  1  0.499874  0.333561  0.666890  1
  Hf  Hf1  1  0.499874  0.666671  0.333110  1
  Hf  Hf2  1  0.999449  0.666867  0.333185  1
  Hf  Hf3  1  0.999449  0.333682  0.666815  1
  Hf  Hf4  1  0.760053  0.257623  0.000000  1
  Hf  Hf5  1  0.761678  0.742500  0.743159  1
  Hf  Hf6  1  0.761678  0.999339  0.256841  1
  Hf  Hf7  1  0.239326  0.742971  0.000000  1
  Zr  Zr8  1  0.238410  0.256611  0.256345  1
  Zr  Zr9  1  0.238410  0.000268  0.743655  1
  Sn  Sn10  1  0.746706  0.608550  0.000000  1
  Sn  Sn11  1  0.746230  0.391201  0.391193  1
  Sn  Sn12  1  0.746230  0.000009  0.608807  1
  Sn  Sn13  1  0.253109  0.392383  0.000000  1
  Sn  Sn14  1  0.253788  0.608822  0.609165  1
  Sn  Sn15  1  0.253788  0.999657  0.390835  1
  Ge  Ge16  1  0.501946  0.999284  0.000000  1
