# generated using pymatgen
data_Tb2Fe2O7
_symmetry_space_group_name_H-M   'P 1'
_cell_length_a   7.17749475
_cell_length_b   7.17749537
_cell_length_c   7.17749600
_cell_angle_alpha   60.00000630
_cell_angle_beta   60.00000343
_cell_angle_gamma   60.00000781
_symmetry_Int_Tables_number   1
_chemical_formula_structural   Tb2Fe2O7
_chemical_formula_sum   'Tb4 Fe4 O14'
_cell_volume   261.45913670
_cell_formula_units_Z   2
loop_
 _symmetry_equiv_pos_site_id
 _symmetry_equiv_pos_as_xyz
  1  'x, y, z'
loop_
 _atom_site_type_symbol
 _atom_site_label
 _atom_site_symmetry_multiplicity
 _atom_site_fract_x
 _atom_site_fract_y
 _atom_site_fract_z
 _atom_site_occupancy
  Tb  Tb0  1  0.125000  0.625000  0.125000  1
  Tb  Tb1  1  0.125000  0.125000  0.625000  1
  Tb  Tb2  1  0.625000  0.125000  0.125000  1
  Tb  Tb3  1  0.125000  0.125000  0.125000  1
  Fe  Fe4  1  0.625000  0.625000  0.625000  1
  Fe  Fe5  1  0.125000  0.625000  0.625000  1
  Fe  Fe6  1  0.625000  0.625000  0.125000  1
  Fe  Fe7  1  0.625000  0.125000  0.625000  1
  O  O8  1  0.292070  0.707930  0.707930  1
  O  O9  1  0.542070  0.957930  0.957930  1
  O  O10  1  0.707930  0.707930  0.292070  1
  O  O11  1  0.292070  0.292070  0.707930  1
  O  O12  1  0.000000  0.000000  0.000000  1
  O  O13  1  0.292070  0.707930  0.292070  1
  O  O14  1  0.707930  0.292070  0.707930  1
  O  O15  1  0.957930  0.542070  0.957930  1
  O  O16  1  0.542070  0.542070  0.957930  1
  O  O17  1  0.957930  0.957930  0.542070  1
  O  O18  1  0.250000  0.250000  0.250000  1
  O  O19  1  0.542070  0.957930  0.542070  1
  O  O20  1  0.707930  0.292070  0.292070  1
  O  O21  1  0.957930  0.542070  0.542070  1
