# generated using pymatgen
data_CsDy2YS5
_symmetry_space_group_name_H-M   'P 1'
_cell_length_a   4.01468400
_cell_length_b   12.02474000
_cell_length_c   21.42745200
_cell_angle_alpha   90.00000000
_cell_angle_beta   90.00000000
_cell_angle_gamma   90.00000000
_symmetry_Int_Tables_number   1
_chemical_formula_structural   CsDy2YS5
_chemical_formula_sum   'Cs4 Dy8 Y4 S20'
_cell_volume   1034.42162932
_cell_formula_units_Z   4
loop_
 _symmetry_equiv_pos_site_id
 _symmetry_equiv_pos_as_xyz
  1  'x, y, z'
loop_
 _atom_site_type_symbol
 _atom_site_label
 _atom_site_symmetry_multiplicity
 _atom_site_fract_x
 _atom_site_fract_y
 _atom_site_fract_z
 _atom_site_occupancy
  Cs  Cs0  1  0.250000  0.854118  0.092939  1
  Cs  Cs1  1  0.750000  0.145882  0.907061  1
  Cs  Cs2  1  0.750000  0.354118  0.407061  1
  Cs  Cs3  1  0.250000  0.645882  0.592939  1
  Dy  Dy4  1  0.250000  0.957806  0.697541  1
  Dy  Dy5  1  0.750000  0.042194  0.302459  1
  Dy  Dy6  1  0.750000  0.457806  0.802459  1
  Dy  Dy7  1  0.250000  0.542194  0.197541  1
  Dy  Dy8  1  0.750000  0.390951  0.052991  1
  Dy  Dy9  1  0.250000  0.609049  0.947009  1
  Dy  Dy10  1  0.250000  0.890951  0.447009  1
  Dy  Dy11  1  0.750000  0.109049  0.552991  1
  Y  Y12  1  0.750000  0.797337  0.825459  1
  Y  Y13  1  0.250000  0.202663  0.174541  1
  Y  Y14  1  0.250000  0.297337  0.674541  1
  Y  Y15  1  0.750000  0.702663  0.325459  1
  S  S16  1  0.250000  0.951266  0.568721  1
  S  S17  1  0.750000  0.048734  0.431279  1
  S  S18  1  0.750000  0.451266  0.931279  1
  S  S19  1  0.250000  0.548734  0.068721  1
  S  S20  1  0.750000  0.761847  0.951519  1
  S  S21  1  0.250000  0.238153  0.048481  1
  S  S22  1  0.250000  0.261847  0.548481  1
  S  S23  1  0.750000  0.738153  0.451519  1
  S  S24  1  0.250000  0.946762  0.824274  1
  S  S25  1  0.750000  0.053238  0.175726  1
  S  S26  1  0.750000  0.446762  0.675726  1
  S  S27  1  0.250000  0.553238  0.324274  1
  S  S28  1  0.750000  0.125882  0.682751  1
  S  S29  1  0.250000  0.874118  0.317249  1
  S  S30  1  0.250000  0.625882  0.817249  1
  S  S31  1  0.750000  0.374118  0.182751  1
  S  S32  1  0.750000  0.689664  0.198685  1
  S  S33  1  0.250000  0.310336  0.801315  1
  S  S34  1  0.250000  0.189664  0.301315  1
  S  S35  1  0.750000  0.810336  0.698685  1
