# generated using pymatgen
data_K2Pu(SO5)2
_symmetry_space_group_name_H-M   'P 1'
_cell_length_a   14.49369100
_cell_length_b   5.60892160
_cell_length_c   7.19905102
_cell_angle_alpha   66.53310666
_cell_angle_beta   90.00000000
_cell_angle_gamma   90.00000000
_symmetry_Int_Tables_number   1
_chemical_formula_structural   K2Pu(SO5)2
_chemical_formula_sum   'K4 Pu2 S4 O20'
_cell_volume   536.83451828
_cell_formula_units_Z   2
loop_
 _symmetry_equiv_pos_site_id
 _symmetry_equiv_pos_as_xyz
  1  'x, y, z'
loop_
 _atom_site_type_symbol
 _atom_site_label
 _atom_site_symmetry_multiplicity
 _atom_site_fract_x
 _atom_site_fract_y
 _atom_site_fract_z
 _atom_site_occupancy
  K  K0  1  0.650015  0.629652  0.139078  1
  K  K1  1  0.150015  0.370348  0.360922  1
  K  K2  1  0.349985  0.370348  0.860922  1
  K  K3  1  0.849985  0.629652  0.639078  1
  Pu  Pu4  1  0.500000  0.000000  0.500000  1
  Pu  Pu5  1  0.000000  0.000000  0.000000  1
  S  S6  1  0.606409  0.391752  0.736685  1
  S  S7  1  0.106409  0.608248  0.763315  1
  S  S8  1  0.393591  0.608248  0.263315  1
  S  S9  1  0.893591  0.391752  0.236685  1
  O  O10  1  0.656013  0.272421  0.927811  1
  O  O11  1  0.156013  0.727579  0.572189  1
  O  O12  1  0.343987  0.727579  0.072189  1
  O  O13  1  0.843987  0.272421  0.427811  1
  O  O14  1  0.537791  0.196891  0.716036  1
  O  O15  1  0.037791  0.803109  0.783964  1
  O  O16  1  0.462209  0.803109  0.283964  1
  O  O17  1  0.962209  0.196891  0.216036  1
  O  O18  1  0.543667  0.606227  0.748863  1
  O  O19  1  0.043667  0.393773  0.751137  1
  O  O20  1  0.456333  0.393773  0.251137  1
  O  O21  1  0.956333  0.606227  0.248863  1
  O  O22  1  0.665470  0.500075  0.557294  1
  O  O23  1  0.165470  0.499925  0.942706  1
  O  O24  1  0.334530  0.499925  0.442706  1
  O  O25  1  0.834530  0.500075  0.057294  1
  O  O26  1  0.613075  0.064959  0.396057  1
  O  O27  1  0.113075  0.935041  0.103943  1
  O  O28  1  0.386925  0.935041  0.603943  1
  O  O29  1  0.886925  0.064959  0.896057  1
