# generated using pymatgen
data_Ta12Al8CrCo3C4
_symmetry_space_group_name_H-M   'P 1'
_cell_length_a   8.23296842
_cell_length_b   8.23296895
_cell_length_c   8.19985400
_cell_angle_alpha   119.86703444
_cell_angle_beta   90.00000000
_cell_angle_gamma   120.26593346
_symmetry_Int_Tables_number   1
_chemical_formula_structural   Ta12Al8CrCo3C4
_chemical_formula_sum   'Ta12 Al8 Cr1 Co3 C4'
_cell_volume   392.21445176
_cell_formula_units_Z   1
loop_
 _symmetry_equiv_pos_site_id
 _symmetry_equiv_pos_as_xyz
  1  'x, y, z'
loop_
 _atom_site_type_symbol
 _atom_site_label
 _atom_site_symmetry_multiplicity
 _atom_site_fract_x
 _atom_site_fract_y
 _atom_site_fract_z
 _atom_site_occupancy
  Ta  Ta0  1  0.435426  0.749487  0.064574  1
  Ta  Ta1  1  0.820098  0.757598  0.077696  1
  Ta  Ta2  1  0.815089  0.129148  0.064574  1
  Ta  Ta3  1  0.564574  0.250515  0.315089  1
  Ta  Ta4  1  0.577696  0.640196  0.320098  1
  Ta  Ta5  1  0.179903  0.242404  0.320099  1
  Ta  Ta6  1  0.435426  0.749487  0.684912  1
  Ta  Ta7  1  0.820098  0.757598  0.679903  1
  Ta  Ta8  1  0.422304  0.359803  0.679903  1
  Ta  Ta9  1  0.564574  0.250515  0.935427  1
  Ta  Ta10  1  0.179903  0.242404  0.922306  1
  Ta  Ta11  1  0.184912  0.870854  0.935428  1
  Al  Al12  1  0.209091  0.581817  0.290909  1
  Al  Al13  1  0.880389  0.580389  0.290195  1
  Al  Al14  1  0.209805  0.909805  0.290195  1
  Al  Al15  1  0.790195  0.090195  0.380390  1
  Al  Al16  1  0.209805  0.909805  0.619610  1
  Al  Al17  1  0.119610  0.419610  0.709805  1
  Al  Al18  1  0.790195  0.090195  0.709805  1
  Al  Al19  1  0.790909  0.418182  0.709092  1
  Cr  Cr20  1  0.000000  0.000000  0.500000  1
  Co  Co21  1  0.000000  0.500000  0.000000  1
  Co  Co22  1  0.500000  0.000000  0.500000  1
  Co  Co23  1  0.000000  0.500000  0.500000  1
  C  C24  1  0.000000  0.000000  0.000000  1
  C  C25  1  0.500000  0.000000  0.000000  1
  C  C26  1  0.500000  0.500000  0.000000  1
  C  C27  1  0.500000  0.500000  0.500000  1
