# generated using pymatgen
data_Nd12OsRuAu2
_symmetry_space_group_name_H-M   'P 1'
_cell_length_a   6.63672510
_cell_length_b   7.49741772
_cell_length_c   9.91340900
_cell_angle_alpha   90.00000000
_cell_angle_beta   90.00000000
_cell_angle_gamma   89.63344017
_symmetry_Int_Tables_number   1
_chemical_formula_structural   Nd12OsRuAu2
_chemical_formula_sum   'Nd12 Os1 Ru1 Au2'
_cell_volume   493.26428819
_cell_formula_units_Z   1
loop_
 _symmetry_equiv_pos_site_id
 _symmetry_equiv_pos_as_xyz
  1  'x, y, z'
loop_
 _atom_site_type_symbol
 _atom_site_label
 _atom_site_symmetry_multiplicity
 _atom_site_fract_x
 _atom_site_fract_y
 _atom_site_fract_z
 _atom_site_occupancy
  Nd  Nd0  1  0.323120  0.688803  0.059684  1
  Nd  Nd1  1  0.160600  0.166324  0.434922  1
  Nd  Nd2  1  0.659886  0.333131  0.565146  1
  Nd  Nd3  1  0.824298  0.812744  0.942482  1
  Nd  Nd4  1  0.659886  0.333131  0.934854  1
  Nd  Nd5  1  0.824298  0.812744  0.557518  1
  Nd  Nd6  1  0.323120  0.688803  0.440316  1
  Nd  Nd7  1  0.160600  0.166324  0.065078  1
  Nd  Nd8  1  0.878715  0.542930  0.250000  1
  Nd  Nd9  1  0.646508  0.021469  0.250000  1
  Nd  Nd10  1  0.149578  0.478157  0.750000  1
  Nd  Nd11  1  0.378345  0.955778  0.750000  1
  Os  Os12  1  0.062899  0.883103  0.250000  1
  Ru  Ru13  1  0.566584  0.617148  0.750000  1
  Au  Au14  1  0.440672  0.387940  0.250000  1
  Au  Au15  1  0.940888  0.111467  0.750000  1
