# generated using pymatgen
data_Ho2Er2Ga18(NiRu)3
_symmetry_space_group_name_H-M   'P 1'
_cell_length_a   7.51089969
_cell_length_b   7.51098637
_cell_length_c   9.47654000
_cell_angle_alpha   89.85982321
_cell_angle_beta   89.85841921
_cell_angle_gamma   120.64638563
_symmetry_Int_Tables_number   1
_chemical_formula_structural   Ho2Er2Ga18(NiRu)3
_chemical_formula_sum   'Ho2 Er2 Ga18 Ni3 Ru3'
_cell_volume   459.93690915
_cell_formula_units_Z   1
loop_
 _symmetry_equiv_pos_site_id
 _symmetry_equiv_pos_as_xyz
  1  'x, y, z'
loop_
 _atom_site_type_symbol
 _atom_site_label
 _atom_site_symmetry_multiplicity
 _atom_site_fract_x
 _atom_site_fract_y
 _atom_site_fract_z
 _atom_site_occupancy
  Ho  Ho0  1  0.997666  0.661228  0.250312  1
  Ho  Ho1  1  0.007317  0.343593  0.748537  1
  Er  Er2  1  0.656374  0.992666  0.251463  1
  Er  Er3  1  0.338789  0.002321  0.749684  1
  Ga  Ga4  1  0.111073  0.110590  0.248639  1
  Ga  Ga5  1  0.889436  0.888901  0.751362  1
  Ga  Ga6  1  0.992079  0.326889  0.075583  1
  Ga  Ga7  1  0.995760  0.668749  0.924443  1
  Ga  Ga8  1  0.999544  0.672549  0.576468  1
  Ga  Ga9  1  0.327531  0.000490  0.423557  1
  Ga  Ga10  1  0.000295  0.326367  0.421861  1
  Ga  Ga11  1  0.673553  0.999667  0.578113  1
  Ga  Ga12  1  0.673029  0.007881  0.924448  1
  Ga  Ga13  1  0.331330  0.004275  0.075530  1
  Ga  Ga14  1  0.333522  0.331929  0.562196  1
  Ga  Ga15  1  0.668040  0.666511  0.437802  1
  Ga  Ga16  1  0.668081  0.668394  0.062610  1
  Ga  Ga17  1  0.331638  0.331890  0.937393  1
  Ga  Ga18  1  0.334842  0.540787  0.249337  1
  Ga  Ga19  1  0.665828  0.453274  0.752809  1
  Ga  Ga20  1  0.546694  0.334119  0.247190  1
  Ga  Ga21  1  0.459253  0.665211  0.750663  1
  Ni  Ni22  1  0.669978  0.330000  0.999999  1
  Ni  Ni23  1  0.000619  0.999384  0.999999  1
  Ni  Ni24  1  0.000007  0.999999  0.499999  1
  Ru  Ru25  1  0.326687  0.673367  0.000000  1
  Ru  Ru26  1  0.327446  0.672614  0.499999  1
  Ru  Ru27  1  0.673585  0.326359  0.500003  1
