# generated using pymatgen
data_Tb3Y17(IrRh2)4
_symmetry_space_group_name_H-M   'P 1'
_cell_length_a   10.94613600
_cell_length_b   10.94613600
_cell_length_c   6.39510900
_cell_angle_alpha   90.00000000
_cell_angle_beta   90.00000000
_cell_angle_gamma   90.00000000
_symmetry_Int_Tables_number   1
_chemical_formula_structural   Tb3Y17(IrRh2)4
_chemical_formula_sum   'Tb3 Y17 Ir4 Rh8'
_cell_volume   766.24848800
_cell_formula_units_Z   1
loop_
 _symmetry_equiv_pos_site_id
 _symmetry_equiv_pos_as_xyz
  1  'x, y, z'
loop_
 _atom_site_type_symbol
 _atom_site_label
 _atom_site_symmetry_multiplicity
 _atom_site_fract_x
 _atom_site_fract_y
 _atom_site_fract_z
 _atom_site_occupancy
  Tb  Tb0  1  0.000000  0.000000  0.500000  1
  Tb  Tb1  1  0.000000  0.000000  0.000000  1
  Tb  Tb2  1  0.500000  0.500000  0.000000  1
  Y  Y3  1  0.291537  0.090195  0.378888  1
  Y  Y4  1  0.291551  0.909901  0.878941  1
  Y  Y5  1  0.708449  0.090099  0.878941  1
  Y  Y6  1  0.708463  0.909805  0.378888  1
  Y  Y7  1  0.587740  0.790005  0.879775  1
  Y  Y8  1  0.587822  0.210021  0.379812  1
  Y  Y9  1  0.412178  0.789979  0.379812  1
  Y  Y10  1  0.412260  0.209995  0.879775  1
  Y  Y11  1  0.210021  0.412178  0.620188  1
  Y  Y12  1  0.209995  0.587740  0.120225  1
  Y  Y13  1  0.790005  0.412260  0.120225  1
  Y  Y14  1  0.789979  0.587822  0.620188  1
  Y  Y15  1  0.909901  0.708449  0.121059  1
  Y  Y16  1  0.909805  0.291537  0.621112  1
  Y  Y17  1  0.090195  0.708463  0.621112  1
  Y  Y18  1  0.090099  0.291551  0.121059  1
  Y  Y19  1  0.500000  0.500000  0.500000  1
  Ir  Ir20  1  0.654525  0.345450  0.750255  1
  Ir  Ir21  1  0.654550  0.654525  0.249745  1
  Ir  Ir22  1  0.345450  0.345475  0.249745  1
  Ir  Ir23  1  0.345475  0.654550  0.750255  1
  Rh  Rh24  1  0.846815  0.153194  0.249966  1
  Rh  Rh25  1  0.846806  0.846815  0.750034  1
  Rh  Rh26  1  0.153194  0.153185  0.750034  1
  Rh  Rh27  1  0.153185  0.846806  0.249966  1
  Rh  Rh28  1  0.500000  0.000000  0.125317  1
  Rh  Rh29  1  0.500000  0.000000  0.625292  1
  Rh  Rh30  1  0.000000  0.500000  0.874683  1
  Rh  Rh31  1  0.000000  0.500000  0.374708  1
