# generated using pymatgen
data_Ta3Nb3Al2(IrN)2
_symmetry_space_group_name_H-M   'P 1'
_cell_length_a   7.03201837
_cell_length_b   7.03760000
_cell_length_c   7.02516136
_cell_angle_alpha   90.00000000
_cell_angle_beta   90.03696847
_cell_angle_gamma   90.00000000
_symmetry_Int_Tables_number   1
_chemical_formula_structural   Ta3Nb3Al2(IrN)2
_chemical_formula_sum   'Ta6 Nb6 Al4 Ir4 N4'
_cell_volume   347.66485385
_cell_formula_units_Z   2
loop_
 _symmetry_equiv_pos_site_id
 _symmetry_equiv_pos_as_xyz
  1  'x, y, z'
loop_
 _atom_site_type_symbol
 _atom_site_label
 _atom_site_symmetry_multiplicity
 _atom_site_fract_x
 _atom_site_fract_y
 _atom_site_fract_z
 _atom_site_occupancy
  Ta  Ta0  1  0.794567  0.956035  0.376429  1
  Ta  Ta1  1  0.702913  0.044268  0.876348  1
  Ta  Ta2  1  0.205433  0.456035  0.123571  1
  Ta  Ta3  1  0.297087  0.544268  0.623652  1
  Ta  Ta4  1  0.955052  0.375905  0.792950  1
  Ta  Ta5  1  0.044948  0.875905  0.707050  1
  Nb  Nb6  1  0.454216  0.124547  0.207662  1
  Nb  Nb7  1  0.545784  0.624547  0.292338  1
  Nb  Nb8  1  0.376761  0.793696  0.956348  1
  Nb  Nb9  1  0.876844  0.706079  0.044677  1
  Nb  Nb10  1  0.123156  0.206079  0.455323  1
  Nb  Nb11  1  0.623239  0.293696  0.543652  1
  Al  Al12  1  0.570763  0.429867  0.928966  1
  Al  Al13  1  0.429237  0.929867  0.571034  1
  Al  Al14  1  0.928609  0.568842  0.429256  1
  Al  Al15  1  0.071391  0.068842  0.070744  1
  Ir  Ir16  1  0.175335  0.820401  0.325971  1
  Ir  Ir17  1  0.320685  0.179639  0.822689  1
  Ir  Ir18  1  0.824665  0.320401  0.174029  1
  Ir  Ir19  1  0.679315  0.679639  0.677311  1
  N  N20  1  0.874362  0.122887  0.628381  1
  N  N21  1  0.627882  0.877834  0.125673  1
  N  N22  1  0.125638  0.622887  0.871619  1
  N  N23  1  0.372118  0.377834  0.374327  1
