# generated using pymatgen
data_PrHo3Tm(In2Pt)2
_symmetry_space_group_name_H-M   'P 1'
_cell_length_a   3.62354600
_cell_length_b   8.19088573
_cell_length_c   18.38751609
_cell_angle_alpha   89.90663714
_cell_angle_beta   90.00000000
_cell_angle_gamma   90.00000000
_symmetry_Int_Tables_number   1
_chemical_formula_structural   PrHo3Tm(In2Pt)2
_chemical_formula_sum   'Pr2 Ho6 Tm2 In8 Pt4'
_cell_volume   545.74169451
_cell_formula_units_Z   2
loop_
 _symmetry_equiv_pos_site_id
 _symmetry_equiv_pos_as_xyz
  1  'x, y, z'
loop_
 _atom_site_type_symbol
 _atom_site_label
 _atom_site_symmetry_multiplicity
 _atom_site_fract_x
 _atom_site_fract_y
 _atom_site_fract_z
 _atom_site_occupancy
  Pr  Pr0  1  0.000000  0.000000  0.000000  1
  Pr  Pr1  1  0.000000  0.500000  0.500000  1
  Ho  Ho2  1  0.000000  0.379079  0.913647  1
  Ho  Ho3  1  0.000000  0.620921  0.086353  1
  Ho  Ho4  1  0.000000  0.241810  0.219218  1
  Ho  Ho5  1  0.000000  0.758190  0.780782  1
  Ho  Ho6  1  0.000000  0.258408  0.718428  1
  Ho  Ho7  1  0.000000  0.741592  0.281572  1
  Tm  Tm8  1  0.000000  0.120664  0.412906  1
  Tm  Tm9  1  0.000000  0.879336  0.587094  1
  In  In10  1  0.500000  0.420324  0.347478  1
  In  In11  1  0.500000  0.579676  0.652522  1
  In  In12  1  0.500000  0.079180  0.847016  1
  In  In13  1  0.500000  0.920820  0.152984  1
  In  In14  1  0.500000  0.301341  0.067940  1
  In  In15  1  0.500000  0.698659  0.932060  1
  In  In16  1  0.500000  0.196406  0.566395  1
  In  In17  1  0.500000  0.803594  0.433605  1
  Pt  Pt18  1  0.500000  0.026180  0.304245  1
  Pt  Pt19  1  0.500000  0.973820  0.695755  1
  Pt  Pt20  1  0.500000  0.474608  0.803689  1
  Pt  Pt21  1  0.500000  0.525392  0.196311  1
