# generated using pymatgen
data_Np3TeF24
_symmetry_space_group_name_H-M   'P 1'
_cell_length_a   5.48881404
_cell_length_b   9.41797500
_cell_length_c   10.50784107
_cell_angle_alpha   90.00000000
_cell_angle_beta   89.98693358
_cell_angle_gamma   90.00000000
_symmetry_Int_Tables_number   1
_chemical_formula_structural   Np3TeF24
_chemical_formula_sum   'Np3 Te1 F24'
_cell_volume   543.18720861
_cell_formula_units_Z   1
loop_
 _symmetry_equiv_pos_site_id
 _symmetry_equiv_pos_as_xyz
  1  'x, y, z'
loop_
 _atom_site_type_symbol
 _atom_site_label
 _atom_site_symmetry_multiplicity
 _atom_site_fract_x
 _atom_site_fract_y
 _atom_site_fract_z
 _atom_site_occupancy
  Np  Np0  1  0.597302  0.750000  0.627760  1
  Np  Np1  1  0.097227  0.250000  0.872308  1
  Np  Np2  1  0.403014  0.250000  0.372244  1
  Te  Te3  1  0.902896  0.750000  0.127750  1
  F  F4  1  0.560210  0.400541  0.265098  1
  F  F5  1  0.049121  0.610060  0.227392  1
  F  F6  1  0.439640  0.900652  0.734975  1
  F  F7  1  0.939622  0.099422  0.765067  1
  F  F8  1  0.171941  0.750000  0.019359  1
  F  F9  1  0.692860  0.250000  0.488961  1
  F  F10  1  0.807084  0.250000  0.988917  1
  F  F11  1  0.307371  0.750000  0.511070  1
  F  F12  1  0.633079  0.750000  0.235967  1
  F  F13  1  0.112204  0.250000  0.255725  1
  F  F14  1  0.387909  0.250000  0.755660  1
  F  F15  1  0.887787  0.750000  0.744165  1
  F  F16  1  0.755825  0.890022  0.028266  1
  F  F17  1  0.244795  0.099244  0.479291  1
  F  F18  1  0.255301  0.400598  0.979252  1
  F  F19  1  0.755148  0.599232  0.520717  1
  F  F20  1  0.255301  0.099402  0.979252  1
  F  F21  1  0.755148  0.900768  0.520717  1
  F  F22  1  0.755825  0.609978  0.028266  1
  F  F23  1  0.244795  0.400756  0.479291  1
  F  F24  1  0.049121  0.889940  0.227392  1
  F  F25  1  0.560210  0.099459  0.265098  1
  F  F26  1  0.939622  0.400578  0.765067  1
  F  F27  1  0.439640  0.599348  0.734975  1
