# generated using pymatgen
data_NbNi2Pt4W
_symmetry_space_group_name_H-M   'P 1'
_cell_length_a   4.47540400
_cell_length_b   4.81472300
_cell_length_c   5.44594800
_cell_angle_alpha   90.00000000
_cell_angle_beta   90.00000000
_cell_angle_gamma   90.00000000
_symmetry_Int_Tables_number   1
_chemical_formula_structural   NbNi2Pt4W
_chemical_formula_sum   'Nb1 Ni2 Pt4 W1'
_cell_volume   117.34836481
_cell_formula_units_Z   1
loop_
 _symmetry_equiv_pos_site_id
 _symmetry_equiv_pos_as_xyz
  1  'x, y, z'
loop_
 _atom_site_type_symbol
 _atom_site_label
 _atom_site_symmetry_multiplicity
 _atom_site_fract_x
 _atom_site_fract_y
 _atom_site_fract_z
 _atom_site_occupancy
  Nb  Nb0  1  0.000000  0.344756  0.000000  1
  Ni  Ni1  1  0.000000  0.345382  0.500000  1
  Ni  Ni2  1  0.500000  0.663480  0.000000  1
  Pt  Pt3  1  0.500000  0.172179  0.747649  1
  Pt  Pt4  1  0.500000  0.172179  0.252351  1
  Pt  Pt5  1  0.000000  0.825111  0.747193  1
  Pt  Pt6  1  0.000000  0.825111  0.252807  1
  W  W7  1  0.500000  0.651801  0.500000  1
