# generated using pymatgen
data_Rb10(W2N5)3
_symmetry_space_group_name_H-M   'P 1'
_cell_length_a   12.00145069
_cell_length_b   12.00145043
_cell_length_c   12.00145000
_cell_angle_alpha   65.52872314
_cell_angle_beta   65.52872371
_cell_angle_gamma   65.52872738
_symmetry_Int_Tables_number   1
_chemical_formula_structural   Rb10(W2N5)3
_chemical_formula_sum   'Rb20 W12 N30'
_cell_volume   1369.20203822
_cell_formula_units_Z   2
loop_
 _symmetry_equiv_pos_site_id
 _symmetry_equiv_pos_as_xyz
  1  'x, y, z'
loop_
 _atom_site_type_symbol
 _atom_site_label
 _atom_site_symmetry_multiplicity
 _atom_site_fract_x
 _atom_site_fract_y
 _atom_site_fract_z
 _atom_site_occupancy
  Rb  Rb0  1  0.450376  0.559501  0.162861  1
  Rb  Rb1  1  0.162861  0.450376  0.559501  1
  Rb  Rb2  1  0.559501  0.162861  0.450376  1
  Rb  Rb3  1  0.250000  0.415352  0.084648  1
  Rb  Rb4  1  0.084648  0.250000  0.415352  1
  Rb  Rb5  1  0.415352  0.084648  0.250000  1
  Rb  Rb6  1  0.049624  0.337139  0.940499  1
  Rb  Rb7  1  0.940499  0.049624  0.337139  1
  Rb  Rb8  1  0.337139  0.940499  0.049624  1
  Rb  Rb9  1  0.000000  0.000000  0.000000  1
  Rb  Rb10  1  0.662861  0.059501  0.950376  1
  Rb  Rb11  1  0.059501  0.950376  0.662861  1
  Rb  Rb12  1  0.950376  0.662861  0.059501  1
  Rb  Rb13  1  0.584648  0.915352  0.750000  1
  Rb  Rb14  1  0.915352  0.750000  0.584648  1
  Rb  Rb15  1  0.750000  0.584648  0.915352  1
  Rb  Rb16  1  0.440499  0.837139  0.549624  1
  Rb  Rb17  1  0.837139  0.549624  0.440499  1
  Rb  Rb18  1  0.549624  0.440499  0.837139  1
  Rb  Rb19  1  0.500000  0.500000  0.500000  1
  W  W20  1  0.250802  0.799820  0.399284  1
  W  W21  1  0.799820  0.399284  0.250802  1
  W  W22  1  0.399284  0.250802  0.799820  1
  W  W23  1  0.700180  0.249198  0.100716  1
  W  W24  1  0.899284  0.299820  0.750802  1
  W  W25  1  0.249198  0.100716  0.700180  1
  W  W26  1  0.750802  0.899284  0.299820  1
  W  W27  1  0.100716  0.700180  0.249198  1
  W  W28  1  0.299820  0.750802  0.899284  1
  W  W29  1  0.600716  0.749198  0.200180  1
  W  W30  1  0.200180  0.600716  0.749198  1
  W  W31  1  0.749198  0.200180  0.600716  1
  N  N32  1  0.424949  0.760024  0.295534  1
  N  N33  1  0.295534  0.424949  0.760024  1
  N  N34  1  0.760024  0.295534  0.424949  1
  N  N35  1  0.116283  0.531651  0.311862  1
  N  N36  1  0.250000  0.653348  0.846652  1
  N  N37  1  0.531651  0.311862  0.116283  1
  N  N38  1  0.968349  0.383717  0.188138  1
  N  N39  1  0.846652  0.250000  0.653348  1
  N  N40  1  0.311862  0.116283  0.531651  1
  N  N41  1  0.383717  0.188138  0.968349  1
  N  N42  1  0.653348  0.846652  0.250000  1
  N  N43  1  0.188138  0.968349  0.383717  1
  N  N44  1  0.795534  0.260024  0.924949  1
  N  N45  1  0.075051  0.204466  0.739976  1
  N  N46  1  0.739976  0.075051  0.204466  1
  N  N47  1  0.260024  0.924949  0.795534  1
  N  N48  1  0.924949  0.795534  0.260024  1
  N  N49  1  0.204466  0.739976  0.075051  1
  N  N50  1  0.811862  0.031651  0.616283  1
  N  N51  1  0.346652  0.153348  0.750000  1
  N  N52  1  0.616283  0.811862  0.031651  1
  N  N53  1  0.688138  0.883717  0.468349  1
  N  N54  1  0.153348  0.750000  0.346652  1
  N  N55  1  0.031651  0.616283  0.811862  1
  N  N56  1  0.468349  0.688138  0.883717  1
  N  N57  1  0.750000  0.346652  0.153348  1
  N  N58  1  0.883717  0.468349  0.688138  1
  N  N59  1  0.239976  0.704466  0.575051  1
  N  N60  1  0.704466  0.575051  0.239976  1
  N  N61  1  0.575051  0.239976  0.704466  1
