# generated using pymatgen
data_PrNd7C10
_symmetry_space_group_name_H-M   'P 1'
_cell_length_a   3.86761900
_cell_length_b   6.89917935
_cell_length_c   12.48713663
_cell_angle_alpha   89.96354630
_cell_angle_beta   90.00000000
_cell_angle_gamma   90.00000000
_symmetry_Int_Tables_number   1
_chemical_formula_structural   PrNd7C10
_chemical_formula_sum   'Pr1 Nd7 C10'
_cell_volume   333.19915839
_cell_formula_units_Z   1
loop_
 _symmetry_equiv_pos_site_id
 _symmetry_equiv_pos_as_xyz
  1  'x, y, z'
loop_
 _atom_site_type_symbol
 _atom_site_label
 _atom_site_symmetry_multiplicity
 _atom_site_fract_x
 _atom_site_fract_y
 _atom_site_fract_z
 _atom_site_occupancy
  Pr  Pr0  1  0.000000  0.248303  0.041771  1
  Nd  Nd1  1  0.000000  0.253188  0.541978  1
  Nd  Nd2  1  0.000000  0.746599  0.458332  1
  Nd  Nd3  1  0.000000  0.753036  0.957841  1
  Nd  Nd4  1  0.500000  0.107488  0.802688  1
  Nd  Nd5  1  0.500000  0.891415  0.196669  1
  Nd  Nd6  1  0.500000  0.608071  0.696859  1
  Nd  Nd7  1  0.500000  0.392581  0.303421  1
  C  C8  1  0.500000  0.499476  0.499946  1
  C  C9  1  0.500000  0.998632  0.999438  1
  C  C10  1  0.000000  0.360727  0.736288  1
  C  C11  1  0.000000  0.638729  0.263785  1
  C  C12  1  0.000000  0.861375  0.763032  1
  C  C13  1  0.000000  0.138462  0.238069  1
  C  C14  1  0.000000  0.405271  0.838911  1
  C  C15  1  0.000000  0.599486  0.160379  1
  C  C16  1  0.000000  0.094864  0.340741  1
  C  C17  1  0.000000  0.902299  0.659852  1
