# generated using pymatgen
data_Ba4Mn(RuO4)3
_symmetry_space_group_name_H-M   'P 1'
_cell_length_a   10.30564021
_cell_length_b   10.30564031
_cell_length_c   10.30563965
_cell_angle_alpha   33.16700757
_cell_angle_beta   33.16700673
_cell_angle_gamma   33.16700114
_symmetry_Int_Tables_number   1
_chemical_formula_structural   Ba4Mn(RuO4)3
_chemical_formula_sum   'Ba4 Mn1 Ru3 O12'
_cell_volume   291.60452472
_cell_formula_units_Z   1
loop_
 _symmetry_equiv_pos_site_id
 _symmetry_equiv_pos_as_xyz
  1  'x, y, z'
loop_
 _atom_site_type_symbol
 _atom_site_label
 _atom_site_symmetry_multiplicity
 _atom_site_fract_x
 _atom_site_fract_y
 _atom_site_fract_z
 _atom_site_occupancy
  Ba  Ba0  1  0.709853  0.709853  0.709853  1
  Ba  Ba1  1  0.290147  0.290147  0.290147  1
  Ba  Ba2  1  0.874694  0.874694  0.874694  1
  Ba  Ba3  1  0.125306  0.125306  0.125306  1
  Mn  Mn4  1  0.000000  0.000000  0.000000  1
  Ru  Ru5  1  0.411669  0.411669  0.411669  1
  Ru  Ru6  1  0.500000  0.500000  0.500000  1
  Ru  Ru7  1  0.588331  0.588331  0.588331  1
  O  O8  1  0.215842  0.215842  0.695508  1
  O  O9  1  0.695508  0.215842  0.215842  1
  O  O10  1  0.215842  0.695508  0.215842  1
  O  O11  1  0.784158  0.304492  0.784158  1
  O  O12  1  0.784158  0.784158  0.304492  1
  O  O13  1  0.304492  0.784158  0.784158  1
  O  O14  1  0.387484  0.387484  0.852717  1
  O  O15  1  0.852717  0.387484  0.387484  1
  O  O16  1  0.147283  0.612516  0.612516  1
  O  O17  1  0.612516  0.612516  0.147283  1
  O  O18  1  0.612516  0.147283  0.612516  1
  O  O19  1  0.387484  0.852717  0.387484  1
