# generated using pymatgen
data_NaNiF4
_symmetry_space_group_name_H-M   'P 1'
_cell_length_a   5.32831500
_cell_length_b   7.48975461
_cell_length_c   7.84020682
_cell_angle_alpha   77.86086076
_cell_angle_beta   90.00000000
_cell_angle_gamma   90.00000000
_symmetry_Int_Tables_number   1
_chemical_formula_structural   NaNiF4
_chemical_formula_sum   'Na4 Ni4 F16'
_cell_volume   305.88901476
_cell_formula_units_Z   4
loop_
 _symmetry_equiv_pos_site_id
 _symmetry_equiv_pos_as_xyz
  1  'x, y, z'
loop_
 _atom_site_type_symbol
 _atom_site_label
 _atom_site_symmetry_multiplicity
 _atom_site_fract_x
 _atom_site_fract_y
 _atom_site_fract_z
 _atom_site_occupancy
  Na  Na0  1  0.215146  0.891332  0.356459  1
  Na  Na1  1  0.715146  0.608668  0.643541  1
  Na  Na2  1  0.784854  0.108668  0.643541  1
  Na  Na3  1  0.284854  0.391332  0.356459  1
  Ni  Ni4  1  0.743449  0.701171  0.168834  1
  Ni  Ni5  1  0.243449  0.798829  0.831166  1
  Ni  Ni6  1  0.256551  0.298829  0.831166  1
  Ni  Ni7  1  0.756551  0.201171  0.168834  1
  F  F8  1  0.482472  0.125825  0.309807  1
  F  F9  1  0.982472  0.374175  0.690193  1
  F  F10  1  0.517528  0.874175  0.690193  1
  F  F11  1  0.017528  0.625825  0.309807  1
  F  F12  1  0.956468  0.187938  0.368439  1
  F  F13  1  0.456468  0.312062  0.631561  1
  F  F14  1  0.043532  0.812062  0.631561  1
  F  F15  1  0.543532  0.687938  0.368439  1
  F  F16  1  0.861888  0.951455  0.167328  1
  F  F17  1  0.361888  0.548545  0.832672  1
  F  F18  1  0.138112  0.048545  0.832672  1
  F  F19  1  0.638112  0.451455  0.167328  1
  F  F20  1  0.437315  0.795652  0.040022  1
  F  F21  1  0.937315  0.704348  0.959978  1
  F  F22  1  0.562685  0.204348  0.959978  1
  F  F23  1  0.062685  0.295652  0.040022  1
