# generated using pymatgen
data_Zr4MnFe4Si2Os
_symmetry_space_group_name_H-M   'P 1'
_cell_length_a   5.08401783
_cell_length_b   5.07572830
_cell_length_c   8.10827400
_cell_angle_alpha   90.00000000
_cell_angle_beta   90.00000000
_cell_angle_gamma   120.55352198
_symmetry_Int_Tables_number   1
_chemical_formula_structural   Zr4MnFe4Si2Os
_chemical_formula_sum   'Zr4 Mn1 Fe4 Si2 Os1'
_cell_volume   180.18349680
_cell_formula_units_Z   1
loop_
 _symmetry_equiv_pos_site_id
 _symmetry_equiv_pos_as_xyz
  1  'x, y, z'
loop_
 _atom_site_type_symbol
 _atom_site_label
 _atom_site_symmetry_multiplicity
 _atom_site_fract_x
 _atom_site_fract_y
 _atom_site_fract_z
 _atom_site_occupancy
  Zr  Zr0  1  0.665585  0.334220  0.938167  1
  Zr  Zr1  1  0.333903  0.666756  0.435313  1
  Zr  Zr2  1  0.665585  0.334220  0.561833  1
  Zr  Zr3  1  0.333903  0.666756  0.064687  1
  Mn  Mn4  1  0.663590  0.829861  0.750000  1
  Fe  Fe5  1  0.829369  0.170592  0.250000  1
  Fe  Fe6  1  0.169965  0.336201  0.750000  1
  Fe  Fe7  1  0.830369  0.658538  0.250000  1
  Fe  Fe8  1  0.341272  0.169437  0.250000  1
  Si  Si9  1  0.997893  0.002052  0.495306  1
  Si  Si10  1  0.997893  0.002052  0.004694  1
  Os  Os11  1  0.170674  0.829312  0.750000  1
