# generated using pymatgen
data_U4Ga4Re7P2
_symmetry_space_group_name_H-M   'P 1'
_cell_length_a   7.17408996
_cell_length_b   7.20645699
_cell_length_c   7.17408946
_cell_angle_alpha   109.44832234
_cell_angle_beta   109.33449410
_cell_angle_gamma   109.44832514
_symmetry_Int_Tables_number   1
_chemical_formula_structural   U4Ga4Re7P2
_chemical_formula_sum   'U4 Ga4 Re7 P2'
_cell_volume   286.15906772
_cell_formula_units_Z   1
loop_
 _symmetry_equiv_pos_site_id
 _symmetry_equiv_pos_as_xyz
  1  'x, y, z'
loop_
 _atom_site_type_symbol
 _atom_site_label
 _atom_site_symmetry_multiplicity
 _atom_site_fract_x
 _atom_site_fract_y
 _atom_site_fract_z
 _atom_site_occupancy
  U  U0  1  0.468451  0.470345  0.468451  1
  U  U1  1  0.002741  0.005484  0.502741  1
  U  U2  1  0.502741  0.005484  0.002741  1
  U  U3  1  0.001893  0.470345  0.001893  1
  Ga  Ga4  1  0.989416  0.703791  0.714376  1
  Ga  Ga5  1  0.685174  0.980869  0.685174  1
  Ga  Ga6  1  0.295694  0.980869  0.295694  1
  Ga  Ga7  1  0.714376  0.703791  0.989416  1
  Re  Re8  1  0.746689  0.244202  0.497513  1
  Re  Re9  1  0.497513  0.244202  0.746689  1
  Re  Re10  1  0.502106  0.742913  0.240806  1
  Re  Re11  1  0.249102  0.498203  0.749102  1
  Re  Re12  1  0.749102  0.498203  0.249102  1
  Re  Re13  1  0.240806  0.742913  0.502106  1
  Re  Re14  1  0.033584  0.067167  0.033584  1
  P  P15  1  0.326351  0.320611  0.994259  1
  P  P16  1  0.994259  0.320611  0.326351  1
