# generated using pymatgen
data_Er8Sc2OsPt5
_symmetry_space_group_name_H-M   'P 1'
_cell_length_a   10.86700400
_cell_length_b   10.86700400
_cell_length_c   6.24426300
_cell_angle_alpha   90.00000000
_cell_angle_beta   90.00000000
_cell_angle_gamma   90.00000000
_symmetry_Int_Tables_number   1
_chemical_formula_structural   Er8Sc2OsPt5
_chemical_formula_sum   'Er16 Sc4 Os2 Pt10'
_cell_volume   737.39610708
_cell_formula_units_Z   2
loop_
 _symmetry_equiv_pos_site_id
 _symmetry_equiv_pos_as_xyz
  1  'x, y, z'
loop_
 _atom_site_type_symbol
 _atom_site_label
 _atom_site_symmetry_multiplicity
 _atom_site_fract_x
 _atom_site_fract_y
 _atom_site_fract_z
 _atom_site_occupancy
  Er  Er0  1  0.288026  0.087524  0.376376  1
  Er  Er1  1  0.288026  0.912476  0.876376  1
  Er  Er2  1  0.711974  0.087524  0.876376  1
  Er  Er3  1  0.711974  0.912476  0.376376  1
  Er  Er4  1  0.587524  0.788026  0.876376  1
  Er  Er5  1  0.587524  0.211974  0.376376  1
  Er  Er6  1  0.412476  0.788026  0.376376  1
  Er  Er7  1  0.412476  0.211974  0.876376  1
  Er  Er8  1  0.205745  0.415027  0.624480  1
  Er  Er9  1  0.205745  0.584973  0.124480  1
  Er  Er10  1  0.794255  0.415027  0.124480  1
  Er  Er11  1  0.794255  0.584973  0.624480  1
  Er  Er12  1  0.915027  0.705745  0.124480  1
  Er  Er13  1  0.915027  0.294255  0.624480  1
  Er  Er14  1  0.084973  0.705745  0.624480  1
  Er  Er15  1  0.084973  0.294255  0.124480  1
  Sc  Sc16  1  0.000000  0.000000  0.501159  1
  Sc  Sc17  1  0.000000  0.000000  0.001159  1
  Sc  Sc18  1  0.500000  0.500000  0.001159  1
  Sc  Sc19  1  0.500000  0.500000  0.501159  1
  Os  Os20  1  0.000000  0.500000  0.877017  1
  Os  Os21  1  0.000000  0.500000  0.377017  1
  Pt  Pt22  1  0.850033  0.146445  0.250081  1
  Pt  Pt23  1  0.850033  0.853555  0.750081  1
  Pt  Pt24  1  0.149967  0.146445  0.750081  1
  Pt  Pt25  1  0.149967  0.853555  0.250081  1
  Pt  Pt26  1  0.646445  0.350033  0.750081  1
  Pt  Pt27  1  0.646445  0.649967  0.250081  1
  Pt  Pt28  1  0.353555  0.350033  0.250081  1
  Pt  Pt29  1  0.353555  0.649967  0.750081  1
  Pt  Pt30  1  0.500000  0.000000  0.116918  1
  Pt  Pt31  1  0.500000  0.000000  0.616918  1
