# generated using pymatgen
data_Y20Si15Ag
_symmetry_space_group_name_H-M   'P 1'
_cell_length_a   7.47798292
_cell_length_b   7.70863950
_cell_length_c   14.70206253
_cell_angle_alpha   90.19833570
_cell_angle_beta   90.63320012
_cell_angle_gamma   90.14080402
_symmetry_Int_Tables_number   1
_chemical_formula_structural   Y20Si15Ag
_chemical_formula_sum   'Y20 Si15 Ag1'
_cell_volume   847.44201887
_cell_formula_units_Z   1
loop_
 _symmetry_equiv_pos_site_id
 _symmetry_equiv_pos_as_xyz
  1  'x, y, z'
loop_
 _atom_site_type_symbol
 _atom_site_label
 _atom_site_symmetry_multiplicity
 _atom_site_fract_x
 _atom_site_fract_y
 _atom_site_fract_z
 _atom_site_occupancy
  Y  Y0  1  0.679100  0.175716  0.624463  1
  Y  Y1  1  0.182705  0.321926  0.877494  1
  Y  Y2  1  0.317863  0.819926  0.121198  1
  Y  Y3  1  0.825936  0.674814  0.376318  1
  Y  Y4  1  0.317719  0.824730  0.378003  1
  Y  Y5  1  0.817274  0.678716  0.121621  1
  Y  Y6  1  0.681077  0.179321  0.877558  1
  Y  Y7  1  0.176820  0.321096  0.623457  1
  Y  Y8  1  0.524654  0.675703  0.602289  1
  Y  Y9  1  0.029209  0.816510  0.900877  1
  Y  Y10  1  0.469364  0.318345  0.098510  1
  Y  Y11  1  0.979753  0.184687  0.398513  1
  Y  Y12  1  0.470558  0.325419  0.399737  1
  Y  Y13  1  0.969848  0.183346  0.098258  1
  Y  Y14  1  0.531110  0.682584  0.899478  1
  Y  Y15  1  0.025808  0.817220  0.601317  1
  Y  Y16  1  0.851491  0.508034  0.750111  1
  Y  Y17  1  0.349613  0.989207  0.748401  1
  Y  Y18  1  0.150714  0.488700  0.249506  1
  Y  Y19  1  0.651289  0.011103  0.249196  1
  Si  Si20  1  0.144390  0.528052  0.040411  1
  Si  Si21  1  0.354294  0.029162  0.959700  1
  Si  Si22  1  0.848662  0.471115  0.541545  1
  Si  Si23  1  0.342149  0.028252  0.542886  1
  Si  Si24  1  0.855460  0.471594  0.958743  1
  Si  Si25  1  0.643645  0.970945  0.039135  1
  Si  Si26  1  0.149133  0.530517  0.461054  1
  Si  Si27  1  0.477647  0.394517  0.750792  1
  Si  Si28  1  0.976505  0.104251  0.752374  1
  Si  Si29  1  0.523477  0.608955  0.248881  1
  Si  Si30  1  0.024174  0.895495  0.247816  1
  Si  Si31  1  0.734053  0.871076  0.751792  1
  Si  Si32  1  0.233388  0.626840  0.751335  1
  Si  Si33  1  0.268792  0.126421  0.247298  1
  Si  Si34  1  0.765497  0.374924  0.248746  1
  Ag  Ag35  1  0.656829  0.970781  0.461187  1
