# generated using pymatgen
data_Dy9Sc(GaSb)3
_symmetry_space_group_name_H-M   'P 1'
_cell_length_a   8.73766892
_cell_length_b   8.75755999
_cell_length_c   6.42150689
_cell_angle_alpha   89.90894715
_cell_angle_beta   89.99364861
_cell_angle_gamma   120.05795881
_symmetry_Int_Tables_number   1
_chemical_formula_structural   Dy9Sc(GaSb)3
_chemical_formula_sum   'Dy9 Sc1 Ga3 Sb3'
_cell_volume   425.29626127
_cell_formula_units_Z   1
loop_
 _symmetry_equiv_pos_site_id
 _symmetry_equiv_pos_as_xyz
  1  'x, y, z'
loop_
 _atom_site_type_symbol
 _atom_site_label
 _atom_site_symmetry_multiplicity
 _atom_site_fract_x
 _atom_site_fract_y
 _atom_site_fract_z
 _atom_site_occupancy
  Dy  Dy0  1  0.326666  0.666934  0.004301  1
  Dy  Dy1  1  0.660622  0.333357  0.497071  1
  Dy  Dy2  1  0.659609  0.332979  0.002987  1
  Dy  Dy3  1  0.234950  0.998548  0.252127  1
  Dy  Dy4  1  0.242905  0.231412  0.748707  1
  Dy  Dy5  1  0.011882  0.768076  0.747226  1
  Dy  Dy6  1  0.013066  0.249390  0.251617  1
  Dy  Dy7  1  0.763571  0.751444  0.250518  1
  Dy  Dy8  1  0.754389  0.000459  0.749029  1
  Sc  Sc9  1  0.326671  0.666435  0.496767  1
  Ga  Ga10  1  0.002421  0.603314  0.255807  1
  Ga  Ga11  1  0.396050  0.400884  0.253930  1
  Ga  Ga12  1  0.397576  0.996560  0.745492  1
  Sb  Sb13  1  0.606229  0.995896  0.256154  1
  Sb  Sb14  1  0.601097  0.608076  0.744522  1
  Sb  Sb15  1  0.002295  0.396236  0.743746  1
