# generated using pymatgen
data_Y2Tc3Ge4
_symmetry_space_group_name_H-M   'P 1'
_cell_length_a   8.32460500
_cell_length_b   5.69652262
_cell_length_c   7.03578974
_cell_angle_alpha   76.22442729
_cell_angle_beta   90.00000000
_cell_angle_gamma   90.00000000
_symmetry_Int_Tables_number   1
_chemical_formula_structural   Y2Tc3Ge4
_chemical_formula_sum   'Y4 Tc6 Ge8'
_cell_volume   324.04926073
_cell_formula_units_Z   2
loop_
 _symmetry_equiv_pos_site_id
 _symmetry_equiv_pos_as_xyz
  1  'x, y, z'
loop_
 _atom_site_type_symbol
 _atom_site_label
 _atom_site_symmetry_multiplicity
 _atom_site_fract_x
 _atom_site_fract_y
 _atom_site_fract_z
 _atom_site_occupancy
  Y  Y0  1  0.555904  0.075450  0.245252  1
  Y  Y1  1  0.055904  0.424550  0.754748  1
  Y  Y2  1  0.444096  0.924550  0.754748  1
  Y  Y3  1  0.944096  0.575450  0.245252  1
  Tc  Tc4  1  0.204475  0.112144  0.115840  1
  Tc  Tc5  1  0.704475  0.387856  0.884160  1
  Tc  Tc6  1  0.795525  0.887856  0.884160  1
  Tc  Tc7  1  0.295525  0.612144  0.115840  1
  Tc  Tc8  1  0.000000  0.000000  0.500000  1
  Tc  Tc9  1  0.500000  0.500000  0.500000  1
  Ge  Ge10  1  0.901443  0.120172  0.126074  1
  Ge  Ge11  1  0.401443  0.379828  0.873926  1
  Ge  Ge12  1  0.098557  0.879828  0.873926  1
  Ge  Ge13  1  0.598557  0.620172  0.126074  1
  Ge  Ge14  1  0.747791  0.222307  0.579129  1
  Ge  Ge15  1  0.247791  0.277693  0.420871  1
  Ge  Ge16  1  0.252209  0.777693  0.420871  1
  Ge  Ge17  1  0.752209  0.722307  0.579129  1
