# generated using pymatgen
data_LiGa2I9
_symmetry_space_group_name_H-M   'P 1'
_cell_length_a   8.54579130
_cell_length_b   8.54961116
_cell_length_c   18.45036114
_cell_angle_alpha   85.63802547
_cell_angle_beta   85.99784137
_cell_angle_gamma   76.49943005
_symmetry_Int_Tables_number   1
_chemical_formula_structural   LiGa2I9
_chemical_formula_sum   'Li2 Ga4 I18'
_cell_volume   1305.11196207
_cell_formula_units_Z   2
loop_
 _symmetry_equiv_pos_site_id
 _symmetry_equiv_pos_as_xyz
  1  'x, y, z'
loop_
 _atom_site_type_symbol
 _atom_site_label
 _atom_site_symmetry_multiplicity
 _atom_site_fract_x
 _atom_site_fract_y
 _atom_site_fract_z
 _atom_site_occupancy
  Li  Li0  1  0.073348  0.214911  0.583310  1
  Li  Li1  1  0.926652  0.785089  0.416690  1
  Ga  Ga2  1  0.141118  0.704284  0.576232  1
  Ga  Ga3  1  0.858882  0.295716  0.423768  1
  Ga  Ga4  1  0.725608  0.300720  0.873700  1
  Ga  Ga5  1  0.274392  0.699280  0.126300  1
  I  I6  1  0.545536  0.864595  0.843710  1
  I  I7  1  0.454464  0.135405  0.156290  1
  I  I8  1  0.202592  0.434524  0.655082  1
  I  I9  1  0.797408  0.565476  0.344918  1
  I  I10  1  0.628062  0.552411  0.777540  1
  I  I11  1  0.371938  0.447589  0.222460  1
  I  I12  1  0.255058  0.909625  0.641713  1
  I  I13  1  0.744942  0.090375  0.358287  1
  I  I14  1  0.932307  0.109202  0.798076  1
  I  I15  1  0.067693  0.890798  0.201924  1
  I  I16  1  0.201895  0.611320  0.008260  1
  I  I17  1  0.798105  0.388680  0.991740  1
  I  I18  1  0.738860  0.319754  0.556423  1
  I  I19  1  0.261140  0.680246  0.443577  1
  I  I20  1  0.833064  0.802328  0.565786  1
  I  I21  1  0.166936  0.197672  0.434214  1
  I  I22  1  0.455179  0.187192  0.899388  1
  I  I23  1  0.544821  0.812808  0.100612  1
