# generated using pymatgen
data_TbDy5(GaC3)2
_symmetry_space_group_name_H-M   'P 1'
_cell_length_a   3.57255900
_cell_length_b   7.05927023
_cell_length_c   9.90093876
_cell_angle_alpha   90.05755208
_cell_angle_beta   90.00000000
_cell_angle_gamma   90.00000000
_symmetry_Int_Tables_number   1
_chemical_formula_structural   TbDy5(GaC3)2
_chemical_formula_sum   'Tb1 Dy5 Ga2 C6'
_cell_volume   249.69817741
_cell_formula_units_Z   1
loop_
 _symmetry_equiv_pos_site_id
 _symmetry_equiv_pos_as_xyz
  1  'x, y, z'
loop_
 _atom_site_type_symbol
 _atom_site_label
 _atom_site_symmetry_multiplicity
 _atom_site_fract_x
 _atom_site_fract_y
 _atom_site_fract_z
 _atom_site_occupancy
  Tb  Tb0  1  0.500000  0.009707  0.803463  1
  Dy  Dy1  1  0.500000  0.510798  0.197153  1
  Dy  Dy2  1  0.500000  0.489157  0.803181  1
  Dy  Dy3  1  0.500000  0.988750  0.196533  1
  Dy  Dy4  1  0.000000  0.750180  0.458074  1
  Dy  Dy5  1  0.000000  0.250200  0.541949  1
  Ga  Ga6  1  0.000000  0.748528  0.001744  1
  Ga  Ga7  1  0.000000  0.251072  0.998915  1
  C  C8  1  0.500000  0.509088  0.566750  1
  C  C9  1  0.500000  0.491177  0.433468  1
  C  C10  1  0.500000  0.991330  0.565829  1
  C  C11  1  0.500000  0.009253  0.432606  1
  C  C12  1  0.000000  0.749809  0.209428  1
  C  C13  1  0.000000  0.250951  0.790909  1
