# generated using pymatgen
data_Eu6PtRhO14
_symmetry_space_group_name_H-M   'P 1'
_cell_length_a   6.57268767
_cell_length_b   6.57268911
_cell_length_c   7.59647807
_cell_angle_alpha   90.17315471
_cell_angle_beta   89.82684160
_cell_angle_gamma   109.72366582
_symmetry_Int_Tables_number   1
_chemical_formula_structural   Eu6PtRhO14
_chemical_formula_sum   'Eu6 Pt1 Rh1 O14'
_cell_volume   308.91420231
_cell_formula_units_Z   1
loop_
 _symmetry_equiv_pos_site_id
 _symmetry_equiv_pos_as_xyz
  1  'x, y, z'
loop_
 _atom_site_type_symbol
 _atom_site_label
 _atom_site_symmetry_multiplicity
 _atom_site_fract_x
 _atom_site_fract_y
 _atom_site_fract_z
 _atom_site_occupancy
  Eu  Eu0  1  0.001739  0.472836  0.749252  1
  Eu  Eu1  1  0.998387  0.527128  0.250638  1
  Eu  Eu2  1  0.527128  0.998387  0.749362  1
  Eu  Eu3  1  0.472836  0.001739  0.250748  1
  Eu  Eu4  1  0.500323  0.500323  0.500000  1
  Eu  Eu5  1  0.500108  0.500108  0.000000  1
  Pt  Pt6  1  0.999869  0.999869  0.000000  1
  Rh  Rh7  1  0.000074  0.000074  0.500000  1
  O  O8  1  0.634902  0.365115  0.748519  1
  O  O9  1  0.365115  0.634902  0.251481  1
  O  O10  1  0.931006  0.068867  0.750446  1
  O  O11  1  0.068867  0.931006  0.249554  1
  O  O12  1  0.927575  0.682214  0.526454  1
  O  O13  1  0.076440  0.322717  0.024441  1
  O  O14  1  0.322717  0.076440  0.975559  1
  O  O15  1  0.682214  0.927575  0.473546  1
  O  O16  1  0.368643  0.631533  0.749270  1
  O  O17  1  0.631533  0.368643  0.250730  1
  O  O18  1  0.923412  0.677258  0.975572  1
  O  O19  1  0.072175  0.317678  0.473353  1
  O  O20  1  0.317678  0.072175  0.526647  1
  O  O21  1  0.677258  0.923412  0.024428  1
