# generated using pymatgen
data_Ce5Al2Os3
_symmetry_space_group_name_H-M   'P 1'
_cell_length_a   8.39880525
_cell_length_b   8.39725668
_cell_length_c   8.40340146
_cell_angle_alpha   109.45276697
_cell_angle_beta   109.48278620
_cell_angle_gamma   109.40417717
_symmetry_Int_Tables_number   1
_chemical_formula_structural   Ce5Al2Os3
_chemical_formula_sum   'Ce10 Al4 Os6'
_cell_volume   456.65017608
_cell_formula_units_Z   2
loop_
 _symmetry_equiv_pos_site_id
 _symmetry_equiv_pos_as_xyz
  1  'x, y, z'
loop_
 _atom_site_type_symbol
 _atom_site_label
 _atom_site_symmetry_multiplicity
 _atom_site_fract_x
 _atom_site_fract_y
 _atom_site_fract_z
 _atom_site_occupancy
  Ce  Ce0  1  0.784140  0.784140  0.784300  1
  Ce  Ce1  1  0.309549  0.559570  0.749973  1
  Ce  Ce2  1  0.750045  0.309575  0.559603  1
  Ce  Ce3  1  0.559468  0.750043  0.309454  1
  Ce  Ce4  1  0.715652  0.499975  0.999857  1
  Ce  Ce5  1  0.000028  0.715603  0.499996  1
  Ce  Ce6  1  0.500028  0.999977  0.715689  1
  Ce  Ce7  1  0.250000  0.190503  0.940431  1
  Ce  Ce8  1  0.940498  0.250043  0.190578  1
  Ce  Ce9  1  0.190491  0.940437  0.250020  1
  Al  Al10  1  0.401704  0.401698  0.401727  1
  Al  Al11  1  0.098367  0.500005  0.999936  1
  Al  Al12  1  0.000014  0.098471  0.500039  1
  Al  Al13  1  0.499995  0.999966  0.098359  1
  Os  Os14  1  0.876391  0.126515  0.749934  1
  Os  Os15  1  0.749939  0.876367  0.126431  1
  Os  Os16  1  0.126505  0.749916  0.876384  1
  Os  Os17  1  0.250029  0.623533  0.373560  1
  Os  Os18  1  0.373585  0.250137  0.623658  1
  Os  Os19  1  0.623571  0.373524  0.250072  1
