# generated using pymatgen
data_Rb2Th7Te15
_symmetry_space_group_name_H-M   'P 1'
_cell_length_a   8.55767000
_cell_length_b   16.63639857
_cell_length_c   23.67836100
_cell_angle_alpha   89.51518559
_cell_angle_beta   90.00000000
_cell_angle_gamma   90.00000000
_symmetry_Int_Tables_number   1
_chemical_formula_structural   Rb2Th7Te15
_chemical_formula_sum   'Rb8 Th28 Te60'
_cell_volume   3370.93937217
_cell_formula_units_Z   4
loop_
 _symmetry_equiv_pos_site_id
 _symmetry_equiv_pos_as_xyz
  1  'x, y, z'
loop_
 _atom_site_type_symbol
 _atom_site_label
 _atom_site_symmetry_multiplicity
 _atom_site_fract_x
 _atom_site_fract_y
 _atom_site_fract_z
 _atom_site_occupancy
  Rb  Rb0  1  0.051132  0.955879  0.267993  1
  Rb  Rb1  1  0.551132  0.044121  0.232007  1
  Rb  Rb2  1  0.948868  0.044121  0.732007  1
  Rb  Rb3  1  0.448868  0.955879  0.767993  1
  Rb  Rb4  1  0.453449  0.609136  0.441003  1
  Rb  Rb5  1  0.953449  0.390864  0.058997  1
  Rb  Rb6  1  0.546551  0.390864  0.558997  1
  Rb  Rb7  1  0.046551  0.609136  0.941003  1
  Th  Th8  1  0.414545  0.904033  0.423838  1
  Th  Th9  1  0.914545  0.095967  0.076162  1
  Th  Th10  1  0.585455  0.095967  0.576162  1
  Th  Th11  1  0.085455  0.904033  0.923838  1
  Th  Th12  1  0.522989  0.881131  0.061906  1
  Th  Th13  1  0.022989  0.118869  0.438094  1
  Th  Th14  1  0.477011  0.118869  0.938094  1
  Th  Th15  1  0.977011  0.881131  0.561906  1
  Th  Th16  1  0.027648  0.788629  0.102855  1
  Th  Th17  1  0.527648  0.211371  0.397145  1
  Th  Th18  1  0.972352  0.211371  0.897145  1
  Th  Th19  1  0.472352  0.788629  0.602855  1
  Th  Th20  1  0.573439  0.748198  0.244726  1
  Th  Th21  1  0.073439  0.251802  0.255274  1
  Th  Th22  1  0.426561  0.251802  0.755274  1
  Th  Th23  1  0.926561  0.748198  0.744726  1
  Th  Th24  1  0.423753  0.580940  0.085919  1
  Th  Th25  1  0.923753  0.419060  0.414081  1
  Th  Th26  1  0.576247  0.419060  0.914081  1
  Th  Th27  1  0.076247  0.580940  0.585919  1
  Th  Th28  1  0.479420  0.454485  0.272514  1
  Th  Th29  1  0.979420  0.545515  0.227486  1
  Th  Th30  1  0.520580  0.545515  0.727486  1
  Th  Th31  1  0.020580  0.454485  0.772514  1
  Th  Th32  1  0.441615  0.257615  0.115102  1
  Th  Th33  1  0.941615  0.742385  0.384898  1
  Th  Th34  1  0.558385  0.742385  0.884898  1
  Th  Th35  1  0.058385  0.257615  0.615102  1
  Te  Te36  1  0.163995  0.954385  0.048241  1
  Te  Te37  1  0.663995  0.045615  0.451759  1
  Te  Te38  1  0.836005  0.045615  0.951759  1
  Te  Te39  1  0.336005  0.954385  0.548241  1
  Te  Te40  1  0.810061  0.933412  0.142333  1
  Te  Te41  1  0.310061  0.066588  0.357667  1
  Te  Te42  1  0.189939  0.066588  0.857667  1
  Te  Te43  1  0.689939  0.933412  0.642333  1
  Te  Te44  1  0.037578  0.922340  0.429637  1
  Te  Te45  1  0.537578  0.077660  0.070363  1
  Te  Te46  1  0.962422  0.077660  0.570363  1
  Te  Te47  1  0.462422  0.922340  0.929637  1
  Te  Te48  1  0.694861  0.871580  0.333145  1
  Te  Te49  1  0.194861  0.128420  0.166855  1
  Te  Te50  1  0.305139  0.128420  0.666855  1
  Te  Te51  1  0.805139  0.871580  0.833145  1
  Te  Te52  1  0.329623  0.855162  0.175000  1
  Te  Te53  1  0.829623  0.144838  0.325000  1
  Te  Te54  1  0.670377  0.144838  0.825000  1
  Te  Te55  1  0.170377  0.855162  0.675000  1
  Te  Te56  1  0.292149  0.769350  0.342693  1
  Te  Te57  1  0.792149  0.230650  0.157307  1
  Te  Te58  1  0.707851  0.230650  0.657307  1
  Te  Te59  1  0.207851  0.769350  0.842693  1
  Te  Te60  1  0.313400  0.739655  0.011420  1
  Te  Te61  1  0.813400  0.260345  0.488580  1
  Te  Te62  1  0.686600  0.260345  0.988580  1
  Te  Te63  1  0.186600  0.739655  0.511420  1
  Te  Te64  1  0.668955  0.717147  0.117560  1
  Te  Te65  1  0.168955  0.282853  0.382440  1
  Te  Te66  1  0.331045  0.282853  0.882440  1
  Te  Te67  1  0.831045  0.717147  0.617560  1
  Te  Te68  1  0.334984  0.613682  0.215246  1
  Te  Te69  1  0.834984  0.386318  0.284754  1
  Te  Te70  1  0.665016  0.386318  0.784754  1
  Te  Te71  1  0.165016  0.613682  0.715246  1
  Te  Te72  1  0.051882  0.597875  0.096609  1
  Te  Te73  1  0.551882  0.402125  0.403391  1
  Te  Te74  1  0.948118  0.402125  0.903391  1
  Te  Te75  1  0.448118  0.597875  0.596609  1
  Te  Te76  1  0.169677  0.524668  0.342241  1
  Te  Te77  1  0.669677  0.475332  0.157759  1
  Te  Te78  1  0.830323  0.475332  0.657759  1
  Te  Te79  1  0.330323  0.524668  0.842241  1
  Te  Te80  1  0.377624  0.411008  0.030477  1
  Te  Te81  1  0.877624  0.588992  0.469523  1
  Te  Te82  1  0.622376  0.588992  0.969523  1
  Te  Te83  1  0.122376  0.411008  0.530477  1
  Te  Te84  1  0.207368  0.397229  0.181046  1
  Te  Te85  1  0.707368  0.602771  0.318954  1
  Te  Te86  1  0.792632  0.602771  0.818954  1
  Te  Te87  1  0.292632  0.397229  0.681046  1
  Te  Te88  1  0.452326  0.262264  0.261097  1
  Te  Te89  1  0.952326  0.737736  0.238903  1
  Te  Te90  1  0.547674  0.737736  0.738903  1
  Te  Te91  1  0.047674  0.262264  0.761097  1
  Te  Te92  1  0.178239  0.199471  0.013277  1
  Te  Te93  1  0.678239  0.800529  0.486723  1
  Te  Te94  1  0.821761  0.800529  0.986723  1
  Te  Te95  1  0.321761  0.199471  0.513277  1
