# generated using pymatgen
data_Ca2MgSi2(PPd5)4
_symmetry_space_group_name_H-M   'P 1'
_cell_length_a   8.66777205
_cell_length_b   8.66928891
_cell_length_c   8.66942715
_cell_angle_alpha   59.98787420
_cell_angle_beta   60.00533577
_cell_angle_gamma   60.00825899
_symmetry_Int_Tables_number   1
_chemical_formula_structural   Ca2MgSi2(PPd5)4
_chemical_formula_sum   'Ca2 Mg1 Si2 P4 Pd20'
_cell_volume   460.65007993
_cell_formula_units_Z   1
loop_
 _symmetry_equiv_pos_site_id
 _symmetry_equiv_pos_as_xyz
  1  'x, y, z'
loop_
 _atom_site_type_symbol
 _atom_site_label
 _atom_site_symmetry_multiplicity
 _atom_site_fract_x
 _atom_site_fract_y
 _atom_site_fract_z
 _atom_site_occupancy
  Ca  Ca0  1  0.250002  0.250003  0.249997  1
  Ca  Ca1  1  0.749998  0.749997  0.750003  1
  Mg  Mg2  1  0.000000  0.000000  0.000000  1
  Si  Si3  1  0.735983  0.264017  0.264025  1
  Si  Si4  1  0.264017  0.735983  0.735975  1
  P  P5  1  0.264670  0.735330  0.264668  1
  P  P6  1  0.735330  0.264670  0.735332  1
  P  P7  1  0.264680  0.264680  0.735320  1
  P  P8  1  0.735320  0.735320  0.264680  1
  Pd  Pd9  1  0.384475  0.386058  0.386061  1
  Pd  Pd10  1  0.615525  0.613942  0.613939  1
  Pd  Pd11  1  0.386057  0.384475  0.843407  1
  Pd  Pd12  1  0.386056  0.843415  0.384473  1
  Pd  Pd13  1  0.613943  0.615525  0.156593  1
  Pd  Pd14  1  0.613944  0.156585  0.615527  1
  Pd  Pd15  1  0.843416  0.386056  0.386055  1
  Pd  Pd16  1  0.156584  0.613944  0.613945  1
  Pd  Pd17  1  0.341878  0.000005  0.999996  1
  Pd  Pd18  1  0.658122  0.999995  0.000004  1
  Pd  Pd19  1  0.000004  0.341880  0.658121  1
  Pd  Pd20  1  0.999996  0.658120  0.341879  1
  Pd  Pd21  1  0.002273  0.343603  0.997720  1
  Pd  Pd22  1  0.656398  0.997726  0.343598  1
  Pd  Pd23  1  0.997727  0.656397  0.002280  1
  Pd  Pd24  1  0.343602  0.002274  0.656402  1
  Pd  Pd25  1  0.002275  0.997725  0.343603  1
  Pd  Pd26  1  0.997725  0.002275  0.656397  1
  Pd  Pd27  1  0.656395  0.343607  0.997731  1
  Pd  Pd28  1  0.343605  0.656393  0.002269  1
