# generated using pymatgen
data_NdEr2SiPd5
_symmetry_space_group_name_H-M   'P 1'
_cell_length_a   8.28802009
_cell_length_b   8.28801938
_cell_length_c   8.28799853
_cell_angle_alpha   128.05565033
_cell_angle_beta   126.25693976
_cell_angle_gamma   78.00474311
_symmetry_Int_Tables_number   1
_chemical_formula_structural   NdEr2SiPd5
_chemical_formula_sum   'Nd2 Er4 Si2 Pd10'
_cell_volume   350.29892316
_cell_formula_units_Z   2
loop_
 _symmetry_equiv_pos_site_id
 _symmetry_equiv_pos_as_xyz
  1  'x, y, z'
loop_
 _atom_site_type_symbol
 _atom_site_label
 _atom_site_symmetry_multiplicity
 _atom_site_fract_x
 _atom_site_fract_y
 _atom_site_fract_z
 _atom_site_occupancy
  Nd  Nd0  1  0.381964  0.249995  0.131959  1
  Nd  Nd1  1  0.618036  0.750005  0.868041  1
  Er  Er2  1  0.224064  0.449842  0.774227  1
  Er  Er3  1  0.775936  0.550158  0.225773  1
  Er  Er4  1  0.824385  0.050164  0.774227  1
  Er  Er5  1  0.175615  0.949836  0.225773  1
  Si  Si6  1  0.781618  0.250000  0.531618  1
  Si  Si7  1  0.218382  0.750000  0.468382  1
  Pd  Pd8  1  0.162145  0.398912  0.355439  1
  Pd  Pd9  1  0.837858  0.193301  0.236771  1
  Pd  Pd10  1  0.456530  0.101087  0.763229  1
  Pd  Pd11  1  0.543472  0.306705  0.644561  1
  Pd  Pd12  1  0.000000  0.500000  0.000000  1
  Pd  Pd13  1  0.000000  0.000000  0.500000  1
  Pd  Pd14  1  0.456528  0.693295  0.355439  1
  Pd  Pd15  1  0.543470  0.898913  0.236771  1
  Pd  Pd16  1  0.162142  0.806699  0.763229  1
  Pd  Pd17  1  0.837855  0.601088  0.644561  1
