# generated using pymatgen
data_Gd8Si13Rh3
_symmetry_space_group_name_H-M   'P 1'
_cell_length_a   8.19143100
_cell_length_b   8.19143046
_cell_length_c   8.28607000
_cell_angle_alpha   90.00000000
_cell_angle_beta   90.00000000
_cell_angle_gamma   119.99999816
_symmetry_Int_Tables_number   1
_chemical_formula_structural   Gd8Si13Rh3
_chemical_formula_sum   'Gd8 Si13 Rh3'
_cell_volume   481.50274073
_cell_formula_units_Z   1
loop_
 _symmetry_equiv_pos_site_id
 _symmetry_equiv_pos_as_xyz
  1  'x, y, z'
loop_
 _atom_site_type_symbol
 _atom_site_label
 _atom_site_symmetry_multiplicity
 _atom_site_fract_x
 _atom_site_fract_y
 _atom_site_fract_z
 _atom_site_occupancy
  Gd  Gd0  1  0.000000  0.000000  0.748281  1
  Gd  Gd1  1  0.000000  0.000000  0.252136  1
  Gd  Gd2  1  0.499366  0.500634  0.747508  1
  Gd  Gd3  1  0.499366  0.998733  0.747508  1
  Gd  Gd4  1  0.001267  0.500634  0.747508  1
  Gd  Gd5  1  0.500327  0.499673  0.252376  1
  Gd  Gd6  1  0.999346  0.499673  0.252376  1
  Gd  Gd7  1  0.500327  0.000654  0.252376  1
  Si  Si8  1  0.666667  0.333333  0.997990  1
  Si  Si9  1  0.836850  0.163150  0.000084  1
  Si  Si10  1  0.836850  0.673701  0.000084  1
  Si  Si11  1  0.326299  0.163150  0.000084  1
  Si  Si12  1  0.832844  0.167156  0.500517  1
  Si  Si13  1  0.832844  0.665690  0.500517  1
  Si  Si14  1  0.334310  0.167156  0.500517  1
  Si  Si15  1  0.167190  0.832810  0.499633  1
  Si  Si16  1  0.665619  0.832810  0.499633  1
  Si  Si17  1  0.167190  0.334381  0.499633  1
  Si  Si18  1  0.169330  0.830670  0.000026  1
  Si  Si19  1  0.661341  0.830670  0.000026  1
  Si  Si20  1  0.169330  0.338659  0.000026  1
  Rh  Rh21  1  0.666667  0.333333  0.500320  1
  Rh  Rh22  1  0.333333  0.666667  0.499205  1
  Rh  Rh23  1  0.333333  0.666667  0.001637  1
