# generated using pymatgen
data_CaYb2Lu(Al3Pd)6
_symmetry_space_group_name_H-M   'P 1'
_cell_length_a   7.64767707
_cell_length_b   7.64497036
_cell_length_c   9.48360000
_cell_angle_alpha   90.00000000
_cell_angle_beta   90.00000000
_cell_angle_gamma   119.53323621
_symmetry_Int_Tables_number   1
_chemical_formula_structural   CaYb2Lu(Al3Pd)6
_chemical_formula_sum   'Ca1 Yb2 Lu1 Al18 Pd6'
_cell_volume   482.42823913
_cell_formula_units_Z   1
loop_
 _symmetry_equiv_pos_site_id
 _symmetry_equiv_pos_as_xyz
  1  'x, y, z'
loop_
 _atom_site_type_symbol
 _atom_site_label
 _atom_site_symmetry_multiplicity
 _atom_site_fract_x
 _atom_site_fract_y
 _atom_site_fract_z
 _atom_site_occupancy
  Ca  Ca0  1  0.671843  0.997174  0.250000  1
  Yb  Yb1  1  0.994847  0.669716  0.250000  1
  Yb  Yb2  1  0.003993  0.329890  0.750000  1
  Lu  Lu3  1  0.329759  0.002836  0.750000  1
  Al  Al4  1  0.132983  0.132147  0.250000  1
  Al  Al5  1  0.872669  0.870068  0.750000  1
  Al  Al6  1  0.001263  0.335180  0.074954  1
  Al  Al7  1  0.000468  0.665627  0.920387  1
  Al  Al8  1  0.000468  0.665627  0.579613  1
  Al  Al9  1  0.334776  0.000002  0.425393  1
  Al  Al10  1  0.001263  0.335180  0.425046  1
  Al  Al11  1  0.664211  0.000203  0.579858  1
  Al  Al12  1  0.664211  0.000203  0.920142  1
  Al  Al13  1  0.334776  0.000002  0.074607  1
  Al  Al14  1  0.332391  0.330785  0.559952  1
  Al  Al15  1  0.666603  0.666726  0.447122  1
  Al  Al16  1  0.666603  0.666726  0.052878  1
  Al  Al17  1  0.332391  0.330785  0.940048  1
  Al  Al18  1  0.339260  0.546949  0.250000  1
  Al  Al19  1  0.655444  0.450473  0.750000  1
  Al  Al20  1  0.544628  0.340879  0.250000  1
  Al  Al21  1  0.454442  0.663436  0.750000  1
  Pd  Pd22  1  0.671294  0.328136  0.999394  1
  Pd  Pd23  1  0.327700  0.671552  0.998652  1
  Pd  Pd24  1  0.327700  0.671552  0.501348  1
  Pd  Pd25  1  0.671294  0.328136  0.500606  1
  Pd  Pd26  1  0.001360  0.000003  0.998916  1
  Pd  Pd27  1  0.001360  0.000003  0.501084  1
