# generated using pymatgen
data_Ho10NiAg3
_symmetry_space_group_name_H-M   'P 1'
_cell_length_a   9.42306300
_cell_length_b   9.42306330
_cell_length_c   9.52362400
_cell_angle_alpha   90.00000000
_cell_angle_beta   90.00000000
_cell_angle_gamma   120.00000245
_symmetry_Int_Tables_number   1
_chemical_formula_structural   Ho10NiAg3
_chemical_formula_sum   'Ho20 Ni2 Ag6'
_cell_volume   732.34726688
_cell_formula_units_Z   2
loop_
 _symmetry_equiv_pos_site_id
 _symmetry_equiv_pos_as_xyz
  1  'x, y, z'
loop_
 _atom_site_type_symbol
 _atom_site_label
 _atom_site_symmetry_multiplicity
 _atom_site_fract_x
 _atom_site_fract_y
 _atom_site_fract_z
 _atom_site_occupancy
  Ho  Ho0  1  0.000000  0.000000  0.500000  1
  Ho  Ho1  1  0.000000  0.000000  0.000000  1
  Ho  Ho2  1  0.543784  0.456216  0.250000  1
  Ho  Ho3  1  0.543784  0.087569  0.250000  1
  Ho  Ho4  1  0.912431  0.456216  0.250000  1
  Ho  Ho5  1  0.456216  0.543784  0.750000  1
  Ho  Ho6  1  0.456216  0.912431  0.750000  1
  Ho  Ho7  1  0.087569  0.543784  0.750000  1
  Ho  Ho8  1  0.210111  0.789889  0.440265  1
  Ho  Ho9  1  0.210111  0.420224  0.440265  1
  Ho  Ho10  1  0.579776  0.789889  0.440265  1
  Ho  Ho11  1  0.789889  0.210111  0.559735  1
  Ho  Ho12  1  0.789889  0.579776  0.559735  1
  Ho  Ho13  1  0.420224  0.210111  0.559735  1
  Ho  Ho14  1  0.789889  0.210111  0.940265  1
  Ho  Ho15  1  0.789889  0.579776  0.940265  1
  Ho  Ho16  1  0.420224  0.210111  0.940265  1
  Ho  Ho17  1  0.210111  0.789889  0.059735  1
  Ho  Ho18  1  0.210111  0.420224  0.059735  1
  Ho  Ho19  1  0.579776  0.789889  0.059735  1
  Ni  Ni20  1  0.333333  0.666667  0.250000  1
  Ni  Ni21  1  0.666667  0.333333  0.750000  1
  Ag  Ag22  1  0.883277  0.116723  0.250000  1
  Ag  Ag23  1  0.883277  0.766553  0.250000  1
  Ag  Ag24  1  0.233447  0.116723  0.250000  1
  Ag  Ag25  1  0.116723  0.883277  0.750000  1
  Ag  Ag26  1  0.116723  0.233447  0.750000  1
  Ag  Ag27  1  0.766553  0.883277  0.750000  1
