# generated using pymatgen
data_CsNpO4
_symmetry_space_group_name_H-M   'P 1'
_cell_length_a   8.46687100
_cell_length_b   8.46687100
_cell_length_c   6.62304400
_cell_angle_alpha   90.00000000
_cell_angle_beta   90.00000000
_cell_angle_gamma   90.00000000
_symmetry_Int_Tables_number   1
_chemical_formula_structural   CsNpO4
_chemical_formula_sum   'Cs4 Np4 O16'
_cell_volume   474.79214597
_cell_formula_units_Z   4
loop_
 _symmetry_equiv_pos_site_id
 _symmetry_equiv_pos_as_xyz
  1  'x, y, z'
loop_
 _atom_site_type_symbol
 _atom_site_label
 _atom_site_symmetry_multiplicity
 _atom_site_fract_x
 _atom_site_fract_y
 _atom_site_fract_z
 _atom_site_occupancy
  Cs  Cs0  1  0.500000  0.000000  0.548674  1
  Cs  Cs1  1  0.500000  0.500000  0.500000  1
  Cs  Cs2  1  0.000000  0.500000  0.451326  1
  Cs  Cs3  1  0.000000  0.000000  0.500000  1
  Np  Np4  1  0.750000  0.250000  0.000000  1
  Np  Np5  1  0.250000  0.750000  0.000000  1
  Np  Np6  1  0.250000  0.250000  0.000000  1
  Np  Np7  1  0.750000  0.750000  0.000000  1
  O  O8  1  0.518873  0.747244  0.949826  1
  O  O9  1  0.716735  0.776479  0.275316  1
  O  O10  1  0.018873  0.247244  0.050174  1
  O  O11  1  0.776479  0.283265  0.724684  1
  O  O12  1  0.752756  0.018873  0.949826  1
  O  O13  1  0.283265  0.223521  0.275316  1
  O  O14  1  0.723521  0.216735  0.275316  1
  O  O15  1  0.981127  0.752756  0.050174  1
  O  O16  1  0.481127  0.252756  0.949826  1
  O  O17  1  0.247244  0.981127  0.949826  1
  O  O18  1  0.783265  0.723521  0.724684  1
  O  O19  1  0.223521  0.716735  0.724684  1
  O  O20  1  0.276479  0.783265  0.275316  1
  O  O21  1  0.747244  0.481127  0.050174  1
  O  O22  1  0.252756  0.518873  0.050174  1
  O  O23  1  0.216735  0.276479  0.724684  1
