# generated using pymatgen
data_Au2Se(SO5)3
_symmetry_space_group_name_H-M   'P 1'
_cell_length_a   5.65579790
_cell_length_b   6.39766859
_cell_length_c   9.24963499
_cell_angle_alpha   88.31618585
_cell_angle_beta   95.78797762
_cell_angle_gamma   100.58629459
_symmetry_Int_Tables_number   1
_chemical_formula_structural   Au2Se(SO5)3
_chemical_formula_sum   'Au2 Se1 S3 O15'
_cell_volume   327.29403752
_cell_formula_units_Z   1
loop_
 _symmetry_equiv_pos_site_id
 _symmetry_equiv_pos_as_xyz
  1  'x, y, z'
loop_
 _atom_site_type_symbol
 _atom_site_label
 _atom_site_symmetry_multiplicity
 _atom_site_fract_x
 _atom_site_fract_y
 _atom_site_fract_z
 _atom_site_occupancy
  Au  Au0  1  0.084077  0.350874  0.572574  1
  Au  Au1  1  0.829177  0.804167  0.937445  1
  Se  Se2  1  0.720561  0.296947  0.852079  1
  S  S3  1  0.536227  0.801763  0.204983  1
  S  S4  1  0.397117  0.362645  0.311163  1
  S  S5  1  0.100016  0.838047  0.654374  1
  O  O6  1  0.864017  0.844632  0.720993  1
  O  O7  1  0.035195  0.662962  0.539355  1
  O  O8  1  0.915514  0.511818  0.930202  1
  O  O9  1  0.387159  0.436419  0.468726  1
  O  O10  1  0.771787  0.273625  0.673099  1
  O  O11  1  0.192990  0.204064  0.265734  1
  O  O12  1  0.350297  0.566666  0.205409  1
  O  O13  1  0.771795  0.755262  0.149605  1
  O  O14  1  0.296018  0.808344  0.759166  1
  O  O15  1  0.642842  0.338699  0.302936  1
  O  O16  1  0.145119  0.035871  0.560136  1
  O  O17  1  0.435122  0.302793  0.852559  1
  O  O18  1  0.596195  0.865020  0.353056  1
  O  O19  1  0.841422  0.118922  0.966313  1
  O  O20  1  0.404968  0.915654  0.099414  1
