# generated using pymatgen
data_CaSmYZn11
_symmetry_space_group_name_H-M   'P 1'
_cell_length_a   8.22698737
_cell_length_b   8.22698702
_cell_length_c   8.22698731
_cell_angle_alpha   148.36973775
_cell_angle_beta   115.70971376
_cell_angle_gamma   73.42549323
_symmetry_Int_Tables_number   1
_chemical_formula_structural   CaSmYZn11
_chemical_formula_sum   'Ca1 Sm1 Y1 Zn11'
_cell_volume   258.91065533
_cell_formula_units_Z   1
loop_
 _symmetry_equiv_pos_site_id
 _symmetry_equiv_pos_as_xyz
  1  'x, y, z'
loop_
 _atom_site_type_symbol
 _atom_site_label
 _atom_site_symmetry_multiplicity
 _atom_site_fract_x
 _atom_site_fract_y
 _atom_site_fract_z
 _atom_site_occupancy
  Ca  Ca0  1  0.000071  0.000071  0.000000  1
  Sm  Sm1  1  0.297603  0.297603  0.000000  1
  Y  Y2  1  0.702048  0.702048  0.000000  1
  Zn  Zn3  1  0.499961  0.999961  0.500000  1
  Zn  Zn4  1  0.679922  0.500547  0.179375  1
  Zn  Zn5  1  0.321171  0.500547  0.820625  1
  Zn  Zn6  1  0.694362  0.337445  0.356917  1
  Zn  Zn7  1  0.306799  0.661736  0.645064  1
  Zn  Zn8  1  0.980527  0.337445  0.643083  1
  Zn  Zn9  1  0.016672  0.661736  0.354936  1
  Zn  Zn10  1  0.422612  0.137149  0.285464  1
  Zn  Zn11  1  0.579780  0.863282  0.716497  1
  Zn  Zn12  1  0.851685  0.137149  0.714536  1
  Zn  Zn13  1  0.146785  0.863282  0.283503  1
