# generated using pymatgen
data_Li2Ag5
_symmetry_space_group_name_H-M   'P 1'
_cell_length_a   4.11052748
_cell_length_b   4.99003547
_cell_length_c   8.65829381
_cell_angle_alpha   131.89597694
_cell_angle_beta   76.61016617
_cell_angle_gamma   113.97948967
_symmetry_Int_Tables_number   1
_chemical_formula_structural   Li2Ag5
_chemical_formula_sum   'Li2 Ag5'
_cell_volume   120.57837446
_cell_formula_units_Z   1
loop_
 _symmetry_equiv_pos_site_id
 _symmetry_equiv_pos_as_xyz
  1  'x, y, z'
loop_
 _atom_site_type_symbol
 _atom_site_label
 _atom_site_symmetry_multiplicity
 _atom_site_fract_x
 _atom_site_fract_y
 _atom_site_fract_z
 _atom_site_occupancy
  Li  Li0  1  0.999582  0.784160  0.244959  1
  Li  Li1  1  0.149524  0.525802  0.686869  1
  Ag  Ag2  1  0.574427  0.654900  0.965994  1
  Ag  Ag3  1  0.432841  0.944177  0.537640  1
  Ag  Ag4  1  0.859316  0.080259  0.821331  1
  Ag  Ag5  1  0.290306  0.230005  0.110781  1
  Ag  Ag6  1  0.716155  0.365540  0.393984  1
