# generated using pymatgen
data_HoErMnIr3
_symmetry_space_group_name_H-M   'P 1'
_cell_length_a   5.16915661
_cell_length_b   5.16915883
_cell_length_c   5.16915800
_cell_angle_alpha   63.83310788
_cell_angle_beta   63.83309632
_cell_angle_gamma   63.83310159
_symmetry_Int_Tables_number   1
_chemical_formula_structural   HoErMnIr3
_chemical_formula_sum   'Ho1 Er1 Mn1 Ir3'
_cell_volume   105.92241483
_cell_formula_units_Z   1
loop_
 _symmetry_equiv_pos_site_id
 _symmetry_equiv_pos_as_xyz
  1  'x, y, z'
loop_
 _atom_site_type_symbol
 _atom_site_label
 _atom_site_symmetry_multiplicity
 _atom_site_fract_x
 _atom_site_fract_y
 _atom_site_fract_z
 _atom_site_occupancy
  Ho  Ho0  1  0.998880  0.998880  0.998880  1
  Er  Er1  1  0.251348  0.251348  0.251348  1
  Mn  Mn2  1  0.624971  0.624971  0.624971  1
  Ir  Ir3  1  0.624843  0.624843  0.125111  1
  Ir  Ir4  1  0.624843  0.125111  0.624843  1
  Ir  Ir5  1  0.125111  0.624843  0.624843  1
