# generated using pymatgen
data_Tm4TaTcOs6
_symmetry_space_group_name_H-M   'P 1'
_cell_length_a   5.47089403
_cell_length_b   5.25967469
_cell_length_c   8.91064100
_cell_angle_alpha   90.00000000
_cell_angle_beta   90.00000000
_cell_angle_gamma   121.36808479
_symmetry_Int_Tables_number   1
_chemical_formula_structural   Tm4TaTcOs6
_chemical_formula_sum   'Tm4 Ta1 Tc1 Os6'
_cell_volume   218.92889134
_cell_formula_units_Z   1
loop_
 _symmetry_equiv_pos_site_id
 _symmetry_equiv_pos_as_xyz
  1  'x, y, z'
loop_
 _atom_site_type_symbol
 _atom_site_label
 _atom_site_symmetry_multiplicity
 _atom_site_fract_x
 _atom_site_fract_y
 _atom_site_fract_z
 _atom_site_occupancy
  Tm  Tm0  1  0.669671  0.339880  0.560506  1
  Tm  Tm1  1  0.331962  0.663800  0.431911  1
  Tm  Tm2  1  0.331962  0.663800  0.068089  1
  Tm  Tm3  1  0.669671  0.339880  0.939494  1
  Ta  Ta4  1  0.165169  0.330767  0.750000  1
  Tc  Tc5  1  0.830901  0.662116  0.250000  1
  Os  Os6  1  0.999207  0.998031  0.496454  1
  Os  Os7  1  0.999207  0.998031  0.003546  1
  Os  Os8  1  0.175303  0.828496  0.750000  1
  Os  Os9  1  0.653066  0.828436  0.750000  1
  Os  Os10  1  0.825998  0.173289  0.250000  1
  Os  Os11  1  0.347882  0.173474  0.250000  1
