# generated using pymatgen
data_LaGd2CBr5
_symmetry_space_group_name_H-M   'P 1'
_cell_length_a   7.56487573
_cell_length_b   9.09964164
_cell_length_c   9.22236300
_cell_angle_alpha   107.77168694
_cell_angle_beta   96.82182067
_cell_angle_gamma   105.43105595
_symmetry_Int_Tables_number   1
_chemical_formula_structural   LaGd2CBr5
_chemical_formula_sum   'La2 Gd4 C2 Br10'
_cell_volume   568.75859339
_cell_formula_units_Z   2
loop_
 _symmetry_equiv_pos_site_id
 _symmetry_equiv_pos_as_xyz
  1  'x, y, z'
loop_
 _atom_site_type_symbol
 _atom_site_label
 _atom_site_symmetry_multiplicity
 _atom_site_fract_x
 _atom_site_fract_y
 _atom_site_fract_z
 _atom_site_occupancy
  La  La0  1  0.881920  0.953479  0.234750  1
  La  La1  1  0.118080  0.046521  0.765250  1
  Gd  Gd2  1  0.026682  0.725094  0.917244  1
  Gd  Gd3  1  0.973318  0.274906  0.082756  1
  Gd  Gd4  1  0.614472  0.852763  0.807267  1
  Gd  Gd5  1  0.385528  0.147237  0.192733  1
  C  C6  1  0.907172  0.967096  0.954564  1
  C  C7  1  0.092828  0.032904  0.045436  1
  Br  Br8  1  0.738966  0.911342  0.539095  1
  Br  Br9  1  0.261034  0.088658  0.460905  1
  Br  Br10  1  0.449390  0.817971  0.081592  1
  Br  Br11  1  0.550610  0.182029  0.918408  1
  Br  Br12  1  0.810813  0.273133  0.352160  1
  Br  Br13  1  0.189187  0.726867  0.647840  1
  Br  Br14  1  0.914511  0.620685  0.168716  1
  Br  Br15  1  0.085489  0.379315  0.831284  1
  Br  Br16  1  0.657171  0.541756  0.725514  1
  Br  Br17  1  0.342829  0.458244  0.274486  1
