# generated using pymatgen
data_MgCo7Sb2(RhO8)2
_symmetry_space_group_name_H-M   'P 1'
_cell_length_a   6.07708868
_cell_length_b   10.47998122
_cell_length_c   6.18161613
_cell_angle_alpha   73.93711646
_cell_angle_beta   60.49100309
_cell_angle_gamma   90.01767739
_symmetry_Int_Tables_number   1
_chemical_formula_structural   MgCo7Sb2(RhO8)2
_chemical_formula_sum   'Mg1 Co7 Sb2 Rh2 O16'
_cell_volume   324.82487243
_cell_formula_units_Z   1
loop_
 _symmetry_equiv_pos_site_id
 _symmetry_equiv_pos_as_xyz
  1  'x, y, z'
loop_
 _atom_site_type_symbol
 _atom_site_label
 _atom_site_symmetry_multiplicity
 _atom_site_fract_x
 _atom_site_fract_y
 _atom_site_fract_z
 _atom_site_occupancy
  Mg  Mg0  1  0.750500  0.750066  0.499991  1
  Co  Co1  1  0.705196  0.569222  0.098416  1
  Co  Co2  1  0.795389  0.930790  0.901698  1
  Co  Co3  1  0.749666  0.250023  0.499871  1
  Co  Co4  1  0.996727  0.499901  0.501075  1
  Co  Co5  1  0.196754  0.068942  0.099288  1
  Co  Co6  1  0.302666  0.431089  0.900563  1
  Co  Co7  1  0.503240  0.000065  0.498955  1
  Sb  Sb8  1  0.749577  0.249993  0.999929  1
  Sb  Sb9  1  0.250400  0.750007  0.000079  1
  Rh  Rh10  1  0.249674  0.249997  0.499857  1
  Rh  Rh11  1  0.250308  0.749983  0.500088  1
  O  O12  1  0.392990  0.130112  0.714082  1
  O  O13  1  0.890742  0.630137  0.714906  1
  O  O14  1  0.106257  0.369894  0.285757  1
  O  O15  1  0.610091  0.869835  0.285194  1
  O  O16  1  0.393211  0.136250  0.246098  1
  O  O17  1  0.901450  0.635360  0.241698  1
  O  O18  1  0.857113  0.134752  0.238998  1
  O  O19  1  0.359933  0.636733  0.245166  1
  O  O20  1  0.618060  0.363117  0.246498  1
  O  O21  1  0.131749  0.862290  0.249619  1
  O  O22  1  0.642208  0.365242  0.760727  1
  O  O23  1  0.140693  0.863241  0.755197  1
  O  O24  1  0.881144  0.136871  0.753401  1
  O  O25  1  0.369025  0.637720  0.750521  1
  O  O26  1  0.105945  0.363709  0.753967  1
  O  O27  1  0.599295  0.864658  0.758361  1
