# generated using pymatgen
data_HfTaFe12P7
_symmetry_space_group_name_H-M   'P 1'
_cell_length_a   8.82975200
_cell_length_b   8.82975153
_cell_length_c   3.55573700
_cell_angle_alpha   90.00000000
_cell_angle_beta   90.00000000
_cell_angle_gamma   120.00000176
_symmetry_Int_Tables_number   1
_chemical_formula_structural   HfTaFe12P7
_chemical_formula_sum   'Hf1 Ta1 Fe12 P7'
_cell_volume   240.08069710
_cell_formula_units_Z   1
loop_
 _symmetry_equiv_pos_site_id
 _symmetry_equiv_pos_as_xyz
  1  'x, y, z'
loop_
 _atom_site_type_symbol
 _atom_site_label
 _atom_site_symmetry_multiplicity
 _atom_site_fract_x
 _atom_site_fract_y
 _atom_site_fract_z
 _atom_site_occupancy
  Hf  Hf0  1  0.000000  0.000000  0.500000  1
  Ta  Ta1  1  0.333333  0.666667  0.000000  1
  Fe  Fe2  1  0.728262  0.961388  0.000000  1
  Fe  Fe3  1  0.233127  0.271738  0.000000  1
  Fe  Fe4  1  0.038612  0.766873  0.000000  1
  Fe  Fe5  1  0.944380  0.454607  0.000000  1
  Fe  Fe6  1  0.510228  0.055620  0.000000  1
  Fe  Fe7  1  0.545393  0.489772  0.000000  1
  Fe  Fe8  1  0.108626  0.392075  0.500000  1
  Fe  Fe9  1  0.283450  0.891374  0.500000  1
  Fe  Fe10  1  0.607925  0.716550  0.500000  1
  Fe  Fe11  1  0.767694  0.209489  0.500000  1
  Fe  Fe12  1  0.441795  0.232306  0.500000  1
  Fe  Fe13  1  0.790511  0.558205  0.500000  1
  P  P14  1  0.962800  0.217022  0.000000  1
  P  P15  1  0.254222  0.037200  0.000000  1
  P  P16  1  0.782978  0.745778  0.000000  1
  P  P17  1  0.073185  0.623158  0.500000  1
  P  P18  1  0.549973  0.926815  0.500000  1
  P  P19  1  0.376842  0.450027  0.500000  1
  P  P20  1  0.666667  0.333333  0.000000  1
