# generated using pymatgen
data_NdDyTm6(CdPt)2
_symmetry_space_group_name_H-M   'P 1'
_cell_length_a   9.62194975
_cell_length_b   9.61661752
_cell_length_c   9.60343649
_cell_angle_alpha   60.08205608
_cell_angle_beta   60.02692615
_cell_angle_gamma   59.89102193
_symmetry_Int_Tables_number   1
_chemical_formula_structural   NdDyTm6(CdPt)2
_chemical_formula_sum   'Nd2 Dy2 Tm12 Cd4 Pt4'
_cell_volume   628.33978054
_cell_formula_units_Z   2
loop_
 _symmetry_equiv_pos_site_id
 _symmetry_equiv_pos_as_xyz
  1  'x, y, z'
loop_
 _atom_site_type_symbol
 _atom_site_label
 _atom_site_symmetry_multiplicity
 _atom_site_fract_x
 _atom_site_fract_y
 _atom_site_fract_z
 _atom_site_occupancy
  Nd  Nd0  1  0.568176  0.568176  0.931824  1
  Nd  Nd1  1  0.931824  0.931824  0.568176  1
  Dy  Dy2  1  0.561993  0.938007  0.561993  1
  Dy  Dy3  1  0.938007  0.561993  0.938007  1
  Tm  Tm4  1  0.352234  0.352081  0.350713  1
  Tm  Tm5  1  0.352081  0.352234  0.944971  1
  Tm  Tm6  1  0.350713  0.944971  0.352234  1
  Tm  Tm7  1  0.944971  0.350713  0.352081  1
  Tm  Tm8  1  0.810998  0.189002  0.189002  1
  Tm  Tm9  1  0.189002  0.810998  0.810998  1
  Tm  Tm10  1  0.188867  0.811133  0.188867  1
  Tm  Tm11  1  0.811133  0.188867  0.811133  1
  Tm  Tm12  1  0.188981  0.188981  0.811019  1
  Tm  Tm13  1  0.811019  0.811019  0.188981  1
  Tm  Tm14  1  0.940322  0.559678  0.559678  1
  Tm  Tm15  1  0.559678  0.940322  0.940322  1
  Cd  Cd16  1  0.583076  0.582064  0.577908  1
  Cd  Cd17  1  0.582064  0.583076  0.256954  1
  Cd  Cd18  1  0.577908  0.256954  0.583076  1
  Cd  Cd19  1  0.256954  0.577908  0.582064  1
  Pt  Pt20  1  0.144530  0.143804  0.140554  1
  Pt  Pt21  1  0.143804  0.144530  0.571113  1
  Pt  Pt22  1  0.140554  0.571113  0.144530  1
  Pt  Pt23  1  0.571113  0.140554  0.143804  1
