# generated using pymatgen
data_KTa2Br11
_symmetry_space_group_name_H-M   'P 1'
_cell_length_a   7.62081078
_cell_length_b   7.72835820
_cell_length_c   19.03956103
_cell_angle_alpha   79.57429102
_cell_angle_beta   80.00305286
_cell_angle_gamma   88.97617428
_symmetry_Int_Tables_number   1
_chemical_formula_structural   KTa2Br11
_chemical_formula_sum   'K2 Ta4 Br22'
_cell_volume   1085.99675241
_cell_formula_units_Z   2
loop_
 _symmetry_equiv_pos_site_id
 _symmetry_equiv_pos_as_xyz
  1  'x, y, z'
loop_
 _atom_site_type_symbol
 _atom_site_label
 _atom_site_symmetry_multiplicity
 _atom_site_fract_x
 _atom_site_fract_y
 _atom_site_fract_z
 _atom_site_occupancy
  K  K0  1  0.745976  0.755165  0.504889  1
  K  K1  1  0.254024  0.244835  0.495111  1
  Ta  Ta2  1  0.318849  0.820259  0.351779  1
  Ta  Ta3  1  0.681151  0.179741  0.648221  1
  Ta  Ta4  1  0.835844  0.332746  0.085377  1
  Ta  Ta5  1  0.164156  0.667254  0.914623  1
  Br  Br6  1  0.253479  0.786899  0.494695  1
  Br  Br7  1  0.746521  0.213101  0.505305  1
  Br  Br8  1  0.581188  0.015452  0.352385  1
  Br  Br9  1  0.418812  0.984548  0.647615  1
  Br  Br10  1  0.520257  0.553616  0.368031  1
  Br  Br11  1  0.479743  0.446384  0.631969  1
  Br  Br12  1  0.375677  0.847620  0.219556  1
  Br  Br13  1  0.624323  0.152380  0.780444  1
  Br  Br14  1  0.053519  0.612093  0.366490  1
  Br  Br15  1  0.946481  0.387907  0.633510  1
  Br  Br16  1  0.115597  0.081907  0.347350  1
  Br  Br17  1  0.884403  0.918093  0.652650  1
  Br  Br18  1  0.899821  0.039202  0.146437  1
  Br  Br19  1  0.100179  0.960798  0.853563  1
  Br  Br20  1  0.536966  0.382244  0.147503  1
  Br  Br21  1  0.463034  0.617756  0.852497  1
  Br  Br22  1  0.722972  0.220230  0.986854  1
  Br  Br23  1  0.277028  0.779770  0.013146  1
  Br  Br24  1  0.980669  0.479716  0.167036  1
  Br  Br25  1  0.019331  0.520284  0.832964  1
  Br  Br26  1  0.164640  0.343037  0.999523  1
  Br  Br27  1  0.835360  0.656963  0.000477  1
