# generated using pymatgen
data_LaNi9Sb2As3
_symmetry_space_group_name_H-M   'P 1'
_cell_length_a   6.90060500
_cell_length_b   6.90060455
_cell_length_c   11.35392600
_cell_angle_alpha   90.00000000
_cell_angle_beta   90.00000000
_cell_angle_gamma   119.99999737
_symmetry_Int_Tables_number   1
_chemical_formula_structural   LaNi9Sb2As3
_chemical_formula_sum   'La2 Ni18 Sb4 As6'
_cell_volume   468.22113269
_cell_formula_units_Z   2
loop_
 _symmetry_equiv_pos_site_id
 _symmetry_equiv_pos_as_xyz
  1  'x, y, z'
loop_
 _atom_site_type_symbol
 _atom_site_label
 _atom_site_symmetry_multiplicity
 _atom_site_fract_x
 _atom_site_fract_y
 _atom_site_fract_z
 _atom_site_occupancy
  La  La0  1  0.000000  0.000000  0.000000  1
  La  La1  1  0.000000  0.000000  0.500000  1
  Ni  Ni2  1  0.538598  0.461402  0.114767  1
  Ni  Ni3  1  0.077197  0.538598  0.614767  1
  Ni  Ni4  1  0.461402  0.922803  0.614767  1
  Ni  Ni5  1  0.538598  0.077197  0.114767  1
  Ni  Ni6  1  0.922803  0.461402  0.114767  1
  Ni  Ni7  1  0.077197  0.538598  0.885233  1
  Ni  Ni8  1  0.461402  0.922803  0.885233  1
  Ni  Ni9  1  0.461402  0.538598  0.614767  1
  Ni  Ni10  1  0.461402  0.538598  0.885233  1
  Ni  Ni11  1  0.538598  0.461402  0.385233  1
  Ni  Ni12  1  0.922803  0.461402  0.385233  1
  Ni  Ni13  1  0.538598  0.077197  0.385233  1
  Ni  Ni14  1  0.205510  0.794490  0.250000  1
  Ni  Ni15  1  0.411020  0.205510  0.750000  1
  Ni  Ni16  1  0.794490  0.588980  0.750000  1
  Ni  Ni17  1  0.205510  0.411020  0.250000  1
  Ni  Ni18  1  0.588980  0.794490  0.250000  1
  Ni  Ni19  1  0.794490  0.205510  0.750000  1
  Sb  Sb20  1  0.333333  0.666667  0.060862  1
  Sb  Sb21  1  0.666667  0.333333  0.560862  1
  Sb  Sb22  1  0.666667  0.333333  0.939138  1
  Sb  Sb23  1  0.333333  0.666667  0.439138  1
  As  As24  1  0.832883  0.167117  0.250000  1
  As  As25  1  0.665765  0.832883  0.750000  1
  As  As26  1  0.167117  0.334235  0.750000  1
  As  As27  1  0.832883  0.665765  0.250000  1
  As  As28  1  0.334235  0.167117  0.250000  1
  As  As29  1  0.167117  0.832883  0.750000  1
