# generated using pymatgen
data_PuNpReB6
_symmetry_space_group_name_H-M   'P 1'
_cell_length_a   3.62630800
_cell_length_b   9.28890400
_cell_length_c   11.36439400
_cell_angle_alpha   90.00000000
_cell_angle_beta   90.00000000
_cell_angle_gamma   90.00000000
_symmetry_Int_Tables_number   1
_chemical_formula_structural   PuNpReB6
_chemical_formula_sum   'Pu4 Np4 Re4 B24'
_cell_volume   382.80309880
_cell_formula_units_Z   4
loop_
 _symmetry_equiv_pos_site_id
 _symmetry_equiv_pos_as_xyz
  1  'x, y, z'
loop_
 _atom_site_type_symbol
 _atom_site_label
 _atom_site_symmetry_multiplicity
 _atom_site_fract_x
 _atom_site_fract_y
 _atom_site_fract_z
 _atom_site_occupancy
  Pu  Pu0  1  0.000000  0.336162  0.407140  1
  Pu  Pu1  1  0.000000  0.663838  0.592860  1
  Pu  Pu2  1  0.000000  0.836162  0.092860  1
  Pu  Pu3  1  0.000000  0.163838  0.907140  1
  Np  Np4  1  0.000000  0.958480  0.400690  1
  Np  Np5  1  0.000000  0.041520  0.599310  1
  Np  Np6  1  0.000000  0.458480  0.099310  1
  Np  Np7  1  0.000000  0.541520  0.900690  1
  Re  Re8  1  0.000000  0.645878  0.318693  1
  Re  Re9  1  0.000000  0.354122  0.681307  1
  Re  Re10  1  0.000000  0.145878  0.181307  1
  Re  Re11  1  0.000000  0.854122  0.818693  1
  B  B12  1  0.500000  0.552061  0.431349  1
  B  B13  1  0.500000  0.447939  0.568651  1
  B  B14  1  0.500000  0.052061  0.068651  1
  B  B15  1  0.500000  0.947939  0.931349  1
  B  B16  1  0.500000  0.743535  0.423154  1
  B  B17  1  0.500000  0.256465  0.576846  1
  B  B18  1  0.500000  0.243535  0.076846  1
  B  B19  1  0.500000  0.756465  0.923154  1
  B  B20  1  0.500000  0.803868  0.274406  1
  B  B21  1  0.500000  0.196132  0.725594  1
  B  B22  1  0.500000  0.303868  0.225594  1
  B  B23  1  0.500000  0.696132  0.774406  1
  B  B24  1  0.500000  0.643934  0.188252  1
  B  B25  1  0.500000  0.356066  0.811748  1
  B  B26  1  0.500000  0.143934  0.311748  1
  B  B27  1  0.500000  0.856066  0.688252  1
  B  B28  1  0.500000  0.987674  0.220263  1
  B  B29  1  0.500000  0.012326  0.779737  1
  B  B30  1  0.500000  0.487674  0.279737  1
  B  B31  1  0.500000  0.512326  0.720263  1
  B  B32  1  0.500000  0.640239  0.038869  1
  B  B33  1  0.500000  0.359761  0.961131  1
  B  B34  1  0.500000  0.140239  0.461131  1
  B  B35  1  0.500000  0.859761  0.538869  1
