# generated using pymatgen
data_Ta2Ti(FeB)3
_symmetry_space_group_name_H-M   'P 1'
_cell_length_a   5.95413700
_cell_length_b   5.97712907
_cell_length_c   3.14061500
_cell_angle_alpha   90.00000000
_cell_angle_beta   90.00000000
_cell_angle_gamma   119.87285096
_symmetry_Int_Tables_number   1
_chemical_formula_structural   Ta2Ti(FeB)3
_chemical_formula_sum   'Ta2 Ti1 Fe3 B3'
_cell_volume   96.91964169
_cell_formula_units_Z   1
loop_
 _symmetry_equiv_pos_site_id
 _symmetry_equiv_pos_as_xyz
  1  'x, y, z'
loop_
 _atom_site_type_symbol
 _atom_site_label
 _atom_site_symmetry_multiplicity
 _atom_site_fract_x
 _atom_site_fract_y
 _atom_site_fract_z
 _atom_site_occupancy
  Ta  Ta0  1  0.000537  0.412000  0.500000  1
  Ta  Ta1  1  0.588537  0.588000  0.500000  1
  Ti  Ti2  1  0.411692  0.000000  0.500000  1
  Fe  Fe3  1  0.756904  0.000000  0.000000  1
  Fe  Fe4  1  0.002603  0.760583  0.000000  1
  Fe  Fe5  1  0.242020  0.239417  0.000000  1
  B  B6  1  0.334041  0.670550  0.000000  1
  B  B7  1  0.663492  0.329450  0.000000  1
  B  B8  1  0.000172  0.000000  0.500000  1
