# generated using pymatgen
data_Y3TiAl11Ru4
_symmetry_space_group_name_H-M   'P 1'
_cell_length_a   8.85126600
_cell_length_b   8.85126582
_cell_length_c   9.53682200
_cell_angle_alpha   90.00000000
_cell_angle_beta   90.00000000
_cell_angle_gamma   120.00000069
_symmetry_Int_Tables_number   1
_chemical_formula_structural   Y3TiAl11Ru4
_chemical_formula_sum   'Y6 Ti2 Al22 Ru8'
_cell_volume   647.06078670
_cell_formula_units_Z   2
loop_
 _symmetry_equiv_pos_site_id
 _symmetry_equiv_pos_as_xyz
  1  'x, y, z'
loop_
 _atom_site_type_symbol
 _atom_site_label
 _atom_site_symmetry_multiplicity
 _atom_site_fract_x
 _atom_site_fract_y
 _atom_site_fract_z
 _atom_site_occupancy
  Y  Y0  1  0.193560  0.387121  0.251080  1
  Y  Y1  1  0.806440  0.612879  0.748920  1
  Y  Y2  1  0.612879  0.806440  0.251080  1
  Y  Y3  1  0.387121  0.193560  0.748920  1
  Y  Y4  1  0.193560  0.806440  0.251080  1
  Y  Y5  1  0.806440  0.193560  0.748920  1
  Ti  Ti6  1  0.333333  0.666667  0.996315  1
  Ti  Ti7  1  0.666667  0.333333  0.003685  1
  Al  Al8  1  0.666667  0.333333  0.516453  1
  Al  Al9  1  0.333333  0.666667  0.483547  1
  Al  Al10  1  0.161605  0.323211  0.577153  1
  Al  Al11  1  0.838395  0.676789  0.422847  1
  Al  Al12  1  0.676789  0.838395  0.577153  1
  Al  Al13  1  0.840680  0.681358  0.076997  1
  Al  Al14  1  0.323211  0.161605  0.422847  1
  Al  Al15  1  0.159320  0.318642  0.923003  1
  Al  Al16  1  0.161605  0.838395  0.577153  1
  Al  Al17  1  0.318642  0.159320  0.076997  1
  Al  Al18  1  0.838395  0.161605  0.422847  1
  Al  Al19  1  0.681358  0.840680  0.923003  1
  Al  Al20  1  0.840680  0.159320  0.076997  1
  Al  Al21  1  0.159320  0.840680  0.923003  1
  Al  Al22  1  0.560860  0.121721  0.252055  1
  Al  Al23  1  0.439140  0.878279  0.747945  1
  Al  Al24  1  0.878279  0.439140  0.252055  1
  Al  Al25  1  0.121721  0.560860  0.747945  1
  Al  Al26  1  0.560860  0.439140  0.252055  1
  Al  Al27  1  0.439140  0.560860  0.747945  1
  Al  Al28  1  0.000000  0.000000  0.250471  1
  Al  Al29  1  0.000000  0.000000  0.749529  1
  Ru  Ru30  1  0.500000  0.000000  0.000000  1
  Ru  Ru31  1  0.000000  0.500000  0.000000  1
  Ru  Ru32  1  0.500000  0.000000  0.500000  1
  Ru  Ru33  1  0.500000  0.500000  0.000000  1
  Ru  Ru34  1  0.000000  0.500000  0.500000  1
  Ru  Ru35  1  0.500000  0.500000  0.500000  1
  Ru  Ru36  1  0.000000  0.000000  0.000000  1
  Ru  Ru37  1  0.000000  0.000000  0.500000  1
