# generated using pymatgen
data_La3Pr(Lu3Si4)2
_symmetry_space_group_name_H-M   'P 1'
_cell_length_a   7.71915200
_cell_length_b   7.71736363
_cell_length_c   14.18678900
_cell_angle_alpha   90.00000000
_cell_angle_beta   90.00000000
_cell_angle_gamma   90.10766680
_symmetry_Int_Tables_number   1
_chemical_formula_structural   La3Pr(Lu3Si4)2
_chemical_formula_sum   'La6 Pr2 Lu12 Si16'
_cell_volume   845.12684942
_cell_formula_units_Z   2
loop_
 _symmetry_equiv_pos_site_id
 _symmetry_equiv_pos_as_xyz
  1  'x, y, z'
loop_
 _atom_site_type_symbol
 _atom_site_label
 _atom_site_symmetry_multiplicity
 _atom_site_fract_x
 _atom_site_fract_y
 _atom_site_fract_z
 _atom_site_occupancy
  La  La0  1  0.647413  0.993745  0.961524  1
  La  La1  1  0.146296  0.508336  0.788988  1
  La  La2  1  0.853704  0.491664  0.288988  1
  La  La3  1  0.506580  0.146881  0.210352  1
  La  La4  1  0.493420  0.853119  0.710352  1
  La  La5  1  0.352587  0.006255  0.461524  1
  Pr  Pr6  1  0.993822  0.646394  0.039187  1
  Pr  Pr7  1  0.006178  0.353606  0.539187  1
  Lu  Lu8  1  0.357042  0.493704  0.375910  1
  Lu  Lu9  1  0.858055  0.004120  0.374581  1
  Lu  Lu10  1  0.995328  0.141957  0.125266  1
  Lu  Lu11  1  0.004672  0.858043  0.625266  1
  Lu  Lu12  1  0.642958  0.506296  0.875910  1
  Lu  Lu13  1  0.494455  0.357207  0.624058  1
  Lu  Lu14  1  0.505545  0.642793  0.124058  1
  Lu  Lu15  1  0.141945  0.995880  0.874581  1
  Lu  Lu16  1  0.680497  0.678814  0.499832  1
  Lu  Lu17  1  0.820008  0.181259  0.750133  1
  Lu  Lu18  1  0.179992  0.818741  0.250133  1
  Lu  Lu19  1  0.319503  0.321186  0.999832  1
  Si  Si20  1  0.059727  0.709655  0.437266  1
  Si  Si21  1  0.940273  0.290345  0.937266  1
  Si  Si22  1  0.712491  0.061468  0.562722  1
  Si  Si23  1  0.211342  0.440361  0.186879  1
  Si  Si24  1  0.788659  0.559639  0.686879  1
  Si  Si25  1  0.438901  0.212181  0.812616  1
  Si  Si26  1  0.561099  0.787820  0.312616  1
  Si  Si27  1  0.287509  0.938532  0.062722  1
  Si  Si28  1  0.853160  0.795698  0.812226  1
  Si  Si29  1  0.146840  0.204302  0.312226  1
  Si  Si30  1  0.795885  0.852395  0.187807  1
  Si  Si31  1  0.293483  0.645432  0.561951  1
  Si  Si32  1  0.706517  0.354568  0.061951  1
  Si  Si33  1  0.647930  0.294676  0.438701  1
  Si  Si34  1  0.352070  0.705324  0.938701  1
  Si  Si35  1  0.204115  0.147605  0.687807  1
