# generated using pymatgen
data_Hf3Tc2Ir
_symmetry_space_group_name_H-M   'P 1'
_cell_length_a   7.98959000
_cell_length_b   7.98959095
_cell_length_c   5.64965600
_cell_angle_alpha   90.00000000
_cell_angle_beta   90.00000000
_cell_angle_gamma   119.99999608
_symmetry_Int_Tables_number   1
_chemical_formula_structural   Hf3Tc2Ir
_chemical_formula_sum   'Hf9 Tc6 Ir3'
_cell_volume   312.32136349
_cell_formula_units_Z   3
loop_
 _symmetry_equiv_pos_site_id
 _symmetry_equiv_pos_as_xyz
  1  'x, y, z'
loop_
 _atom_site_type_symbol
 _atom_site_label
 _atom_site_symmetry_multiplicity
 _atom_site_fract_x
 _atom_site_fract_y
 _atom_site_fract_z
 _atom_site_occupancy
  Hf  Hf0  1  0.666907  0.000000  0.225444  1
  Hf  Hf1  1  0.333092  0.333093  0.225444  1
  Hf  Hf2  1  0.000000  0.666907  0.225444  1
  Hf  Hf3  1  0.000000  0.000000  0.555420  1
  Hf  Hf4  1  0.666666  0.333333  0.555439  1
  Hf  Hf5  1  0.333334  0.666667  0.555439  1
  Hf  Hf6  1  0.333588  0.000000  0.895406  1
  Hf  Hf7  1  0.000000  0.333588  0.895406  1
  Hf  Hf8  1  0.666412  0.666412  0.895406  1
  Tc  Tc9  1  0.000000  0.000000  0.054930  1
  Tc  Tc10  1  0.666666  0.333333  0.055197  1
  Tc  Tc11  1  0.333334  0.666667  0.055197  1
  Tc  Tc12  1  0.333463  0.000000  0.395746  1
  Tc  Tc13  1  0.000000  0.333463  0.395746  1
  Tc  Tc14  1  0.666538  0.666537  0.395746  1
  Ir  Ir15  1  0.666905  0.000000  0.725481  1
  Ir  Ir16  1  0.333096  0.333096  0.725481  1
  Ir  Ir17  1  0.000000  0.666904  0.725481  1
