# generated using pymatgen
data_LiCaSmNi11As7
_symmetry_space_group_name_H-M   'P 1'
_cell_length_a   3.87402600
_cell_length_b   9.41420349
_cell_length_c   9.44832765
_cell_angle_alpha   120.51764280
_cell_angle_beta   90.00000000
_cell_angle_gamma   90.00000000
_symmetry_Int_Tables_number   1
_chemical_formula_structural   LiCaSmNi11As7
_chemical_formula_sum   'Li1 Ca1 Sm1 Ni11 As7'
_cell_volume   296.85382230
_cell_formula_units_Z   1
loop_
 _symmetry_equiv_pos_site_id
 _symmetry_equiv_pos_as_xyz
  1  'x, y, z'
loop_
 _atom_site_type_symbol
 _atom_site_label
 _atom_site_symmetry_multiplicity
 _atom_site_fract_x
 _atom_site_fract_y
 _atom_site_fract_z
 _atom_site_occupancy
  Li  Li0  1  0.500000  0.106044  0.893566  1
  Ca  Ca1  1  0.500000  0.331521  0.664237  1
  Sm  Sm2  1  0.000000  0.671271  0.338815  1
  Ni  Ni3  1  0.000000  0.876536  0.724704  1
  Ni  Ni4  1  0.000000  0.282508  0.155039  1
  Ni  Ni5  1  0.000000  0.840849  0.126561  1
  Ni  Ni6  1  0.500000  0.950073  0.570106  1
  Ni  Ni7  1  0.500000  0.427813  0.379799  1
  Ni  Ni8  1  0.500000  0.618896  0.044912  1
  Ni  Ni9  1  0.000000  0.380130  0.947191  1
  Ni  Ni10  1  0.000000  0.054475  0.430020  1
  Ni  Ni11  1  0.000000  0.565354  0.618807  1
  Ni  Ni12  1  0.500000  0.095858  0.207109  1
  Ni  Ni13  1  0.500000  0.795833  0.895061  1
  As  As14  1  0.500000  0.708048  0.603303  1
  As  As15  1  0.500000  0.410106  0.112941  1
  As  As16  1  0.500000  0.892001  0.293816  1
  As  As17  1  0.000000  0.997658  0.005852  1
  As  As18  1  0.000000  0.113665  0.702701  1
  As  As19  1  0.000000  0.289824  0.404323  1
  As  As20  1  0.000000  0.591539  0.881141  1
