# generated using pymatgen
data_Ca5Tb4YbSn8
_symmetry_space_group_name_H-M   'P 1'
_cell_length_a   7.89985900
_cell_length_b   8.46846700
_cell_length_c   16.15179700
_cell_angle_alpha   90.00000000
_cell_angle_beta   90.00000000
_cell_angle_gamma   90.00000000
_symmetry_Int_Tables_number   1
_chemical_formula_structural   Ca5Tb4YbSn8
_chemical_formula_sum   'Ca10 Tb8 Yb2 Sn16'
_cell_volume   1080.55029698
_cell_formula_units_Z   2
loop_
 _symmetry_equiv_pos_site_id
 _symmetry_equiv_pos_as_xyz
  1  'x, y, z'
loop_
 _atom_site_type_symbol
 _atom_site_label
 _atom_site_symmetry_multiplicity
 _atom_site_fract_x
 _atom_site_fract_y
 _atom_site_fract_z
 _atom_site_occupancy
  Ca  Ca0  1  0.501993  0.687123  0.593026  1
  Ca  Ca1  1  0.001993  0.812877  0.906974  1
  Ca  Ca2  1  0.497922  0.312868  0.093059  1
  Ca  Ca3  1  0.997922  0.187132  0.406941  1
  Ca  Ca4  1  0.497922  0.312868  0.406941  1
  Ca  Ca5  1  0.997922  0.187132  0.093059  1
  Ca  Ca6  1  0.501993  0.687123  0.906974  1
  Ca  Ca7  1  0.001993  0.812877  0.593026  1
  Ca  Ca8  1  0.832344  0.510729  0.750000  1
  Ca  Ca9  1  0.332344  0.989271  0.750000  1
  Tb  Tb10  1  0.669947  0.167261  0.622089  1
  Tb  Tb11  1  0.169947  0.332739  0.877911  1
  Tb  Tb12  1  0.330202  0.832519  0.122307  1
  Tb  Tb13  1  0.830202  0.667481  0.377693  1
  Tb  Tb14  1  0.330202  0.832519  0.377693  1
  Tb  Tb15  1  0.830202  0.667481  0.122307  1
  Tb  Tb16  1  0.669947  0.167261  0.877911  1
  Tb  Tb17  1  0.169947  0.332739  0.622089  1
  Yb  Yb18  1  0.167644  0.489141  0.250000  1
  Yb  Yb19  1  0.667644  0.010859  0.250000  1
  Sn  Sn20  1  0.671193  0.964199  0.459535  1
  Sn  Sn21  1  0.171193  0.535801  0.040465  1
  Sn  Sn22  1  0.328774  0.035881  0.959803  1
  Sn  Sn23  1  0.828774  0.464119  0.540197  1
  Sn  Sn24  1  0.328774  0.035881  0.540197  1
  Sn  Sn25  1  0.828774  0.464119  0.959803  1
  Sn  Sn26  1  0.671193  0.964199  0.040465  1
  Sn  Sn27  1  0.171193  0.535801  0.459535  1
  Sn  Sn28  1  0.466780  0.376346  0.750000  1
  Sn  Sn29  1  0.966780  0.123654  0.750000  1
  Sn  Sn30  1  0.532890  0.623695  0.250000  1
  Sn  Sn31  1  0.032890  0.876305  0.250000  1
  Sn  Sn32  1  0.712719  0.873358  0.750000  1
  Sn  Sn33  1  0.212719  0.626642  0.750000  1
  Sn  Sn34  1  0.287560  0.126777  0.250000  1
  Sn  Sn35  1  0.787560  0.373223  0.250000  1
