# generated using pymatgen
data_TbSn5SbRu4
_symmetry_space_group_name_H-M   'P 1'
_cell_length_a   6.96334678
_cell_length_b   6.96334679
_cell_length_c   6.96334729
_cell_angle_alpha   120.33254032
_cell_angle_beta   121.14445717
_cell_angle_gamma   88.72705156
_symmetry_Int_Tables_number   1
_chemical_formula_structural   TbSn5SbRu4
_chemical_formula_sum   'Tb1 Sn5 Sb1 Ru4'
_cell_volume   236.00421831
_cell_formula_units_Z   1
loop_
 _symmetry_equiv_pos_site_id
 _symmetry_equiv_pos_as_xyz
  1  'x, y, z'
loop_
 _atom_site_type_symbol
 _atom_site_label
 _atom_site_symmetry_multiplicity
 _atom_site_fract_x
 _atom_site_fract_y
 _atom_site_fract_z
 _atom_site_occupancy
  Tb  Tb0  1  0.000000  0.000000  0.000000  1
  Sn  Sn1  1  0.465657  0.467171  0.347940  1
  Sn  Sn2  1  0.534343  0.882283  0.001514  1
  Sn  Sn3  1  0.880769  0.532829  0.998486  1
  Sn  Sn4  1  0.119231  0.117717  0.652060  1
  Sn  Sn5  1  0.500000  0.000000  0.500000  1
  Sb  Sb6  1  0.000000  0.500000  0.500000  1
  Ru  Ru7  1  0.399932  0.403859  0.650653  1
  Ru  Ru8  1  0.753207  0.749280  0.349347  1
  Ru  Ru9  1  0.246793  0.596141  0.996073  1
  Ru  Ru10  1  0.600068  0.250720  0.003927  1
