# generated using pymatgen
data_Th3SiSe2
_symmetry_space_group_name_H-M   'P 1'
_cell_length_a   7.27633642
_cell_length_b   7.27633658
_cell_length_c   7.27633705
_cell_angle_alpha   145.74539710
_cell_angle_beta   131.81059911
_cell_angle_gamma   60.44789421
_symmetry_Int_Tables_number   1
_chemical_formula_structural   Th3SiSe2
_chemical_formula_sum   'Th3 Si1 Se2'
_cell_volume   160.08309403
_cell_formula_units_Z   1
loop_
 _symmetry_equiv_pos_site_id
 _symmetry_equiv_pos_as_xyz
  1  'x, y, z'
loop_
 _atom_site_type_symbol
 _atom_site_label
 _atom_site_symmetry_multiplicity
 _atom_site_fract_x
 _atom_site_fract_y
 _atom_site_fract_z
 _atom_site_occupancy
  Th  Th0  1  0.000000  0.000000  0.000000  1
  Th  Th1  1  0.659675  0.659675  0.000000  1
  Th  Th2  1  0.340325  0.340325  0.000000  1
  Si  Si3  1  0.500000  0.000000  0.500000  1
  Se  Se4  1  0.167120  0.667120  0.500000  1
  Se  Se5  1  0.832880  0.332880  0.500000  1
