# generated using pymatgen
data_YbHf4Pt15
_symmetry_space_group_name_H-M   'P 1'
_cell_length_a   4.04160000
_cell_length_b   4.04160000
_cell_length_c   20.15719200
_cell_angle_alpha   90.00000000
_cell_angle_beta   90.00000000
_cell_angle_gamma   90.00000000
_symmetry_Int_Tables_number   1
_chemical_formula_structural   YbHf4Pt15
_chemical_formula_sum   'Yb1 Hf4 Pt15'
_cell_volume   329.25826873
_cell_formula_units_Z   1
loop_
 _symmetry_equiv_pos_site_id
 _symmetry_equiv_pos_as_xyz
  1  'x, y, z'
loop_
 _atom_site_type_symbol
 _atom_site_label
 _atom_site_symmetry_multiplicity
 _atom_site_fract_x
 _atom_site_fract_y
 _atom_site_fract_z
 _atom_site_occupancy
  Yb  Yb0  1  0.000000  0.000000  0.000000  1
  Hf  Hf1  1  0.000000  0.000000  0.196861  1
  Hf  Hf2  1  0.000000  0.000000  0.399349  1
  Hf  Hf3  1  0.000000  0.000000  0.600651  1
  Hf  Hf4  1  0.000000  0.000000  0.803139  1
  Pt  Pt5  1  0.500000  0.500000  0.000000  1
  Pt  Pt6  1  0.500000  0.500000  0.202114  1
  Pt  Pt7  1  0.500000  0.500000  0.400541  1
  Pt  Pt8  1  0.500000  0.500000  0.599459  1
  Pt  Pt9  1  0.500000  0.500000  0.797886  1
  Pt  Pt10  1  0.500000  0.000000  0.103043  1
  Pt  Pt11  1  0.500000  0.000000  0.300724  1
  Pt  Pt12  1  0.500000  0.000000  0.500000  1
  Pt  Pt13  1  0.500000  0.000000  0.699276  1
  Pt  Pt14  1  0.500000  0.000000  0.896957  1
  Pt  Pt15  1  0.000000  0.500000  0.103043  1
  Pt  Pt16  1  0.000000  0.500000  0.300724  1
  Pt  Pt17  1  0.000000  0.500000  0.500000  1
  Pt  Pt18  1  0.000000  0.500000  0.699276  1
  Pt  Pt19  1  0.000000  0.500000  0.896957  1
