# generated using pymatgen
data_Ho4In3Au
_symmetry_space_group_name_H-M   'P 1'
_cell_length_a   3.57649200
_cell_length_b   3.57649200
_cell_length_c   15.99965600
_cell_angle_alpha   90.00000000
_cell_angle_beta   90.00000000
_cell_angle_gamma   90.00000000
_symmetry_Int_Tables_number   1
_chemical_formula_structural   Ho4In3Au
_chemical_formula_sum   'Ho4 In3 Au1'
_cell_volume   204.65632021
_cell_formula_units_Z   1
loop_
 _symmetry_equiv_pos_site_id
 _symmetry_equiv_pos_as_xyz
  1  'x, y, z'
loop_
 _atom_site_type_symbol
 _atom_site_label
 _atom_site_symmetry_multiplicity
 _atom_site_fract_x
 _atom_site_fract_y
 _atom_site_fract_z
 _atom_site_occupancy
  Ho  Ho0  1  0.500000  0.500000  0.111131  1
  Ho  Ho1  1  0.500000  0.500000  0.370630  1
  Ho  Ho2  1  0.500000  0.500000  0.629370  1
  Ho  Ho3  1  0.500000  0.500000  0.888869  1
  In  In4  1  0.000000  0.000000  0.242249  1
  In  In5  1  0.000000  0.000000  0.500000  1
  In  In6  1  0.000000  0.000000  0.757751  1
  Au  Au7  1  0.000000  0.000000  0.000000  1
