# generated using pymatgen
data_Y6BeFe4Os7
_symmetry_space_group_name_H-M   'P 1'
_cell_length_a   5.28022575
_cell_length_b   5.24211082
_cell_length_c   13.01389109
_cell_angle_alpha   90.21272009
_cell_angle_beta   89.90492323
_cell_angle_gamma   120.22548818
_symmetry_Int_Tables_number   1
_chemical_formula_structural   Y6BeFe4Os7
_chemical_formula_sum   'Y6 Be1 Fe4 Os7'
_cell_volume   311.24486922
_cell_formula_units_Z   1
loop_
 _symmetry_equiv_pos_site_id
 _symmetry_equiv_pos_as_xyz
  1  'x, y, z'
loop_
 _atom_site_type_symbol
 _atom_site_label
 _atom_site_symmetry_multiplicity
 _atom_site_fract_x
 _atom_site_fract_y
 _atom_site_fract_z
 _atom_site_occupancy
  Y  Y0  1  0.333381  0.667282  0.917040  1
  Y  Y1  1  0.997287  0.998759  0.249972  1
  Y  Y2  1  0.664551  0.335949  0.582685  1
  Y  Y3  1  0.335449  0.664051  0.667315  1
  Y  Y4  1  0.002713  0.001241  0.000028  1
  Y  Y5  1  0.666619  0.332718  0.332960  1
  Be  Be6  1  0.000000  0.000000  0.625000  1
  Fe  Fe7  1  0.500000  0.500000  0.125000  1
  Fe  Fe8  1  0.168735  0.833306  0.459649  1
  Fe  Fe9  1  0.831265  0.166694  0.790351  1
  Fe  Fe10  1  0.500000  0.000000  0.125000  1
  Os  Os11  1  0.163098  0.328724  0.462109  1
  Os  Os12  1  0.836902  0.671276  0.787891  1
  Os  Os13  1  0.333358  0.667508  0.292337  1
  Os  Os14  1  0.666642  0.332492  0.957663  1
  Os  Os15  1  0.000000  0.500000  0.125000  1
  Os  Os16  1  0.676804  0.840901  0.462559  1
  Os  Os17  1  0.323196  0.159099  0.787441  1
