# generated using pymatgen
data_Dy2TcB8Mo
_symmetry_space_group_name_H-M   'P 1'
_cell_length_a   3.61241100
_cell_length_b   5.99939491
_cell_length_c   11.60645670
_cell_angle_alpha   90.09148744
_cell_angle_beta   90.00000000
_cell_angle_gamma   90.00000000
_symmetry_Int_Tables_number   1
_chemical_formula_structural   Dy2TcB8Mo
_chemical_formula_sum   'Dy4 Tc2 B16 Mo2'
_cell_volume   251.53806074
_cell_formula_units_Z   2
loop_
 _symmetry_equiv_pos_site_id
 _symmetry_equiv_pos_as_xyz
  1  'x, y, z'
loop_
 _atom_site_type_symbol
 _atom_site_label
 _atom_site_symmetry_multiplicity
 _atom_site_fract_x
 _atom_site_fract_y
 _atom_site_fract_z
 _atom_site_occupancy
  Dy  Dy0  1  0.000000  0.126928  0.151456  1
  Dy  Dy1  1  0.000000  0.873072  0.848544  1
  Dy  Dy2  1  0.000000  0.627754  0.351056  1
  Dy  Dy3  1  0.000000  0.372246  0.648944  1
  Tc  Tc4  1  0.000000  0.134188  0.413620  1
  Tc  Tc5  1  0.000000  0.865812  0.586380  1
  B  B6  1  0.500000  0.475792  0.194381  1
  B  B7  1  0.500000  0.524208  0.805619  1
  B  B8  1  0.500000  0.977046  0.308624  1
  B  B9  1  0.500000  0.022954  0.691376  1
  B  B10  1  0.500000  0.285097  0.315584  1
  B  B11  1  0.500000  0.714903  0.684416  1
  B  B12  1  0.500000  0.789124  0.186881  1
  B  B13  1  0.500000  0.210876  0.813119  1
  B  B14  1  0.500000  0.363615  0.468988  1
  B  B15  1  0.500000  0.636385  0.531012  1
  B  B16  1  0.500000  0.867262  0.032390  1
  B  B17  1  0.500000  0.132738  0.967610  1
  B  B18  1  0.500000  0.385128  0.047506  1
  B  B19  1  0.500000  0.614872  0.952494  1
  B  B20  1  0.500000  0.887232  0.452943  1
  B  B21  1  0.500000  0.112768  0.547057  1
  Mo  Mo22  1  0.000000  0.629222  0.084674  1
  Mo  Mo23  1  0.000000  0.370778  0.915326  1
