# generated using pymatgen
data_Mg2Zr2Sb4Pd3Pt
_symmetry_space_group_name_H-M   'P 1'
_cell_length_a   6.37919985
_cell_length_b   6.37290056
_cell_length_c   7.83648492
_cell_angle_alpha   66.00747853
_cell_angle_beta   66.13250501
_cell_angle_gamma   90.00000017
_symmetry_Int_Tables_number   1
_chemical_formula_structural   Mg2Zr2Sb4Pd3Pt
_chemical_formula_sum   'Mg2 Zr2 Sb4 Pd3 Pt1'
_cell_volume   260.95603748
_cell_formula_units_Z   1
loop_
 _symmetry_equiv_pos_site_id
 _symmetry_equiv_pos_as_xyz
  1  'x, y, z'
loop_
 _atom_site_type_symbol
 _atom_site_label
 _atom_site_symmetry_multiplicity
 _atom_site_fract_x
 _atom_site_fract_y
 _atom_site_fract_z
 _atom_site_occupancy
  Mg  Mg0  1  0.998518  0.998490  0.001233  1
  Mg  Mg1  1  0.251482  0.749723  0.498767  1
  Zr  Zr2  1  0.499876  0.500444  0.000351  1
  Zr  Zr3  1  0.750124  0.250795  0.499649  1
  Sb  Sb4  1  0.497240  0.999733  0.003756  1
  Sb  Sb5  1  0.752761  0.753489  0.496244  1
  Sb  Sb6  1  0.245073  0.246243  0.506449  1
  Sb  Sb7  1  0.004926  0.502691  0.993553  1
  Pd  Pd8  1  0.125000  0.130818  0.250000  1
  Pd  Pd9  1  0.380457  0.875497  0.749698  1
  Pd  Pd10  1  0.869543  0.375195  0.750303  1
  Pt  Pt11  1  0.625000  0.616884  0.250000  1
