# generated using pymatgen
data_Y3Th11TcRu5
_symmetry_space_group_name_H-M   'P 1'
_cell_length_a   9.81161944
_cell_length_b   9.90319053
_cell_length_c   6.42364507
_cell_angle_alpha   89.97867300
_cell_angle_beta   89.95626277
_cell_angle_gamma   120.22717529
_symmetry_Int_Tables_number   1
_chemical_formula_structural   Y3Th11TcRu5
_chemical_formula_sum   'Y3 Th11 Tc1 Ru5'
_cell_volume   539.29820267
_cell_formula_units_Z   1
loop_
 _symmetry_equiv_pos_site_id
 _symmetry_equiv_pos_as_xyz
  1  'x, y, z'
loop_
 _atom_site_type_symbol
 _atom_site_label
 _atom_site_symmetry_multiplicity
 _atom_site_fract_x
 _atom_site_fract_y
 _atom_site_fract_z
 _atom_site_occupancy
  Y  Y0  1  0.461624  0.536410  0.294834  1
  Y  Y1  1  0.073464  0.536187  0.299373  1
  Y  Y2  1  0.925771  0.461137  0.799017  1
  Th  Th3  1  0.249346  0.126257  0.509935  1
  Th  Th4  1  0.542590  0.082234  0.798122  1
  Th  Th5  1  0.748901  0.873160  0.013269  1
  Th  Th6  1  0.667413  0.334278  0.275526  1
  Th  Th7  1  0.123462  0.870196  0.008382  1
  Th  Th8  1  0.459765  0.918342  0.298741  1
  Th  Th9  1  0.539420  0.463235  0.798336  1
  Th  Th10  1  0.876423  0.129129  0.511355  1
  Th  Th11  1  0.124130  0.251181  0.012311  1
  Th  Th12  1  0.874183  0.749409  0.509667  1
  Th  Th13  1  0.333732  0.665225  0.771548  1
  Tc  Tc14  1  0.811377  0.634352  0.048044  1
  Ru  Ru15  1  0.812897  0.178541  0.047408  1
  Ru  Ru16  1  0.631605  0.818804  0.546801  1
  Ru  Ru17  1  0.369382  0.186128  0.042000  1
  Ru  Ru18  1  0.183615  0.363854  0.554705  1
  Ru  Ru19  1  0.190903  0.821942  0.544621  1
