# generated using pymatgen
data_La2CeSb3
_symmetry_space_group_name_H-M   'P 1'
_cell_length_a   4.61261000
_cell_length_b   4.61260912
_cell_length_c   11.19411700
_cell_angle_alpha   90.00000000
_cell_angle_beta   90.00000000
_cell_angle_gamma   119.99999196
_symmetry_Int_Tables_number   1
_chemical_formula_structural   La2CeSb3
_chemical_formula_sum   'La2 Ce1 Sb3'
_cell_volume   206.25947040
_cell_formula_units_Z   1
loop_
 _symmetry_equiv_pos_site_id
 _symmetry_equiv_pos_as_xyz
  1  'x, y, z'
loop_
 _atom_site_type_symbol
 _atom_site_label
 _atom_site_symmetry_multiplicity
 _atom_site_fract_x
 _atom_site_fract_y
 _atom_site_fract_z
 _atom_site_occupancy
  La  La0  1  0.333333  0.666667  0.667835  1
  La  La1  1  0.666667  0.333333  0.332165  1
  Ce  Ce2  1  0.000000  0.000000  0.000000  1
  Sb  Sb3  1  0.333333  0.666667  0.159715  1
  Sb  Sb4  1  0.666667  0.333333  0.840285  1
  Sb  Sb5  1  0.000000  0.000000  0.500000  1
