# generated using pymatgen
data_LiEr4Al17Pd6
_symmetry_space_group_name_H-M   'P 1'
_cell_length_a   7.60654923
_cell_length_b   7.60654995
_cell_length_c   9.44564800
_cell_angle_alpha   90.00000000
_cell_angle_beta   90.00000000
_cell_angle_gamma   119.34092631
_symmetry_Int_Tables_number   1
_chemical_formula_structural   LiEr4Al17Pd6
_chemical_formula_sum   'Li1 Er4 Al17 Pd6'
_cell_volume   476.41333902
_cell_formula_units_Z   1
loop_
 _symmetry_equiv_pos_site_id
 _symmetry_equiv_pos_as_xyz
  1  'x, y, z'
loop_
 _atom_site_type_symbol
 _atom_site_label
 _atom_site_symmetry_multiplicity
 _atom_site_fract_x
 _atom_site_fract_y
 _atom_site_fract_z
 _atom_site_occupancy
  Li  Li0  1  0.128900  0.128900  0.250000  1
  Er  Er1  1  0.994908  0.664933  0.250000  1
  Er  Er2  1  0.007155  0.329863  0.750000  1
  Er  Er3  1  0.664933  0.994908  0.250000  1
  Er  Er4  1  0.329863  0.007155  0.750000  1
  Al  Al5  1  0.867631  0.867631  0.750000  1
  Al  Al6  1  0.001123  0.328726  0.080904  1
  Al  Al7  1  0.000885  0.664914  0.923610  1
  Al  Al8  1  0.000885  0.664914  0.576390  1
  Al  Al9  1  0.328726  0.001123  0.419096  1
  Al  Al10  1  0.001123  0.328726  0.419096  1
  Al  Al11  1  0.664914  0.000885  0.576390  1
  Al  Al12  1  0.664914  0.000885  0.923610  1
  Al  Al13  1  0.328726  0.001123  0.080904  1
  Al  Al14  1  0.334413  0.334413  0.549030  1
  Al  Al15  1  0.671437  0.671437  0.439017  1
  Al  Al16  1  0.671437  0.671437  0.060983  1
  Al  Al17  1  0.334413  0.334413  0.950970  1
  Al  Al18  1  0.340162  0.542761  0.250000  1
  Al  Al19  1  0.659597  0.451386  0.750000  1
  Al  Al20  1  0.542761  0.340162  0.250000  1
  Al  Al21  1  0.451386  0.659597  0.750000  1
  Pd  Pd22  1  0.675220  0.329497  0.000322  1
  Pd  Pd23  1  0.329497  0.675220  0.000322  1
  Pd  Pd24  1  0.329497  0.675220  0.499678  1
  Pd  Pd25  1  0.675220  0.329497  0.499678  1
  Pd  Pd26  1  0.000138  0.000138  0.994055  1
  Pd  Pd27  1  0.000138  0.000138  0.505945  1
