# generated using pymatgen
data_Li3Er8Sc8Si16Mo
_symmetry_space_group_name_H-M   'P 1'
_cell_length_a   6.88733385
_cell_length_b   7.28765798
_cell_length_c   13.91820948
_cell_angle_alpha   90.07127343
_cell_angle_beta   89.82953602
_cell_angle_gamma   89.58441543
_symmetry_Int_Tables_number   1
_chemical_formula_structural   Li3Er8Sc8Si16Mo
_chemical_formula_sum   'Li3 Er8 Sc8 Si16 Mo1'
_cell_volume   698.56816813
_cell_formula_units_Z   1
loop_
 _symmetry_equiv_pos_site_id
 _symmetry_equiv_pos_as_xyz
  1  'x, y, z'
loop_
 _atom_site_type_symbol
 _atom_site_label
 _atom_site_symmetry_multiplicity
 _atom_site_fract_x
 _atom_site_fract_y
 _atom_site_fract_z
 _atom_site_occupancy
  Li  Li0  1  0.163066  0.499335  0.744996  1
  Li  Li1  1  0.838411  0.495537  0.252116  1
  Li  Li2  1  0.337767  0.006009  0.251680  1
  Er  Er3  1  0.013076  0.180535  0.098709  1
  Er  Er4  1  0.991863  0.820840  0.897393  1
  Er  Er5  1  0.486019  0.676352  0.898802  1
  Er  Er6  1  0.992466  0.825536  0.596589  1
  Er  Er7  1  0.512445  0.319918  0.098190  1
  Er  Er8  1  0.011666  0.180051  0.401111  1
  Er  Er9  1  0.509498  0.318381  0.407761  1
  Er  Er10  1  0.485284  0.672649  0.596652  1
  Sc  Sc11  1  0.661307  0.002945  0.746654  1
  Sc  Sc12  1  0.664950  0.824674  0.377424  1
  Sc  Sc13  1  0.168147  0.680114  0.378241  1
  Sc  Sc14  1  0.667287  0.822818  0.127253  1
  Sc  Sc15  1  0.837836  0.324247  0.623961  1
  Sc  Sc16  1  0.328962  0.180921  0.872702  1
  Sc  Sc17  1  0.830219  0.327572  0.871494  1
  Sc  Sc18  1  0.168598  0.677860  0.126724  1
  Si  Si19  1  0.039591  0.107350  0.743005  1
  Si  Si20  1  0.966812  0.897881  0.250997  1
  Si  Si21  1  0.467339  0.605246  0.252070  1
  Si  Si22  1  0.531163  0.377577  0.745327  1
  Si  Si23  1  0.289855  0.880668  0.745980  1
  Si  Si24  1  0.713258  0.122603  0.250919  1
  Si  Si25  1  0.219522  0.378580  0.251059  1
  Si  Si26  1  0.781370  0.625166  0.746476  1
  Si  Si27  1  0.176386  0.448455  0.535381  1
  Si  Si28  1  0.841112  0.534726  0.466483  1
  Si  Si29  1  0.330358  0.969358  0.475612  1
  Si  Si30  1  0.839797  0.538543  0.035459  1
  Si  Si31  1  0.645494  0.034397  0.544263  1
  Si  Si32  1  0.157843  0.463709  0.964586  1
  Si  Si33  1  0.659779  0.034705  0.960718  1
  Si  Si34  1  0.341709  0.963402  0.034623  1
  Mo  Mo35  1  0.329744  0.181339  0.628584  1
