# generated using pymatgen
data_TbPa(CoB4)2
_symmetry_space_group_name_H-M   'P 1'
_cell_length_a   3.40694700
_cell_length_b   5.91742036
_cell_length_c   11.47511270
_cell_angle_alpha   89.95988097
_cell_angle_beta   90.00000000
_cell_angle_gamma   90.00000000
_symmetry_Int_Tables_number   1
_chemical_formula_structural   TbPa(CoB4)2
_chemical_formula_sum   'Tb2 Pa2 Co4 B16'
_cell_volume   231.34208884
_cell_formula_units_Z   2
loop_
 _symmetry_equiv_pos_site_id
 _symmetry_equiv_pos_as_xyz
  1  'x, y, z'
loop_
 _atom_site_type_symbol
 _atom_site_label
 _atom_site_symmetry_multiplicity
 _atom_site_fract_x
 _atom_site_fract_y
 _atom_site_fract_z
 _atom_site_occupancy
  Tb  Tb0  1  0.500000  0.127696  0.648193  1
  Tb  Tb1  1  0.500000  0.872304  0.351807  1
  Pa  Pa2  1  0.500000  0.372809  0.151512  1
  Pa  Pa3  1  0.500000  0.627191  0.848488  1
  Co  Co4  1  0.500000  0.366336  0.409592  1
  Co  Co5  1  0.500000  0.633664  0.590408  1
  Co  Co6  1  0.500000  0.134397  0.910119  1
  Co  Co7  1  0.500000  0.865603  0.089881  1
  B  B8  1  0.000000  0.111644  0.045954  1
  B  B9  1  0.000000  0.888356  0.954046  1
  B  B10  1  0.000000  0.387453  0.545156  1
  B  B11  1  0.000000  0.612547  0.454844  1
  B  B12  1  0.000000  0.138858  0.466885  1
  B  B13  1  0.000000  0.861142  0.533115  1
  B  B14  1  0.000000  0.361864  0.965792  1
  B  B15  1  0.000000  0.638136  0.034208  1
  B  B16  1  0.000000  0.021377  0.190376  1
  B  B17  1  0.000000  0.978623  0.809624  1
  B  B18  1  0.000000  0.476461  0.688876  1
  B  B19  1  0.000000  0.523539  0.311124  1
  B  B20  1  0.000000  0.217763  0.316033  1
  B  B21  1  0.000000  0.782237  0.683967  1
  B  B22  1  0.000000  0.281844  0.814754  1
  B  B23  1  0.000000  0.718156  0.185246  1
