# generated using pymatgen
data_Ho11Th5Mg2(CdRu2)2
_symmetry_space_group_name_H-M   'P 1'
_cell_length_a   9.67425962
_cell_length_b   9.73823420
_cell_length_c   9.74109672
_cell_angle_alpha   59.79977264
_cell_angle_beta   60.07668036
_cell_angle_gamma   60.15788251
_symmetry_Int_Tables_number   1
_chemical_formula_structural   Ho11Th5Mg2(CdRu2)2
_chemical_formula_sum   'Ho11 Th5 Mg2 Cd2 Ru4'
_cell_volume   649.07394357
_cell_formula_units_Z   1
loop_
 _symmetry_equiv_pos_site_id
 _symmetry_equiv_pos_as_xyz
  1  'x, y, z'
loop_
 _atom_site_type_symbol
 _atom_site_label
 _atom_site_symmetry_multiplicity
 _atom_site_fract_x
 _atom_site_fract_y
 _atom_site_fract_z
 _atom_site_occupancy
  Ho  Ho0  1  0.185046  0.813095  0.813495  1
  Ho  Ho1  1  0.191324  0.807891  0.187206  1
  Ho  Ho2  1  0.812637  0.184710  0.809785  1
  Ho  Ho3  1  0.190724  0.186211  0.809074  1
  Ho  Ho4  1  0.810558  0.807721  0.186480  1
  Ho  Ho5  1  0.931384  0.568213  0.568605  1
  Ho  Ho6  1  0.563528  0.934260  0.936188  1
  Ho  Ho7  1  0.562436  0.934729  0.565162  1
  Ho  Ho8  1  0.935322  0.563771  0.937281  1
  Ho  Ho9  1  0.562229  0.564402  0.937131  1
  Ho  Ho10  1  0.936261  0.935762  0.564455  1
  Th  Th11  1  0.342502  0.348482  0.348517  1
  Th  Th12  1  0.347936  0.347722  0.957820  1
  Th  Th13  1  0.348668  0.956856  0.347985  1
  Th  Th14  1  0.956694  0.351069  0.350369  1
  Th  Th15  1  0.816175  0.182820  0.185360  1
  Mg  Mg16  1  0.578534  0.264232  0.578494  1
  Mg  Mg17  1  0.265667  0.578747  0.575449  1
  Cd  Cd18  1  0.582346  0.581994  0.582930  1
  Cd  Cd19  1  0.580360  0.584194  0.251928  1
  Ru  Ru20  1  0.130478  0.146378  0.146893  1
  Ru  Ru21  1  0.145648  0.141194  0.569562  1
  Ru  Ru22  1  0.146031  0.568046  0.141913  1
  Ru  Ru23  1  0.577511  0.147499  0.147918  1
