# generated using pymatgen
data_Th8Si12IrRh3
_symmetry_space_group_name_H-M   'P 1'
_cell_length_a   8.23400300
_cell_length_b   8.23400295
_cell_length_c   8.44712200
_cell_angle_alpha   90.00000000
_cell_angle_beta   90.00000000
_cell_angle_gamma   119.99999620
_symmetry_Int_Tables_number   1
_chemical_formula_structural   Th8Si12IrRh3
_chemical_formula_sum   'Th8 Si12 Ir1 Rh3'
_cell_volume   495.97690476
_cell_formula_units_Z   1
loop_
 _symmetry_equiv_pos_site_id
 _symmetry_equiv_pos_as_xyz
  1  'x, y, z'
loop_
 _atom_site_type_symbol
 _atom_site_label
 _atom_site_symmetry_multiplicity
 _atom_site_fract_x
 _atom_site_fract_y
 _atom_site_fract_z
 _atom_site_occupancy
  Th  Th0  1  0.000000  0.000000  0.249752  1
  Th  Th1  1  0.000000  0.000000  0.750159  1
  Th  Th2  1  0.499945  0.500055  0.250040  1
  Th  Th3  1  0.499945  0.999892  0.250040  1
  Th  Th4  1  0.000108  0.500055  0.250040  1
  Th  Th5  1  0.498607  0.501393  0.749950  1
  Th  Th6  1  0.498607  0.997213  0.749950  1
  Th  Th7  1  0.002787  0.501393  0.749950  1
  Si  Si8  1  0.165801  0.834199  0.498962  1
  Si  Si9  1  0.165801  0.331604  0.498962  1
  Si  Si10  1  0.668396  0.834199  0.498962  1
  Si  Si11  1  0.833105  0.166895  0.500773  1
  Si  Si12  1  0.833105  0.666211  0.500773  1
  Si  Si13  1  0.333789  0.166895  0.500773  1
  Si  Si14  1  0.833395  0.166605  0.999471  1
  Si  Si15  1  0.833395  0.666789  0.999471  1
  Si  Si16  1  0.333211  0.166605  0.999471  1
  Si  Si17  1  0.166460  0.833540  0.000540  1
  Si  Si18  1  0.166460  0.332921  0.000540  1
  Si  Si19  1  0.667079  0.833540  0.000540  1
  Ir  Ir20  1  0.333333  0.666667  0.499403  1
  Rh  Rh21  1  0.666667  0.333333  0.501246  1
  Rh  Rh22  1  0.666667  0.333333  0.998679  1
  Rh  Rh23  1  0.333333  0.666667  0.001549  1
