# generated using pymatgen
data_TbDy4NbRuO12
_symmetry_space_group_name_H-M   'P 1'
_cell_length_a   6.83400919
_cell_length_b   6.83582757
_cell_length_c   7.50776653
_cell_angle_alpha   73.90548054
_cell_angle_beta   73.90852444
_cell_angle_gamma   50.62490422
_symmetry_Int_Tables_number   1
_chemical_formula_structural   TbDy4NbRuO12
_chemical_formula_sum   'Tb1 Dy4 Nb1 Ru1 O12'
_cell_volume   258.05953135
_cell_formula_units_Z   1
loop_
 _symmetry_equiv_pos_site_id
 _symmetry_equiv_pos_as_xyz
  1  'x, y, z'
loop_
 _atom_site_type_symbol
 _atom_site_label
 _atom_site_symmetry_multiplicity
 _atom_site_fract_x
 _atom_site_fract_y
 _atom_site_fract_z
 _atom_site_occupancy
  Tb  Tb0  1  0.318599  0.305310  0.324631  1
  Dy  Dy1  1  0.694452  0.681350  0.675743  1
  Dy  Dy2  1  0.701717  0.690637  0.138601  1
  Dy  Dy3  1  0.001368  0.998697  0.999797  1
  Dy  Dy4  1  0.309370  0.298271  0.860754  1
  Nb  Nb5  1  0.208133  0.791894  0.500169  1
  Ru  Ru6  1  0.752913  0.247107  0.500223  1
  O  O7  1  0.409203  0.897670  0.924944  1
  O  O8  1  0.580016  0.089989  0.585487  1
  O  O9  1  0.908471  0.421269  0.415465  1
  O  O10  1  0.101658  0.591377  0.073817  1
  O  O11  1  0.991317  0.007681  0.299531  1
  O  O12  1  0.495230  0.504288  0.684752  1
  O  O13  1  0.907406  0.402359  0.925681  1
  O  O14  1  0.100560  0.568209  0.584524  1
  O  O15  1  0.433109  0.897893  0.416491  1
  O  O16  1  0.598142  0.091848  0.073192  1
  O  O17  1  0.495775  0.505292  0.315709  1
  O  O18  1  0.992561  0.008860  0.700488  1
