# generated using pymatgen
data_NaSn9Se10
_symmetry_space_group_name_H-M   'P 1'
_cell_length_a   7.42159362
_cell_length_b   8.49512130
_cell_length_c   9.53062250
_cell_angle_alpha   102.83738804
_cell_angle_beta   97.40042096
_cell_angle_gamma   106.95899440
_symmetry_Int_Tables_number   1
_chemical_formula_structural   NaSn9Se10
_chemical_formula_sum   'Na1 Sn9 Se10'
_cell_volume   548.17526088
_cell_formula_units_Z   1
loop_
 _symmetry_equiv_pos_site_id
 _symmetry_equiv_pos_as_xyz
  1  'x, y, z'
loop_
 _atom_site_type_symbol
 _atom_site_label
 _atom_site_symmetry_multiplicity
 _atom_site_fract_x
 _atom_site_fract_y
 _atom_site_fract_z
 _atom_site_occupancy
  Na  Na0  1  0.000000  0.500000  0.000000  1
  Sn  Sn1  1  0.802356  0.598735  0.599919  1
  Sn  Sn2  1  0.597193  0.200111  0.197153  1
  Sn  Sn3  1  0.402807  0.799889  0.802847  1
  Sn  Sn4  1  0.599204  0.696874  0.197385  1
  Sn  Sn5  1  0.197644  0.401265  0.400081  1
  Sn  Sn6  1  0.400796  0.303126  0.802615  1
  Sn  Sn7  1  0.000000  0.000000  0.000000  1
  Sn  Sn8  1  0.198396  0.897129  0.397462  1
  Sn  Sn9  1  0.801604  0.102871  0.602538  1
  Se  Se10  1  0.697437  0.652976  0.901016  1
  Se  Se11  1  0.499032  0.247884  0.499489  1
  Se  Se12  1  0.697496  0.145681  0.897591  1
  Se  Se13  1  0.302504  0.854319  0.102409  1
  Se  Se14  1  0.500968  0.752116  0.500511  1
  Se  Se15  1  0.098758  0.446218  0.695902  1
  Se  Se16  1  0.302563  0.347024  0.098984  1
  Se  Se17  1  0.901140  0.048566  0.300955  1
  Se  Se18  1  0.098860  0.951434  0.699045  1
  Se  Se19  1  0.901242  0.553782  0.304098  1
