# generated using pymatgen
data_TbSmTa4(B2Ru5)2
_symmetry_space_group_name_H-M   'P 1'
_cell_length_a   9.59158787
_cell_length_b   9.59158871
_cell_length_c   3.09190000
_cell_angle_alpha   90.00000000
_cell_angle_beta   90.00000000
_cell_angle_gamma   90.84031308
_symmetry_Int_Tables_number   1
_chemical_formula_structural   TbSmTa4(B2Ru5)2
_chemical_formula_sum   'Tb1 Sm1 Ta4 B4 Ru10'
_cell_volume   284.41977429
_cell_formula_units_Z   1
loop_
 _symmetry_equiv_pos_site_id
 _symmetry_equiv_pos_as_xyz
  1  'x, y, z'
loop_
 _atom_site_type_symbol
 _atom_site_label
 _atom_site_symmetry_multiplicity
 _atom_site_fract_x
 _atom_site_fract_y
 _atom_site_fract_z
 _atom_site_occupancy
  Tb  Tb0  1  0.176485  0.323515  0.000000  1
  Sm  Sm1  1  0.823870  0.676130  0.000000  1
  Ta  Ta2  1  0.324591  0.824586  0.000000  1
  Ta  Ta3  1  0.675414  0.175409  0.000000  1
  Ta  Ta4  1  0.499210  0.499652  0.000000  1
  Ta  Ta5  1  0.000348  0.000790  0.000000  1
  B  B6  1  0.619188  0.880812  0.000000  1
  B  B7  1  0.379905  0.120095  0.000000  1
  B  B8  1  0.122314  0.621480  0.000000  1
  B  B9  1  0.878520  0.377686  0.000000  1
  Ru  Ru10  1  0.557301  0.724169  0.500000  1
  Ru  Ru11  1  0.441125  0.276396  0.500000  1
  Ru  Ru12  1  0.084061  0.786020  0.500000  1
  Ru  Ru13  1  0.917380  0.214104  0.500000  1
  Ru  Ru14  1  0.285896  0.582620  0.500000  1
  Ru  Ru15  1  0.713980  0.415939  0.500000  1
  Ru  Ru16  1  0.223604  0.058875  0.500000  1
  Ru  Ru17  1  0.775831  0.942699  0.500000  1
  Ru  Ru18  1  0.499686  0.000314  0.500000  1
  Ru  Ru19  1  0.001290  0.498710  0.500000  1
