# generated using pymatgen
data_La5Zn2Os3
_symmetry_space_group_name_H-M   'P 1'
_cell_length_a   8.60680951
_cell_length_b   8.60680894
_cell_length_c   8.60680900
_cell_angle_alpha   109.47121841
_cell_angle_beta   109.47121709
_cell_angle_gamma   109.47122551
_symmetry_Int_Tables_number   1
_chemical_formula_structural   La5Zn2Os3
_chemical_formula_sum   'La10 Zn4 Os6'
_cell_volume   490.80008902
_cell_formula_units_Z   2
loop_
 _symmetry_equiv_pos_site_id
 _symmetry_equiv_pos_as_xyz
  1  'x, y, z'
loop_
 _atom_site_type_symbol
 _atom_site_label
 _atom_site_symmetry_multiplicity
 _atom_site_fract_x
 _atom_site_fract_y
 _atom_site_fract_z
 _atom_site_occupancy
  La  La0  1  0.250000  0.689041  0.439042  1
  La  La1  1  0.750000  0.810959  0.060959  1
  La  La2  1  0.439042  0.250000  0.689041  1
  La  La3  1  0.689041  0.439042  0.250000  1
  La  La4  1  0.060959  0.750000  0.810959  1
  La  La5  1  0.810959  0.060959  0.750000  1
  La  La6  1  0.216769  0.216769  0.216769  1
  La  La7  1  0.500001  0.000000  0.283231  1
  La  La8  1  0.283231  0.500001  0.000000  1
  La  La9  1  0.000000  0.283231  0.500001  1
  Zn  Zn10  1  0.500001  0.000000  0.915094  1
  Zn  Zn11  1  0.584906  0.584906  0.584906  1
  Zn  Zn12  1  0.915094  0.500001  0.000000  1
  Zn  Zn13  1  0.000000  0.915094  0.500001  1
  Os  Os14  1  0.250001  0.124699  0.874699  1
  Os  Os15  1  0.750000  0.375300  0.625300  1
  Os  Os16  1  0.874699  0.250001  0.124699  1
  Os  Os17  1  0.124699  0.874699  0.250001  1
  Os  Os18  1  0.625300  0.750000  0.375300  1
  Os  Os19  1  0.375300  0.625300  0.750000  1
