# generated using pymatgen
data_Ti16Pd7RhO4
_symmetry_space_group_name_H-M   'P 1'
_cell_length_a   8.26862639
_cell_length_b   8.26862642
_cell_length_c   8.26862656
_cell_angle_alpha   60.26249125
_cell_angle_beta   60.26249475
_cell_angle_gamma   60.26248342
_symmetry_Int_Tables_number   1
_chemical_formula_structural   Ti16Pd7RhO4
_chemical_formula_sum   'Ti16 Pd7 Rh1 O4'
_cell_volume   402.12195965
_cell_formula_units_Z   1
loop_
 _symmetry_equiv_pos_site_id
 _symmetry_equiv_pos_as_xyz
  1  'x, y, z'
loop_
 _atom_site_type_symbol
 _atom_site_label
 _atom_site_symmetry_multiplicity
 _atom_site_fract_x
 _atom_site_fract_y
 _atom_site_fract_z
 _atom_site_occupancy
  Ti  Ti0  1  0.120835  0.627445  0.627445  1
  Ti  Ti1  1  0.627445  0.120835  0.627445  1
  Ti  Ti2  1  0.627445  0.627445  0.120835  1
  Ti  Ti3  1  0.624589  0.624589  0.624589  1
  Ti  Ti4  1  0.820149  0.820149  0.177132  1
  Ti  Ti5  1  0.178084  0.178084  0.821676  1
  Ti  Ti6  1  0.820149  0.177132  0.820149  1
  Ti  Ti7  1  0.178084  0.821676  0.178084  1
  Ti  Ti8  1  0.177132  0.820149  0.820149  1
  Ti  Ti9  1  0.821676  0.178084  0.178084  1
  Ti  Ti10  1  0.428654  0.428654  0.071853  1
  Ti  Ti11  1  0.070192  0.070192  0.430053  1
  Ti  Ti12  1  0.428654  0.071853  0.428654  1
  Ti  Ti13  1  0.070192  0.430053  0.070192  1
  Ti  Ti14  1  0.071853  0.428654  0.428654  1
  Ti  Ti15  1  0.430053  0.070192  0.070192  1
  Pd  Pd16  1  0.767331  0.410658  0.410658  1
  Pd  Pd17  1  0.410658  0.767331  0.410658  1
  Pd  Pd18  1  0.410658  0.410658  0.767331  1
  Pd  Pd19  1  0.411896  0.411896  0.411896  1
  Pd  Pd20  1  0.483424  0.838358  0.838358  1
  Pd  Pd21  1  0.838358  0.483424  0.838358  1
  Pd  Pd22  1  0.838358  0.838358  0.483424  1
  Rh  Rh23  1  0.843940  0.843940  0.843940  1
  O  O24  1  0.624384  0.125269  0.125269  1
  O  O25  1  0.125269  0.624384  0.125269  1
  O  O26  1  0.125269  0.125269  0.624384  1
  O  O27  1  0.125268  0.125268  0.125268  1
