# generated using pymatgen
data_Ba6MgMn3NiO15
_symmetry_space_group_name_H-M   'P 1'
_cell_length_a   7.29779170
_cell_length_b   7.29782384
_cell_length_c   7.29780629
_cell_angle_alpha   88.41936706
_cell_angle_beta   88.41931749
_cell_angle_gamma   88.41932356
_symmetry_Int_Tables_number   1
_chemical_formula_structural   Ba6MgMn3NiO15
_chemical_formula_sum   'Ba6 Mg1 Mn3 Ni1 O15'
_cell_volume   388.23086740
_cell_formula_units_Z   1
loop_
 _symmetry_equiv_pos_site_id
 _symmetry_equiv_pos_as_xyz
  1  'x, y, z'
loop_
 _atom_site_type_symbol
 _atom_site_label
 _atom_site_symmetry_multiplicity
 _atom_site_fract_x
 _atom_site_fract_y
 _atom_site_fract_z
 _atom_site_occupancy
  Ba  Ba0  1  0.333268  0.667061  0.999358  1
  Ba  Ba1  1  0.999360  0.333267  0.667060  1
  Ba  Ba2  1  0.667058  0.999360  0.333268  1
  Ba  Ba3  1  0.145686  0.853811  0.502399  1
  Ba  Ba4  1  0.502398  0.145687  0.853811  1
  Ba  Ba5  1  0.853811  0.502399  0.145684  1
  Mg  Mg6  1  0.501118  0.501115  0.501117  1
  Mn  Mn7  1  0.295723  0.295727  0.295725  1
  Mn  Mn8  1  0.706459  0.706455  0.706451  1
  Mn  Mn9  1  0.094920  0.094920  0.094921  1
  Ni  Ni10  1  0.903753  0.903757  0.903759  1
  O  O11  1  0.141100  0.998453  0.853468  1
  O  O12  1  0.853465  0.141103  0.998455  1
  O  O13  1  0.998451  0.853466  0.141105  1
  O  O14  1  0.034542  0.193992  0.331582  1
  O  O15  1  0.331579  0.034544  0.193992  1
  O  O16  1  0.193990  0.331580  0.034544  1
  O  O17  1  0.806864  0.963520  0.670779  1
  O  O18  1  0.670777  0.806866  0.963519  1
  O  O19  1  0.963519  0.670779  0.806865  1
  O  O20  1  0.371184  0.234398  0.532834  1
  O  O21  1  0.532838  0.371182  0.234399  1
  O  O22  1  0.234400  0.532836  0.371183  1
  O  O23  1  0.766313  0.629535  0.467880  1
  O  O24  1  0.467886  0.766307  0.629534  1
  O  O25  1  0.629540  0.467884  0.766306  1
