# generated using pymatgen
data_Ho8CdGaPd23
_symmetry_space_group_name_H-M   'P 1'
_cell_length_a   8.40208000
_cell_length_b   8.39430900
_cell_length_c   8.30064400
_cell_angle_alpha   90.00000000
_cell_angle_beta   90.00000000
_cell_angle_gamma   90.00000000
_symmetry_Int_Tables_number   1
_chemical_formula_structural   Ho8CdGaPd23
_chemical_formula_sum   'Ho8 Cd1 Ga1 Pd23'
_cell_volume   585.44156393
_cell_formula_units_Z   1
loop_
 _symmetry_equiv_pos_site_id
 _symmetry_equiv_pos_as_xyz
  1  'x, y, z'
loop_
 _atom_site_type_symbol
 _atom_site_label
 _atom_site_symmetry_multiplicity
 _atom_site_fract_x
 _atom_site_fract_y
 _atom_site_fract_z
 _atom_site_occupancy
  Ho  Ho0  1  0.263292  0.243075  0.748420  1
  Ho  Ho1  1  0.251878  0.746276  0.252514  1
  Ho  Ho2  1  0.748122  0.253724  0.252514  1
  Ho  Ho3  1  0.736708  0.756925  0.748420  1
  Ho  Ho4  1  0.748122  0.746276  0.252514  1
  Ho  Ho5  1  0.736708  0.243075  0.748420  1
  Ho  Ho6  1  0.263292  0.756925  0.748420  1
  Ho  Ho7  1  0.251878  0.253724  0.252514  1
  Cd  Cd8  1  0.000000  0.500000  0.735217  1
  Ga  Ga9  1  0.000000  0.000000  0.000746  1
  Pd  Pd10  1  0.500000  0.500000  0.747663  1
  Pd  Pd11  1  0.500000  0.253432  0.498038  1
  Pd  Pd12  1  0.255880  0.500000  0.502877  1
  Pd  Pd13  1  0.500000  0.500000  0.252087  1
  Pd  Pd14  1  0.500000  0.746568  0.498038  1
  Pd  Pd15  1  0.744120  0.500000  0.502877  1
  Pd  Pd16  1  0.000000  0.000000  0.708383  1
  Pd  Pd17  1  0.000000  0.289916  0.995022  1
  Pd  Pd18  1  0.289713  0.000000  0.003152  1
  Pd  Pd19  1  0.000000  0.000000  0.292797  1
  Pd  Pd20  1  0.000000  0.710084  0.995022  1
  Pd  Pd21  1  0.710287  0.000000  0.003152  1
  Pd  Pd22  1  0.500000  0.259422  0.002464  1
  Pd  Pd23  1  0.261130  0.000000  0.498454  1
  Pd  Pd24  1  0.000000  0.259810  0.502814  1
  Pd  Pd25  1  0.500000  0.000000  0.741348  1
  Pd  Pd26  1  0.260486  0.500000  0.996759  1
  Pd  Pd27  1  0.000000  0.500000  0.258792  1
  Pd  Pd28  1  0.500000  0.740578  0.002464  1
  Pd  Pd29  1  0.000000  0.740190  0.502814  1
  Pd  Pd30  1  0.500000  0.000000  0.260069  1
  Pd  Pd31  1  0.738870  0.000000  0.498454  1
  Pd  Pd32  1  0.739514  0.500000  0.996759  1
