# generated using pymatgen
data_LiTbY3Co19P12
_symmetry_space_group_name_H-M   'P 1'
_cell_length_a   3.66194600
_cell_length_b   10.27143851
_cell_length_c   11.79502757
_cell_angle_alpha   90.09097596
_cell_angle_beta   90.00000000
_cell_angle_gamma   90.00000000
_symmetry_Int_Tables_number   1
_chemical_formula_structural   LiTbY3Co19P12
_chemical_formula_sum   'Li1 Tb1 Y3 Co19 P12'
_cell_volume   443.65115780
_cell_formula_units_Z   1
loop_
 _symmetry_equiv_pos_site_id
 _symmetry_equiv_pos_as_xyz
  1  'x, y, z'
loop_
 _atom_site_type_symbol
 _atom_site_label
 _atom_site_symmetry_multiplicity
 _atom_site_fract_x
 _atom_site_fract_y
 _atom_site_fract_z
 _atom_site_occupancy
  Li  Li0  1  0.250000  0.796478  0.490556  1
  Tb  Tb1  1  0.750000  0.082283  0.797924  1
  Y  Y2  1  0.250000  0.918036  0.201533  1
  Y  Y3  1  0.750000  0.418626  0.296893  1
  Y  Y4  1  0.250000  0.581199  0.703233  1
  Co  Co5  1  0.750000  0.210982  0.510356  1
  Co  Co6  1  0.750000  0.284262  0.007711  1
  Co  Co7  1  0.250000  0.715473  0.992033  1
  Co  Co8  1  0.250000  0.093952  0.988394  1
  Co  Co9  1  0.750000  0.906770  0.013107  1
  Co  Co10  1  0.750000  0.591273  0.512493  1
  Co  Co11  1  0.250000  0.403838  0.487642  1
  Co  Co12  1  0.250000  0.277131  0.675800  1
  Co  Co13  1  0.750000  0.720160  0.321477  1
  Co  Co14  1  0.750000  0.779411  0.827669  1
  Co  Co15  1  0.250000  0.221719  0.175558  1
  Co  Co16  1  0.250000  0.616303  0.197021  1
  Co  Co17  1  0.750000  0.381927  0.800676  1
  Co  Co18  1  0.750000  0.119659  0.301126  1
  Co  Co19  1  0.250000  0.880831  0.700039  1
  Co  Co20  1  0.250000  0.034905  0.432156  1
  Co  Co21  1  0.750000  0.966590  0.566980  1
  Co  Co22  1  0.750000  0.531694  0.066752  1
  Co  Co23  1  0.250000  0.467222  0.931533  1
  P  P24  1  0.250000  0.078630  0.612333  1
  P  P25  1  0.750000  0.921479  0.384418  1
  P  P26  1  0.750000  0.580789  0.887983  1
  P  P27  1  0.250000  0.418916  0.111257  1
  P  P28  1  0.250000  0.230494  0.368136  1
  P  P29  1  0.750000  0.770583  0.637295  1
  P  P30  1  0.750000  0.728270  0.130471  1
  P  P31  1  0.250000  0.270714  0.869239  1
  P  P32  1  0.250000  0.898172  0.893541  1
  P  P33  1  0.750000  0.102872  0.108206  1
  P  P34  1  0.750000  0.396654  0.607373  1
  P  P35  1  0.250000  0.601699  0.391087  1
