# generated using pymatgen
data_SrCa2(H6Ir)2
_symmetry_space_group_name_H-M   'P 1'
_cell_length_a   5.02922900
_cell_length_b   5.02923005
_cell_length_c   8.32919500
_cell_angle_alpha   90.00000000
_cell_angle_beta   90.00000000
_cell_angle_gamma   119.99999967
_symmetry_Int_Tables_number   1
_chemical_formula_structural   SrCa2(H6Ir)2
_chemical_formula_sum   'Sr1 Ca2 H12 Ir2'
_cell_volume   182.44693671
_cell_formula_units_Z   1
loop_
 _symmetry_equiv_pos_site_id
 _symmetry_equiv_pos_as_xyz
  1  'x, y, z'
loop_
 _atom_site_type_symbol
 _atom_site_label
 _atom_site_symmetry_multiplicity
 _atom_site_fract_x
 _atom_site_fract_y
 _atom_site_fract_z
 _atom_site_occupancy
  Sr  Sr0  1  0.000000  0.000000  0.000000  1
  Ca  Ca1  1  0.666667  0.333333  0.366181  1
  Ca  Ca2  1  0.333333  0.666667  0.633819  1
  H  H3  1  0.173539  0.826461  0.372789  1
  H  H4  1  0.652921  0.826461  0.372789  1
  H  H5  1  0.173539  0.347079  0.372789  1
  H  H6  1  0.826461  0.173539  0.627211  1
  H  H7  1  0.347079  0.173539  0.627211  1
  H  H8  1  0.826461  0.652921  0.627211  1
  H  H9  1  0.510977  0.021955  0.860094  1
  H  H10  1  0.510977  0.489023  0.860094  1
  H  H11  1  0.978045  0.489023  0.860094  1
  H  H12  1  0.489023  0.978045  0.139906  1
  H  H13  1  0.489023  0.510977  0.139906  1
  H  H14  1  0.021955  0.510977  0.139906  1
  Ir  Ir15  1  0.666667  0.333333  0.740723  1
  Ir  Ir16  1  0.333333  0.666667  0.259277  1
