# generated using pymatgen
data_LaEr2Ir2Rh7
_symmetry_space_group_name_H-M   'P 1'
_cell_length_a   5.30774900
_cell_length_b   5.30246683
_cell_length_c   17.50707100
_cell_angle_alpha   90.00000000
_cell_angle_beta   90.00000000
_cell_angle_gamma   120.03293987
_symmetry_Int_Tables_number   1
_chemical_formula_structural   LaEr2Ir2Rh7
_chemical_formula_sum   'La2 Er4 Ir4 Rh14'
_cell_volume   426.56794218
_cell_formula_units_Z   2
loop_
 _symmetry_equiv_pos_site_id
 _symmetry_equiv_pos_as_xyz
  1  'x, y, z'
loop_
 _atom_site_type_symbol
 _atom_site_label
 _atom_site_symmetry_multiplicity
 _atom_site_fract_x
 _atom_site_fract_y
 _atom_site_fract_z
 _atom_site_occupancy
  La  La0  1  0.333458  0.666916  0.749912  1
  La  La1  1  0.666542  0.333084  0.249912  1
  Er  Er2  1  0.332793  0.665588  0.540880  1
  Er  Er3  1  0.667207  0.334412  0.040880  1
  Er  Er4  1  0.666844  0.333687  0.459356  1
  Er  Er5  1  0.333156  0.666313  0.959356  1
  Ir  Ir6  1  0.166819  0.333638  0.123877  1
  Ir  Ir7  1  0.833181  0.666362  0.623877  1
  Ir  Ir8  1  0.001448  0.002896  0.999870  1
  Ir  Ir9  1  0.998552  0.997104  0.499870  1
  Rh  Rh10  1  0.664158  0.830801  0.123602  1
  Rh  Rh11  1  0.166642  0.830801  0.123602  1
  Rh  Rh12  1  0.833358  0.169199  0.623602  1
  Rh  Rh13  1  0.335842  0.169199  0.623602  1
  Rh  Rh14  1  0.832524  0.665048  0.876732  1
  Rh  Rh15  1  0.832802  0.167971  0.876265  1
  Rh  Rh16  1  0.335170  0.167971  0.876265  1
  Rh  Rh17  1  0.664830  0.832029  0.376265  1
  Rh  Rh18  1  0.167198  0.832029  0.376265  1
  Rh  Rh19  1  0.167476  0.334952  0.376732  1
  Rh  Rh20  1  0.001517  0.003034  0.249870  1
  Rh  Rh21  1  0.998483  0.996966  0.749870  1
  Rh  Rh22  1  0.332876  0.665753  0.249770  1
  Rh  Rh23  1  0.667124  0.334247  0.749770  1
