# generated using pymatgen
data_Nd6Hg9Pb
_symmetry_space_group_name_H-M   'P 1'
_cell_length_a   6.52093093
_cell_length_b   6.52093237
_cell_length_c   10.70494075
_cell_angle_alpha   88.87603310
_cell_angle_beta   88.87603569
_cell_angle_gamma   104.63134059
_symmetry_Int_Tables_number   1
_chemical_formula_structural   Nd6Hg9Pb
_chemical_formula_sum   'Nd6 Hg9 Pb1'
_cell_volume   440.21291061
_cell_formula_units_Z   1
loop_
 _symmetry_equiv_pos_site_id
 _symmetry_equiv_pos_as_xyz
  1  'x, y, z'
loop_
 _atom_site_type_symbol
 _atom_site_label
 _atom_site_symmetry_multiplicity
 _atom_site_fract_x
 _atom_site_fract_y
 _atom_site_fract_z
 _atom_site_occupancy
  Nd  Nd0  1  0.600419  0.600419  0.255209  1
  Nd  Nd1  1  0.404489  0.404489  0.741912  1
  Nd  Nd2  1  0.204632  0.795538  0.499745  1
  Nd  Nd3  1  0.198738  0.791210  0.996688  1
  Nd  Nd4  1  0.795538  0.204632  0.499745  1
  Nd  Nd5  1  0.791210  0.198738  0.996688  1
  Hg  Hg6  1  0.993012  0.993011  0.253193  1
  Hg  Hg7  1  0.004860  0.004859  0.745292  1
  Hg  Hg8  1  0.697154  0.697154  0.964330  1
  Hg  Hg9  1  0.302867  0.302867  0.466310  1
  Hg  Hg10  1  0.701668  0.701668  0.533703  1
  Hg  Hg11  1  0.485456  0.052056  0.254651  1
  Hg  Hg12  1  0.945010  0.514616  0.749540  1
  Hg  Hg13  1  0.514616  0.945010  0.749540  1
  Hg  Hg14  1  0.052056  0.485456  0.254651  1
  Pb  Pb15  1  0.308277  0.308277  0.038803  1
