# generated using pymatgen
data_Li4Pr2YPb4
_symmetry_space_group_name_H-M   'P 1'
_cell_length_a   4.81379221
_cell_length_b   7.13334501
_cell_length_c   8.94314621
_cell_angle_alpha   113.50419604
_cell_angle_beta   105.61268169
_cell_angle_gamma   90.00001338
_symmetry_Int_Tables_number   1
_chemical_formula_structural   Li4Pr2YPb4
_chemical_formula_sum   'Li4 Pr2 Y1 Pb4'
_cell_volume   269.21329804
_cell_formula_units_Z   1
loop_
 _symmetry_equiv_pos_site_id
 _symmetry_equiv_pos_as_xyz
  1  'x, y, z'
loop_
 _atom_site_type_symbol
 _atom_site_label
 _atom_site_symmetry_multiplicity
 _atom_site_fract_x
 _atom_site_fract_y
 _atom_site_fract_z
 _atom_site_occupancy
  Li  Li0  1  0.672319  0.981834  0.344637  1
  Li  Li1  1  0.327681  0.018166  0.655363  1
  Li  Li2  1  0.327681  0.637197  0.655363  1
  Li  Li3  1  0.672319  0.362803  0.344637  1
  Pr  Pr4  1  0.129492  0.629492  0.258984  1
  Pr  Pr5  1  0.870508  0.370508  0.741016  1
  Y  Y6  1  0.000000  0.000000  0.000000  1
  Pb  Pb7  1  0.500000  0.711589  0.000000  1
  Pb  Pb8  1  0.500000  0.288411  0.000000  1
  Pb  Pb9  1  0.789651  0.789651  0.579302  1
  Pb  Pb10  1  0.210349  0.210349  0.420698  1
