# generated using pymatgen
data_La2Tb2Dy2IrBr10
_symmetry_space_group_name_H-M   'P 1'
_cell_length_a   7.50613872
_cell_length_b   9.44072538
_cell_length_c   9.42689211
_cell_angle_alpha   109.56409100
_cell_angle_beta   96.78504072
_cell_angle_gamma   104.15122135
_symmetry_Int_Tables_number   1
_chemical_formula_structural   La2Tb2Dy2IrBr10
_chemical_formula_sum   'La2 Tb2 Dy2 Ir1 Br10'
_cell_volume   595.54939050
_cell_formula_units_Z   1
loop_
 _symmetry_equiv_pos_site_id
 _symmetry_equiv_pos_as_xyz
  1  'x, y, z'
loop_
 _atom_site_type_symbol
 _atom_site_label
 _atom_site_symmetry_multiplicity
 _atom_site_fract_x
 _atom_site_fract_y
 _atom_site_fract_z
 _atom_site_occupancy
  La  La0  1  0.969666  0.296701  0.098997  1
  La  La1  1  0.030334  0.703299  0.901003  1
  Tb  Tb2  1  0.124801  0.043311  0.749320  1
  Tb  Tb3  1  0.875199  0.956689  0.250680  1
  Dy  Dy4  1  0.638972  0.868505  0.816762  1
  Dy  Dy5  1  0.361028  0.131495  0.183238  1
  Ir  Ir6  1  0.000000  0.000000  0.000000  1
  Br  Br7  1  0.538207  0.169777  0.917168  1
  Br  Br8  1  0.461793  0.830223  0.082832  1
  Br  Br9  1  0.752343  0.916476  0.543941  1
  Br  Br10  1  0.247657  0.083524  0.456059  1
  Br  Br11  1  0.093773  0.360032  0.821665  1
  Br  Br12  1  0.906227  0.639968  0.178335  1
  Br  Br13  1  0.226067  0.752578  0.642896  1
  Br  Br14  1  0.773933  0.247422  0.357104  1
  Br  Br15  1  0.629258  0.553617  0.725512  1
  Br  Br16  1  0.370742  0.446383  0.274488  1
