# generated using pymatgen
data_Dy2Lu8Bi5Au
_symmetry_space_group_name_H-M   'P 1'
_cell_length_a   8.08711600
_cell_length_b   9.34429400
_cell_length_c   11.90882000
_cell_angle_alpha   90.00000000
_cell_angle_beta   90.00000000
_cell_angle_gamma   90.00000000
_symmetry_Int_Tables_number   1
_chemical_formula_structural   Dy2Lu8Bi5Au
_chemical_formula_sum   'Dy4 Lu16 Bi10 Au2'
_cell_volume   899.93034844
_cell_formula_units_Z   2
loop_
 _symmetry_equiv_pos_site_id
 _symmetry_equiv_pos_as_xyz
  1  'x, y, z'
loop_
 _atom_site_type_symbol
 _atom_site_label
 _atom_site_symmetry_multiplicity
 _atom_site_fract_x
 _atom_site_fract_y
 _atom_site_fract_z
 _atom_site_occupancy
  Dy  Dy0  1  0.311225  0.250000  0.217290  1
  Dy  Dy1  1  0.811225  0.250000  0.282710  1
  Dy  Dy2  1  0.674943  0.750000  0.791482  1
  Dy  Dy3  1  0.174943  0.750000  0.708518  1
  Lu  Lu4  1  0.349592  0.750000  0.202886  1
  Lu  Lu5  1  0.849592  0.750000  0.297114  1
  Lu  Lu6  1  0.656635  0.250000  0.780491  1
  Lu  Lu7  1  0.156635  0.250000  0.719509  1
  Lu  Lu8  1  0.683562  0.572289  0.059448  1
  Lu  Lu9  1  0.183562  0.927711  0.440552  1
  Lu  Lu10  1  0.311853  0.045406  0.940334  1
  Lu  Lu11  1  0.811853  0.454594  0.559666  1
  Lu  Lu12  1  0.311853  0.454594  0.940334  1
  Lu  Lu13  1  0.811853  0.045406  0.559666  1
  Lu  Lu14  1  0.683562  0.927711  0.059448  1
  Lu  Lu15  1  0.183562  0.572289  0.440552  1
  Lu  Lu16  1  0.484488  0.250000  0.492104  1
  Lu  Lu17  1  0.984488  0.250000  0.007896  1
  Lu  Lu18  1  0.539751  0.750000  0.508444  1
  Lu  Lu19  1  0.039751  0.750000  0.991556  1
  Bi  Bi20  1  0.597856  0.250000  0.037909  1
  Bi  Bi21  1  0.097856  0.250000  0.462091  1
  Bi  Bi22  1  0.554578  0.996252  0.324019  1
  Bi  Bi23  1  0.054578  0.503748  0.175981  1
  Bi  Bi24  1  0.439271  0.496129  0.675548  1
  Bi  Bi25  1  0.939271  0.003871  0.824452  1
  Bi  Bi26  1  0.439271  0.003871  0.675548  1
  Bi  Bi27  1  0.939271  0.496129  0.824452  1
  Bi  Bi28  1  0.554578  0.503748  0.324019  1
  Bi  Bi29  1  0.054578  0.996252  0.175981  1
  Au  Au30  1  0.406982  0.750000  0.968588  1
  Au  Au31  1  0.906982  0.750000  0.531412  1
