# generated using pymatgen
data_Ho13Th3Mg2(Ni2Hg)2
_symmetry_space_group_name_H-M   'P 1'
_cell_length_a   9.55874126
_cell_length_b   9.57739828
_cell_length_c   9.56029606
_cell_angle_alpha   59.90296379
_cell_angle_beta   59.84409112
_cell_angle_gamma   59.97896547
_symmetry_Int_Tables_number   1
_chemical_formula_structural   Ho13Th3Mg2(Ni2Hg)2
_chemical_formula_sum   'Ho13 Th3 Mg2 Ni4 Hg2'
_cell_volume   617.59345546
_cell_formula_units_Z   1
loop_
 _symmetry_equiv_pos_site_id
 _symmetry_equiv_pos_as_xyz
  1  'x, y, z'
loop_
 _atom_site_type_symbol
 _atom_site_label
 _atom_site_symmetry_multiplicity
 _atom_site_fract_x
 _atom_site_fract_y
 _atom_site_fract_z
 _atom_site_occupancy
  Ho  Ho0  1  0.949416  0.351933  0.350671  1
  Ho  Ho1  1  0.811907  0.189052  0.188850  1
  Ho  Ho2  1  0.186990  0.812305  0.813088  1
  Ho  Ho3  1  0.188370  0.811414  0.188946  1
  Ho  Ho4  1  0.812234  0.187608  0.811953  1
  Ho  Ho5  1  0.188435  0.187670  0.812411  1
  Ho  Ho6  1  0.811218  0.810411  0.189394  1
  Ho  Ho7  1  0.935356  0.566359  0.567472  1
  Ho  Ho8  1  0.563353  0.934589  0.934580  1
  Ho  Ho9  1  0.565427  0.935929  0.566603  1
  Ho  Ho10  1  0.933827  0.565127  0.933850  1
  Ho  Ho11  1  0.563416  0.566172  0.936317  1
  Ho  Ho12  1  0.934317  0.931279  0.566851  1
  Th  Th13  1  0.341261  0.345616  0.349065  1
  Th  Th14  1  0.340656  0.346586  0.961512  1
  Th  Th15  1  0.343774  0.953698  0.350912  1
  Mg  Mg16  1  0.583275  0.269993  0.572401  1
  Mg  Mg17  1  0.268175  0.580175  0.574788  1
  Ni  Ni18  1  0.146887  0.139156  0.140639  1
  Ni  Ni19  1  0.144318  0.139780  0.572752  1
  Ni  Ni20  1  0.144897  0.571318  0.141866  1
  Ni  Ni21  1  0.567700  0.140581  0.145162  1
  Hg  Hg22  1  0.588083  0.581919  0.586499  1
  Hg  Hg23  1  0.586712  0.581333  0.243415  1
