# generated using pymatgen
data_SrSm3(Ga5Pt3)2
_symmetry_space_group_name_H-M   'P 1'
_cell_length_a   8.66532905
_cell_length_b   8.66432317
_cell_length_c   8.66432365
_cell_angle_alpha   139.59956704
_cell_angle_beta   106.94528336
_cell_angle_gamma   86.96078330
_symmetry_Int_Tables_number   1
_chemical_formula_structural   SrSm3(Ga5Pt3)2
_chemical_formula_sum   'Sr1 Sm3 Ga10 Pt6'
_cell_volume   388.04674013
_cell_formula_units_Z   1
loop_
 _symmetry_equiv_pos_site_id
 _symmetry_equiv_pos_as_xyz
  1  'x, y, z'
loop_
 _atom_site_type_symbol
 _atom_site_label
 _atom_site_symmetry_multiplicity
 _atom_site_fract_x
 _atom_site_fract_y
 _atom_site_fract_z
 _atom_site_occupancy
  Sr  Sr0  1  0.637271  0.368089  0.269182  1
  Sm  Sm1  1  0.363525  0.634756  0.728769  1
  Sm  Sm2  1  0.093435  0.865416  0.228018  1
  Sm  Sm3  1  0.904788  0.132650  0.772139  1
  Ga  Ga4  1  0.279369  0.532515  0.248889  1
  Ga  Ga5  1  0.718934  0.469918  0.752370  1
  Ga  Ga6  1  0.718934  0.966564  0.249016  1
  Ga  Ga7  1  0.279369  0.030480  0.746854  1
  Ga  Ga8  1  0.440169  0.100232  0.339937  1
  Ga  Ga9  1  0.555645  0.898154  0.657490  1
  Ga  Ga10  1  0.762114  0.604315  0.157800  1
  Ga  Ga11  1  0.241389  0.399508  0.841880  1
  Ga  Ga12  1  0.002195  0.250565  0.254693  1
  Ga  Ga13  1  0.002195  0.747501  0.751629  1
  Pt  Pt14  1  0.246107  0.141335  0.104773  1
  Pt  Pt15  1  0.754513  0.859752  0.894760  1
  Pt  Pt16  1  0.034745  0.640701  0.394044  1
  Pt  Pt17  1  0.965426  0.355696  0.609730  1
  Pt  Pt18  1  0.499940  0.250406  0.748493  1
  Pt  Pt19  1  0.499940  0.751447  0.249534  1
