# generated using pymatgen
data_DyGe(AsRh2)3
_symmetry_space_group_name_H-M   'P 1'
_cell_length_a   7.27281700
_cell_length_b   7.27281737
_cell_length_c   3.82455000
_cell_angle_alpha   90.00000000
_cell_angle_beta   90.00000000
_cell_angle_gamma   119.99999375
_symmetry_Int_Tables_number   1
_chemical_formula_structural   DyGe(AsRh2)3
_chemical_formula_sum   'Dy1 Ge1 As3 Rh6'
_cell_volume   175.19283650
_cell_formula_units_Z   1
loop_
 _symmetry_equiv_pos_site_id
 _symmetry_equiv_pos_as_xyz
  1  'x, y, z'
loop_
 _atom_site_type_symbol
 _atom_site_label
 _atom_site_symmetry_multiplicity
 _atom_site_fract_x
 _atom_site_fract_y
 _atom_site_fract_z
 _atom_site_occupancy
  Dy  Dy0  1  0.000000  0.000000  0.000000  1
  Ge  Ge1  1  0.333333  0.666667  0.000000  1
  As  As2  1  0.809265  0.190735  0.500000  1
  As  As3  1  0.809265  0.618529  0.500000  1
  As  As4  1  0.381471  0.190735  0.500000  1
  Rh  Rh5  1  0.534449  0.465551  0.000000  1
  Rh  Rh6  1  0.534449  0.068898  0.000000  1
  Rh  Rh7  1  0.931102  0.465551  0.000000  1
  Rh  Rh8  1  0.196951  0.803049  0.500000  1
  Rh  Rh9  1  0.196951  0.393904  0.500000  1
  Rh  Rh10  1  0.606096  0.803049  0.500000  1
