# generated using pymatgen
data_Ce2Fe2Si2PdPt
_symmetry_space_group_name_H-M   'P 1'
_cell_length_a   9.06151305
_cell_length_b   9.06151271
_cell_length_c   4.03485600
_cell_angle_alpha   90.00000000
_cell_angle_beta   90.00000000
_cell_angle_gamma   154.61237379
_symmetry_Int_Tables_number   1
_chemical_formula_structural   Ce2Fe2Si2PdPt
_chemical_formula_sum   'Ce2 Fe2 Si2 Pd1 Pt1'
_cell_volume   142.04419969
_cell_formula_units_Z   1
loop_
 _symmetry_equiv_pos_site_id
 _symmetry_equiv_pos_as_xyz
  1  'x, y, z'
loop_
 _atom_site_type_symbol
 _atom_site_label
 _atom_site_symmetry_multiplicity
 _atom_site_fract_x
 _atom_site_fract_y
 _atom_site_fract_z
 _atom_site_occupancy
  Ce  Ce0  1  0.615131  0.384869  0.250000  1
  Ce  Ce1  1  0.382889  0.617111  0.750000  1
  Fe  Fe2  1  0.250549  0.749451  0.250000  1
  Fe  Fe3  1  0.750132  0.249868  0.750000  1
  Si  Si4  1  0.811343  0.188657  0.250000  1
  Si  Si5  1  0.188760  0.811240  0.750000  1
  Pd  Pd6  1  0.949897  0.050103  0.250000  1
  Pt  Pt7  1  0.051299  0.948701  0.750000  1
