# generated using pymatgen
data_SbSe8Cl3
_symmetry_space_group_name_H-M   'P 1'
_cell_length_a   9.13192432
_cell_length_b   9.78516680
_cell_length_c   11.84197281
_cell_angle_alpha   94.78072139
_cell_angle_beta   108.71603771
_cell_angle_gamma   108.60124171
_symmetry_Int_Tables_number   1
_chemical_formula_structural   SbSe8Cl3
_chemical_formula_sum   'Sb2 Se16 Cl6'
_cell_volume   929.31142210
_cell_formula_units_Z   2
loop_
 _symmetry_equiv_pos_site_id
 _symmetry_equiv_pos_as_xyz
  1  'x, y, z'
loop_
 _atom_site_type_symbol
 _atom_site_label
 _atom_site_symmetry_multiplicity
 _atom_site_fract_x
 _atom_site_fract_y
 _atom_site_fract_z
 _atom_site_occupancy
  Sb  Sb0  1  0.807050  0.063671  0.852852  1
  Sb  Sb1  1  0.192950  0.936329  0.147148  1
  Se  Se2  1  0.845080  0.517787  0.828567  1
  Se  Se3  1  0.154920  0.482213  0.171433  1
  Se  Se4  1  0.707847  0.429531  0.616741  1
  Se  Se5  1  0.292153  0.570469  0.383259  1
  Se  Se6  1  0.720265  0.194570  0.571461  1
  Se  Se7  1  0.279735  0.805430  0.428539  1
  Se  Se8  1  0.937984  0.223693  0.497190  1
  Se  Se9  1  0.062016  0.776307  0.502810  1
  Se  Se10  1  0.882368  0.319494  0.137350  1
  Se  Se11  1  0.117632  0.680506  0.862650  1
  Se  Se12  1  0.703276  0.452657  0.081564  1
  Se  Se13  1  0.296724  0.547343  0.918436  1
  Se  Se14  1  0.651915  0.526781  0.255054  1
  Se  Se15  1  0.348085  0.473219  0.744946  1
  Se  Se16  1  0.829212  0.775286  0.341856  1
  Se  Se17  1  0.170788  0.224714  0.658144  1
  Cl  Cl18  1  0.524106  0.044389  0.796585  1
  Cl  Cl19  1  0.475894  0.955611  0.203415  1
  Cl  Cl20  1  0.792140  0.913311  0.004774  1
  Cl  Cl21  1  0.207860  0.086689  0.995226  1
  Cl  Cl22  1  0.756104  0.863503  0.696637  1
  Cl  Cl23  1  0.243896  0.136497  0.303363  1
