# generated using pymatgen
data_Li3Eu4AlAu4
_symmetry_space_group_name_H-M   'P 1'
_cell_length_a   4.50746400
_cell_length_b   7.45152890
_cell_length_c   8.36591572
_cell_angle_alpha   90.06473790
_cell_angle_beta   90.00000000
_cell_angle_gamma   90.00000000
_symmetry_Int_Tables_number   1
_chemical_formula_structural   Li3Eu4AlAu4
_chemical_formula_sum   'Li3 Eu4 Al1 Au4'
_cell_volume   280.99000050
_cell_formula_units_Z   1
loop_
 _symmetry_equiv_pos_site_id
 _symmetry_equiv_pos_as_xyz
  1  'x, y, z'
loop_
 _atom_site_type_symbol
 _atom_site_label
 _atom_site_symmetry_multiplicity
 _atom_site_fract_x
 _atom_site_fract_y
 _atom_site_fract_z
 _atom_site_occupancy
  Li  Li0  1  0.250000  0.151742  0.927459  1
  Li  Li1  1  0.250000  0.646886  0.569717  1
  Li  Li2  1  0.750000  0.855362  0.069795  1
  Eu  Eu3  1  0.250000  0.019190  0.311633  1
  Eu  Eu4  1  0.250000  0.516252  0.189373  1
  Eu  Eu5  1  0.750000  0.988368  0.688603  1
  Eu  Eu6  1  0.750000  0.479786  0.810911  1
  Al  Al7  1  0.750000  0.346438  0.434294  1
  Au  Au8  1  0.250000  0.284160  0.596113  1
  Au  Au9  1  0.250000  0.778451  0.891671  1
  Au  Au10  1  0.750000  0.708669  0.395809  1
  Au  Au11  1  0.750000  0.224695  0.114622  1
