# generated using pymatgen
data_Dy(Sc7Te9)2
_symmetry_space_group_name_H-M   'P 1'
_cell_length_a   12.50133700
_cell_length_b   12.50133825
_cell_length_c   6.80209500
_cell_angle_alpha   90.00000000
_cell_angle_beta   90.00000000
_cell_angle_gamma   120.00000463
_symmetry_Int_Tables_number   1
_chemical_formula_structural   Dy(Sc7Te9)2
_chemical_formula_sum   'Dy1 Sc14 Te18'
_cell_volume   920.63243865
_cell_formula_units_Z   1
loop_
 _symmetry_equiv_pos_site_id
 _symmetry_equiv_pos_as_xyz
  1  'x, y, z'
loop_
 _atom_site_type_symbol
 _atom_site_label
 _atom_site_symmetry_multiplicity
 _atom_site_fract_x
 _atom_site_fract_y
 _atom_site_fract_z
 _atom_site_occupancy
  Dy  Dy0  1  0.000000  0.000000  0.000000  1
  Sc  Sc1  1  0.000000  0.342203  0.500000  1
  Sc  Sc2  1  0.342203  0.000000  0.500000  1
  Sc  Sc3  1  0.657797  0.657797  0.500000  1
  Sc  Sc4  1  0.000000  0.657797  0.500000  1
  Sc  Sc5  1  0.657797  0.000000  0.500000  1
  Sc  Sc6  1  0.342203  0.342203  0.500000  1
  Sc  Sc7  1  0.326867  0.326867  0.000000  1
  Sc  Sc8  1  0.000000  0.673133  0.000000  1
  Sc  Sc9  1  0.673133  0.000000  0.000000  1
  Sc  Sc10  1  0.673133  0.673133  0.000000  1
  Sc  Sc11  1  0.000000  0.326867  0.000000  1
  Sc  Sc12  1  0.326867  0.000000  0.000000  1
  Sc  Sc13  1  0.333333  0.666667  0.502976  1
  Sc  Sc14  1  0.666667  0.333333  0.497024  1
  Te  Te15  1  0.224689  0.775311  0.247643  1
  Te  Te16  1  0.550620  0.775311  0.247643  1
  Te  Te17  1  0.224689  0.449380  0.247643  1
  Te  Te18  1  0.775311  0.550620  0.752357  1
  Te  Te19  1  0.775311  0.224689  0.752357  1
  Te  Te20  1  0.449380  0.224689  0.752357  1
  Te  Te21  1  0.116571  0.558286  0.762687  1
  Te  Te22  1  0.441714  0.558286  0.762687  1
  Te  Te23  1  0.441714  0.883429  0.762687  1
  Te  Te24  1  0.558286  0.441714  0.237313  1
  Te  Te25  1  0.883429  0.441714  0.237313  1
  Te  Te26  1  0.558286  0.116571  0.237313  1
  Te  Te27  1  0.111771  0.223544  0.735144  1
  Te  Te28  1  0.776456  0.888229  0.735144  1
  Te  Te29  1  0.111771  0.888229  0.735144  1
  Te  Te30  1  0.888229  0.776456  0.264856  1
  Te  Te31  1  0.888229  0.111771  0.264856  1
  Te  Te32  1  0.223544  0.111771  0.264856  1
