# generated using pymatgen
data_Zr3Pa2Si3Ge
_symmetry_space_group_name_H-M   'P 1'
_cell_length_a   7.34906702
_cell_length_b   7.34885652
_cell_length_c   13.47095300
_cell_angle_alpha   89.98288656
_cell_angle_beta   90.00437374
_cell_angle_gamma   90.08018892
_symmetry_Int_Tables_number   1
_chemical_formula_structural   Zr3Pa2Si3Ge
_chemical_formula_sum   'Zr12 Pa8 Si12 Ge4'
_cell_volume   727.52823293
_cell_formula_units_Z   4
loop_
 _symmetry_equiv_pos_site_id
 _symmetry_equiv_pos_as_xyz
  1  'x, y, z'
loop_
 _atom_site_type_symbol
 _atom_site_label
 _atom_site_symmetry_multiplicity
 _atom_site_fract_x
 _atom_site_fract_y
 _atom_site_fract_z
 _atom_site_occupancy
  Zr  Zr0  1  0.325477  0.325224  0.000071  1
  Zr  Zr1  1  0.172226  0.827518  0.250016  1
  Zr  Zr2  1  0.825215  0.172104  0.750366  1
  Zr  Zr3  1  0.672026  0.674795  0.500282  1
  Zr  Zr4  1  0.148966  0.000754  0.875640  1
  Zr  Zr5  1  0.497593  0.653931  0.126563  1
  Zr  Zr6  1  0.501579  0.350887  0.626137  1
  Zr  Zr7  1  0.654324  0.497661  0.874080  1
  Zr  Zr8  1  0.345979  0.502714  0.374410  1
  Zr  Zr9  1  0.851150  0.998639  0.375169  1
  Zr  Zr10  1  0.001487  0.149317  0.125247  1
  Zr  Zr11  1  0.997749  0.846283  0.624727  1
  Pa  Pa12  1  0.343429  0.000551  0.464546  1
  Pa  Pa13  1  0.499426  0.843093  0.714562  1
  Pa  Pa14  1  0.499195  0.153287  0.216044  1
  Pa  Pa15  1  0.847512  0.501304  0.284589  1
  Pa  Pa16  1  0.154569  0.502093  0.783394  1
  Pa  Pa17  1  0.658728  0.996106  0.965629  1
  Pa  Pa18  1  0.001811  0.346086  0.533517  1
  Pa  Pa19  1  0.996653  0.657855  0.035136  1
  Si  Si20  1  0.293701  0.636988  0.568528  1
  Si  Si21  1  0.793408  0.863639  0.181866  1
  Si  Si22  1  0.136839  0.206706  0.318828  1
  Si  Si23  1  0.863077  0.793190  0.818586  1
  Si  Si24  1  0.295960  0.956264  0.065161  1
  Si  Si25  1  0.547917  0.795748  0.314460  1
  Si  Si26  1  0.456404  0.203197  0.816248  1
  Si  Si27  1  0.796016  0.546234  0.685467  1
  Si  Si28  1  0.203958  0.452922  0.185344  1
  Si  Si29  1  0.704291  0.044681  0.565346  1
  Si  Si30  1  0.957111  0.296144  0.934548  1
  Si  Si31  1  0.047144  0.704816  0.436211  1
  Ge  Ge32  1  0.204846  0.135684  0.679272  1
  Ge  Ge33  1  0.364233  0.704301  0.929597  1
  Ge  Ge34  1  0.635707  0.295454  0.429334  1
  Ge  Ge35  1  0.704297  0.363832  0.071077  1
