# generated using pymatgen
data_Ba4Nd7LuSe16
_symmetry_space_group_name_H-M   'P 1'
_cell_length_a   4.31876600
_cell_length_b   13.03460156
_cell_length_c   15.53102669
_cell_angle_alpha   89.82016784
_cell_angle_beta   90.00000000
_cell_angle_gamma   90.00000000
_symmetry_Int_Tables_number   1
_chemical_formula_structural   Ba4Nd7LuSe16
_chemical_formula_sum   'Ba4 Nd7 Lu1 Se16'
_cell_volume   874.28989924
_cell_formula_units_Z   1
loop_
 _symmetry_equiv_pos_site_id
 _symmetry_equiv_pos_as_xyz
  1  'x, y, z'
loop_
 _atom_site_type_symbol
 _atom_site_label
 _atom_site_symmetry_multiplicity
 _atom_site_fract_x
 _atom_site_fract_y
 _atom_site_fract_z
 _atom_site_occupancy
  Ba  Ba0  1  0.250000  0.758108  0.337944  1
  Ba  Ba1  1  0.250000  0.257112  0.165406  1
  Ba  Ba2  1  0.750000  0.240347  0.659807  1
  Ba  Ba3  1  0.750000  0.742757  0.836575  1
  Nd  Nd4  1  0.250000  0.428015  0.392422  1
  Nd  Nd5  1  0.250000  0.933473  0.111556  1
  Nd  Nd6  1  0.750000  0.568739  0.608445  1
  Nd  Nd7  1  0.750000  0.069186  0.891823  1
  Nd  Nd8  1  0.250000  0.419763  0.899465  1
  Nd  Nd9  1  0.250000  0.923107  0.598109  1
  Nd  Nd10  1  0.750000  0.579366  0.100973  1
  Lu  Lu11  1  0.750000  0.078131  0.398308  1
  Se  Se12  1  0.250000  0.207226  0.826404  1
  Se  Se13  1  0.250000  0.708693  0.670340  1
  Se  Se14  1  0.750000  0.793015  0.173265  1
  Se  Se15  1  0.750000  0.285059  0.332198  1
  Se  Se16  1  0.250000  0.129090  0.516994  1
  Se  Se17  1  0.250000  0.629840  0.973915  1
  Se  Se18  1  0.750000  0.877256  0.469682  1
  Se  Se19  1  0.750000  0.369587  0.026729  1
  Se  Se20  1  0.250000  0.521679  0.217952  1
  Se  Se21  1  0.250000  0.026909  0.289104  1
  Se  Se22  1  0.750000  0.476446  0.782827  1
  Se  Se23  1  0.750000  0.977504  0.716142  1
  Se  Se24  1  0.250000  0.414850  0.580194  1
  Se  Se25  1  0.250000  0.915550  0.922465  1
  Se  Se26  1  0.750000  0.583520  0.420405  1
  Se  Se27  1  0.750000  0.085676  0.080554  1
