# generated using pymatgen
data_Zn6NiSn4Pd2Pt
_symmetry_space_group_name_H-M   'P 1'
_cell_length_a   4.37932800
_cell_length_b   4.37932761
_cell_length_c   15.48031900
_cell_angle_alpha   90.00000000
_cell_angle_beta   90.00000000
_cell_angle_gamma   119.99997276
_symmetry_Int_Tables_number   1
_chemical_formula_structural   Zn6NiSn4Pd2Pt
_chemical_formula_sum   'Zn6 Ni1 Sn4 Pd2 Pt1'
_cell_volume   257.11390571
_cell_formula_units_Z   1
loop_
 _symmetry_equiv_pos_site_id
 _symmetry_equiv_pos_as_xyz
  1  'x, y, z'
loop_
 _atom_site_type_symbol
 _atom_site_label
 _atom_site_symmetry_multiplicity
 _atom_site_fract_x
 _atom_site_fract_y
 _atom_site_fract_z
 _atom_site_occupancy
  Zn  Zn0  1  0.000000  0.000000  0.161882  1
  Zn  Zn1  1  0.000000  0.000000  0.838118  1
  Zn  Zn2  1  0.000000  0.000000  0.672530  1
  Zn  Zn3  1  0.000000  0.000000  0.327470  1
  Zn  Zn4  1  0.333333  0.666667  0.751775  1
  Zn  Zn5  1  0.666667  0.333333  0.248225  1
  Ni  Ni6  1  0.000000  0.000000  0.000000  1
  Sn  Sn7  1  0.333333  0.666667  0.065315  1
  Sn  Sn8  1  0.666667  0.333333  0.934685  1
  Sn  Sn9  1  0.666667  0.333333  0.572600  1
  Sn  Sn10  1  0.333333  0.666667  0.427400  1
  Pd  Pd11  1  0.333333  0.666667  0.247366  1
  Pd  Pd12  1  0.666667  0.333333  0.752634  1
  Pt  Pt13  1  0.000000  0.000000  0.500000  1
