# generated using pymatgen
data_U4Mn3FeSi4
_symmetry_space_group_name_H-M   'P 1'
_cell_length_a   7.10037000
_cell_length_b   4.17650500
_cell_length_c   6.36577300
_cell_angle_alpha   90.00000000
_cell_angle_beta   90.00281532
_cell_angle_gamma   90.00000000
_symmetry_Int_Tables_number   1
_chemical_formula_structural   U4Mn3FeSi4
_chemical_formula_sum   'U4 Mn3 Fe1 Si4'
_cell_volume   188.77528461
_cell_formula_units_Z   1
loop_
 _symmetry_equiv_pos_site_id
 _symmetry_equiv_pos_as_xyz
  1  'x, y, z'
loop_
 _atom_site_type_symbol
 _atom_site_label
 _atom_site_symmetry_multiplicity
 _atom_site_fract_x
 _atom_site_fract_y
 _atom_site_fract_z
 _atom_site_occupancy
  U  U0  1  0.485938  0.750001  0.164986  1
  U  U1  1  0.983110  0.750001  0.333586  1
  U  U2  1  0.015618  0.250000  0.665589  1
  U  U3  1  0.517072  0.250000  0.832123  1
  Mn  Mn4  1  0.867114  0.250000  0.044949  1
  Mn  Mn5  1  0.363896  0.250000  0.454837  1
  Mn  Mn6  1  0.633965  0.750001  0.546596  1
  Fe  Fe7  1  0.133091  0.750001  0.956647  1
  Si  Si8  1  0.196980  0.250000  0.121920  1
  Si  Si9  1  0.695552  0.250000  0.378719  1
  Si  Si10  1  0.302726  0.750001  0.622182  1
  Si  Si11  1  0.804935  0.750001  0.877863  1
