# generated using pymatgen
data_Pr5Tm15Si15Pt
_symmetry_space_group_name_H-M   'P 1'
_cell_length_a   7.31493745
_cell_length_b   7.66129939
_cell_length_c   14.43575400
_cell_angle_alpha   89.94266906
_cell_angle_beta   90.05565924
_cell_angle_gamma   90.02185580
_symmetry_Int_Tables_number   1
_chemical_formula_structural   Pr5Tm15Si15Pt
_chemical_formula_sum   'Pr5 Tm15 Si15 Pt1'
_cell_volume   809.00660975
_cell_formula_units_Z   1
loop_
 _symmetry_equiv_pos_site_id
 _symmetry_equiv_pos_as_xyz
  1  'x, y, z'
loop_
 _atom_site_type_symbol
 _atom_site_label
 _atom_site_symmetry_multiplicity
 _atom_site_fract_x
 _atom_site_fract_y
 _atom_site_fract_z
 _atom_site_occupancy
  Pr  Pr0  1  0.979647  0.176850  0.403534  1
  Pr  Pr1  1  0.482177  0.322018  0.407255  1
  Pr  Pr2  1  0.980198  0.176474  0.093848  1
  Pr  Pr3  1  0.517339  0.676578  0.908410  1
  Pr  Pr4  1  0.017594  0.825019  0.594265  1
  Tm  Tm5  1  0.679052  0.177417  0.626053  1
  Tm  Tm6  1  0.188533  0.326782  0.874251  1
  Tm  Tm7  1  0.319681  0.820543  0.123670  1
  Tm  Tm8  1  0.816691  0.672461  0.374324  1
  Tm  Tm9  1  0.322061  0.819141  0.375629  1
  Tm  Tm10  1  0.818695  0.676438  0.121843  1
  Tm  Tm11  1  0.674870  0.182383  0.876901  1
  Tm  Tm12  1  0.185807  0.326897  0.625007  1
  Tm  Tm13  1  0.519014  0.680558  0.597941  1
  Tm  Tm14  1  0.024952  0.818728  0.901689  1
  Tm  Tm15  1  0.473609  0.316211  0.098923  1
  Tm  Tm16  1  0.843426  0.509805  0.749476  1
  Tm  Tm17  1  0.352247  0.987606  0.750487  1
  Tm  Tm18  1  0.149874  0.487684  0.249410  1
  Tm  Tm19  1  0.653556  0.010585  0.250281  1
  Si  Si20  1  0.649582  0.960149  0.463430  1
  Si  Si21  1  0.152248  0.533384  0.038141  1
  Si  Si22  1  0.343756  0.032711  0.962085  1
  Si  Si23  1  0.845302  0.471283  0.540352  1
  Si  Si24  1  0.353239  0.023656  0.540806  1
  Si  Si25  1  0.859701  0.474421  0.957681  1
  Si  Si26  1  0.642801  0.973321  0.040834  1
  Si  Si27  1  0.144633  0.532469  0.460803  1
  Si  Si28  1  0.978131  0.107960  0.752778  1
  Si  Si29  1  0.521686  0.607960  0.247378  1
  Si  Si30  1  0.024850  0.882715  0.248483  1
  Si  Si31  1  0.734744  0.877994  0.753571  1
  Si  Si32  1  0.223733  0.632928  0.749316  1
  Si  Si33  1  0.277090  0.124966  0.248390  1
  Si  Si34  1  0.768382  0.374942  0.245600  1
  Pt  Pt35  1  0.481099  0.398968  0.747159  1
