# generated using pymatgen
data_Dy11Th5(AgRu)4
_symmetry_space_group_name_H-M   'P 1'
_cell_length_a   9.53808656
_cell_length_b   9.61717740
_cell_length_c   9.61715772
_cell_angle_alpha   60.34535636
_cell_angle_beta   60.67326864
_cell_angle_gamma   60.67334205
_symmetry_Int_Tables_number   1
_chemical_formula_structural   Dy11Th5(AgRu)4
_chemical_formula_sum   'Dy11 Th5 Ag4 Ru4'
_cell_volume   631.72724465
_cell_formula_units_Z   1
loop_
 _symmetry_equiv_pos_site_id
 _symmetry_equiv_pos_as_xyz
  1  'x, y, z'
loop_
 _atom_site_type_symbol
 _atom_site_label
 _atom_site_symmetry_multiplicity
 _atom_site_fract_x
 _atom_site_fract_y
 _atom_site_fract_z
 _atom_site_occupancy
  Dy  Dy0  1  0.186179  0.812695  0.812697  1
  Dy  Dy1  1  0.191292  0.809638  0.185548  1
  Dy  Dy2  1  0.812448  0.185175  0.808688  1
  Dy  Dy3  1  0.191291  0.185548  0.809637  1
  Dy  Dy4  1  0.812450  0.808686  0.185175  1
  Dy  Dy5  1  0.934586  0.565673  0.565673  1
  Dy  Dy6  1  0.565358  0.934942  0.934941  1
  Dy  Dy7  1  0.563790  0.934145  0.564449  1
  Dy  Dy8  1  0.935790  0.565719  0.934169  1
  Dy  Dy9  1  0.563789  0.564448  0.934148  1
  Dy  Dy10  1  0.935789  0.934168  0.565721  1
  Th  Th11  1  0.346678  0.352275  0.352275  1
  Th  Th12  1  0.349355  0.352569  0.947484  1
  Th  Th13  1  0.349355  0.947485  0.352566  1
  Th  Th14  1  0.945269  0.353198  0.353194  1
  Th  Th15  1  0.816968  0.183358  0.183357  1
  Ag  Ag16  1  0.583329  0.584844  0.584844  1
  Ag  Ag17  1  0.582891  0.587330  0.248109  1
  Ag  Ag18  1  0.582890  0.248108  0.587332  1
  Ag  Ag19  1  0.251208  0.584497  0.584498  1
  Ru  Ru20  1  0.129279  0.147270  0.147260  1
  Ru  Ru21  1  0.146925  0.144163  0.565648  1
  Ru  Ru22  1  0.146929  0.565645  0.144169  1
  Ru  Ru23  1  0.576167  0.148417  0.148419  1
