# generated using pymatgen
data_TbTe28
_symmetry_space_group_name_H-M   'P 1'
_cell_length_a   11.94840520
_cell_length_b   10.77129264
_cell_length_c   12.42422472
_cell_angle_alpha   114.70316795
_cell_angle_beta   123.63460902
_cell_angle_gamma   88.59305264
_symmetry_Int_Tables_number   1
_chemical_formula_structural   TbTe28
_chemical_formula_sum   'Tb1 Te28'
_cell_volume   1163.32827274
_cell_formula_units_Z   1
loop_
 _symmetry_equiv_pos_site_id
 _symmetry_equiv_pos_as_xyz
  1  'x, y, z'
loop_
 _atom_site_type_symbol
 _atom_site_label
 _atom_site_symmetry_multiplicity
 _atom_site_fract_x
 _atom_site_fract_y
 _atom_site_fract_z
 _atom_site_occupancy
  Tb  Tb0  1  0.500000  0.000000  0.000000  1
  Te  Te1  1  0.239851  0.106258  0.430484  1
  Te  Te2  1  0.605906  0.156787  0.434221  1
  Te  Te3  1  0.277170  0.264793  0.887597  1
  Te  Te4  1  0.912034  0.303437  0.887050  1
  Te  Te5  1  0.209402  0.556077  0.726581  1
  Te  Te6  1  0.802685  0.529573  0.635449  1
  Te  Te7  1  0.394094  0.843213  0.565779  1
  Te  Te8  1  0.760149  0.893742  0.569516  1
  Te  Te9  1  0.087966  0.696563  0.112950  1
  Te  Te10  1  0.722830  0.735207  0.112403  1
  Te  Te11  1  0.197315  0.470427  0.364551  1
  Te  Te12  1  0.790598  0.443923  0.273419  1
  Te  Te13  1  0.763456  0.073490  0.845768  1
  Te  Te14  1  0.220940  0.974598  0.716830  1
  Te  Te15  1  0.810886  0.681392  0.898950  1
  Te  Te16  1  0.376371  0.767586  0.032356  1
  Te  Te17  1  0.514079  0.268463  0.238363  1
  Te  Te18  1  0.043103  0.274949  0.360330  1
  Te  Te19  1  0.779060  0.025402  0.283170  1
  Te  Te20  1  0.236544  0.926510  0.154232  1
  Te  Te21  1  0.623629  0.232414  0.967644  1
  Te  Te22  1  0.189114  0.318608  0.101050  1
  Te  Te23  1  0.956897  0.725051  0.639670  1
  Te  Te24  1  0.485921  0.731537  0.761637  1
  Te  Te25  1  0.045078  0.379692  0.736300  1
  Te  Te26  1  0.499694  0.295528  0.590807  1
  Te  Te27  1  0.500306  0.704472  0.409193  1
  Te  Te28  1  0.954922  0.620308  0.263700  1
