# generated using pymatgen
data_Ac8Fe(Si4Ag)3
_symmetry_space_group_name_H-M   'P 1'
_cell_length_a   11.83348372
_cell_length_b   10.18781943
_cell_length_c   8.49094921
_cell_angle_alpha   78.10706658
_cell_angle_beta   57.33531410
_cell_angle_gamma   44.77965205
_symmetry_Int_Tables_number   1
_chemical_formula_structural   Ac8Fe(Si4Ag)3
_chemical_formula_sum   'Ac8 Fe1 Si12 Ag3'
_cell_volume   579.32253546
_cell_formula_units_Z   1
loop_
 _symmetry_equiv_pos_site_id
 _symmetry_equiv_pos_as_xyz
  1  'x, y, z'
loop_
 _atom_site_type_symbol
 _atom_site_label
 _atom_site_symmetry_multiplicity
 _atom_site_fract_x
 _atom_site_fract_y
 _atom_site_fract_z
 _atom_site_occupancy
  Ac  Ac0  1  0.379128  0.378041  0.620110  1
  Ac  Ac1  1  0.620201  0.621973  0.379442  1
  Ac  Ac2  1  0.872966  0.876763  0.629943  1
  Ac  Ac3  1  0.629768  0.620631  0.873023  1
  Ac  Ac4  1  0.875845  0.879436  0.118859  1
  Ac  Ac5  1  0.119077  0.126018  0.875831  1
  Ac  Ac6  1  0.383592  0.371762  0.119125  1
  Ac  Ac7  1  0.118964  0.125786  0.383472  1
  Fe  Fe8  1  0.833182  0.166246  0.833016  1
  Si  Si9  1  0.673011  0.327217  0.672175  1
  Si  Si10  1  0.339661  0.660364  0.339820  1
  Si  Si11  1  0.587473  0.912022  0.587500  1
  Si  Si12  1  0.912670  0.587314  0.912884  1
  Si  Si13  1  0.337637  0.659755  0.822325  1
  Si  Si14  1  0.155226  0.846172  0.671832  1
  Si  Si15  1  0.822300  0.180461  0.338063  1
  Si  Si16  1  0.672036  0.326808  0.155608  1
  Si  Si17  1  0.913857  0.589634  0.423462  1
  Si  Si18  1  0.075864  0.425924  0.586488  1
  Si  Si19  1  0.422775  0.073806  0.914594  1
  Si  Si20  1  0.586896  0.911094  0.075157  1
  Ag  Ag21  1  0.167049  0.832910  0.167277  1
  Ag  Ag22  1  0.417246  0.083359  0.416581  1
  Ag  Ag23  1  0.083575  0.416503  0.083414  1
