# generated using pymatgen
data_TbTm2Pa(Al3Rh)6
_symmetry_space_group_name_H-M   'P 1'
_cell_length_a   7.56321051
_cell_length_b   7.55607182
_cell_length_c   9.41271600
_cell_angle_alpha   90.00000000
_cell_angle_beta   90.00000000
_cell_angle_gamma   119.47804095
_symmetry_Int_Tables_number   1
_chemical_formula_structural   TbTm2Pa(Al3Rh)6
_chemical_formula_sum   'Tb1 Tm2 Pa1 Al18 Rh6'
_cell_volume   468.28271320
_cell_formula_units_Z   1
loop_
 _symmetry_equiv_pos_site_id
 _symmetry_equiv_pos_as_xyz
  1  'x, y, z'
loop_
 _atom_site_type_symbol
 _atom_site_label
 _atom_site_symmetry_multiplicity
 _atom_site_fract_x
 _atom_site_fract_y
 _atom_site_fract_z
 _atom_site_occupancy
  Tb  Tb0  1  0.673212  0.994460  0.250000  1
  Tm  Tm1  1  0.005340  0.328093  0.750000  1
  Tm  Tm2  1  0.327987  0.004540  0.750000  1
  Pa  Pa3  1  0.995513  0.672193  0.250000  1
  Al  Al4  1  0.132404  0.130451  0.250000  1
  Al  Al5  1  0.873773  0.875003  0.750000  1
  Al  Al6  1  0.001059  0.333643  0.074348  1
  Al  Al7  1  0.999714  0.664161  0.919840  1
  Al  Al8  1  0.999714  0.664161  0.580160  1
  Al  Al9  1  0.338346  0.003215  0.425320  1
  Al  Al10  1  0.001059  0.333643  0.425652  1
  Al  Al11  1  0.664531  0.000784  0.578096  1
  Al  Al12  1  0.664531  0.000784  0.921904  1
  Al  Al13  1  0.338346  0.003215  0.074680  1
  Al  Al14  1  0.331784  0.331890  0.555965  1
  Al  Al15  1  0.663781  0.665625  0.451682  1
  Al  Al16  1  0.663781  0.665625  0.048318  1
  Al  Al17  1  0.331784  0.331890  0.944035  1
  Al  Al18  1  0.338854  0.548197  0.250000  1
  Al  Al19  1  0.658810  0.447310  0.750000  1
  Al  Al20  1  0.548902  0.342759  0.250000  1
  Al  Al21  1  0.448683  0.660235  0.750000  1
  Rh  Rh22  1  0.673201  0.328885  0.000914  1
  Rh  Rh23  1  0.325908  0.672028  0.001059  1
  Rh  Rh24  1  0.325908  0.672028  0.498941  1
  Rh  Rh25  1  0.673201  0.328885  0.499086  1
  Rh  Rh26  1  0.999939  0.998148  0.001721  1
  Rh  Rh27  1  0.999939  0.998148  0.498279  1
