# generated using pymatgen
data_MnFe2NiAg4F14
_symmetry_space_group_name_H-M   'P 1'
_cell_length_a   7.59181117
_cell_length_b   7.59181430
_cell_length_c   7.66041918
_cell_angle_alpha   121.06299158
_cell_angle_beta   117.44529751
_cell_angle_gamma   90.81880883
_symmetry_Int_Tables_number   1
_chemical_formula_structural   MnFe2NiAg4F14
_chemical_formula_sum   'Mn1 Fe2 Ni1 Ag4 F14'
_cell_volume   316.63996591
_cell_formula_units_Z   1
loop_
 _symmetry_equiv_pos_site_id
 _symmetry_equiv_pos_as_xyz
  1  'x, y, z'
loop_
 _atom_site_type_symbol
 _atom_site_label
 _atom_site_symmetry_multiplicity
 _atom_site_fract_x
 _atom_site_fract_y
 _atom_site_fract_z
 _atom_site_occupancy
  Mn  Mn0  1  0.500000  0.000000  0.000000  1
  Fe  Fe1  1  0.000000  0.500000  0.500000  1
  Fe  Fe2  1  0.500000  0.000000  0.500000  1
  Ni  Ni3  1  0.500000  0.500000  0.500000  1
  Ag  Ag4  1  0.000000  0.000000  0.500000  1
  Ag  Ag5  1  0.000000  0.000000  0.000000  1
  Ag  Ag6  1  0.000000  0.500000  0.000000  1
  Ag  Ag7  1  0.500000  0.500000  0.000000  1
  F  F8  1  0.396066  0.259564  0.155631  1
  F  F9  1  0.129648  0.409151  0.722276  1
  F  F10  1  0.191620  0.430918  0.390534  1
  F  F11  1  0.540385  0.301087  0.609466  1
  F  F12  1  0.813126  0.092628  0.722276  1
  F  F13  1  0.452096  0.082948  0.756601  1
  F  F14  1  0.173654  0.804505  0.756601  1
  F  F15  1  0.547904  0.917052  0.243399  1
  F  F16  1  0.603934  0.740436  0.844369  1
  F  F17  1  0.826346  0.195495  0.243399  1
  F  F18  1  0.870352  0.590849  0.277724  1
  F  F19  1  0.808380  0.569082  0.609466  1
  F  F20  1  0.459615  0.698913  0.390534  1
  F  F21  1  0.186874  0.907372  0.277724  1
