# generated using pymatgen
data_Tm2Co6Tc(NiP2)3
_symmetry_space_group_name_H-M   'P 1'
_cell_length_a   3.68091600
_cell_length_b   10.33117400
_cell_length_c   11.76437800
_cell_angle_alpha   90.00000000
_cell_angle_beta   90.00000000
_cell_angle_gamma   90.00000000
_symmetry_Int_Tables_number   1
_chemical_formula_structural   Tm2Co6Tc(NiP2)3
_chemical_formula_sum   'Tm4 Co12 Tc2 Ni6 P12'
_cell_volume   447.37792741
_cell_formula_units_Z   2
loop_
 _symmetry_equiv_pos_site_id
 _symmetry_equiv_pos_as_xyz
  1  'x, y, z'
loop_
 _atom_site_type_symbol
 _atom_site_label
 _atom_site_symmetry_multiplicity
 _atom_site_fract_x
 _atom_site_fract_y
 _atom_site_fract_z
 _atom_site_occupancy
  Tm  Tm0  1  0.250000  0.583191  0.703204  1
  Tm  Tm1  1  0.250000  0.916809  0.203204  1
  Tm  Tm2  1  0.750000  0.415747  0.294216  1
  Tm  Tm3  1  0.750000  0.084253  0.794216  1
  Co  Co4  1  0.750000  0.591052  0.510645  1
  Co  Co5  1  0.750000  0.908948  0.010645  1
  Co  Co6  1  0.750000  0.777840  0.822334  1
  Co  Co7  1  0.750000  0.722160  0.322334  1
  Co  Co8  1  0.250000  0.886817  0.702204  1
  Co  Co9  1  0.250000  0.613183  0.202204  1
  Co  Co10  1  0.750000  0.116944  0.301292  1
  Co  Co11  1  0.750000  0.383056  0.801292  1
  Co  Co12  1  0.250000  0.465391  0.931107  1
  Co  Co13  1  0.250000  0.034609  0.431107  1
  Co  Co14  1  0.750000  0.533236  0.069600  1
  Co  Co15  1  0.750000  0.966764  0.569600  1
  Tc  Tc16  1  0.250000  0.711382  0.991232  1
  Tc  Tc17  1  0.250000  0.788618  0.491232  1
  Ni  Ni18  1  0.750000  0.282656  0.009640  1
  Ni  Ni19  1  0.750000  0.217344  0.509640  1
  Ni  Ni20  1  0.250000  0.408309  0.486693  1
  Ni  Ni21  1  0.250000  0.091691  0.986693  1
  Ni  Ni22  1  0.250000  0.220809  0.177627  1
  Ni  Ni23  1  0.250000  0.279191  0.677627  1
  P  P24  1  0.250000  0.420055  0.112104  1
  P  P25  1  0.250000  0.079945  0.612104  1
  P  P26  1  0.750000  0.579026  0.886288  1
  P  P27  1  0.750000  0.920974  0.386288  1
  P  P28  1  0.250000  0.270837  0.868956  1
  P  P29  1  0.250000  0.229163  0.368956  1
  P  P30  1  0.750000  0.730800  0.132871  1
  P  P31  1  0.750000  0.769200  0.632871  1
  P  P32  1  0.250000  0.598004  0.389752  1
  P  P33  1  0.250000  0.901996  0.889752  1
  P  P34  1  0.750000  0.400632  0.610238  1
  P  P35  1  0.750000  0.099368  0.110238  1
