# generated using pymatgen
data_Tb3Dy9TlCo4Rh
_symmetry_space_group_name_H-M   'P 1'
_cell_length_a   8.32041747
_cell_length_b   8.32039742
_cell_length_c   8.31951101
_cell_angle_alpha   110.78706546
_cell_angle_beta   110.48183674
_cell_angle_gamma   107.17354766
_symmetry_Int_Tables_number   1
_chemical_formula_structural   Tb3Dy9TlCo4Rh
_chemical_formula_sum   'Tb3 Dy9 Tl1 Co4 Rh1'
_cell_volume   442.80833573
_cell_formula_units_Z   1
loop_
 _symmetry_equiv_pos_site_id
 _symmetry_equiv_pos_as_xyz
  1  'x, y, z'
loop_
 _atom_site_type_symbol
 _atom_site_label
 _atom_site_symmetry_multiplicity
 _atom_site_fract_x
 _atom_site_fract_y
 _atom_site_fract_z
 _atom_site_occupancy
  Tb  Tb0  1  0.813561  0.707204  0.520771  1
  Tb  Tb1  1  0.186131  0.292565  0.478704  1
  Tb  Tb2  1  0.186540  0.707366  0.893911  1
  Dy  Dy3  1  0.813821  0.292458  0.106285  1
  Dy  Dy4  1  0.685924  0.379795  0.694269  1
  Dy  Dy5  1  0.314053  0.620077  0.305890  1
  Dy  Dy6  1  0.685902  0.992022  0.305985  1
  Dy  Dy7  1  0.314563  0.008528  0.694365  1
  Dy  Dy8  1  0.594579  0.789430  0.805600  1
  Dy  Dy9  1  0.405892  0.211172  0.194463  1
  Dy  Dy10  1  0.983286  0.788572  0.194460  1
  Dy  Dy11  1  0.016165  0.211016  0.805594  1
  Tl  Tl12  1  0.500087  0.499978  0.000031  1
  Co  Co13  1  0.619839  0.000241  0.620083  1
  Co  Co14  1  0.380553  0.999983  0.380539  1
  Co  Co15  1  0.111751  0.611813  0.499496  1
  Co  Co16  1  0.887512  0.387573  0.499496  1
  Rh  Rh17  1  0.999842  0.000206  0.000057  1
