# generated using pymatgen
data_Dy2SbRhO7
_symmetry_space_group_name_H-M   'P 1'
_cell_length_a   7.30918316
_cell_length_b   7.27505660
_cell_length_c   7.30918347
_cell_angle_alpha   60.15433289
_cell_angle_beta   60.71416661
_cell_angle_gamma   60.15433347
_symmetry_Int_Tables_number   1
_chemical_formula_structural   Dy2SbRhO7
_chemical_formula_sum   'Dy4 Sb2 Rh2 O14'
_cell_volume   276.92910378
_cell_formula_units_Z   2
loop_
 _symmetry_equiv_pos_site_id
 _symmetry_equiv_pos_as_xyz
  1  'x, y, z'
loop_
 _atom_site_type_symbol
 _atom_site_label
 _atom_site_symmetry_multiplicity
 _atom_site_fract_x
 _atom_site_fract_y
 _atom_site_fract_z
 _atom_site_occupancy
  Dy  Dy0  1  0.125000  0.625000  0.125000  1
  Dy  Dy1  1  0.125000  0.125000  0.625000  1
  Dy  Dy2  1  0.625000  0.125000  0.125000  1
  Dy  Dy3  1  0.125000  0.125000  0.125000  1
  Sb  Sb4  1  0.125000  0.625000  0.625000  1
  Sb  Sb5  1  0.625000  0.625000  0.125000  1
  Rh  Rh6  1  0.625000  0.625000  0.625000  1
  Rh  Rh7  1  0.625000  0.125000  0.625000  1
  O  O8  1  0.283494  0.707230  0.717860  1
  O  O9  1  0.532140  0.958584  0.966506  1
  O  O10  1  0.724394  0.275606  0.724394  1
  O  O11  1  0.283494  0.291416  0.717860  1
  O  O12  1  0.717860  0.707230  0.283494  1
  O  O13  1  0.003363  0.996637  0.003363  1
  O  O14  1  0.294739  0.705261  0.294739  1
  O  O15  1  0.955261  0.544739  0.955261  1
  O  O16  1  0.966506  0.958584  0.532140  1
  O  O17  1  0.532140  0.542770  0.966506  1
  O  O18  1  0.246637  0.253363  0.246637  1
  O  O19  1  0.525606  0.974394  0.525606  1
  O  O20  1  0.717860  0.291416  0.283494  1
  O  O21  1  0.966506  0.542770  0.532140  1
