# generated using pymatgen
data_LaTlTe2(PdO6)2
_symmetry_space_group_name_H-M   'P 1'
_cell_length_a   5.28496857
_cell_length_b   5.28238734
_cell_length_c   11.44699709
_cell_angle_alpha   89.86660745
_cell_angle_beta   90.09649475
_cell_angle_gamma   120.02355595
_symmetry_Int_Tables_number   1
_chemical_formula_structural   LaTlTe2(PdO6)2
_chemical_formula_sum   'La1 Tl1 Te2 Pd2 O12'
_cell_volume   276.68809026
_cell_formula_units_Z   1
loop_
 _symmetry_equiv_pos_site_id
 _symmetry_equiv_pos_as_xyz
  1  'x, y, z'
loop_
 _atom_site_type_symbol
 _atom_site_label
 _atom_site_symmetry_multiplicity
 _atom_site_fract_x
 _atom_site_fract_y
 _atom_site_fract_z
 _atom_site_occupancy
  La  La0  1  0.999549  0.999809  0.499987  1
  Tl  Tl1  1  0.001715  0.000909  0.000011  1
  Te  Te2  1  0.666687  0.333964  0.266518  1
  Te  Te3  1  0.333150  0.666039  0.733493  1
  Pd  Pd4  1  0.333190  0.666948  0.271507  1
  Pd  Pd5  1  0.666642  0.332917  0.728473  1
  O  O6  1  0.628794  0.625707  0.175618  1
  O  O7  1  0.375070  0.005155  0.175624  1
  O  O8  1  0.995189  0.371666  0.175614  1
  O  O9  1  0.985409  0.626712  0.368670  1
  O  O10  1  0.373628  0.358504  0.368724  1
  O  O11  1  0.641658  0.014784  0.368564  1
  O  O12  1  0.014392  0.373240  0.631316  1
  O  O13  1  0.358133  0.985157  0.631396  1
  O  O14  1  0.626235  0.641447  0.631337  1
  O  O15  1  0.624910  0.994756  0.824332  1
  O  O16  1  0.371067  0.374243  0.824343  1
  O  O17  1  0.004588  0.628041  0.824473  1
