# generated using pymatgen
data_La16Tm4Ir11Pt
_symmetry_space_group_name_H-M   'P 1'
_cell_length_a   11.34564239
_cell_length_b   11.34564239
_cell_length_c   6.56297836
_cell_angle_alpha   90.06901230
_cell_angle_beta   90.06901230
_cell_angle_gamma   89.62937747
_symmetry_Int_Tables_number   1
_chemical_formula_structural   La16Tm4Ir11Pt
_chemical_formula_sum   'La16 Tm4 Ir11 Pt1'
_cell_volume   844.79131816
_cell_formula_units_Z   1
loop_
 _symmetry_equiv_pos_site_id
 _symmetry_equiv_pos_as_xyz
  1  'x, y, z'
loop_
 _atom_site_type_symbol
 _atom_site_label
 _atom_site_symmetry_multiplicity
 _atom_site_fract_x
 _atom_site_fract_y
 _atom_site_fract_z
 _atom_site_occupancy
  La  La0  1  0.286729  0.087768  0.387399  1
  La  La1  1  0.287361  0.911987  0.886937  1
  La  La2  1  0.710254  0.086134  0.880730  1
  La  La3  1  0.711164  0.909409  0.388938  1
  La  La4  1  0.587424  0.786992  0.888928  1
  La  La5  1  0.584857  0.213621  0.388548  1
  La  La6  1  0.411772  0.787044  0.388025  1
  La  La7  1  0.412162  0.213033  0.888408  1
  La  La8  1  0.213008  0.412576  0.611072  1
  La  La9  1  0.212956  0.588228  0.111975  1
  La  La10  1  0.786379  0.415143  0.111452  1
  La  La11  1  0.786967  0.587838  0.611592  1
  La  La12  1  0.912232  0.713271  0.112601  1
  La  La13  1  0.913866  0.289746  0.619270  1
  La  La14  1  0.088013  0.712639  0.613063  1
  La  La15  1  0.090591  0.288836  0.111062  1
  Tm  Tm16  1  0.001625  0.998419  0.501688  1
  Tm  Tm17  1  0.001581  0.998375  0.998312  1
  Tm  Tm18  1  0.499916  0.500002  0.999826  1
  Tm  Tm19  1  0.499998  0.500084  0.500174  1
  Ir  Ir20  1  0.853269  0.854260  0.749789  1
  Ir  Ir21  1  0.145740  0.146731  0.750211  1
  Ir  Ir22  1  0.146716  0.853284  0.250000  1
  Ir  Ir23  1  0.647593  0.352407  0.750000  1
  Ir  Ir24  1  0.647270  0.646869  0.250121  1
  Ir  Ir25  1  0.353131  0.352730  0.249879  1
  Ir  Ir26  1  0.352793  0.647207  0.750000  1
  Ir  Ir27  1  0.501083  0.000294  0.119106  1
  Ir  Ir28  1  0.500340  0.000354  0.618279  1
  Ir  Ir29  1  0.999646  0.499660  0.881721  1
  Ir  Ir30  1  0.999706  0.498917  0.380894  1
  Pt  Pt31  1  0.853861  0.146139  0.250000  1
