# generated using pymatgen
data_Dy12Os2RuRh
_symmetry_space_group_name_H-M   'P 1'
_cell_length_a   6.37213756
_cell_length_b   7.32839316
_cell_length_c   9.14427100
_cell_angle_alpha   90.00000000
_cell_angle_beta   90.00000000
_cell_angle_gamma   90.30410293
_symmetry_Int_Tables_number   1
_chemical_formula_structural   Dy12Os2RuRh
_chemical_formula_sum   'Dy12 Os2 Ru1 Rh1'
_cell_volume   427.00884848
_cell_formula_units_Z   1
loop_
 _symmetry_equiv_pos_site_id
 _symmetry_equiv_pos_as_xyz
  1  'x, y, z'
loop_
 _atom_site_type_symbol
 _atom_site_label
 _atom_site_symmetry_multiplicity
 _atom_site_fract_x
 _atom_site_fract_y
 _atom_site_fract_z
 _atom_site_occupancy
  Dy  Dy0  1  0.330236  0.675735  0.063055  1
  Dy  Dy1  1  0.173719  0.176552  0.433044  1
  Dy  Dy2  1  0.667424  0.326366  0.561608  1
  Dy  Dy3  1  0.828383  0.821431  0.936364  1
  Dy  Dy4  1  0.667424  0.326366  0.938392  1
  Dy  Dy5  1  0.828383  0.821431  0.563636  1
  Dy  Dy6  1  0.330236  0.675735  0.436945  1
  Dy  Dy7  1  0.173719  0.176552  0.066956  1
  Dy  Dy8  1  0.869771  0.539314  0.250000  1
  Dy  Dy9  1  0.634373  0.038090  0.250000  1
  Dy  Dy10  1  0.130583  0.461949  0.750000  1
  Dy  Dy11  1  0.368540  0.960881  0.750000  1
  Os  Os12  1  0.462199  0.383724  0.250000  1
  Os  Os13  1  0.540058  0.615997  0.750000  1
  Ru  Ru14  1  0.038324  0.885133  0.250000  1
  Rh  Rh15  1  0.956628  0.114746  0.750000  1
