# generated using pymatgen
data_SmCuAsH
_symmetry_space_group_name_H-M   'P 1'
_cell_length_a   3.95816700
_cell_length_b   3.95816700
_cell_length_c   7.88463100
_cell_angle_alpha   90.00000000
_cell_angle_beta   90.00000000
_cell_angle_gamma   90.00000000
_symmetry_Int_Tables_number   1
_chemical_formula_structural   SmCuAsH
_chemical_formula_sum   'Sm2 Cu2 As2 H2'
_cell_volume   123.52919195
_cell_formula_units_Z   2
loop_
 _symmetry_equiv_pos_site_id
 _symmetry_equiv_pos_as_xyz
  1  'x, y, z'
loop_
 _atom_site_type_symbol
 _atom_site_label
 _atom_site_symmetry_multiplicity
 _atom_site_fract_x
 _atom_site_fract_y
 _atom_site_fract_z
 _atom_site_occupancy
  Sm  Sm0  1  0.000000  0.500000  0.830822  1
  Sm  Sm1  1  0.500000  0.000000  0.169178  1
  Cu  Cu2  1  0.500000  0.500000  0.500000  1
  Cu  Cu3  1  0.000000  0.000000  0.500000  1
  As  As4  1  0.000000  0.500000  0.304595  1
  As  As5  1  0.500000  0.000000  0.695405  1
  H  H6  1  0.000000  0.000000  0.000000  1
  H  H7  1  0.500000  0.500000  0.000000  1
