# generated using pymatgen
data_Ti15V4Si16Os
_symmetry_space_group_name_H-M   'P 1'
_cell_length_a   6.60169329
_cell_length_b   6.59687496
_cell_length_c   12.09450920
_cell_angle_alpha   90.17959276
_cell_angle_beta   90.15341103
_cell_angle_gamma   89.86342497
_symmetry_Int_Tables_number   1
_chemical_formula_structural   Ti15V4Si16Os
_chemical_formula_sum   'Ti15 V4 Si16 Os1'
_cell_volume   526.71650804
_cell_formula_units_Z   1
loop_
 _symmetry_equiv_pos_site_id
 _symmetry_equiv_pos_as_xyz
  1  'x, y, z'
loop_
 _atom_site_type_symbol
 _atom_site_label
 _atom_site_symmetry_multiplicity
 _atom_site_fract_x
 _atom_site_fract_y
 _atom_site_fract_z
 _atom_site_occupancy
  Ti  Ti0  1  0.500720  0.650815  0.628136  1
  Ti  Ti1  1  0.004299  0.842471  0.120461  1
  Ti  Ti2  1  0.151735  0.999864  0.374865  1
  Ti  Ti3  1  0.844739  0.003909  0.881026  1
  Ti  Ti4  1  0.005221  0.343288  0.221207  1
  Ti  Ti5  1  0.157128  0.501306  0.470027  1
  Ti  Ti6  1  0.838888  0.500460  0.971196  1
  Ti  Ti7  1  0.502102  0.157904  0.529864  1
  Ti  Ti8  1  0.503099  0.838039  0.029347  1
  Ti  Ti9  1  0.998261  0.658643  0.721261  1
  Ti  Ti10  1  0.344096  0.003554  0.778763  1
  Ti  Ti11  1  0.659321  0.999464  0.278895  1
  Ti  Ti12  1  0.330959  0.667674  0.246821  1
  Ti  Ti13  1  0.667437  0.328790  0.752615  1
  Ti  Ti14  1  0.829496  0.831431  0.499984  1
  V  V15  1  0.992621  0.152690  0.624071  1
  V  V16  1  0.351541  0.496049  0.868171  1
  V  V17  1  0.654293  0.506047  0.373581  1
  V  V18  1  0.498946  0.351924  0.130267  1
  Si  Si19  1  0.047181  0.300154  0.815347  1
  Si  Si20  1  0.205782  0.533789  0.059290  1
  Si  Si21  1  0.799990  0.455055  0.564621  1
  Si  Si22  1  0.534936  0.204761  0.940178  1
  Si  Si23  1  0.456117  0.798260  0.434853  1
  Si  Si24  1  0.955476  0.697803  0.314773  1
  Si  Si25  1  0.302015  0.049493  0.182624  1
  Si  Si26  1  0.701749  0.957066  0.685885  1
  Si  Si27  1  0.288846  0.358261  0.672392  1
  Si  Si28  1  0.141910  0.788659  0.920540  1
  Si  Si29  1  0.859278  0.209544  0.424163  1
  Si  Si30  1  0.789428  0.140249  0.079817  1
  Si  Si31  1  0.203832  0.866870  0.576785  1
  Si  Si32  1  0.704996  0.635295  0.175821  1
  Si  Si33  1  0.368301  0.297111  0.326646  1
  Si  Si34  1  0.636228  0.705169  0.826540  1
  Os  Os35  1  0.169037  0.168143  0.999166  1
