# generated using pymatgen
data_Lu8TaTi10Si16Mo
_symmetry_space_group_name_H-M   'P 1'
_cell_length_a   6.78703450
_cell_length_b   6.95197370
_cell_length_c   13.19420945
_cell_angle_alpha   90.03369805
_cell_angle_beta   89.93303155
_cell_angle_gamma   89.91980581
_symmetry_Int_Tables_number   1
_chemical_formula_structural   Lu8TaTi10Si16Mo
_chemical_formula_sum   'Lu8 Ta1 Ti10 Si16 Mo1'
_cell_volume   622.54500596
_cell_formula_units_Z   1
loop_
 _symmetry_equiv_pos_site_id
 _symmetry_equiv_pos_as_xyz
  1  'x, y, z'
loop_
 _atom_site_type_symbol
 _atom_site_label
 _atom_site_symmetry_multiplicity
 _atom_site_fract_x
 _atom_site_fract_y
 _atom_site_fract_z
 _atom_site_occupancy
  Lu  Lu0  1  0.505099  0.329122  0.095932  1
  Lu  Lu1  1  0.003039  0.173602  0.403691  1
  Lu  Lu2  1  0.495204  0.670473  0.595660  1
  Lu  Lu3  1  0.996157  0.828129  0.902855  1
  Lu  Lu4  1  0.495142  0.672505  0.902785  1
  Lu  Lu5  1  0.997184  0.828640  0.594961  1
  Lu  Lu6  1  0.503826  0.326690  0.405785  1
  Lu  Lu7  1  0.003900  0.173995  0.096169  1
  Ta  Ta8  1  0.838621  0.510057  0.250460  1
  Ti  Ti9  1  0.836010  0.324027  0.626732  1
  Ti  Ti10  1  0.332352  0.174975  0.874221  1
  Ti  Ti11  1  0.164957  0.674665  0.126382  1
  Ti  Ti12  1  0.665885  0.826754  0.375508  1
  Ti  Ti13  1  0.162297  0.675350  0.374756  1
  Ti  Ti14  1  0.666771  0.823059  0.126064  1
  Ti  Ti15  1  0.836302  0.323407  0.871607  1
  Ti  Ti16  1  0.660538  0.009320  0.748290  1
  Ti  Ti17  1  0.164113  0.488848  0.747863  1
  Ti  Ti18  1  0.337957  0.993286  0.250262  1
  Si  Si19  1  0.657017  0.036121  0.543077  1
  Si  Si20  1  0.160331  0.462817  0.958781  1
  Si  Si21  1  0.340618  0.962529  0.040916  1
  Si  Si22  1  0.838987  0.535208  0.459259  1
  Si  Si23  1  0.337127  0.962188  0.461717  1
  Si  Si24  1  0.839289  0.537497  0.039990  1
  Si  Si25  1  0.660789  0.037281  0.958584  1
  Si  Si26  1  0.162602  0.461659  0.541705  1
  Si  Si27  1  0.537109  0.373947  0.749710  1
  Si  Si28  1  0.039210  0.123222  0.749230  1
  Si  Si29  1  0.461176  0.626126  0.251093  1
  Si  Si30  1  0.963776  0.878698  0.250056  1
  Si  Si31  1  0.795026  0.626442  0.748821  1
  Si  Si32  1  0.295571  0.873644  0.749462  1
  Si  Si33  1  0.206864  0.371660  0.250452  1
  Si  Si34  1  0.704371  0.127967  0.250076  1
  Mo  Mo35  1  0.334782  0.176088  0.627086  1
