# generated using pymatgen
data_Ca2MoO4
_symmetry_space_group_name_H-M   'P 1'
_cell_length_a   3.29715100
_cell_length_b   5.75294200
_cell_length_c   9.74958400
_cell_angle_alpha   90.00000000
_cell_angle_beta   90.00000000
_cell_angle_gamma   90.00000000
_symmetry_Int_Tables_number   1
_chemical_formula_structural   Ca2MoO4
_chemical_formula_sum   'Ca4 Mo2 O8'
_cell_volume   184.93321424
_cell_formula_units_Z   2
loop_
 _symmetry_equiv_pos_site_id
 _symmetry_equiv_pos_as_xyz
  1  'x, y, z'
loop_
 _atom_site_type_symbol
 _atom_site_label
 _atom_site_symmetry_multiplicity
 _atom_site_fract_x
 _atom_site_fract_y
 _atom_site_fract_z
 _atom_site_occupancy
  Ca  Ca0  1  0.500000  0.071316  0.319120  1
  Ca  Ca1  1  0.500000  0.928684  0.680880  1
  Ca  Ca2  1  0.500000  0.428684  0.819120  1
  Ca  Ca3  1  0.500000  0.571316  0.180880  1
  Mo  Mo4  1  0.000000  0.000000  0.000000  1
  Mo  Mo5  1  0.000000  0.500000  0.500000  1
  O  O6  1  0.000000  0.135491  0.807350  1
  O  O7  1  0.000000  0.864509  0.192650  1
  O  O8  1  0.000000  0.635491  0.692650  1
  O  O9  1  0.000000  0.364509  0.307350  1
  O  O10  1  0.500000  0.272896  0.546825  1
  O  O11  1  0.500000  0.727104  0.453175  1
  O  O12  1  0.500000  0.227104  0.046825  1
  O  O13  1  0.500000  0.772896  0.953175  1
