# generated using pymatgen
data_Er3Tm7OsRu3
_symmetry_space_group_name_H-M   'P 1'
_cell_length_a   6.25738776
_cell_length_b   7.26691792
_cell_length_c   8.33975108
_cell_angle_alpha   96.84485068
_cell_angle_beta   112.09787040
_cell_angle_gamma   90.07028690
_symmetry_Int_Tables_number   1
_chemical_formula_structural   Er3Tm7OsRu3
_chemical_formula_sum   'Er3 Tm7 Os1 Ru3'
_cell_volume   348.42573368
_cell_formula_units_Z   1
loop_
 _symmetry_equiv_pos_site_id
 _symmetry_equiv_pos_as_xyz
  1  'x, y, z'
loop_
 _atom_site_type_symbol
 _atom_site_label
 _atom_site_symmetry_multiplicity
 _atom_site_fract_x
 _atom_site_fract_y
 _atom_site_fract_z
 _atom_site_occupancy
  Er  Er0  1  0.791968  0.083228  0.813798  1
  Er  Er1  1  0.975847  0.415606  0.183681  1
  Er  Er2  1  0.207929  0.915555  0.185921  1
  Tm  Tm3  1  0.023750  0.584311  0.814265  1
  Tm  Tm4  1  0.206133  0.184453  0.565533  1
  Tm  Tm5  1  0.640256  0.316818  0.436425  1
  Tm  Tm6  1  0.794728  0.815880  0.434767  1
  Tm  Tm7  1  0.358750  0.683888  0.564530  1
  Tm  Tm8  1  0.419388  0.250015  0.999422  1
  Tm  Tm9  1  0.580808  0.750255  0.999998  1
  Os  Os10  1  0.602637  0.423376  0.780829  1
  Ru  Ru11  1  0.823538  0.076694  0.220804  1
  Ru  Ru12  1  0.397268  0.576851  0.220214  1
  Ru  Ru13  1  0.177000  0.923068  0.779816  1
