# generated using pymatgen
data_YbDy(Si2Ni9)2
_symmetry_space_group_name_H-M   'P 1'
_cell_length_a   7.53965995
_cell_length_b   7.53965846
_cell_length_c   7.53965888
_cell_angle_alpha   99.56068227
_cell_angle_beta   99.56068283
_cell_angle_gamma   131.89870436
_symmetry_Int_Tables_number   1
_chemical_formula_structural   YbDy(Si2Ni9)2
_chemical_formula_sum   'Yb1 Dy1 Si4 Ni18'
_cell_volume   291.32499800
_cell_formula_units_Z   1
loop_
 _symmetry_equiv_pos_site_id
 _symmetry_equiv_pos_as_xyz
  1  'x, y, z'
loop_
 _atom_site_type_symbol
 _atom_site_label
 _atom_site_symmetry_multiplicity
 _atom_site_fract_x
 _atom_site_fract_y
 _atom_site_fract_z
 _atom_site_occupancy
  Yb  Yb0  1  0.500000  0.500000  0.000000  1
  Dy  Dy1  1  0.750000  0.250000  0.500000  1
  Si  Si2  1  0.624640  0.874786  0.749854  1
  Si  Si3  1  0.125214  0.375360  0.250146  1
  Si  Si4  1  0.125214  0.875068  0.749854  1
  Si  Si5  1  0.124932  0.874786  0.250146  1
  Ni  Ni6  1  0.250000  0.750000  0.500000  1
  Ni  Ni7  1  0.000000  0.000000  0.000000  1
  Ni  Ni8  1  0.686298  0.012654  0.079349  1
  Ni  Ni9  1  0.686298  0.606950  0.673644  1
  Ni  Ni10  1  0.262528  0.435833  0.579156  1
  Ni  Ni11  1  0.262528  0.683372  0.826695  1
  Ni  Ni12  1  0.933305  0.012654  0.326356  1
  Ni  Ni13  1  0.933305  0.606950  0.920651  1
  Ni  Ni14  1  0.856678  0.435833  0.173305  1
  Ni  Ni15  1  0.856678  0.683372  0.420844  1
  Ni  Ni16  1  0.564167  0.737472  0.420844  1
  Ni  Ni17  1  0.564167  0.143322  0.826695  1
  Ni  Ni18  1  0.987346  0.313702  0.920651  1
  Ni  Ni19  1  0.987346  0.066695  0.673644  1
  Ni  Ni20  1  0.316628  0.737472  0.173305  1
  Ni  Ni21  1  0.316628  0.143322  0.579156  1
  Ni  Ni22  1  0.393050  0.313702  0.326356  1
  Ni  Ni23  1  0.393050  0.066695  0.079349  1
