# generated using pymatgen
data_Sc4Co17Si9(TcP)3
_symmetry_space_group_name_H-M   'P 1'
_cell_length_a   3.67556400
_cell_length_b   10.31725906
_cell_length_c   11.81080725
_cell_angle_alpha   90.31602219
_cell_angle_beta   90.00000000
_cell_angle_gamma   90.00000000
_symmetry_Int_Tables_number   1
_chemical_formula_structural   Sc4Co17Si9(TcP)3
_chemical_formula_sum   'Sc4 Co17 Si9 Tc3 P3'
_cell_volume   447.87961972
_cell_formula_units_Z   1
loop_
 _symmetry_equiv_pos_site_id
 _symmetry_equiv_pos_as_xyz
  1  'x, y, z'
loop_
 _atom_site_type_symbol
 _atom_site_label
 _atom_site_symmetry_multiplicity
 _atom_site_fract_x
 _atom_site_fract_y
 _atom_site_fract_z
 _atom_site_occupancy
  Sc  Sc0  1  0.250000  0.580092  0.704550  1
  Sc  Sc1  1  0.250000  0.921324  0.203271  1
  Sc  Sc2  1  0.750000  0.422355  0.296576  1
  Sc  Sc3  1  0.750000  0.076176  0.797006  1
  Co  Co4  1  0.750000  0.207040  0.506429  1
  Co  Co5  1  0.250000  0.409753  0.486604  1
  Co  Co6  1  0.250000  0.088796  0.988812  1
  Co  Co7  1  0.750000  0.591176  0.509467  1
  Co  Co8  1  0.750000  0.911590  0.013861  1
  Co  Co9  1  0.250000  0.211249  0.175485  1
  Co  Co10  1  0.250000  0.286012  0.671060  1
  Co  Co11  1  0.750000  0.789002  0.827106  1
  Co  Co12  1  0.750000  0.713496  0.326351  1
  Co  Co13  1  0.250000  0.886041  0.703016  1
  Co  Co14  1  0.250000  0.615193  0.203024  1
  Co  Co15  1  0.750000  0.115821  0.298038  1
  Co  Co16  1  0.750000  0.381324  0.798790  1
  Co  Co17  1  0.250000  0.465323  0.931548  1
  Co  Co18  1  0.250000  0.034731  0.430952  1
  Co  Co19  1  0.750000  0.533331  0.068264  1
  Co  Co20  1  0.750000  0.970103  0.569175  1
  Si  Si21  1  0.250000  0.416772  0.117464  1
  Si  Si22  1  0.250000  0.084233  0.614554  1
  Si  Si23  1  0.750000  0.582459  0.882484  1
  Si  Si24  1  0.750000  0.918201  0.384017  1
  Si  Si25  1  0.250000  0.262076  0.863039  1
  Si  Si26  1  0.250000  0.235455  0.367759  1
  Si  Si27  1  0.750000  0.736141  0.136403  1
  Si  Si28  1  0.750000  0.766407  0.636110  1
  Si  Si29  1  0.750000  0.401077  0.606828  1
  Tc  Tc30  1  0.250000  0.708792  0.989779  1
  Tc  Tc31  1  0.250000  0.791325  0.489575  1
  Tc  Tc32  1  0.750000  0.290825  0.011289  1
  P  P33  1  0.250000  0.595741  0.389588  1
  P  P34  1  0.250000  0.904080  0.890688  1
  P  P35  1  0.750000  0.096489  0.111038  1
