# generated using pymatgen
data_Pr18Y2Si15Se
_symmetry_space_group_name_H-M   'P 1'
_cell_length_a   7.92560287
_cell_length_b   7.86667809
_cell_length_c   15.34063400
_cell_angle_alpha   89.58718336
_cell_angle_beta   89.11479968
_cell_angle_gamma   90.25504253
_symmetry_Int_Tables_number   1
_chemical_formula_structural   Pr18Y2Si15Se
_chemical_formula_sum   'Pr18 Y2 Si15 Se1'
_cell_volume   956.31147486
_cell_formula_units_Z   1
loop_
 _symmetry_equiv_pos_site_id
 _symmetry_equiv_pos_as_xyz
  1  'x, y, z'
loop_
 _atom_site_type_symbol
 _atom_site_label
 _atom_site_symmetry_multiplicity
 _atom_site_fract_x
 _atom_site_fract_y
 _atom_site_fract_z
 _atom_site_occupancy
  Pr  Pr0  1  0.798162  0.190889  0.752360  1
  Pr  Pr1  1  0.687041  0.689287  0.497388  1
  Pr  Pr2  1  0.379911  0.004915  0.442268  1
  Pr  Pr3  1  0.490733  0.872933  0.699352  1
  Pr  Pr4  1  0.510861  0.122078  0.195749  1
  Pr  Pr5  1  0.875987  0.484996  0.301103  1
  Pr  Pr6  1  0.123923  0.513157  0.803386  1
  Pr  Pr7  1  0.631377  0.985671  0.950876  1
  Pr  Pr8  1  0.999472  0.380653  0.548416  1
  Pr  Pr9  1  0.992067  0.623189  0.053554  1
  Pr  Pr10  1  0.136726  0.987081  0.874364  1
  Pr  Pr11  1  0.520738  0.629920  0.125577  1
  Pr  Pr12  1  0.475976  0.369277  0.631188  1
  Pr  Pr13  1  0.633496  0.522579  0.876200  1
  Pr  Pr14  1  0.369577  0.475878  0.373471  1
  Pr  Pr15  1  0.870961  0.019581  0.376331  1
  Pr  Pr16  1  0.982453  0.128151  0.124108  1
  Pr  Pr17  1  0.017342  0.870885  0.620699  1
  Y  Y18  1  0.313063  0.311561  0.000143  1
  Y  Y19  1  0.187631  0.808985  0.249064  1
  Si  Si20  1  0.331066  0.694775  0.952704  1
  Si  Si21  1  0.662601  0.304066  0.454812  1
  Si  Si22  1  0.698446  0.333265  0.048534  1
  Si  Si23  1  0.303055  0.666255  0.547892  1
  Si  Si24  1  0.808671  0.829360  0.204299  1
  Si  Si25  1  0.169887  0.189911  0.294457  1
  Si  Si26  1  0.841401  0.804738  0.796305  1
  Si  Si27  1  0.287288  0.923827  0.060826  1
  Si  Si28  1  0.573865  0.785461  0.307868  1
  Si  Si29  1  0.444642  0.213086  0.827115  1
  Si  Si30  1  0.788127  0.579823  0.688668  1
  Si  Si31  1  0.212841  0.424917  0.188205  1
  Si  Si32  1  0.702847  0.074518  0.561085  1
  Si  Si33  1  0.931157  0.290782  0.941241  1
  Si  Si34  1  0.079917  0.712733  0.436773  1
  Se  Se35  1  0.166687  0.180814  0.693622  1
