# generated using pymatgen
data_Tb3DyFe(NiO4)3
_symmetry_space_group_name_H-M   'P 1'
_cell_length_a   5.23814913
_cell_length_b   5.68725176
_cell_length_c   7.54678308
_cell_angle_alpha   89.57735958
_cell_angle_beta   90.11991851
_cell_angle_gamma   89.92696992
_symmetry_Int_Tables_number   1
_chemical_formula_structural   Tb3DyFe(NiO4)3
_chemical_formula_sum   'Tb3 Dy1 Fe1 Ni3 O12'
_cell_volume   224.81694967
_cell_formula_units_Z   1
loop_
 _symmetry_equiv_pos_site_id
 _symmetry_equiv_pos_as_xyz
  1  'x, y, z'
loop_
 _atom_site_type_symbol
 _atom_site_label
 _atom_site_symmetry_multiplicity
 _atom_site_fract_x
 _atom_site_fract_y
 _atom_site_fract_z
 _atom_site_occupancy
  Tb  Tb0  1  0.022121  0.918082  0.755610  1
  Tb  Tb1  1  0.519974  0.575871  0.244594  1
  Tb  Tb2  1  0.479741  0.424366  0.755418  1
  Dy  Dy3  1  0.977781  0.082775  0.244248  1
  Fe  Fe4  1  0.499996  0.000086  0.499853  1
  Ni  Ni5  1  0.000040  0.499979  0.500127  1
  Ni  Ni6  1  0.000025  0.499894  0.999951  1
  Ni  Ni7  1  0.500023  0.000013  0.999893  1
  O  O8  1  0.691470  0.301305  0.443961  1
  O  O9  1  0.202265  0.185022  0.552514  1
  O  O10  1  0.801898  0.814108  0.053088  1
  O  O11  1  0.305620  0.690529  0.949391  1
  O  O12  1  0.309486  0.697979  0.555428  1
  O  O13  1  0.798472  0.816274  0.446188  1
  O  O14  1  0.198791  0.186992  0.948391  1
  O  O15  1  0.695349  0.308660  0.051317  1
  O  O16  1  0.103797  0.468352  0.248581  1
  O  O17  1  0.606742  0.032206  0.748917  1
  O  O18  1  0.390425  0.967773  0.251060  1
  O  O19  1  0.895984  0.529733  0.751470  1
