# generated using pymatgen
data_HoTm3(GaCo)4
_symmetry_space_group_name_H-M   'P 1'
_cell_length_a   4.34638400
_cell_length_b   6.91633727
_cell_length_c   6.92938200
_cell_angle_alpha   90.01718718
_cell_angle_beta   90.00000000
_cell_angle_gamma   90.00000000
_symmetry_Int_Tables_number   1
_chemical_formula_structural   HoTm3(GaCo)4
_chemical_formula_sum   'Ho1 Tm3 Ga4 Co4'
_cell_volume   208.30454237
_cell_formula_units_Z   1
loop_
 _symmetry_equiv_pos_site_id
 _symmetry_equiv_pos_as_xyz
  1  'x, y, z'
loop_
 _atom_site_type_symbol
 _atom_site_label
 _atom_site_symmetry_multiplicity
 _atom_site_fract_x
 _atom_site_fract_y
 _atom_site_fract_z
 _atom_site_occupancy
  Ho  Ho0  1  0.750000  0.803874  0.982581  1
  Tm  Tm1  1  0.250000  0.303157  0.518313  1
  Tm  Tm2  1  0.250000  0.197839  0.018375  1
  Tm  Tm3  1  0.750000  0.696384  0.482339  1
  Ga  Ga4  1  0.250000  0.895657  0.696061  1
  Ga  Ga5  1  0.250000  0.603925  0.197525  1
  Ga  Ga6  1  0.750000  0.105279  0.303321  1
  Ga  Ga7  1  0.750000  0.394711  0.803280  1
  Co  Co8  1  0.250000  0.937932  0.341881  1
  Co  Co9  1  0.250000  0.561353  0.841687  1
  Co  Co10  1  0.750000  0.062342  0.656372  1
  Co  Co11  1  0.750000  0.437547  0.158265  1
