# generated using pymatgen
data_La5ThIr17Rh
_symmetry_space_group_name_H-M   'P 1'
_cell_length_a   5.39978200
_cell_length_b   5.39978066
_cell_length_c   17.80929400
_cell_angle_alpha   90.00000000
_cell_angle_beta   90.00000000
_cell_angle_gamma   119.99998367
_symmetry_Int_Tables_number   1
_chemical_formula_structural   La5ThIr17Rh
_chemical_formula_sum   'La5 Th1 Ir17 Rh1'
_cell_volume   449.70710887
_cell_formula_units_Z   1
loop_
 _symmetry_equiv_pos_site_id
 _symmetry_equiv_pos_as_xyz
  1  'x, y, z'
loop_
 _atom_site_type_symbol
 _atom_site_label
 _atom_site_symmetry_multiplicity
 _atom_site_fract_x
 _atom_site_fract_y
 _atom_site_fract_z
 _atom_site_occupancy
  La  La0  1  0.333333  0.666667  0.541356  1
  La  La1  1  0.666667  0.333333  0.039776  1
  La  La2  1  0.666667  0.333333  0.460224  1
  La  La3  1  0.333333  0.666667  0.958644  1
  La  La4  1  0.333333  0.666667  0.750000  1
  Th  Th5  1  0.666667  0.333333  0.250000  1
  Ir  Ir6  1  0.166282  0.332564  0.128827  1
  Ir  Ir7  1  0.833036  0.666072  0.628477  1
  Ir  Ir8  1  0.667436  0.833718  0.128827  1
  Ir  Ir9  1  0.166282  0.833718  0.128827  1
  Ir  Ir10  1  0.833036  0.166964  0.628477  1
  Ir  Ir11  1  0.333928  0.166964  0.628477  1
  Ir  Ir12  1  0.833036  0.666072  0.871523  1
  Ir  Ir13  1  0.833036  0.166964  0.871523  1
  Ir  Ir14  1  0.333928  0.166964  0.871523  1
  Ir  Ir15  1  0.667436  0.833718  0.371173  1
  Ir  Ir16  1  0.166282  0.833718  0.371173  1
  Ir  Ir17  1  0.166282  0.332564  0.371173  1
  Ir  Ir18  1  0.000000  0.000000  0.250000  1
  Ir  Ir19  1  0.000000  0.000000  0.750000  1
  Ir  Ir20  1  0.333333  0.666667  0.250000  1
  Ir  Ir21  1  0.000000  0.000000  0.999818  1
  Ir  Ir22  1  0.000000  0.000000  0.500182  1
  Rh  Rh23  1  0.666667  0.333333  0.750000  1
