# generated using pymatgen
data_Y4Hf5Nb3Sn10
_symmetry_space_group_name_H-M   'P 1'
_cell_length_a   11.15687445
_cell_length_b   11.15701885
_cell_length_c   11.15740500
_cell_angle_alpha   149.32562919
_cell_angle_beta   131.85113506
_cell_angle_gamma   58.17363459
_symmetry_Int_Tables_number   1
_chemical_formula_structural   Y4Hf5Nb3Sn10
_chemical_formula_sum   'Y4 Hf5 Nb3 Sn10'
_cell_volume   523.80548385
_cell_formula_units_Z   1
loop_
 _symmetry_equiv_pos_site_id
 _symmetry_equiv_pos_as_xyz
  1  'x, y, z'
loop_
 _atom_site_type_symbol
 _atom_site_label
 _atom_site_symmetry_multiplicity
 _atom_site_fract_x
 _atom_site_fract_y
 _atom_site_fract_z
 _atom_site_occupancy
  Y  Y0  1  0.259435  0.145691  0.113930  1
  Y  Y1  1  0.741367  0.854425  0.887006  1
  Y  Y2  1  0.031776  0.645512  0.386073  1
  Y  Y3  1  0.967402  0.354344  0.612973  1
  Hf  Hf4  1  0.310556  0.060571  0.750014  1
  Hf  Hf5  1  0.673243  0.436362  0.237115  1
  Hf  Hf6  1  0.327766  0.563389  0.762634  1
  Hf  Hf7  1  0.199265  0.936118  0.262890  1
  Hf  Hf8  1  0.800755  0.065078  0.737305  1
  Nb  Nb9  1  0.311138  0.561173  0.249999  1
  Nb  Nb10  1  0.688257  0.438261  0.749993  1
  Nb  Nb11  1  0.688919  0.938945  0.250038  1
  Sn  Sn12  1  0.585967  0.290951  0.302291  1
  Sn  Sn13  1  0.417737  0.707626  0.701511  1
  Sn  Sn14  1  0.988653  0.783668  0.197689  1
  Sn  Sn15  1  0.006128  0.216232  0.798509  1
  Sn  Sn16  1  0.000097  0.250103  0.250012  1
  Sn  Sn17  1  0.000262  0.750263  0.750004  1
  Sn  Sn18  1  0.469467  0.067504  0.400170  1
  Sn  Sn19  1  0.532214  0.930060  0.597806  1
  Sn  Sn20  1  0.667336  0.569302  0.099827  1
  Sn  Sn21  1  0.332261  0.434425  0.902213  1
