# generated using pymatgen
data_Er2Sc4Co17P12Ru
_symmetry_space_group_name_H-M   'P 1'
_cell_length_a   3.62850700
_cell_length_b   10.40465900
_cell_length_c   12.04349800
_cell_angle_alpha   90.00000000
_cell_angle_beta   90.00000000
_cell_angle_gamma   90.00000000
_symmetry_Int_Tables_number   1
_chemical_formula_structural   Er2Sc4Co17P12Ru
_chemical_formula_sum   'Er2 Sc4 Co17 P12 Ru1'
_cell_volume   454.68273261
_cell_formula_units_Z   1
loop_
 _symmetry_equiv_pos_site_id
 _symmetry_equiv_pos_as_xyz
  1  'x, y, z'
loop_
 _atom_site_type_symbol
 _atom_site_label
 _atom_site_symmetry_multiplicity
 _atom_site_fract_x
 _atom_site_fract_y
 _atom_site_fract_z
 _atom_site_occupancy
  Er  Er0  1  0.750000  0.250000  0.473210  1
  Er  Er1  1  0.250000  0.750000  0.524210  1
  Sc  Sc2  1  0.250000  0.931757  0.792999  1
  Sc  Sc3  1  0.250000  0.568243  0.792999  1
  Sc  Sc4  1  0.750000  0.068545  0.205794  1
  Sc  Sc5  1  0.750000  0.431455  0.205794  1
  Co  Co6  1  0.750000  0.750000  0.160111  1
  Co  Co7  1  0.250000  0.250000  0.294243  1
  Co  Co8  1  0.750000  0.750000  0.706496  1
  Co  Co9  1  0.750000  0.250000  0.012642  1
  Co  Co10  1  0.250000  0.750000  0.986159  1
  Co  Co11  1  0.250000  0.418274  0.009672  1
  Co  Co12  1  0.250000  0.081726  0.009672  1
  Co  Co13  1  0.750000  0.583243  0.994055  1
  Co  Co14  1  0.750000  0.916757  0.994055  1
  Co  Co15  1  0.250000  0.453088  0.569670  1
  Co  Co16  1  0.250000  0.046912  0.569670  1
  Co  Co17  1  0.750000  0.547084  0.430920  1
  Co  Co18  1  0.750000  0.952916  0.430920  1
  Co  Co19  1  0.250000  0.873108  0.290203  1
  Co  Co20  1  0.250000  0.626892  0.290203  1
  Co  Co21  1  0.750000  0.126906  0.708842  1
  Co  Co22  1  0.750000  0.373094  0.708842  1
  P  P23  1  0.250000  0.250000  0.119588  1
  P  P24  1  0.750000  0.750000  0.881713  1
  P  P25  1  0.250000  0.250000  0.648081  1
  P  P26  1  0.750000  0.750000  0.345861  1
  P  P27  1  0.250000  0.437253  0.379994  1
  P  P28  1  0.250000  0.062747  0.379994  1
  P  P29  1  0.750000  0.563628  0.619232  1
  P  P30  1  0.750000  0.936372  0.619232  1
  P  P31  1  0.250000  0.903669  0.110091  1
  P  P32  1  0.250000  0.596331  0.110091  1
  P  P33  1  0.750000  0.091550  0.891951  1
  P  P34  1  0.750000  0.408450  0.891951  1
  Ru  Ru35  1  0.250000  0.250000  0.840842  1
