# generated using pymatgen
data_La3Sm(Ga5Pt3)2
_symmetry_space_group_name_H-M   'P 1'
_cell_length_a   8.70734739
_cell_length_b   8.70559680
_cell_length_c   8.70559670
_cell_angle_alpha   139.42057675
_cell_angle_beta   106.77684164
_cell_angle_gamma   87.23737283
_symmetry_Int_Tables_number   1
_chemical_formula_structural   La3Sm(Ga5Pt3)2
_chemical_formula_sum   'La3 Sm1 Ga10 Pt6'
_cell_volume   395.19912451
_cell_formula_units_Z   1
loop_
 _symmetry_equiv_pos_site_id
 _symmetry_equiv_pos_as_xyz
  1  'x, y, z'
loop_
 _atom_site_type_symbol
 _atom_site_label
 _atom_site_symmetry_multiplicity
 _atom_site_fract_x
 _atom_site_fract_y
 _atom_site_fract_z
 _atom_site_occupancy
  La  La0  1  0.638853  0.366930  0.271923  1
  La  La1  1  0.361717  0.633352  0.728365  1
  La  La2  1  0.094342  0.865987  0.228355  1
  Sm  Sm3  1  0.905832  0.133820  0.772012  1
  Ga  Ga4  1  0.278547  0.529012  0.248987  1
  Ga  Ga5  1  0.720410  0.468379  0.749798  1
  Ga  Ga6  1  0.720410  0.970612  0.252031  1
  Ga  Ga7  1  0.278547  0.029560  0.749535  1
  Ga  Ga8  1  0.448089  0.103096  0.344993  1
  Ga  Ga9  1  0.553786  0.898468  0.655317  1
  Ga  Ga10  1  0.758864  0.602975  0.155890  1
  Ga  Ga11  1  0.242013  0.396461  0.845550  1
  Ga  Ga12  1  0.999192  0.249912  0.247935  1
  Ga  Ga13  1  0.999192  0.751257  0.749279  1
  Pt  Pt14  1  0.248249  0.140327  0.107924  1
  Pt  Pt15  1  0.750922  0.859187  0.891734  1
  Pt  Pt16  1  0.031696  0.640711  0.390985  1
  Pt  Pt17  1  0.968136  0.359443  0.608692  1
  Pt  Pt18  1  0.500602  0.250240  0.750329  1
  Pt  Pt19  1  0.500602  0.750273  0.250362  1
