# generated using pymatgen
data_SmWF7
_symmetry_space_group_name_H-M   'P 1'
_cell_length_a   5.77421100
_cell_length_b   9.19338934
_cell_length_c   12.35516587
_cell_angle_alpha   62.34768079
_cell_angle_beta   90.00000000
_cell_angle_gamma   90.00000000
_symmetry_Int_Tables_number   1
_chemical_formula_structural   SmWF7
_chemical_formula_sum   'Sm4 W4 F28'
_cell_volume   580.95544779
_cell_formula_units_Z   4
loop_
 _symmetry_equiv_pos_site_id
 _symmetry_equiv_pos_as_xyz
  1  'x, y, z'
loop_
 _atom_site_type_symbol
 _atom_site_label
 _atom_site_symmetry_multiplicity
 _atom_site_fract_x
 _atom_site_fract_y
 _atom_site_fract_z
 _atom_site_occupancy
  Sm  Sm0  1  0.752264  0.812805  0.267051  1
  Sm  Sm1  1  0.252264  0.187195  0.232949  1
  Sm  Sm2  1  0.247736  0.187195  0.732949  1
  Sm  Sm3  1  0.747736  0.812805  0.767051  1
  W  W4  1  0.245607  0.726580  0.544053  1
  W  W5  1  0.745607  0.273420  0.955947  1
  W  W6  1  0.754393  0.273420  0.455947  1
  W  W7  1  0.254393  0.726580  0.044053  1
  F  F8  1  0.959400  0.717750  0.454107  1
  F  F9  1  0.459400  0.282250  0.045893  1
  F  F10  1  0.040600  0.282250  0.545893  1
  F  F11  1  0.540600  0.717750  0.954107  1
  F  F12  1  0.037174  0.708738  0.918806  1
  F  F13  1  0.537174  0.291262  0.581194  1
  F  F14  1  0.962826  0.291262  0.081194  1
  F  F15  1  0.462826  0.708738  0.418806  1
  F  F16  1  0.728409  0.517559  0.859814  1
  F  F17  1  0.228409  0.482441  0.640186  1
  F  F18  1  0.271591  0.482441  0.140186  1
  F  F19  1  0.771591  0.517559  0.359814  1
  F  F20  1  0.739855  0.029631  0.053151  1
  F  F21  1  0.239855  0.970369  0.446849  1
  F  F22  1  0.260145  0.970369  0.946849  1
  F  F23  1  0.760145  0.029631  0.553151  1
  F  F24  1  0.035620  0.745767  0.671433  1
  F  F25  1  0.535620  0.254233  0.828567  1
  F  F26  1  0.964380  0.254233  0.328567  1
  F  F27  1  0.464380  0.745767  0.171433  1
  F  F28  1  0.022051  0.266981  0.860695  1
  F  F29  1  0.522051  0.733019  0.639305  1
  F  F30  1  0.977949  0.733019  0.139305  1
  F  F31  1  0.477949  0.266981  0.360695  1
  F  F32  1  0.077293  0.968582  0.234030  1
  F  F33  1  0.577293  0.031418  0.265970  1
  F  F34  1  0.922707  0.031418  0.765970  1
  F  F35  1  0.422707  0.968582  0.734030  1
