# generated using pymatgen
data_Er9Tm3Co4
_symmetry_space_group_name_H-M   'P 1'
_cell_length_a   6.14893212
_cell_length_b   6.89636403
_cell_length_c   9.31534522
_cell_angle_alpha   90.01015658
_cell_angle_beta   89.97725110
_cell_angle_gamma   89.99825422
_symmetry_Int_Tables_number   1
_chemical_formula_structural   Er9Tm3Co4
_chemical_formula_sum   'Er9 Tm3 Co4'
_cell_volume   395.01973169
_cell_formula_units_Z   1
loop_
 _symmetry_equiv_pos_site_id
 _symmetry_equiv_pos_as_xyz
  1  'x, y, z'
loop_
 _atom_site_type_symbol
 _atom_site_label
 _atom_site_symmetry_multiplicity
 _atom_site_fract_x
 _atom_site_fract_y
 _atom_site_fract_z
 _atom_site_occupancy
  Er  Er0  1  0.824512  0.824424  0.933194  1
  Er  Er1  1  0.676703  0.323950  0.932635  1
  Er  Er2  1  0.824131  0.824411  0.566871  1
  Er  Er3  1  0.323981  0.675311  0.432666  1
  Er  Er4  1  0.176740  0.176094  0.067849  1
  Er  Er5  1  0.861957  0.541380  0.250161  1
  Er  Er6  1  0.638232  0.041874  0.250544  1
  Er  Er7  1  0.138209  0.458103  0.749672  1
  Er  Er8  1  0.361571  0.959168  0.749823  1
  Tm  Tm9  1  0.324500  0.675793  0.067441  1
  Tm  Tm10  1  0.175540  0.175169  0.432634  1
  Tm  Tm11  1  0.675708  0.324351  0.567222  1
  Co  Co12  1  0.048483  0.886393  0.249685  1
  Co  Co13  1  0.450885  0.386697  0.250758  1
  Co  Co14  1  0.950746  0.113392  0.748326  1
  Co  Co15  1  0.548101  0.613490  0.750518  1
