# generated using pymatgen
data_Zr2NbSi2W
_symmetry_space_group_name_H-M   'P 1'
_cell_length_a   3.58516500
_cell_length_b   7.02940700
_cell_length_c   8.39235300
_cell_angle_alpha   90.00000000
_cell_angle_beta   90.00000000
_cell_angle_gamma   90.00000000
_symmetry_Int_Tables_number   1
_chemical_formula_structural   Zr2NbSi2W
_chemical_formula_sum   'Zr4 Nb2 Si4 W2'
_cell_volume   211.50058864
_cell_formula_units_Z   2
loop_
 _symmetry_equiv_pos_site_id
 _symmetry_equiv_pos_as_xyz
  1  'x, y, z'
loop_
 _atom_site_type_symbol
 _atom_site_label
 _atom_site_symmetry_multiplicity
 _atom_site_fract_x
 _atom_site_fract_y
 _atom_site_fract_z
 _atom_site_occupancy
  Zr  Zr0  1  0.250000  0.043898  0.333555  1
  Zr  Zr1  1  0.250000  0.543898  0.166445  1
  Zr  Zr2  1  0.750000  0.958110  0.668167  1
  Zr  Zr3  1  0.750000  0.458110  0.831833  1
  Nb  Nb4  1  0.250000  0.130335  0.940526  1
  Nb  Nb5  1  0.250000  0.630335  0.559474  1
  Si  Si6  1  0.250000  0.254805  0.634888  1
  Si  Si7  1  0.250000  0.754805  0.865112  1
  Si  Si8  1  0.750000  0.744493  0.357481  1
  Si  Si9  1  0.750000  0.244493  0.142519  1
  W  W10  1  0.750000  0.868359  0.061481  1
  W  W11  1  0.750000  0.368359  0.438519  1
