# generated using pymatgen
data_Yb2Mn4P7Ir8
_symmetry_space_group_name_H-M   'P 1'
_cell_length_a   9.48983955
_cell_length_b   9.38077480
_cell_length_c   3.88553700
_cell_angle_alpha   90.00000000
_cell_angle_beta   90.00000000
_cell_angle_gamma   120.10729848
_symmetry_Int_Tables_number   1
_chemical_formula_structural   Yb2Mn4P7Ir8
_chemical_formula_sum   'Yb2 Mn4 P7 Ir8'
_cell_volume   299.23244441
_cell_formula_units_Z   1
loop_
 _symmetry_equiv_pos_site_id
 _symmetry_equiv_pos_as_xyz
  1  'x, y, z'
loop_
 _atom_site_type_symbol
 _atom_site_label
 _atom_site_symmetry_multiplicity
 _atom_site_fract_x
 _atom_site_fract_y
 _atom_site_fract_z
 _atom_site_occupancy
  Yb  Yb0  1  0.332232  0.665463  0.000000  1
  Yb  Yb1  1  0.665752  0.331947  0.500000  1
  Mn  Mn2  1  0.729327  0.888613  0.000000  1
  Mn  Mn3  1  0.162942  0.273957  0.000000  1
  Mn  Mn4  1  0.906953  0.121760  0.500000  1
  Mn  Mn5  1  0.231182  0.097205  0.500000  1
  P  P6  1  0.879527  0.575301  0.000000  1
  P  P7  1  0.702719  0.111394  0.000000  1
  P  P8  1  0.409624  0.297625  0.000000  1
  P  P9  1  0.286775  0.886240  0.500000  1
  P  P10  1  0.595722  0.720962  0.500000  1
  P  P11  1  0.121025  0.395272  0.500000  1
  P  P12  1  0.995093  0.011456  0.000000  1
  Ir  Ir13  1  0.635436  0.570238  0.000000  1
  Ir  Ir14  1  0.938466  0.361936  0.000000  1
  Ir  Ir15  1  0.434204  0.066757  0.000000  1
  Ir  Ir16  1  0.101424  0.840995  0.000000  1
  Ir  Ir17  1  0.057129  0.610073  0.500000  1
  Ir  Ir18  1  0.561996  0.947890  0.500000  1
  Ir  Ir19  1  0.389444  0.443393  0.500000  1
  Ir  Ir20  1  0.863028  0.781524  0.500000  1
