# generated using pymatgen
data_LaEu3U4O14
_symmetry_space_group_name_H-M   'P 1'
_cell_length_a   7.94013110
_cell_length_b   7.82578461
_cell_length_c   7.82578400
_cell_angle_alpha   60.00000260
_cell_angle_beta   60.47525401
_cell_angle_gamma   60.47525111
_symmetry_Int_Tables_number   1
_chemical_formula_structural   LaEu3U4O14
_chemical_formula_sum   'La1 Eu3 U4 O14'
_cell_volume   346.29888403
_cell_formula_units_Z   1
loop_
 _symmetry_equiv_pos_site_id
 _symmetry_equiv_pos_as_xyz
  1  'x, y, z'
loop_
 _atom_site_type_symbol
 _atom_site_label
 _atom_site_symmetry_multiplicity
 _atom_site_fract_x
 _atom_site_fract_y
 _atom_site_fract_z
 _atom_site_occupancy
  La  La0  1  0.625000  0.125000  0.125000  1
  Eu  Eu1  1  0.125000  0.625000  0.125000  1
  Eu  Eu2  1  0.125000  0.125000  0.625000  1
  Eu  Eu3  1  0.125000  0.125000  0.125000  1
  U  U4  1  0.125000  0.625000  0.625000  1
  U  U5  1  0.625000  0.125000  0.625000  1
  U  U6  1  0.625000  0.625000  0.125000  1
  U  U7  1  0.625000  0.625000  0.625000  1
  O  O8  1  0.249035  0.250322  0.250322  1
  O  O9  1  0.000965  0.999678  0.999678  1
  O  O10  1  0.713964  0.699765  0.293136  1
  O  O11  1  0.293068  0.302932  0.702000  1
  O  O12  1  0.713964  0.293136  0.699765  1
  O  O13  1  0.293068  0.702000  0.302932  1
  O  O14  1  0.293068  0.702000  0.702000  1
  O  O15  1  0.713964  0.293136  0.293136  1
  O  O16  1  0.536036  0.550235  0.956864  1
  O  O17  1  0.956932  0.947068  0.548000  1
  O  O18  1  0.536036  0.956864  0.550235  1
  O  O19  1  0.956932  0.548000  0.947068  1
  O  O20  1  0.956932  0.548000  0.548000  1
  O  O21  1  0.536036  0.956864  0.956864  1
