# generated using pymatgen
data_Hf6MnFe15Si7
_symmetry_space_group_name_H-M   'P 1'
_cell_length_a   8.05673077
_cell_length_b   8.05673037
_cell_length_c   8.05673019
_cell_angle_alpha   60.05086908
_cell_angle_beta   60.05087286
_cell_angle_gamma   60.05086902
_symmetry_Int_Tables_number   1
_chemical_formula_structural   Hf6MnFe15Si7
_chemical_formula_sum   'Hf6 Mn1 Fe15 Si7'
_cell_volume   370.22176817
_cell_formula_units_Z   1
loop_
 _symmetry_equiv_pos_site_id
 _symmetry_equiv_pos_as_xyz
  1  'x, y, z'
loop_
 _atom_site_type_symbol
 _atom_site_label
 _atom_site_symmetry_multiplicity
 _atom_site_fract_x
 _atom_site_fract_y
 _atom_site_fract_z
 _atom_site_occupancy
  Hf  Hf0  1  0.298698  0.702889  0.702889  1
  Hf  Hf1  1  0.702889  0.702889  0.298698  1
  Hf  Hf2  1  0.293504  0.293504  0.705513  1
  Hf  Hf3  1  0.705513  0.293504  0.293504  1
  Hf  Hf4  1  0.702889  0.298698  0.702889  1
  Hf  Hf5  1  0.293504  0.705513  0.293504  1
  Mn  Mn6  1  0.879630  0.879630  0.879630  1
  Fe  Fe7  1  0.027082  0.324754  0.324754  1
  Fe  Fe8  1  0.118730  0.118730  0.637134  1
  Fe  Fe9  1  0.324754  0.027082  0.324754  1
  Fe  Fe10  1  0.324796  0.324796  0.324796  1
  Fe  Fe11  1  0.675892  0.675892  0.974281  1
  Fe  Fe12  1  0.877938  0.877938  0.365849  1
  Fe  Fe13  1  0.675681  0.675681  0.675681  1
  Fe  Fe14  1  0.675892  0.974281  0.675892  1
  Fe  Fe15  1  0.324754  0.324754  0.027082  1
  Fe  Fe16  1  0.877938  0.365849  0.877938  1
  Fe  Fe17  1  0.637134  0.118730  0.118730  1
  Fe  Fe18  1  0.118730  0.637134  0.118730  1
  Fe  Fe19  1  0.122494  0.122494  0.122494  1
  Fe  Fe20  1  0.974281  0.675892  0.675892  1
  Fe  Fe21  1  0.365849  0.877938  0.877938  1
  Si  Si22  1  0.000558  0.000558  0.496668  1
  Si  Si23  1  0.000558  0.496668  0.000558  1
  Si  Si24  1  0.003421  0.003421  0.003421  1
  Si  Si25  1  0.500022  0.000175  0.500022  1
  Si  Si26  1  0.000175  0.500022  0.500022  1
  Si  Si27  1  0.496668  0.000558  0.000558  1
  Si  Si28  1  0.500022  0.500022  0.000175  1
