# generated using pymatgen
data_La2Co2As4IrRh
_symmetry_space_group_name_H-M   'P 1'
_cell_length_a   4.24632600
_cell_length_b   4.24632600
_cell_length_c   9.80898300
_cell_angle_alpha   90.00000000
_cell_angle_beta   90.00000000
_cell_angle_gamma   90.00000000
_symmetry_Int_Tables_number   1
_chemical_formula_structural   La2Co2As4IrRh
_chemical_formula_sum   'La2 Co2 As4 Ir1 Rh1'
_cell_volume   176.86856311
_cell_formula_units_Z   1
loop_
 _symmetry_equiv_pos_site_id
 _symmetry_equiv_pos_as_xyz
  1  'x, y, z'
loop_
 _atom_site_type_symbol
 _atom_site_label
 _atom_site_symmetry_multiplicity
 _atom_site_fract_x
 _atom_site_fract_y
 _atom_site_fract_z
 _atom_site_occupancy
  La  La0  1  0.000000  0.500000  0.261961  1
  La  La1  1  0.500000  0.000000  0.738039  1
  Co  Co2  1  0.000000  0.500000  0.609125  1
  Co  Co3  1  0.500000  0.000000  0.390875  1
  As  As4  1  0.000000  0.000000  0.500000  1
  As  As5  1  0.500000  0.500000  0.500000  1
  As  As6  1  0.000000  0.500000  0.851481  1
  As  As7  1  0.500000  0.000000  0.148519  1
  Ir  Ir8  1  0.000000  0.000000  0.000000  1
  Rh  Rh9  1  0.500000  0.500000  0.000000  1
