# generated using pymatgen
data_Dy11In9(OsAu)2
_symmetry_space_group_name_H-M   'P 1'
_cell_length_a   3.60892200
_cell_length_b   13.25417568
_cell_length_c   13.39491881
_cell_angle_alpha   110.69925862
_cell_angle_beta   90.00000000
_cell_angle_gamma   90.00000000
_symmetry_Int_Tables_number   1
_chemical_formula_structural   Dy11In9(OsAu)2
_chemical_formula_sum   'Dy11 In9 Os2 Au2'
_cell_volume   599.36342241
_cell_formula_units_Z   1
loop_
 _symmetry_equiv_pos_site_id
 _symmetry_equiv_pos_as_xyz
  1  'x, y, z'
loop_
 _atom_site_type_symbol
 _atom_site_label
 _atom_site_symmetry_multiplicity
 _atom_site_fract_x
 _atom_site_fract_y
 _atom_site_fract_z
 _atom_site_occupancy
  Dy  Dy0  1  0.000000  0.930566  0.582046  1
  Dy  Dy1  1  0.000000  0.069434  0.417954  1
  Dy  Dy2  1  0.000000  0.583764  0.929682  1
  Dy  Dy3  1  0.000000  0.416236  0.070318  1
  Dy  Dy4  1  0.000000  0.158416  0.844716  1
  Dy  Dy5  1  0.000000  0.841584  0.155284  1
  Dy  Dy6  1  0.000000  0.383513  0.639762  1
  Dy  Dy7  1  0.000000  0.616487  0.360238  1
  Dy  Dy8  1  0.000000  0.682819  0.697851  1
  Dy  Dy9  1  0.000000  0.317181  0.302149  1
  Dy  Dy10  1  0.000000  0.000000  0.000000  1
  In  In11  1  0.500000  0.155824  0.636701  1
  In  In12  1  0.500000  0.844176  0.363299  1
  In  In13  1  0.500000  0.633929  0.159588  1
  In  In14  1  0.500000  0.366071  0.840412  1
  In  In15  1  0.500000  0.930579  0.785468  1
  In  In16  1  0.500000  0.069421  0.214532  1
  In  In17  1  0.500000  0.780604  0.923321  1
  In  In18  1  0.500000  0.219396  0.076679  1
  In  In19  1  0.500000  0.500000  0.500000  1
  Os  Os20  1  0.500000  0.549979  0.762291  1
  Os  Os21  1  0.500000  0.450021  0.237709  1
  Au  Au22  1  0.500000  0.746967  0.545989  1
  Au  Au23  1  0.500000  0.253033  0.454011  1
