# generated using pymatgen
data_YbPa3Sn2Pd3Pt
_symmetry_space_group_name_H-M   'P 1'
_cell_length_a   7.79454881
_cell_length_b   7.74494590
_cell_length_c   3.69046900
_cell_angle_alpha   90.00000000
_cell_angle_beta   90.00000000
_cell_angle_gamma   90.26938062
_symmetry_Int_Tables_number   1
_chemical_formula_structural   YbPa3Sn2Pd3Pt
_chemical_formula_sum   'Yb1 Pa3 Sn2 Pd3 Pt1'
_cell_volume   222.78509476
_cell_formula_units_Z   1
loop_
 _symmetry_equiv_pos_site_id
 _symmetry_equiv_pos_as_xyz
  1  'x, y, z'
loop_
 _atom_site_type_symbol
 _atom_site_label
 _atom_site_symmetry_multiplicity
 _atom_site_fract_x
 _atom_site_fract_y
 _atom_site_fract_z
 _atom_site_occupancy
  Yb  Yb0  1  0.826772  0.674946  0.500000  1
  Pa  Pa1  1  0.675155  0.173595  0.500000  1
  Pa  Pa2  1  0.323096  0.822775  0.500000  1
  Pa  Pa3  1  0.172267  0.331585  0.500000  1
  Sn  Sn4  1  0.994560  0.993315  0.000000  1
  Sn  Sn5  1  0.512335  0.503541  0.000000  1
  Pd  Pd6  1  0.873293  0.362993  0.000000  1
  Pd  Pd7  1  0.618070  0.882342  0.000000  1
  Pd  Pd8  1  0.366906  0.133244  0.000000  1
  Pt  Pt9  1  0.137546  0.621666  0.000000  1
