# generated using pymatgen
data_La8Hg2IrOs
_symmetry_space_group_name_H-M   'P 1'
_cell_length_a   10.08459099
_cell_length_b   10.08463205
_cell_length_c   10.13556300
_cell_angle_alpha   59.83207707
_cell_angle_beta   59.83166540
_cell_angle_gamma   59.69922963
_symmetry_Int_Tables_number   1
_chemical_formula_structural   La8Hg2IrOs
_chemical_formula_sum   'La16 Hg4 Ir2 Os2'
_cell_volume   725.35563074
_cell_formula_units_Z   2
loop_
 _symmetry_equiv_pos_site_id
 _symmetry_equiv_pos_as_xyz
  1  'x, y, z'
loop_
 _atom_site_type_symbol
 _atom_site_label
 _atom_site_symmetry_multiplicity
 _atom_site_fract_x
 _atom_site_fract_y
 _atom_site_fract_z
 _atom_site_occupancy
  La  La0  1  0.346388  0.346387  0.349937  1
  La  La1  1  0.346388  0.346381  0.957308  1
  La  La2  1  0.345710  0.957682  0.348304  1
  La  La3  1  0.957706  0.345706  0.348309  1
  La  La4  1  0.810942  0.190956  0.191148  1
  La  La5  1  0.190936  0.810960  0.806922  1
  La  La6  1  0.190931  0.810956  0.191159  1
  La  La7  1  0.810964  0.190938  0.806924  1
  La  La8  1  0.190677  0.190713  0.809299  1
  La  La9  1  0.807724  0.807727  0.192265  1
  La  La10  1  0.942994  0.555870  0.560199  1
  La  La11  1  0.555862  0.943002  0.940971  1
  La  La12  1  0.555887  0.942968  0.560166  1
  La  La13  1  0.942985  0.555863  0.940986  1
  La  La14  1  0.559485  0.559438  0.940530  1
  La  La15  1  0.943506  0.943518  0.556480  1
  Hg  Hg16  1  0.582894  0.582896  0.582706  1
  Hg  Hg17  1  0.582891  0.582892  0.251512  1
  Hg  Hg18  1  0.583079  0.249917  0.583500  1
  Hg  Hg19  1  0.249913  0.583083  0.583504  1
  Ir  Ir20  1  0.141379  0.581070  0.138777  1
  Ir  Ir21  1  0.581064  0.141374  0.138787  1
  Os  Os22  1  0.139841  0.139851  0.137299  1
  Os  Os23  1  0.139852  0.139853  0.583006  1
