# generated using pymatgen
data_Er5AlBiSb
_symmetry_space_group_name_H-M   'P 1'
_cell_length_a   8.87202238
_cell_length_b   8.87431422
_cell_length_c   6.38039800
_cell_angle_alpha   90.00000000
_cell_angle_beta   90.00000000
_cell_angle_gamma   120.00854127
_symmetry_Int_Tables_number   1
_chemical_formula_structural   Er5AlBiSb
_chemical_formula_sum   'Er10 Al2 Bi2 Sb2'
_cell_volume   435.00920582
_cell_formula_units_Z   2
loop_
 _symmetry_equiv_pos_site_id
 _symmetry_equiv_pos_as_xyz
  1  'x, y, z'
loop_
 _atom_site_type_symbol
 _atom_site_label
 _atom_site_symmetry_multiplicity
 _atom_site_fract_x
 _atom_site_fract_y
 _atom_site_fract_z
 _atom_site_occupancy
  Er  Er0  1  0.008856  0.769768  0.750000  1
  Er  Er1  1  0.008856  0.239088  0.250000  1
  Er  Er2  1  0.753674  0.757803  0.250000  1
  Er  Er3  1  0.753674  0.995870  0.750000  1
  Er  Er4  1  0.243414  0.231160  0.750000  1
  Er  Er5  1  0.243414  0.012254  0.250000  1
  Er  Er6  1  0.340297  0.670149  0.500000  1
  Er  Er7  1  0.651382  0.325690  0.000000  1
  Er  Er8  1  0.651382  0.325690  0.500000  1
  Er  Er9  1  0.340297  0.670149  0.000000  1
  Al  Al10  1  0.397681  0.996812  0.750000  1
  Al  Al11  1  0.397681  0.400869  0.250000  1
  Bi  Bi12  1  0.998290  0.606288  0.250000  1
  Bi  Bi13  1  0.998290  0.392001  0.750000  1
  Sb  Sb14  1  0.606407  0.604933  0.750000  1
  Sb  Sb15  1  0.606407  0.001474  0.250000  1
