# generated using pymatgen
data_Dy4AlIr
_symmetry_space_group_name_H-M   'P 1'
_cell_length_a   9.55018044
_cell_length_b   9.55018041
_cell_length_c   9.55018000
_cell_angle_alpha   60.00000143
_cell_angle_beta   60.00000153
_cell_angle_gamma   60.00000492
_symmetry_Int_Tables_number   1
_chemical_formula_structural   Dy4AlIr
_chemical_formula_sum   'Dy16 Al4 Ir4'
_cell_volume   615.91352138
_cell_formula_units_Z   4
loop_
 _symmetry_equiv_pos_site_id
 _symmetry_equiv_pos_as_xyz
  1  'x, y, z'
loop_
 _atom_site_type_symbol
 _atom_site_label
 _atom_site_symmetry_multiplicity
 _atom_site_fract_x
 _atom_site_fract_y
 _atom_site_fract_z
 _atom_site_occupancy
  Dy  Dy0  1  0.602033  0.602033  0.602033  1
  Dy  Dy1  1  0.602033  0.602033  0.193902  1
  Dy  Dy2  1  0.602033  0.193902  0.602033  1
  Dy  Dy3  1  0.193902  0.602033  0.602033  1
  Dy  Dy4  1  0.056894  0.443106  0.443106  1
  Dy  Dy5  1  0.443106  0.056894  0.056894  1
  Dy  Dy6  1  0.443106  0.056894  0.443106  1
  Dy  Dy7  1  0.056894  0.443106  0.056894  1
  Dy  Dy8  1  0.443106  0.443106  0.056894  1
  Dy  Dy9  1  0.056894  0.056894  0.443106  1
  Dy  Dy10  1  0.188177  0.811823  0.811823  1
  Dy  Dy11  1  0.811823  0.188177  0.188177  1
  Dy  Dy12  1  0.811823  0.188177  0.811823  1
  Dy  Dy13  1  0.188177  0.811823  0.188177  1
  Dy  Dy14  1  0.811823  0.811823  0.188177  1
  Dy  Dy15  1  0.188177  0.188177  0.811823  1
  Al  Al16  1  0.827660  0.827660  0.827660  1
  Al  Al17  1  0.827660  0.827660  0.517019  1
  Al  Al18  1  0.827660  0.517019  0.827660  1
  Al  Al19  1  0.517019  0.827660  0.827660  1
  Ir  Ir20  1  0.392043  0.392043  0.392043  1
  Ir  Ir21  1  0.392043  0.392043  0.823871  1
  Ir  Ir22  1  0.392043  0.823871  0.392043  1
  Ir  Ir23  1  0.823871  0.392043  0.392043  1
