# generated using pymatgen
data_Tm16Sc4SiBi11
_symmetry_space_group_name_H-M   'P 1'
_cell_length_a   7.98440747
_cell_length_b   9.29043800
_cell_length_c   11.75547090
_cell_angle_alpha   90.00000000
_cell_angle_beta   89.72686868
_cell_angle_gamma   90.00000000
_symmetry_Int_Tables_number   1
_chemical_formula_structural   Tm16Sc4SiBi11
_chemical_formula_sum   'Tm16 Sc4 Si1 Bi11'
_cell_volume   871.99496594
_cell_formula_units_Z   1
loop_
 _symmetry_equiv_pos_site_id
 _symmetry_equiv_pos_as_xyz
  1  'x, y, z'
loop_
 _atom_site_type_symbol
 _atom_site_label
 _atom_site_symmetry_multiplicity
 _atom_site_fract_x
 _atom_site_fract_y
 _atom_site_fract_z
 _atom_site_occupancy
  Tm  Tm0  1  0.354448  0.250000  0.296517  1
  Tm  Tm1  1  0.649588  0.750000  0.716040  1
  Tm  Tm2  1  0.146904  0.750000  0.781113  1
  Tm  Tm3  1  0.852269  0.250000  0.216163  1
  Tm  Tm4  1  0.193321  0.250000  0.773957  1
  Tm  Tm5  1  0.812093  0.750000  0.219253  1
  Tm  Tm6  1  0.314399  0.750000  0.280787  1
  Tm  Tm7  1  0.667067  0.250000  0.709026  1
  Tm  Tm8  1  0.196755  0.066507  0.060334  1
  Tm  Tm9  1  0.803509  0.934682  0.941238  1
  Tm  Tm10  1  0.307525  0.951668  0.558453  1
  Tm  Tm11  1  0.803509  0.565318  0.941238  1
  Tm  Tm12  1  0.685966  0.072624  0.446236  1
  Tm  Tm13  1  0.196755  0.433493  0.060334  1
  Tm  Tm14  1  0.685966  0.427376  0.446236  1
  Tm  Tm15  1  0.307525  0.548332  0.558453  1
  Sc  Sc16  1  0.038508  0.250000  0.511468  1
  Sc  Sc17  1  0.980806  0.750000  0.490120  1
  Sc  Sc18  1  0.476282  0.750000  0.012395  1
  Sc  Sc19  1  0.526056  0.250000  0.987413  1
  Si  Si20  1  0.405674  0.250000  0.537136  1
  Bi  Bi21  1  0.598155  0.750000  0.457973  1
  Bi  Bi22  1  0.098197  0.750000  0.041626  1
  Bi  Bi23  1  0.905140  0.250000  0.954276  1
  Bi  Bi24  1  0.062828  0.002798  0.329227  1
  Bi  Bi25  1  0.934349  0.999158  0.670814  1
  Bi  Bi26  1  0.435417  0.995313  0.829191  1
  Bi  Bi27  1  0.934349  0.500842  0.670814  1
  Bi  Bi28  1  0.564196  0.004874  0.171881  1
  Bi  Bi29  1  0.062828  0.497202  0.329227  1
  Bi  Bi30  1  0.564196  0.495126  0.171881  1
  Bi  Bi31  1  0.435417  0.504687  0.829191  1
