# generated using pymatgen
data_Nd2DyGa3(Ni3Sn)3
_symmetry_space_group_name_H-M   'P 1'
_cell_length_a   4.09191000
_cell_length_b   9.15310936
_cell_length_c   9.15310818
_cell_angle_alpha   60.03008848
_cell_angle_beta   90.00000000
_cell_angle_gamma   90.00000000
_symmetry_Int_Tables_number   1
_chemical_formula_structural   Nd2DyGa3(Ni3Sn)3
_chemical_formula_sum   'Nd2 Dy1 Ga3 Ni9 Sn3'
_cell_volume   296.97886706
_cell_formula_units_Z   1
loop_
 _symmetry_equiv_pos_site_id
 _symmetry_equiv_pos_as_xyz
  1  'x, y, z'
loop_
 _atom_site_type_symbol
 _atom_site_label
 _atom_site_symmetry_multiplicity
 _atom_site_fract_x
 _atom_site_fract_y
 _atom_site_fract_z
 _atom_site_occupancy
  Nd  Nd0  1  0.500000  0.333209  0.333461  1
  Nd  Nd1  1  0.500000  0.666539  0.666791  1
  Dy  Dy2  1  0.000000  0.000316  0.999684  1
  Ga  Ga3  1  0.500000  0.256460  0.743540  1
  Ga  Ga4  1  0.500000  0.743679  0.000022  1
  Ga  Ga5  1  0.500000  0.999978  0.256321  1
  Ni  Ni6  1  0.000000  0.158489  0.204480  1
  Ni  Ni7  1  0.000000  0.204348  0.636960  1
  Ni  Ni8  1  0.000000  0.637510  0.158589  1
  Ni  Ni9  1  0.000000  0.795520  0.841511  1
  Ni  Ni10  1  0.000000  0.363040  0.795652  1
  Ni  Ni11  1  0.000000  0.841411  0.362490  1
  Ni  Ni12  1  0.500000  0.722018  0.277982  1
  Ni  Ni13  1  0.500000  0.277828  0.000069  1
  Ni  Ni14  1  0.500000  0.999931  0.722172  1
  Sn  Sn15  1  0.000000  0.530644  0.469356  1
  Sn  Sn16  1  0.000000  0.469241  0.000261  1
  Sn  Sn17  1  0.000000  0.999739  0.530759  1
