# generated using pymatgen
data_Tc3I8Br
_symmetry_space_group_name_H-M   'P 1'
_cell_length_a   11.25815135
_cell_length_b   9.40734136
_cell_length_c   9.97040136
_cell_angle_alpha   71.17592377
_cell_angle_beta   89.97030764
_cell_angle_gamma   89.82348765
_symmetry_Int_Tables_number   1
_chemical_formula_structural   Tc3I8Br
_chemical_formula_sum   'Tc6 I16 Br2'
_cell_volume   999.47386456
_cell_formula_units_Z   2
loop_
 _symmetry_equiv_pos_site_id
 _symmetry_equiv_pos_as_xyz
  1  'x, y, z'
loop_
 _atom_site_type_symbol
 _atom_site_label
 _atom_site_symmetry_multiplicity
 _atom_site_fract_x
 _atom_site_fract_y
 _atom_site_fract_z
 _atom_site_occupancy
  Tc  Tc0  1  0.749284  0.156604  0.655853  1
  Tc  Tc1  1  0.861222  0.159553  0.865486  1
  Tc  Tc2  1  0.361506  0.841517  0.135059  1
  Tc  Tc3  1  0.139132  0.839995  0.135067  1
  Tc  Tc4  1  0.637645  0.159326  0.865845  1
  Tc  Tc5  1  0.250345  0.843531  0.344544  1
  I  I6  1  0.408739  0.145378  0.020266  1
  I  I7  1  0.994100  0.156270  0.634314  1
  I  I8  1  0.252671  0.573270  0.519640  1
  I  I9  1  0.590756  0.856061  0.982454  1
  I  I10  1  0.749667  0.151735  0.112368  1
  I  I11  1  0.005586  0.844003  0.365704  1
  I  I12  1  0.251415  0.847591  0.888012  1
  I  I13  1  0.748427  0.424046  0.475409  1
  I  I14  1  0.495299  0.845340  0.365203  1
  I  I15  1  0.589174  0.446774  0.811468  1
  I  I16  1  0.095778  0.552205  0.190134  1
  I  I17  1  0.090307  0.144344  0.018519  1
  I  I18  1  0.910523  0.855390  0.982429  1
  I  I19  1  0.504393  0.155608  0.635155  1
  I  I20  1  0.908047  0.447133  0.810480  1
  I  I21  1  0.750169  0.889993  0.624648  1
  Br  Br22  1  0.406179  0.574325  0.187625  1
  Br  Br23  1  0.249639  0.090010  0.374322  1
