# generated using pymatgen
data_Fe5Co3Mo12(AsN)4
_symmetry_space_group_name_H-M   'P 1'
_cell_length_a   7.90249256
_cell_length_b   7.90996419
_cell_length_c   7.90727842
_cell_angle_alpha   60.00007205
_cell_angle_beta   59.97052045
_cell_angle_gamma   59.95393776
_symmetry_Int_Tables_number   1
_chemical_formula_structural   Fe5Co3Mo12(AsN)4
_chemical_formula_sum   'Fe5 Co3 Mo12 As4 N4'
_cell_volume   349.30329819
_cell_formula_units_Z   1
loop_
 _symmetry_equiv_pos_site_id
 _symmetry_equiv_pos_as_xyz
  1  'x, y, z'
loop_
 _atom_site_type_symbol
 _atom_site_label
 _atom_site_symmetry_multiplicity
 _atom_site_fract_x
 _atom_site_fract_y
 _atom_site_fract_z
 _atom_site_occupancy
  Fe  Fe0  1  0.245242  0.918287  0.918219  1
  Fe  Fe1  1  0.916562  0.246798  0.918292  1
  Fe  Fe2  1  0.916599  0.918318  0.918357  1
  Fe  Fe3  1  0.916532  0.918282  0.246830  1
  Fe  Fe4  1  0.998451  0.333840  0.333888  1
  Co  Co5  1  0.332533  0.335186  0.997153  1
  Co  Co6  1  0.332512  0.997166  0.335207  1
  Co  Co7  1  0.332472  0.335126  0.335177  1
  Mo  Mo8  1  0.695663  0.305900  0.692554  1
  Mo  Mo9  1  0.559854  0.559443  0.940321  1
  Mo  Mo10  1  0.559859  0.940340  0.559434  1
  Mo  Mo11  1  0.940291  0.939710  0.560023  1
  Mo  Mo12  1  0.940273  0.559988  0.560011  1
  Mo  Mo13  1  0.940295  0.560030  0.939669  1
  Mo  Mo14  1  0.695630  0.305898  0.305924  1
  Mo  Mo15  1  0.305450  0.695034  0.304466  1
  Mo  Mo16  1  0.305502  0.304486  0.694978  1
  Mo  Mo17  1  0.305490  0.695046  0.695008  1
  Mo  Mo18  1  0.695659  0.692558  0.305912  1
  Mo  Mo19  1  0.559854  0.940379  0.940347  1
  As  As20  1  0.615583  0.128146  0.128140  1
  As  As21  1  0.129177  0.125864  0.619022  1
  As  As22  1  0.129203  0.619037  0.125862  1
  As  As23  1  0.129135  0.125903  0.125922  1
  N  N24  1  0.624509  0.624598  0.624626  1
  N  N25  1  0.128632  0.623795  0.623768  1
  N  N26  1  0.624529  0.126232  0.624631  1
  N  N27  1  0.624510  0.624614  0.126258  1
