# generated using pymatgen
data_Tb6In9Hg
_symmetry_space_group_name_H-M   'P 1'
_cell_length_a   6.42053648
_cell_length_b   6.42053612
_cell_length_c   10.45638900
_cell_angle_alpha   90.00000000
_cell_angle_beta   90.00000000
_cell_angle_gamma   102.85070963
_symmetry_Int_Tables_number   1
_chemical_formula_structural   Tb6In9Hg
_chemical_formula_sum   'Tb6 In9 Hg1'
_cell_volume   420.25024372
_cell_formula_units_Z   1
loop_
 _symmetry_equiv_pos_site_id
 _symmetry_equiv_pos_as_xyz
  1  'x, y, z'
loop_
 _atom_site_type_symbol
 _atom_site_label
 _atom_site_symmetry_multiplicity
 _atom_site_fract_x
 _atom_site_fract_y
 _atom_site_fract_z
 _atom_site_occupancy
  Tb  Tb0  1  0.127512  0.127512  0.750000  1
  Tb  Tb1  1  0.876651  0.876651  0.250000  1
  Tb  Tb2  1  0.702201  0.294818  0.001256  1
  Tb  Tb3  1  0.702201  0.294818  0.498744  1
  Tb  Tb4  1  0.294818  0.702201  0.001256  1
  Tb  Tb5  1  0.294818  0.702201  0.498744  1
  In  In6  1  0.492130  0.492130  0.250000  1
  In  In7  1  0.809488  0.809488  0.544814  1
  In  In8  1  0.190615  0.190615  0.453792  1
  In  In9  1  0.809488  0.809488  0.955186  1
  In  In10  1  0.190615  0.190615  0.046208  1
  In  In11  1  0.005840  0.573001  0.750000  1
  In  In12  1  0.430358  0.994826  0.250000  1
  In  In13  1  0.994826  0.430358  0.250000  1
  In  In14  1  0.573001  0.005840  0.750000  1
  Hg  Hg15  1  0.505437  0.505437  0.750000  1
