# generated using pymatgen
data_YbHo5ErPtI12
_symmetry_space_group_name_H-M   'P 1'
_cell_length_a   9.77945391
_cell_length_b   9.77232139
_cell_length_c   9.75698349
_cell_angle_alpha   106.89309136
_cell_angle_beta   106.94271249
_cell_angle_gamma   106.93130356
_symmetry_Int_Tables_number   1
_chemical_formula_structural   YbHo5ErPtI12
_chemical_formula_sum   'Yb1 Ho5 Er1 Pt1 I12'
_cell_volume   778.19603138
_cell_formula_units_Z   1
loop_
 _symmetry_equiv_pos_site_id
 _symmetry_equiv_pos_as_xyz
  1  'x, y, z'
loop_
 _atom_site_type_symbol
 _atom_site_label
 _atom_site_symmetry_multiplicity
 _atom_site_fract_x
 _atom_site_fract_y
 _atom_site_fract_z
 _atom_site_occupancy
  Yb  Yb0  1  0.000010  0.000006  0.999813  1
  Ho  Ho1  1  0.199080  0.401938  0.473724  1
  Ho  Ho2  1  0.473643  0.199208  0.401822  1
  Ho  Ho3  1  0.598152  0.526436  0.801411  1
  Ho  Ho4  1  0.800506  0.597898  0.526269  1
  Ho  Ho5  1  0.526357  0.800678  0.597778  1
  Er  Er6  1  0.402441  0.473675  0.200433  1
  Pt  Pt7  1  0.499602  0.500037  0.499949  1
  I  I8  1  0.041948  0.348566  0.118454  1
  I  I9  1  0.118671  0.040931  0.348089  1
  I  I10  1  0.348308  0.119466  0.040941  1
  I  I11  1  0.958969  0.651791  0.881222  1
  I  I12  1  0.881343  0.958951  0.651568  1
  I  I13  1  0.651872  0.881399  0.958917  1
  I  I14  1  0.722295  0.573039  0.177071  1
  I  I15  1  0.177273  0.723376  0.573283  1
  I  I16  1  0.573439  0.177303  0.723246  1
  I  I17  1  0.277019  0.426796  0.823558  1
  I  I18  1  0.822615  0.276589  0.426445  1
  I  I19  1  0.426457  0.821917  0.276009  1
