# generated using pymatgen
data_Tb16In3Ag(RuRh)2
_symmetry_space_group_name_H-M   'P 1'
_cell_length_a   9.67620925
_cell_length_b   9.69004372
_cell_length_c   9.67620856
_cell_angle_alpha   59.79459155
_cell_angle_beta   59.71022592
_cell_angle_gamma   59.79458745
_symmetry_Int_Tables_number   1
_chemical_formula_structural   Tb16In3Ag(RuRh)2
_chemical_formula_sum   'Tb16 In3 Ag1 Ru2 Rh2'
_cell_volume   638.13360840
_cell_formula_units_Z   1
loop_
 _symmetry_equiv_pos_site_id
 _symmetry_equiv_pos_as_xyz
  1  'x, y, z'
loop_
 _atom_site_type_symbol
 _atom_site_label
 _atom_site_symmetry_multiplicity
 _atom_site_fract_x
 _atom_site_fract_y
 _atom_site_fract_z
 _atom_site_occupancy
  Tb  Tb0  1  0.808805  0.808010  0.190371  1
  Tb  Tb1  1  0.808752  0.191951  0.808752  1
  Tb  Tb2  1  0.188596  0.192072  0.812514  1
  Tb  Tb3  1  0.650436  0.047296  0.650436  1
  Tb  Tb4  1  0.060762  0.060354  0.441720  1
  Tb  Tb5  1  0.442395  0.437474  0.064129  1
  Tb  Tb6  1  0.651309  0.649560  0.651309  1
  Tb  Tb7  1  0.812514  0.192072  0.188596  1
  Tb  Tb8  1  0.190371  0.808010  0.808805  1
  Tb  Tb9  1  0.045126  0.650517  0.652459  1
  Tb  Tb10  1  0.441720  0.060354  0.060762  1
  Tb  Tb11  1  0.438643  0.064673  0.438643  1
  Tb  Tb12  1  0.059431  0.440555  0.059431  1
  Tb  Tb13  1  0.652459  0.650517  0.045126  1
  Tb  Tb14  1  0.191043  0.810663  0.191043  1
  Tb  Tb15  1  0.064129  0.437474  0.442395  1
  In  In16  1  0.417718  0.417945  0.745669  1
  In  In17  1  0.418132  0.745079  0.418132  1
  In  In18  1  0.745669  0.417945  0.417718  1
  Ag  Ag19  1  0.417412  0.416878  0.417412  1
  Ru  Ru20  1  0.857053  0.421764  0.857053  1
  Ru  Ru21  1  0.857985  0.861408  0.857985  1
  Rh  Rh22  1  0.857204  0.858713  0.422334  1
  Rh  Rh23  1  0.422334  0.858713  0.857204  1
