# generated using pymatgen
data_Er10Tm2TcRu3
_symmetry_space_group_name_H-M   'P 1'
_cell_length_a   6.23606398
_cell_length_b   7.29694893
_cell_length_c   9.02246116
_cell_angle_alpha   89.94605215
_cell_angle_beta   90.05811089
_cell_angle_gamma   89.95433823
_symmetry_Int_Tables_number   1
_chemical_formula_structural   Er10Tm2TcRu3
_chemical_formula_sum   'Er10 Tm2 Tc1 Ru3'
_cell_volume   410.55971829
_cell_formula_units_Z   1
loop_
 _symmetry_equiv_pos_site_id
 _symmetry_equiv_pos_as_xyz
  1  'x, y, z'
loop_
 _atom_site_type_symbol
 _atom_site_label
 _atom_site_symmetry_multiplicity
 _atom_site_fract_x
 _atom_site_fract_y
 _atom_site_fract_z
 _atom_site_occupancy
  Er  Er0  1  0.631235  0.040242  0.250241  1
  Er  Er1  1  0.367282  0.957899  0.749783  1
  Er  Er2  1  0.132755  0.458289  0.749693  1
  Er  Er3  1  0.872263  0.541734  0.250262  1
  Er  Er4  1  0.167584  0.176323  0.064019  1
  Er  Er5  1  0.831745  0.823465  0.936387  1
  Er  Er6  1  0.666101  0.324499  0.937291  1
  Er  Er7  1  0.831662  0.823302  0.563500  1
  Er  Er8  1  0.331963  0.675963  0.063851  1
  Er  Er9  1  0.167660  0.176491  0.436111  1
  Tm  Tm10  1  0.332100  0.675723  0.436336  1
  Tm  Tm11  1  0.665906  0.324864  0.562554  1
  Tc  Tc12  1  0.463325  0.384974  0.250287  1
  Ru  Ru13  1  0.538464  0.616840  0.749674  1
  Ru  Ru14  1  0.962170  0.115547  0.749913  1
  Ru  Ru15  1  0.037786  0.883844  0.250096  1
