# generated using pymatgen
data_Eu10InRh4Au
_symmetry_space_group_name_H-M   'P 1'
_cell_length_a   9.05331004
_cell_length_b   9.05330931
_cell_length_c   9.05330900
_cell_angle_alpha   127.96023389
_cell_angle_beta   127.96023828
_cell_angle_gamma   76.68945576
_symmetry_Int_Tables_number   1
_chemical_formula_structural   Eu10InRh4Au
_chemical_formula_sum   'Eu10 In1 Rh4 Au1'
_cell_volume   447.98313278
_cell_formula_units_Z   1
loop_
 _symmetry_equiv_pos_site_id
 _symmetry_equiv_pos_as_xyz
  1  'x, y, z'
loop_
 _atom_site_type_symbol
 _atom_site_label
 _atom_site_symmetry_multiplicity
 _atom_site_fract_x
 _atom_site_fract_y
 _atom_site_fract_z
 _atom_site_occupancy
  Eu  Eu0  1  0.534600  0.023666  0.828761  1
  Eu  Eu1  1  0.194904  0.705838  0.171239  1
  Eu  Eu2  1  0.023666  0.194904  0.489066  1
  Eu  Eu3  1  0.705838  0.534600  0.510934  1
  Eu  Eu4  1  0.476334  0.965400  0.171239  1
  Eu  Eu5  1  0.794162  0.305096  0.828761  1
  Eu  Eu6  1  0.965400  0.794162  0.489066  1
  Eu  Eu7  1  0.305096  0.476334  0.510934  1
  Eu  Eu8  1  0.494705  0.494705  0.000000  1
  Eu  Eu9  1  0.005295  0.005295  0.000000  1
  In  In10  1  0.250000  0.250000  0.000000  1
  Rh  Rh11  1  0.868197  0.368197  0.236394  1
  Rh  Rh12  1  0.131803  0.631803  0.763606  1
  Rh  Rh13  1  0.368197  0.131803  0.500000  1
  Rh  Rh14  1  0.631803  0.868197  0.500000  1
  Au  Au15  1  0.750000  0.750000  0.000000  1
