# generated using pymatgen
data_Ca7La(Si3Pd)4
_symmetry_space_group_name_H-M   'P 1'
_cell_length_a   8.27596600
_cell_length_b   8.27596704
_cell_length_c   8.51146000
_cell_angle_alpha   90.00000000
_cell_angle_beta   90.00000000
_cell_angle_gamma   119.99999584
_symmetry_Int_Tables_number   1
_chemical_formula_structural   Ca7La(Si3Pd)4
_chemical_formula_sum   'Ca7 La1 Si12 Pd4'
_cell_volume   504.86139467
_cell_formula_units_Z   1
loop_
 _symmetry_equiv_pos_site_id
 _symmetry_equiv_pos_as_xyz
  1  'x, y, z'
loop_
 _atom_site_type_symbol
 _atom_site_label
 _atom_site_symmetry_multiplicity
 _atom_site_fract_x
 _atom_site_fract_y
 _atom_site_fract_z
 _atom_site_occupancy
  Ca  Ca0  1  0.498084  0.501916  0.750000  1
  Ca  Ca1  1  0.501934  0.498066  0.250000  1
  Ca  Ca2  1  0.003834  0.501916  0.750000  1
  Ca  Ca3  1  0.996133  0.498066  0.250000  1
  Ca  Ca4  1  0.498084  0.996166  0.750000  1
  Ca  Ca5  1  0.501934  0.003867  0.250000  1
  Ca  Ca6  1  0.000000  0.000000  0.750000  1
  La  La7  1  0.000000  0.000000  0.250000  1
  Si  Si8  1  0.834501  0.165499  0.999567  1
  Si  Si9  1  0.165426  0.834574  0.001136  1
  Si  Si10  1  0.330998  0.165499  0.999567  1
  Si  Si11  1  0.165426  0.834574  0.498864  1
  Si  Si12  1  0.669146  0.834574  0.001136  1
  Si  Si13  1  0.834501  0.165499  0.500433  1
  Si  Si14  1  0.834501  0.669002  0.999567  1
  Si  Si15  1  0.669146  0.834574  0.498864  1
  Si  Si16  1  0.165426  0.330854  0.001136  1
  Si  Si17  1  0.330998  0.165499  0.500433  1
  Si  Si18  1  0.165426  0.330854  0.498864  1
  Si  Si19  1  0.834501  0.669002  0.500433  1
  Pd  Pd20  1  0.666667  0.333333  0.993755  1
  Pd  Pd21  1  0.333333  0.666667  0.002320  1
  Pd  Pd22  1  0.333333  0.666667  0.497680  1
  Pd  Pd23  1  0.666667  0.333333  0.506245  1
