# generated using pymatgen
data_K3Hf7BCl20
_symmetry_space_group_name_H-M   'P 1'
_cell_length_a   13.68554178
_cell_length_b   13.68554332
_cell_length_c   13.68554400
_cell_angle_alpha   55.84815227
_cell_angle_beta   55.84814789
_cell_angle_gamma   55.84815102
_symmetry_Int_Tables_number   1
_chemical_formula_structural   K3Hf7BCl20
_chemical_formula_sum   'K6 Hf14 B2 Cl40'
_cell_volume   1638.01776488
_cell_formula_units_Z   2
loop_
 _symmetry_equiv_pos_site_id
 _symmetry_equiv_pos_as_xyz
  1  'x, y, z'
loop_
 _atom_site_type_symbol
 _atom_site_label
 _atom_site_symmetry_multiplicity
 _atom_site_fract_x
 _atom_site_fract_y
 _atom_site_fract_z
 _atom_site_occupancy
  K  K0  1  0.500000  0.000000  0.500000  1
  K  K1  1  0.000000  0.500000  0.500000  1
  K  K2  1  0.500000  0.000000  0.000000  1
  K  K3  1  0.500000  0.500000  0.000000  1
  K  K4  1  0.000000  0.000000  0.500000  1
  K  K5  1  0.000000  0.500000  0.000000  1
  Hf  Hf6  1  0.324069  0.448968  0.612328  1
  Hf  Hf7  1  0.387672  0.675931  0.551032  1
  Hf  Hf8  1  0.551032  0.387672  0.675931  1
  Hf  Hf9  1  0.948968  0.824069  0.112328  1
  Hf  Hf10  1  0.250000  0.250000  0.250000  1
  Hf  Hf11  1  0.612328  0.324069  0.448968  1
  Hf  Hf12  1  0.175931  0.887672  0.051032  1
  Hf  Hf13  1  0.051032  0.175931  0.887672  1
  Hf  Hf14  1  0.887672  0.051032  0.175931  1
  Hf  Hf15  1  0.675931  0.551032  0.387672  1
  Hf  Hf16  1  0.824069  0.112328  0.948968  1
  Hf  Hf17  1  0.448968  0.612328  0.324069  1
  Hf  Hf18  1  0.112328  0.948968  0.824069  1
  Hf  Hf19  1  0.750000  0.750000  0.750000  1
  B  B20  1  0.000000  0.000000  0.000000  1
  B  B21  1  0.500000  0.500000  0.500000  1
  Cl  Cl22  1  0.859183  0.321671  0.820652  1
  Cl  Cl23  1  0.678329  0.179348  0.140817  1
  Cl  Cl24  1  0.432028  0.570380  0.751051  1
  Cl  Cl25  1  0.820568  0.820568  0.820568  1
  Cl  Cl26  1  0.429620  0.248949  0.567972  1
  Cl  Cl27  1  0.570380  0.751051  0.432028  1
  Cl  Cl28  1  0.567972  0.429620  0.248949  1
  Cl  Cl29  1  0.320652  0.821671  0.359183  1
  Cl  Cl30  1  0.251051  0.070380  0.932028  1
  Cl  Cl31  1  0.890133  0.609867  0.250000  1
  Cl  Cl32  1  0.751051  0.432028  0.570380  1
  Cl  Cl33  1  0.250000  0.434174  0.065826  1
  Cl  Cl34  1  0.434174  0.065826  0.250000  1
  Cl  Cl35  1  0.179432  0.179432  0.179432  1
  Cl  Cl36  1  0.140817  0.678329  0.179348  1
  Cl  Cl37  1  0.609867  0.250000  0.890133  1
  Cl  Cl38  1  0.934174  0.750000  0.565826  1
  Cl  Cl39  1  0.179348  0.140817  0.678329  1
  Cl  Cl40  1  0.640817  0.679348  0.178329  1
  Cl  Cl41  1  0.679348  0.178329  0.640817  1
  Cl  Cl42  1  0.067972  0.748949  0.929620  1
  Cl  Cl43  1  0.750000  0.565826  0.934174  1
  Cl  Cl44  1  0.065826  0.250000  0.434174  1
  Cl  Cl45  1  0.178329  0.640817  0.679348  1
  Cl  Cl46  1  0.565826  0.934174  0.750000  1
  Cl  Cl47  1  0.748949  0.929620  0.067972  1
  Cl  Cl48  1  0.932028  0.251051  0.070380  1
  Cl  Cl49  1  0.821671  0.359183  0.320652  1
  Cl  Cl50  1  0.320568  0.320568  0.320568  1
  Cl  Cl51  1  0.250000  0.890133  0.609867  1
  Cl  Cl52  1  0.679432  0.679432  0.679432  1
  Cl  Cl53  1  0.248949  0.567972  0.429620  1
  Cl  Cl54  1  0.109867  0.390133  0.750000  1
  Cl  Cl55  1  0.070380  0.932028  0.251051  1
  Cl  Cl56  1  0.929620  0.067972  0.748949  1
  Cl  Cl57  1  0.390133  0.750000  0.109867  1
  Cl  Cl58  1  0.750000  0.109867  0.390133  1
  Cl  Cl59  1  0.321671  0.820652  0.859183  1
  Cl  Cl60  1  0.359183  0.320652  0.821671  1
  Cl  Cl61  1  0.820652  0.859183  0.321671  1
