# generated using pymatgen
data_Yb4Fe(Si2Pt)5
_symmetry_space_group_name_H-M   'P 1'
_cell_length_a   8.19599174
_cell_length_b   8.19599155
_cell_length_c   8.19599209
_cell_angle_alpha   138.60522063
_cell_angle_beta   104.46869248
_cell_angle_gamma   89.99872411
_symmetry_Int_Tables_number   1
_chemical_formula_structural   Yb4Fe(Si2Pt)5
_chemical_formula_sum   'Yb4 Fe1 Si10 Pt5'
_cell_volume   337.06938057
_cell_formula_units_Z   1
loop_
 _symmetry_equiv_pos_site_id
 _symmetry_equiv_pos_as_xyz
  1  'x, y, z'
loop_
 _atom_site_type_symbol
 _atom_site_label
 _atom_site_symmetry_multiplicity
 _atom_site_fract_x
 _atom_site_fract_y
 _atom_site_fract_z
 _atom_site_occupancy
  Yb  Yb0  1  0.101560  0.874518  0.238012  1
  Yb  Yb1  1  0.898440  0.136452  0.772957  1
  Yb  Yb2  1  0.636506  0.363548  0.261988  1
  Yb  Yb3  1  0.363494  0.625482  0.727043  1
  Fe  Fe4  1  0.500000  0.750000  0.250000  1
  Si  Si5  1  0.000000  0.750000  0.750000  1
  Si  Si6  1  0.000000  0.250000  0.250000  1
  Si  Si7  1  0.275872  0.025872  0.750000  1
  Si  Si8  1  0.724128  0.474128  0.750000  1
  Si  Si9  1  0.723259  0.973259  0.250000  1
  Si  Si10  1  0.276741  0.526741  0.250000  1
  Si  Si11  1  0.752185  0.624308  0.168660  1
  Si  Si12  1  0.247815  0.416475  0.872123  1
  Si  Si13  1  0.455649  0.083525  0.331340  1
  Si  Si14  1  0.544351  0.875692  0.627877  1
  Pt  Pt15  1  0.500000  0.250000  0.750000  1
  Pt  Pt16  1  0.021851  0.639556  0.384703  1
  Pt  Pt17  1  0.978149  0.362852  0.617704  1
  Pt  Pt18  1  0.254853  0.137148  0.115297  1
  Pt  Pt19  1  0.745147  0.860444  0.882296  1
