# generated using pymatgen
data_LiEr3In3AgPt
_symmetry_space_group_name_H-M   'P 1'
_cell_length_a   7.97325800
_cell_length_b   7.97325715
_cell_length_c   3.62604400
_cell_angle_alpha   90.00000000
_cell_angle_beta   90.00000000
_cell_angle_gamma   120.00000352
_symmetry_Int_Tables_number   1
_chemical_formula_structural   LiEr3In3AgPt
_chemical_formula_sum   'Li1 Er3 In3 Ag1 Pt1'
_cell_volume   199.63435200
_cell_formula_units_Z   1
loop_
 _symmetry_equiv_pos_site_id
 _symmetry_equiv_pos_as_xyz
  1  'x, y, z'
loop_
 _atom_site_type_symbol
 _atom_site_label
 _atom_site_symmetry_multiplicity
 _atom_site_fract_x
 _atom_site_fract_y
 _atom_site_fract_z
 _atom_site_occupancy
  Li  Li0  1  0.000000  0.000000  0.500000  1
  Er  Er1  1  0.610339  0.025170  0.500000  1
  Er  Er2  1  0.414832  0.389661  0.500000  1
  Er  Er3  1  0.974830  0.585168  0.500000  1
  In  In4  1  0.731265  0.741922  0.000000  1
  In  In5  1  0.010658  0.268735  0.000000  1
  In  In6  1  0.258078  0.989342  0.000000  1
  Ag  Ag7  1  0.333333  0.666667  0.000000  1
  Pt  Pt8  1  0.666667  0.333333  0.000000  1
