# generated using pymatgen
data_Ho10IrOs2Pt3
_symmetry_space_group_name_H-M   'P 1'
_cell_length_a   10.91784093
_cell_length_b   10.91154500
_cell_length_c   6.40107156
_cell_angle_alpha   90.00000000
_cell_angle_beta   89.95244800
_cell_angle_gamma   90.00000000
_symmetry_Int_Tables_number   1
_chemical_formula_structural   Ho10IrOs2Pt3
_chemical_formula_sum   'Ho20 Ir2 Os4 Pt6'
_cell_volume   762.56267322
_cell_formula_units_Z   2
loop_
 _symmetry_equiv_pos_site_id
 _symmetry_equiv_pos_as_xyz
  1  'x, y, z'
loop_
 _atom_site_type_symbol
 _atom_site_label
 _atom_site_symmetry_multiplicity
 _atom_site_fract_x
 _atom_site_fract_y
 _atom_site_fract_z
 _atom_site_occupancy
  Ho  Ho0  1  0.296987  0.087935  0.373790  1
  Ho  Ho1  1  0.296987  0.912065  0.873790  1
  Ho  Ho2  1  0.703005  0.085207  0.873395  1
  Ho  Ho3  1  0.703005  0.914793  0.373395  1
  Ho  Ho4  1  0.583007  0.795437  0.873499  1
  Ho  Ho5  1  0.583007  0.204563  0.373499  1
  Ho  Ho6  1  0.413268  0.795491  0.377150  1
  Ho  Ho7  1  0.413268  0.204509  0.877150  1
  Ho  Ho8  1  0.206052  0.415666  0.623697  1
  Ho  Ho9  1  0.206052  0.584334  0.123697  1
  Ho  Ho10  1  0.797252  0.414512  0.125555  1
  Ho  Ho11  1  0.797252  0.585488  0.625555  1
  Ho  Ho12  1  0.915080  0.702983  0.125946  1
  Ho  Ho13  1  0.915080  0.297017  0.625946  1
  Ho  Ho14  1  0.088264  0.703127  0.627039  1
  Ho  Ho15  1  0.088264  0.296873  0.127039  1
  Ho  Ho16  1  0.999990  0.999823  0.500006  1
  Ho  Ho17  1  0.999990  0.000177  0.000006  1
  Ho  Ho18  1  0.496728  0.499943  0.999922  1
  Ho  Ho19  1  0.496728  0.500057  0.499922  1
  Ir  Ir20  1  0.347930  0.347088  0.249960  1
  Ir  Ir21  1  0.347930  0.652912  0.749960  1
  Os  Os22  1  0.500507  0.999942  0.125526  1
  Os  Os23  1  0.500507  0.000058  0.625526  1
  Os  Os24  1  0.999380  0.500116  0.874414  1
  Os  Os25  1  0.999380  0.499884  0.374414  1
  Pt  Pt26  1  0.846990  0.152700  0.250253  1
  Pt  Pt27  1  0.846990  0.847300  0.750253  1
  Pt  Pt28  1  0.152282  0.152660  0.749801  1
  Pt  Pt29  1  0.152282  0.847340  0.249801  1
  Pt  Pt30  1  0.653278  0.347290  0.750049  1
  Pt  Pt31  1  0.653278  0.652710  0.250049  1
