# generated using pymatgen
data_Tb7Ho5ZnCo4Sn
_symmetry_space_group_name_H-M   'P 1'
_cell_length_a   8.33851980
_cell_length_b   8.33852055
_cell_length_c   8.34876161
_cell_angle_alpha   112.02287197
_cell_angle_beta   109.16112827
_cell_angle_gamma   107.21354222
_symmetry_Int_Tables_number   1
_chemical_formula_structural   Tb7Ho5ZnCo4Sn
_chemical_formula_sum   'Tb7 Ho5 Zn1 Co4 Sn1'
_cell_volume   446.35585700
_cell_formula_units_Z   1
loop_
 _symmetry_equiv_pos_site_id
 _symmetry_equiv_pos_as_xyz
  1  'x, y, z'
loop_
 _atom_site_type_symbol
 _atom_site_label
 _atom_site_symmetry_multiplicity
 _atom_site_fract_x
 _atom_site_fract_y
 _atom_site_fract_z
 _atom_site_occupancy
  Tb  Tb0  1  0.429075  0.227667  0.200833  1
  Tb  Tb1  1  0.571654  0.772830  0.799452  1
  Tb  Tb2  1  0.026622  0.227798  0.799452  1
  Tb  Tb3  1  0.973166  0.771758  0.200833  1
  Tb  Tb4  1  0.181206  0.284183  0.465387  1
  Tb  Tb5  1  0.818323  0.715678  0.534003  1
  Tb  Tb6  1  0.181766  0.715645  0.897411  1
  Ho  Ho7  1  0.818448  0.284314  0.102762  1
  Ho  Ho8  1  0.323113  0.635275  0.311938  1
  Ho  Ho9  1  0.676779  0.364275  0.688426  1
  Ho  Ho10  1  0.324151  0.011646  0.688426  1
  Ho  Ho11  1  0.676663  0.988826  0.311938  1
  Zn  Zn12  1  0.999849  0.000503  0.000352  1
  Co  Co13  1  0.348395  0.000058  0.348453  1
  Co  Co14  1  0.651500  0.000474  0.651974  1
  Co  Co15  1  0.113922  0.613802  0.499179  1
  Co  Co16  1  0.885378  0.385257  0.499179  1
  Sn  Sn17  1  0.499990  0.500011  0.000000  1
