# generated using pymatgen
data_EuGaCo2P
_symmetry_space_group_name_H-M   'P 1'
_cell_length_a   5.98183218
_cell_length_b   5.98183194
_cell_length_c   5.98183156
_cell_angle_alpha   141.83793633
_cell_angle_beta   141.83793859
_cell_angle_gamma   55.07299626
_symmetry_Int_Tables_number   1
_chemical_formula_structural   EuGaCo2P
_chemical_formula_sum   'Eu1 Ga1 Co2 P1'
_cell_volume   81.13171043
_cell_formula_units_Z   1
loop_
 _symmetry_equiv_pos_site_id
 _symmetry_equiv_pos_as_xyz
  1  'x, y, z'
loop_
 _atom_site_type_symbol
 _atom_site_label
 _atom_site_symmetry_multiplicity
 _atom_site_fract_x
 _atom_site_fract_y
 _atom_site_fract_z
 _atom_site_occupancy
  Eu  Eu0  1  0.991266  0.991266  0.000000  1
  Ga  Ga1  1  0.631289  0.631289  0.000000  1
  Co  Co2  1  0.760036  0.260036  0.500000  1
  Co  Co3  1  0.260036  0.760036  0.500000  1
  P  P4  1  0.357373  0.357373  0.000000  1
