# generated using pymatgen
data_Hf10Si2Sn5Sb
_symmetry_space_group_name_H-M   'P 1'
_cell_length_a   8.60341116
_cell_length_b   8.60400666
_cell_length_c   5.82197600
_cell_angle_alpha   90.00000000
_cell_angle_beta   90.00000000
_cell_angle_gamma   120.00229100
_symmetry_Int_Tables_number   1
_chemical_formula_structural   Hf10Si2Sn5Sb
_chemical_formula_sum   'Hf10 Si2 Sn5 Sb1'
_cell_volume   373.21787202
_cell_formula_units_Z   1
loop_
 _symmetry_equiv_pos_site_id
 _symmetry_equiv_pos_as_xyz
  1  'x, y, z'
loop_
 _atom_site_type_symbol
 _atom_site_label
 _atom_site_symmetry_multiplicity
 _atom_site_fract_x
 _atom_site_fract_y
 _atom_site_fract_z
 _atom_site_occupancy
  Hf  Hf0  1  0.667844  0.333596  0.999831  1
  Hf  Hf1  1  0.332156  0.665753  0.999831  1
  Hf  Hf2  1  0.332156  0.665753  0.500169  1
  Hf  Hf3  1  0.667844  0.333596  0.500169  1
  Hf  Hf4  1  0.740923  0.740291  0.750000  1
  Hf  Hf5  1  0.259077  0.999368  0.750000  1
  Hf  Hf6  1  0.000000  0.260132  0.750000  1
  Hf  Hf7  1  0.258064  0.258804  0.250000  1
  Hf  Hf8  1  0.741936  0.000740  0.250000  1
  Hf  Hf9  1  0.000000  0.740576  0.250000  1
  Si  Si10  1  0.000000  0.999730  0.999219  1
  Si  Si11  1  0.000000  0.999730  0.500781  1
  Sn  Sn12  1  0.394569  0.393571  0.750000  1
  Sn  Sn13  1  0.605431  0.999001  0.750000  1
  Sn  Sn14  1  0.000000  0.607357  0.750000  1
  Sn  Sn15  1  0.605730  0.605875  0.250000  1
  Sn  Sn16  1  0.394270  0.000145  0.250000  1
  Sb  Sb17  1  0.000000  0.395983  0.250000  1
