# generated using pymatgen
data_Yb10PrHo9Sn16
_symmetry_space_group_name_H-M   'P 1'
_cell_length_a   7.84497883
_cell_length_b   8.43501326
_cell_length_c   15.91516612
_cell_angle_alpha   89.99667976
_cell_angle_beta   90.15751728
_cell_angle_gamma   89.66575723
_symmetry_Int_Tables_number   1
_chemical_formula_structural   Yb10PrHo9Sn16
_chemical_formula_sum   'Yb10 Pr1 Ho9 Sn16'
_cell_volume   1053.12443369
_cell_formula_units_Z   1
loop_
 _symmetry_equiv_pos_site_id
 _symmetry_equiv_pos_as_xyz
  1  'x, y, z'
loop_
 _atom_site_type_symbol
 _atom_site_label
 _atom_site_symmetry_multiplicity
 _atom_site_fract_x
 _atom_site_fract_y
 _atom_site_fract_z
 _atom_site_occupancy
  Yb  Yb0  1  0.003677  0.815643  0.908330  1
  Yb  Yb1  1  0.494357  0.311845  0.092294  1
  Yb  Yb2  1  0.996201  0.187116  0.407963  1
  Yb  Yb3  1  0.494054  0.312683  0.407495  1
  Yb  Yb4  1  0.995564  0.187175  0.091912  1
  Yb  Yb5  1  0.503938  0.687570  0.905679  1
  Yb  Yb6  1  0.004283  0.815964  0.591668  1
  Yb  Yb7  1  0.335703  0.990345  0.750512  1
  Yb  Yb8  1  0.163646  0.488109  0.249902  1
  Yb  Yb9  1  0.663245  0.009706  0.249847  1
  Pr  Pr10  1  0.505847  0.686116  0.594697  1
  Ho  Ho11  1  0.674255  0.164168  0.622719  1
  Ho  Ho12  1  0.175056  0.334236  0.876714  1
  Ho  Ho13  1  0.325667  0.833052  0.122119  1
  Ho  Ho14  1  0.826295  0.664273  0.378084  1
  Ho  Ho15  1  0.325496  0.832756  0.377355  1
  Ho  Ho16  1  0.826242  0.663889  0.121611  1
  Ho  Ho17  1  0.675331  0.163264  0.877479  1
  Ho  Ho18  1  0.174585  0.333746  0.623419  1
  Ho  Ho19  1  0.837717  0.510039  0.750780  1
  Sn  Sn20  1  0.671828  0.962660  0.459699  1
  Sn  Sn21  1  0.171663  0.536801  0.040065  1
  Sn  Sn22  1  0.329111  0.036790  0.959176  1
  Sn  Sn23  1  0.828665  0.464722  0.543719  1
  Sn  Sn24  1  0.328958  0.036716  0.540750  1
  Sn  Sn25  1  0.828565  0.465864  0.956142  1
  Sn  Sn26  1  0.671761  0.962858  0.040719  1
  Sn  Sn27  1  0.173042  0.537588  0.460112  1
  Sn  Sn28  1  0.475475  0.380809  0.749664  1
  Sn  Sn29  1  0.971868  0.134257  0.749732  1
  Sn  Sn30  1  0.527789  0.624743  0.249917  1
  Sn  Sn31  1  0.027042  0.872743  0.249902  1
  Sn  Sn32  1  0.720293  0.863200  0.750053  1
  Sn  Sn33  1  0.210151  0.631225  0.749671  1
  Sn  Sn34  1  0.280924  0.126698  0.250034  1
  Sn  Sn35  1  0.781710  0.370635  0.250067  1
