# generated using pymatgen
data_Tb2Dy2AlRu7
_symmetry_space_group_name_H-M   'P 1'
_cell_length_a   5.38924004
_cell_length_b   5.38923940
_cell_length_c   8.61203500
_cell_angle_alpha   90.00701503
_cell_angle_beta   89.99298490
_cell_angle_gamma   119.98574479
_symmetry_Int_Tables_number   1
_chemical_formula_structural   Tb2Dy2AlRu7
_chemical_formula_sum   'Tb2 Dy2 Al1 Ru7'
_cell_volume   216.64755109
_cell_formula_units_Z   1
loop_
 _symmetry_equiv_pos_site_id
 _symmetry_equiv_pos_as_xyz
  1  'x, y, z'
loop_
 _atom_site_type_symbol
 _atom_site_label
 _atom_site_symmetry_multiplicity
 _atom_site_fract_x
 _atom_site_fract_y
 _atom_site_fract_z
 _atom_site_occupancy
  Tb  Tb0  1  0.666682  0.333318  0.569867  1
  Tb  Tb1  1  0.333318  0.666682  0.430133  1
  Dy  Dy2  1  0.333282  0.666718  0.064984  1
  Dy  Dy3  1  0.666718  0.333282  0.935016  1
  Al  Al4  1  0.000000  0.000000  0.500000  1
  Ru  Ru5  1  0.000000  0.000000  0.000000  1
  Ru  Ru6  1  0.171293  0.342378  0.748861  1
  Ru  Ru7  1  0.171109  0.828891  0.748825  1
  Ru  Ru8  1  0.657622  0.828707  0.748861  1
  Ru  Ru9  1  0.828707  0.657622  0.251139  1
  Ru  Ru10  1  0.828891  0.171109  0.251175  1
  Ru  Ru11  1  0.342378  0.171293  0.251139  1
