# generated using pymatgen
data_Tb4SiTc6Ge7
_symmetry_space_group_name_H-M   'P 1'
_cell_length_a   6.92802364
_cell_length_b   6.97075183
_cell_length_c   6.92979871
_cell_angle_alpha   69.42177606
_cell_angle_beta   90.34122806
_cell_angle_gamma   90.87268934
_symmetry_Int_Tables_number   1
_chemical_formula_structural   Tb4SiTc6Ge7
_chemical_formula_sum   'Tb4 Si1 Tc6 Ge7'
_cell_volume   313.27418718
_cell_formula_units_Z   1
loop_
 _symmetry_equiv_pos_site_id
 _symmetry_equiv_pos_as_xyz
  1  'x, y, z'
loop_
 _atom_site_type_symbol
 _atom_site_label
 _atom_site_symmetry_multiplicity
 _atom_site_fract_x
 _atom_site_fract_y
 _atom_site_fract_z
 _atom_site_occupancy
  Tb  Tb0  1  0.329373  0.552346  0.806713  1
  Tb  Tb1  1  0.830250  0.948705  0.192129  1
  Tb  Tb2  1  0.668151  0.445294  0.191985  1
  Tb  Tb3  1  0.170254  0.054331  0.805882  1
  Si  Si4  1  0.357271  0.365051  0.488731  1
  Tc  Tc5  1  0.497296  0.005856  0.499638  1
  Tc  Tc6  1  0.006126  0.498734  0.501905  1
  Tc  Tc7  1  0.850163  0.756045  0.756391  1
  Tc  Tc8  1  0.357674  0.727940  0.243431  1
  Tc  Tc9  1  0.150440  0.252333  0.247706  1
  Tc  Tc10  1  0.641514  0.258455  0.759136  1
  Ge  Ge11  1  0.553972  0.869102  0.895651  1
  Ge  Ge12  1  0.051126  0.635258  0.100322  1
  Ge  Ge13  1  0.441458  0.124636  0.106881  1
  Ge  Ge14  1  0.945918  0.369674  0.897532  1
  Ge  Ge15  1  0.149490  0.867492  0.478623  1
  Ge  Ge16  1  0.645537  0.632690  0.511810  1
  Ge  Ge17  1  0.853989  0.136058  0.515535  1
