# generated using pymatgen
data_PrNd3Al18HgRh5
_symmetry_space_group_name_H-M   'P 1'
_cell_length_a   7.68951387
_cell_length_b   7.68967854
_cell_length_c   9.64559262
_cell_angle_alpha   89.82393050
_cell_angle_beta   89.83654005
_cell_angle_gamma   119.23727662
_symmetry_Int_Tables_number   1
_chemical_formula_structural   PrNd3Al18HgRh5
_chemical_formula_sum   'Pr1 Nd3 Al18 Hg1 Rh5'
_cell_volume   497.67516901
_cell_formula_units_Z   1
loop_
 _symmetry_equiv_pos_site_id
 _symmetry_equiv_pos_as_xyz
  1  'x, y, z'
loop_
 _atom_site_type_symbol
 _atom_site_label
 _atom_site_symmetry_multiplicity
 _atom_site_fract_x
 _atom_site_fract_y
 _atom_site_fract_z
 _atom_site_occupancy
  Pr  Pr0  1  0.996526  0.678220  0.749521  1
  Nd  Nd1  1  0.003436  0.321735  0.250372  1
  Nd  Nd2  1  0.678166  0.996591  0.749615  1
  Nd  Nd3  1  0.321772  0.003439  0.250409  1
  Al  Al4  1  0.144807  0.145219  0.764402  1
  Al  Al5  1  0.855280  0.855387  0.235672  1
  Al  Al6  1  0.005853  0.352206  0.579236  1
  Al  Al7  1  0.994161  0.647214  0.419939  1
  Al  Al8  1  0.999614  0.662379  0.071095  1
  Al  Al9  1  0.338104  0.000866  0.929773  1
  Al  Al10  1  0.000347  0.337127  0.929754  1
  Al  Al11  1  0.662433  0.999654  0.070623  1
  Al  Al12  1  0.647334  0.994201  0.420322  1
  Al  Al13  1  0.353244  0.006308  0.579303  1
  Al  Al14  1  0.333945  0.333939  0.046183  1
  Al  Al15  1  0.665631  0.666038  0.954316  1
  Al  Al16  1  0.649580  0.650001  0.559450  1
  Al  Al17  1  0.349949  0.349922  0.440089  1
  Al  Al18  1  0.340300  0.552404  0.752808  1
  Al  Al19  1  0.660092  0.447426  0.247210  1
  Al  Al20  1  0.551847  0.339319  0.752784  1
  Al  Al21  1  0.447495  0.660154  0.247217  1
  Hg  Hg22  1  0.000011  0.000193  0.499770  1
  Rh  Rh23  1  0.670994  0.328805  0.499809  1
  Rh  Rh24  1  0.329036  0.671099  0.499797  1
  Rh  Rh25  1  0.329130  0.670957  0.000170  1
  Rh  Rh26  1  0.670840  0.328922  0.000170  1
  Rh  Rh27  1  0.000076  0.000273  0.000193  1
