# generated using pymatgen
data_Er4Al24Co(CuPd3)2
_symmetry_space_group_name_H-M   'P 1'
_cell_length_a   7.47973339
_cell_length_b   7.48436649
_cell_length_c   13.03150180
_cell_angle_alpha   84.51319364
_cell_angle_beta   78.96601679
_cell_angle_gamma   60.04050366
_symmetry_Int_Tables_number   1
_chemical_formula_structural   Er4Al24Co(CuPd3)2
_chemical_formula_sum   'Er4 Al24 Co1 Cu2 Pd6'
_cell_volume   620.35430340
_cell_formula_units_Z   1
loop_
 _symmetry_equiv_pos_site_id
 _symmetry_equiv_pos_as_xyz
  1  'x, y, z'
loop_
 _atom_site_type_symbol
 _atom_site_label
 _atom_site_symmetry_multiplicity
 _atom_site_fract_x
 _atom_site_fract_y
 _atom_site_fract_z
 _atom_site_occupancy
  Er  Er0  1  0.394487  0.167142  0.808752  1
  Er  Er1  1  0.605513  0.832858  0.191248  1
  Er  Er2  1  0.732201  0.498204  0.808856  1
  Er  Er3  1  0.267799  0.501796  0.191144  1
  Al  Al4  1  0.691465  0.824187  0.947540  1
  Al  Al5  1  0.308535  0.175813  0.052460  1
  Al  Al6  1  0.145052  0.833149  0.563131  1
  Al  Al7  1  0.854948  0.166851  0.436869  1
  Al  Al8  1  0.478420  0.168081  0.560946  1
  Al  Al9  1  0.521580  0.831919  0.439054  1
  Al  Al10  1  0.213742  0.168999  0.326894  1
  Al  Al11  1  0.786258  0.831001  0.673106  1
  Al  Al12  1  0.431816  0.507290  0.673292  1
  Al  Al13  1  0.568184  0.492710  0.326708  1
  Al  Al14  1  0.109248  0.162513  0.671191  1
  Al  Al15  1  0.890752  0.837487  0.328809  1
  Al  Al16  1  0.343706  0.498127  0.947531  1
  Al  Al17  1  0.656294  0.501873  0.052469  1
  Al  Al18  1  0.014509  0.178278  0.956803  1
  Al  Al19  1  0.985491  0.821722  0.043197  1
  Al  Al20  1  0.185201  0.499287  0.441443  1
  Al  Al21  1  0.814799  0.500713  0.558557  1
  Al  Al22  1  0.734987  0.164471  0.182727  1
  Al  Al23  1  0.265013  0.835529  0.817273  1
  Al  Al24  1  0.059907  0.621486  0.819937  1
  Al  Al25  1  0.940093  0.378514  0.180063  1
  Al  Al26  1  0.856510  0.040286  0.817076  1
  Al  Al27  1  0.143490  0.959714  0.182924  1
  Co  Co28  1  0.000000  0.500000  0.000000  1
  Cu  Cu29  1  0.119836  0.492790  0.639528  1
  Cu  Cu30  1  0.880164  0.507210  0.360472  1
  Pd  Pd31  1  0.656529  0.171814  0.999876  1
  Pd  Pd32  1  0.343471  0.828186  0.000124  1
  Pd  Pd33  1  0.536147  0.167482  0.362674  1
  Pd  Pd34  1  0.463853  0.832518  0.637326  1
  Pd  Pd35  1  0.778502  0.176467  0.637050  1
  Pd  Pd36  1  0.221498  0.823533  0.362950  1
