# generated using pymatgen
data_Li6Cd5InPd12
_symmetry_space_group_name_H-M   'P 1'
_cell_length_a   4.17315700
_cell_length_b   7.27462800
_cell_length_c   12.70088300
_cell_angle_alpha   90.00040327
_cell_angle_beta   89.99988428
_cell_angle_gamma   90.00069745
_symmetry_Int_Tables_number   1
_chemical_formula_structural   Li6Cd5InPd12
_chemical_formula_sum   'Li6 Cd5 In1 Pd12'
_cell_volume   385.57549870
_cell_formula_units_Z   1
loop_
 _symmetry_equiv_pos_site_id
 _symmetry_equiv_pos_as_xyz
  1  'x, y, z'
loop_
 _atom_site_type_symbol
 _atom_site_label
 _atom_site_symmetry_multiplicity
 _atom_site_fract_x
 _atom_site_fract_y
 _atom_site_fract_z
 _atom_site_occupancy
  Li  Li0  1  0.000007  0.499999  0.003085  1
  Li  Li1  1  0.499995  0.000008  0.166556  1
  Li  Li2  1  0.999996  0.499992  0.333348  1
  Li  Li3  1  0.499996  0.000008  0.500100  1
  Li  Li4  1  0.000011  0.499995  0.663574  1
  Li  Li5  1  0.500013  0.000003  0.833339  1
  Cd  Cd6  1  0.999998  0.000002  0.998581  1
  Cd  Cd7  1  0.499993  0.500001  0.166999  1
  Cd  Cd8  1  0.999997  0.000001  0.333328  1
  Cd  Cd9  1  0.499994  0.500003  0.499667  1
  Cd  Cd10  1  0.000000  0.000000  0.668086  1
  In  In11  1  0.499944  0.499968  0.833349  1
  Pd  Pd12  1  0.500102  0.254024  0.998464  1
  Pd  Pd13  1  0.499901  0.745980  0.998464  1
  Pd  Pd14  1  0.999870  0.248181  0.165985  1
  Pd  Pd15  1  0.000119  0.751824  0.165985  1
  Pd  Pd16  1  0.500101  0.251680  0.333327  1
  Pd  Pd17  1  0.499891  0.748322  0.333326  1
  Pd  Pd18  1  0.999874  0.248144  0.500692  1
  Pd  Pd19  1  0.000116  0.751858  0.500691  1
  Pd  Pd20  1  0.500107  0.254008  0.668207  1
  Pd  Pd21  1  0.499900  0.745994  0.668207  1
  Pd  Pd22  1  0.000032  0.257018  0.833319  1
  Pd  Pd23  1  0.000040  0.742984  0.833320  1
