# generated using pymatgen
data_Dy20Ir6Ru5Au
_symmetry_space_group_name_H-M   'P 1'
_cell_length_a   10.84954793
_cell_length_b   10.86002464
_cell_length_c   6.45203243
_cell_angle_alpha   89.90839524
_cell_angle_beta   90.01351378
_cell_angle_gamma   90.24011458
_symmetry_Int_Tables_number   1
_chemical_formula_structural   Dy20Ir6Ru5Au
_chemical_formula_sum   'Dy20 Ir6 Ru5 Au1'
_cell_volume   760.21181517
_cell_formula_units_Z   1
loop_
 _symmetry_equiv_pos_site_id
 _symmetry_equiv_pos_as_xyz
  1  'x, y, z'
loop_
 _atom_site_type_symbol
 _atom_site_label
 _atom_site_symmetry_multiplicity
 _atom_site_fract_x
 _atom_site_fract_y
 _atom_site_fract_z
 _atom_site_occupancy
  Dy  Dy0  1  0.294891  0.086829  0.378772  1
  Dy  Dy1  1  0.291461  0.914312  0.878415  1
  Dy  Dy2  1  0.704506  0.093311  0.882158  1
  Dy  Dy3  1  0.702429  0.916842  0.363980  1
  Dy  Dy4  1  0.577903  0.792997  0.879096  1
  Dy  Dy5  1  0.587406  0.207256  0.380326  1
  Dy  Dy6  1  0.412251  0.793544  0.380578  1
  Dy  Dy7  1  0.411798  0.207093  0.878597  1
  Dy  Dy8  1  0.207153  0.412230  0.620672  1
  Dy  Dy9  1  0.207102  0.586881  0.119863  1
  Dy  Dy10  1  0.793596  0.411446  0.119231  1
  Dy  Dy11  1  0.793230  0.578296  0.621772  1
  Dy  Dy12  1  0.916413  0.701726  0.134626  1
  Dy  Dy13  1  0.913750  0.291244  0.621852  1
  Dy  Dy14  1  0.093332  0.704335  0.617767  1
  Dy  Dy15  1  0.087021  0.294359  0.122465  1
  Dy  Dy16  1  0.003351  0.004609  0.496654  1
  Dy  Dy17  1  0.002022  0.004152  0.003841  1
  Dy  Dy18  1  0.499984  0.499513  0.000838  1
  Dy  Dy19  1  0.499346  0.499813  0.498682  1
  Ir  Ir20  1  0.153633  0.153398  0.750321  1
  Ir  Ir21  1  0.151585  0.848101  0.249791  1
  Ir  Ir22  1  0.651051  0.349103  0.749901  1
  Ir  Ir23  1  0.653999  0.653231  0.249948  1
  Ir  Ir24  1  0.347476  0.347203  0.249998  1
  Ir  Ir25  1  0.348434  0.651983  0.750017  1
  Ru  Ru26  1  0.849503  0.149905  0.250632  1
  Ru  Ru27  1  0.500173  0.001118  0.122754  1
  Ru  Ru28  1  0.500276  0.000628  0.624998  1
  Ru  Ru29  1  0.000136  0.500630  0.874635  1
  Ru  Ru30  1  0.000298  0.499257  0.377338  1
  Au  Au31  1  0.844491  0.844655  0.749480  1
