# generated using pymatgen
data_LaDyCu2(TeO6)2
_symmetry_space_group_name_H-M   'P 1'
_cell_length_a   5.17778500
_cell_length_b   5.17761437
_cell_length_c   10.15580100
_cell_angle_alpha   89.99952484
_cell_angle_beta   89.99950266
_cell_angle_gamma   119.99731265
_symmetry_Int_Tables_number   1
_chemical_formula_structural   LaDyCu2(TeO6)2
_chemical_formula_sum   'La1 Dy1 Cu2 Te2 O12'
_cell_volume   235.79266343
_cell_formula_units_Z   1
loop_
 _symmetry_equiv_pos_site_id
 _symmetry_equiv_pos_as_xyz
  1  'x, y, z'
loop_
 _atom_site_type_symbol
 _atom_site_label
 _atom_site_symmetry_multiplicity
 _atom_site_fract_x
 _atom_site_fract_y
 _atom_site_fract_z
 _atom_site_occupancy
  La  La0  1  0.000000  0.000000  0.000000  1
  Dy  Dy1  1  0.000000  0.000000  0.500000  1
  Cu  Cu2  1  0.333395  0.666684  0.257985  1
  Cu  Cu3  1  0.666605  0.333316  0.742015  1
  Te  Te4  1  0.666600  0.333314  0.258529  1
  Te  Te5  1  0.333400  0.666686  0.741471  1
  O  O6  1  0.629696  0.621424  0.148112  1
  O  O7  1  0.378556  0.008312  0.148103  1
  O  O8  1  0.991665  0.370270  0.148101  1
  O  O9  1  0.988431  0.636489  0.364815  1
  O  O10  1  0.363482  0.351972  0.364814  1
  O  O11  1  0.648002  0.011539  0.364807  1
  O  O12  1  0.011569  0.363511  0.635185  1
  O  O13  1  0.351998  0.988461  0.635193  1
  O  O14  1  0.636518  0.648028  0.635187  1
  O  O15  1  0.621446  0.991688  0.851896  1
  O  O16  1  0.370306  0.378576  0.851888  1
  O  O17  1  0.008337  0.629730  0.851899  1
