# generated using pymatgen
data_Li8Nd8SnSb7
_symmetry_space_group_name_H-M   'P 1'
_cell_length_a   9.59964500
_cell_length_b   9.59964524
_cell_length_c   7.40660700
_cell_angle_alpha   90.00000000
_cell_angle_beta   90.00000000
_cell_angle_gamma   119.99999574
_symmetry_Int_Tables_number   1
_chemical_formula_structural   Li8Nd8SnSb7
_chemical_formula_sum   'Li8 Nd8 Sn1 Sb7'
_cell_volume   591.09911369
_cell_formula_units_Z   1
loop_
 _symmetry_equiv_pos_site_id
 _symmetry_equiv_pos_as_xyz
  1  'x, y, z'
loop_
 _atom_site_type_symbol
 _atom_site_label
 _atom_site_symmetry_multiplicity
 _atom_site_fract_x
 _atom_site_fract_y
 _atom_site_fract_z
 _atom_site_occupancy
  Li  Li0  1  0.167095  0.334191  0.268475  1
  Li  Li1  1  0.167095  0.832905  0.268475  1
  Li  Li2  1  0.665809  0.832905  0.268475  1
  Li  Li3  1  0.832974  0.665948  0.769264  1
  Li  Li4  1  0.832974  0.167026  0.769264  1
  Li  Li5  1  0.334052  0.167026  0.769264  1
  Li  Li6  1  0.333333  0.666667  0.692223  1
  Li  Li7  1  0.666667  0.333333  0.195164  1
  Nd  Nd8  1  0.508282  0.016565  0.496272  1
  Nd  Nd9  1  0.508282  0.491718  0.496272  1
  Nd  Nd10  1  0.983435  0.491718  0.496272  1
  Nd  Nd11  1  0.493558  0.987115  0.994369  1
  Nd  Nd12  1  0.493558  0.506442  0.994369  1
  Nd  Nd13  1  0.012885  0.506442  0.994369  1
  Nd  Nd14  1  0.000000  0.000000  0.502554  1
  Nd  Nd15  1  0.000000  0.000000  0.002139  1
  Sn  Sn16  1  0.666667  0.333333  0.760939  1
  Sb  Sb17  1  0.166724  0.333448  0.740906  1
  Sb  Sb18  1  0.166724  0.833276  0.740906  1
  Sb  Sb19  1  0.666552  0.833276  0.740906  1
  Sb  Sb20  1  0.833580  0.667160  0.240645  1
  Sb  Sb21  1  0.833580  0.166420  0.240645  1
  Sb  Sb22  1  0.332840  0.166420  0.240645  1
  Sb  Sb23  1  0.333333  0.666667  0.259159  1
