# generated using pymatgen
data_Sr4Sm3(USe4)5
_symmetry_space_group_name_H-M   'P 1'
_cell_length_a   7.87961831
_cell_length_b   8.55638912
_cell_length_c   12.36680843
_cell_angle_alpha   89.75593549
_cell_angle_beta   89.93399869
_cell_angle_gamma   90.20018350
_symmetry_Int_Tables_number   1
_chemical_formula_structural   Sr4Sm3(USe4)5
_chemical_formula_sum   'Sr4 Sm3 U5 Se20'
_cell_volume   833.77036359
_cell_formula_units_Z   1
loop_
 _symmetry_equiv_pos_site_id
 _symmetry_equiv_pos_as_xyz
  1  'x, y, z'
loop_
 _atom_site_type_symbol
 _atom_site_label
 _atom_site_symmetry_multiplicity
 _atom_site_fract_x
 _atom_site_fract_y
 _atom_site_fract_z
 _atom_site_occupancy
  Sr  Sr0  1  0.049259  0.494945  0.327506  1
  Sr  Sr1  1  0.550618  0.505687  0.170592  1
  Sr  Sr2  1  0.949900  0.506813  0.670818  1
  Sr  Sr3  1  0.447439  0.495740  0.829534  1
  Sm  Sm4  1  0.035879  0.999574  0.320914  1
  Sm  Sm5  1  0.537357  0.001658  0.180246  1
  Sm  Sm6  1  0.963558  0.001074  0.676797  1
  U  U7  1  0.466930  0.000233  0.823389  1
  U  U8  1  0.064539  0.751965  0.006738  1
  U  U9  1  0.565107  0.248155  0.493619  1
  U  U10  1  0.934733  0.245526  0.991753  1
  U  U11  1  0.431805  0.751472  0.506901  1
  Se  Se12  1  0.668756  0.957777  0.411823  1
  Se  Se13  1  0.168175  0.042817  0.089193  1
  Se  Se14  1  0.335005  0.041795  0.596499  1
  Se  Se15  1  0.828104  0.953719  0.907566  1
  Se  Se16  1  0.449467  0.778000  0.998281  1
  Se  Se17  1  0.947020  0.230001  0.498277  1
  Se  Se18  1  0.549362  0.223229  0.993800  1
  Se  Se19  1  0.053321  0.772799  0.502210  1
  Se  Se20  1  0.844095  0.765252  0.188336  1
  Se  Se21  1  0.345216  0.234528  0.311819  1
  Se  Se22  1  0.159853  0.228604  0.812099  1
  Se  Se23  1  0.649173  0.768500  0.692604  1
  Se  Se24  1  0.322428  0.760785  0.285853  1
  Se  Se25  1  0.820712  0.239607  0.210569  1
  Se  Se26  1  0.678150  0.235526  0.714811  1
  Se  Se27  1  0.181291  0.766011  0.787893  1
  Se  Se28  1  0.179459  0.459333  0.073983  1
  Se  Se29  1  0.675386  0.541445  0.423353  1
  Se  Se30  1  0.822998  0.539472  0.921839  1
  Se  Se31  1  0.324906  0.457959  0.580388  1
