# generated using pymatgen
data_Y5Zr3(P3Pd4)4
_symmetry_space_group_name_H-M   'P 1'
_cell_length_a   13.17183300
_cell_length_b   13.17183102
_cell_length_c   4.00392400
_cell_angle_alpha   90.00000000
_cell_angle_beta   90.00000000
_cell_angle_gamma   120.00000245
_symmetry_Int_Tables_number   1
_chemical_formula_structural   Y5Zr3(P3Pd4)4
_chemical_formula_sum   'Y5 Zr3 P12 Pd16'
_cell_volume   601.60136490
_cell_formula_units_Z   1
loop_
 _symmetry_equiv_pos_site_id
 _symmetry_equiv_pos_as_xyz
  1  'x, y, z'
loop_
 _atom_site_type_symbol
 _atom_site_label
 _atom_site_symmetry_multiplicity
 _atom_site_fract_x
 _atom_site_fract_y
 _atom_site_fract_z
 _atom_site_occupancy
  Y  Y0  1  0.187890  0.187890  0.500000  1
  Y  Y1  1  0.812110  0.000000  0.500000  1
  Y  Y2  1  0.000000  0.812110  0.500000  1
  Y  Y3  1  0.333333  0.666667  0.000000  1
  Y  Y4  1  0.666667  0.333333  0.000000  1
  Zr  Zr5  1  0.553766  0.553766  0.000000  1
  Zr  Zr6  1  0.446234  0.000000  0.000000  1
  Zr  Zr7  1  0.000000  0.446234  0.000000  1
  P  P8  1  0.826359  0.826359  0.000000  1
  P  P9  1  0.173641  0.000000  0.000000  1
  P  P10  1  0.000000  0.173641  0.000000  1
  P  P11  1  0.165182  0.481281  0.500000  1
  P  P12  1  0.518719  0.683900  0.500000  1
  P  P13  1  0.316100  0.834818  0.500000  1
  P  P14  1  0.683900  0.518719  0.500000  1
  P  P15  1  0.834818  0.316100  0.500000  1
  P  P16  1  0.481281  0.165182  0.500000  1
  P  P17  1  0.357029  0.357029  0.000000  1
  P  P18  1  0.642971  0.000000  0.000000  1
  P  P19  1  0.000000  0.642971  0.000000  1
  Pd  Pd20  1  0.726049  0.726049  0.500000  1
  Pd  Pd21  1  0.273951  0.000000  0.500000  1
  Pd  Pd22  1  0.000000  0.273951  0.500000  1
  Pd  Pd23  1  0.182559  0.373079  0.000000  1
  Pd  Pd24  1  0.626921  0.809479  0.000000  1
  Pd  Pd25  1  0.190521  0.817441  0.000000  1
  Pd  Pd26  1  0.809479  0.626921  0.000000  1
  Pd  Pd27  1  0.817441  0.190521  0.000000  1
  Pd  Pd28  1  0.373079  0.182559  0.000000  1
  Pd  Pd29  1  0.357146  0.488988  0.500000  1
  Pd  Pd30  1  0.511012  0.868158  0.500000  1
  Pd  Pd31  1  0.131842  0.642854  0.500000  1
  Pd  Pd32  1  0.868158  0.511012  0.500000  1
  Pd  Pd33  1  0.642854  0.131842  0.500000  1
  Pd  Pd34  1  0.488988  0.357146  0.500000  1
  Pd  Pd35  1  0.000000  0.000000  0.000000  1
