# generated using pymatgen
data_Zr5Mn3(Co4As3)4
_symmetry_space_group_name_H-M   'P 1'
_cell_length_a   12.37689100
_cell_length_b   12.37689023
_cell_length_c   3.73408200
_cell_angle_alpha   90.00000000
_cell_angle_beta   90.00000000
_cell_angle_gamma   119.99999405
_symmetry_Int_Tables_number   1
_chemical_formula_structural   Zr5Mn3(Co4As3)4
_chemical_formula_sum   'Zr5 Mn3 Co16 As12'
_cell_volume   495.37902485
_cell_formula_units_Z   1
loop_
 _symmetry_equiv_pos_site_id
 _symmetry_equiv_pos_as_xyz
  1  'x, y, z'
loop_
 _atom_site_type_symbol
 _atom_site_label
 _atom_site_symmetry_multiplicity
 _atom_site_fract_x
 _atom_site_fract_y
 _atom_site_fract_z
 _atom_site_occupancy
  Zr  Zr0  1  0.666667  0.333333  0.000000  1
  Zr  Zr1  1  0.333333  0.666667  0.000000  1
  Zr  Zr2  1  0.816897  0.816897  0.500000  1
  Zr  Zr3  1  0.183103  0.000000  0.500000  1
  Zr  Zr4  1  0.000000  0.183103  0.500000  1
  Mn  Mn5  1  0.443200  0.443200  0.000000  1
  Mn  Mn6  1  0.556800  0.000000  0.000000  1
  Mn  Mn7  1  0.000000  0.556800  0.000000  1
  Co  Co8  1  0.197610  0.375941  0.000000  1
  Co  Co9  1  0.178330  0.802390  0.000000  1
  Co  Co10  1  0.821670  0.624059  0.000000  1
  Co  Co11  1  0.802390  0.178330  0.000000  1
  Co  Co12  1  0.375941  0.197610  0.000000  1
  Co  Co13  1  0.126116  0.480208  0.500000  1
  Co  Co14  1  0.354092  0.873884  0.500000  1
  Co  Co15  1  0.519792  0.645908  0.500000  1
  Co  Co16  1  0.645908  0.519792  0.500000  1
  Co  Co17  1  0.873884  0.354092  0.500000  1
  Co  Co18  1  0.480208  0.126116  0.500000  1
  Co  Co19  1  0.000000  0.000000  0.000000  1
  Co  Co20  1  0.715084  0.000000  0.500000  1
  Co  Co21  1  0.000000  0.715084  0.500000  1
  Co  Co22  1  0.624059  0.821670  0.000000  1
  Co  Co23  1  0.284916  0.284916  0.500000  1
  As  As24  1  0.642498  0.642498  0.000000  1
  As  As25  1  0.357502  0.000000  0.000000  1
  As  As26  1  0.000000  0.357502  0.000000  1
  As  As27  1  0.485631  0.316902  0.500000  1
  As  As28  1  0.683098  0.168729  0.500000  1
  As  As29  1  0.831271  0.514369  0.500000  1
  As  As30  1  0.514369  0.831271  0.500000  1
  As  As31  1  0.168729  0.683098  0.500000  1
  As  As32  1  0.823338  0.000000  0.000000  1
  As  As33  1  0.000000  0.823338  0.000000  1
  As  As34  1  0.316902  0.485631  0.500000  1
  As  As35  1  0.176662  0.176662  0.000000  1
