# generated using pymatgen
data_Tb2YMg3CuRu2
_symmetry_space_group_name_H-M   'P 1'
_cell_length_a   7.33827311
_cell_length_b   7.33827321
_cell_length_c   4.02591600
_cell_angle_alpha   90.00000000
_cell_angle_beta   90.00000000
_cell_angle_gamma   120.01986965
_symmetry_Int_Tables_number   1
_chemical_formula_structural   Tb2YMg3CuRu2
_chemical_formula_sum   'Tb2 Y1 Mg3 Cu1 Ru2'
_cell_volume   187.71375590
_cell_formula_units_Z   1
loop_
 _symmetry_equiv_pos_site_id
 _symmetry_equiv_pos_as_xyz
  1  'x, y, z'
loop_
 _atom_site_type_symbol
 _atom_site_label
 _atom_site_symmetry_multiplicity
 _atom_site_fract_x
 _atom_site_fract_y
 _atom_site_fract_z
 _atom_site_occupancy
  Tb  Tb0  1  0.999979  0.580663  0.000000  1
  Tb  Tb1  1  0.580663  0.999979  0.000000  1
  Y  Y2  1  0.419159  0.419159  0.000000  1
  Mg  Mg3  1  0.000096  0.247464  0.500000  1
  Mg  Mg4  1  0.752479  0.752479  0.500000  1
  Mg  Mg5  1  0.247464  0.000096  0.500000  1
  Cu  Cu6  1  0.999963  0.999963  0.000000  1
  Ru  Ru7  1  0.333283  0.666914  0.500000  1
  Ru  Ru8  1  0.666914  0.333283  0.500000  1
