# generated using pymatgen
data_NpNi4Au
_symmetry_space_group_name_H-M   'P 1'
_cell_length_a   4.91018616
_cell_length_b   4.91018576
_cell_length_c   4.91018600
_cell_angle_alpha   59.99999838
_cell_angle_beta   60.00000109
_cell_angle_gamma   60.00000580
_symmetry_Int_Tables_number   1
_chemical_formula_structural   NpNi4Au
_chemical_formula_sum   'Np1 Ni4 Au1'
_cell_volume   83.71028945
_cell_formula_units_Z   1
loop_
 _symmetry_equiv_pos_site_id
 _symmetry_equiv_pos_as_xyz
  1  'x, y, z'
loop_
 _atom_site_type_symbol
 _atom_site_label
 _atom_site_symmetry_multiplicity
 _atom_site_fract_x
 _atom_site_fract_y
 _atom_site_fract_z
 _atom_site_occupancy
  Np  Np0  1  0.250000  0.250000  0.250000  1
  Ni  Ni1  1  0.625009  0.625009  0.625009  1
  Ni  Ni2  1  0.625009  0.625009  0.124972  1
  Ni  Ni3  1  0.625009  0.124972  0.625009  1
  Ni  Ni4  1  0.124972  0.625009  0.625009  1
  Au  Au5  1  0.000000  0.000000  0.000000  1
