# generated using pymatgen
data_LaNd2Pt9
_symmetry_space_group_name_H-M   'P 1'
_cell_length_a   9.51268706
_cell_length_b   9.51268812
_cell_length_c   9.51268628
_cell_angle_alpha   33.49848748
_cell_angle_beta   33.49849088
_cell_angle_gamma   33.49848276
_symmetry_Int_Tables_number   1
_chemical_formula_structural   LaNd2Pt9
_chemical_formula_sum   'La1 Nd2 Pt9'
_cell_volume   233.53659143
_cell_formula_units_Z   1
loop_
 _symmetry_equiv_pos_site_id
 _symmetry_equiv_pos_as_xyz
  1  'x, y, z'
loop_
 _atom_site_type_symbol
 _atom_site_label
 _atom_site_symmetry_multiplicity
 _atom_site_fract_x
 _atom_site_fract_y
 _atom_site_fract_z
 _atom_site_occupancy
  La  La0  1  0.000000  0.000000  0.000000  1
  Nd  Nd1  1  0.139668  0.139668  0.139668  1
  Nd  Nd2  1  0.860332  0.860332  0.860332  1
  Pt  Pt3  1  0.586776  0.586776  0.080921  1
  Pt  Pt4  1  0.332705  0.332705  0.332705  1
  Pt  Pt5  1  0.919078  0.413224  0.413225  1
  Pt  Pt6  1  0.413224  0.919078  0.413225  1
  Pt  Pt7  1  0.500000  0.500000  0.500000  1
  Pt  Pt8  1  0.586776  0.080922  0.586775  1
  Pt  Pt9  1  0.080922  0.586776  0.586775  1
  Pt  Pt10  1  0.667295  0.667295  0.667295  1
  Pt  Pt11  1  0.413224  0.413224  0.919079  1
