# generated using pymatgen
data_Tm3Al3ZnSiNi
_symmetry_space_group_name_H-M   'P 1'
_cell_length_a   6.80027900
_cell_length_b   6.80027843
_cell_length_c   4.12494200
_cell_angle_alpha   90.00000000
_cell_angle_beta   90.00000000
_cell_angle_gamma   119.99999790
_symmetry_Int_Tables_number   1
_chemical_formula_structural   Tm3Al3ZnSiNi
_chemical_formula_sum   'Tm3 Al3 Zn1 Si1 Ni1'
_cell_volume   165.19690765
_cell_formula_units_Z   1
loop_
 _symmetry_equiv_pos_site_id
 _symmetry_equiv_pos_as_xyz
  1  'x, y, z'
loop_
 _atom_site_type_symbol
 _atom_site_label
 _atom_site_symmetry_multiplicity
 _atom_site_fract_x
 _atom_site_fract_y
 _atom_site_fract_z
 _atom_site_occupancy
  Tm  Tm0  1  0.408927  0.998538  0.000000  1
  Tm  Tm1  1  0.001462  0.410389  0.000000  1
  Tm  Tm2  1  0.589611  0.591073  0.000000  1
  Al  Al3  1  0.766780  0.001445  0.500000  1
  Al  Al4  1  0.234666  0.233221  0.500000  1
  Al  Al5  1  0.998555  0.765335  0.500000  1
  Zn  Zn6  1  0.666667  0.333334  0.500000  1
  Si  Si7  1  0.333334  0.666667  0.500000  1
  Ni  Ni8  1  0.000000  0.000000  0.000000  1
