# generated using pymatgen
data_Ho3Zn3CoCu2
_symmetry_space_group_name_H-M   'P 1'
_cell_length_a   7.15471900
_cell_length_b   7.15471926
_cell_length_c   3.71936500
_cell_angle_alpha   90.00000000
_cell_angle_beta   90.00000000
_cell_angle_gamma   119.99999417
_symmetry_Int_Tables_number   1
_chemical_formula_structural   Ho3Zn3CoCu2
_chemical_formula_sum   'Ho3 Zn3 Co1 Cu2'
_cell_volume   164.88632410
_cell_formula_units_Z   1
loop_
 _symmetry_equiv_pos_site_id
 _symmetry_equiv_pos_as_xyz
  1  'x, y, z'
loop_
 _atom_site_type_symbol
 _atom_site_label
 _atom_site_symmetry_multiplicity
 _atom_site_fract_x
 _atom_site_fract_y
 _atom_site_fract_z
 _atom_site_occupancy
  Ho  Ho0  1  0.420665  0.402827  0.000000  1
  Ho  Ho1  1  0.597173  0.017839  0.000000  1
  Ho  Ho2  1  0.982161  0.579335  0.000000  1
  Zn  Zn3  1  0.749761  0.746406  0.500000  1
  Zn  Zn4  1  0.253594  0.003355  0.500000  1
  Zn  Zn5  1  0.996645  0.250239  0.500000  1
  Co  Co6  1  0.666667  0.333333  0.500000  1
  Cu  Cu7  1  0.000000  0.000000  0.000000  1
  Cu  Cu8  1  0.333333  0.666667  0.500000  1
