# generated using pymatgen
data_Tm4Hf3PtF28
_symmetry_space_group_name_H-M   'P 1'
_cell_length_a   5.61132889
_cell_length_b   8.92029447
_cell_length_c   12.00175462
_cell_angle_alpha   62.53458277
_cell_angle_beta   90.08700826
_cell_angle_gamma   90.02517751
_symmetry_Int_Tables_number   1
_chemical_formula_structural   Tm4Hf3PtF28
_chemical_formula_sum   'Tm4 Hf3 Pt1 F28'
_cell_volume   533.03339643
_cell_formula_units_Z   1
loop_
 _symmetry_equiv_pos_site_id
 _symmetry_equiv_pos_as_xyz
  1  'x, y, z'
loop_
 _atom_site_type_symbol
 _atom_site_label
 _atom_site_symmetry_multiplicity
 _atom_site_fract_x
 _atom_site_fract_y
 _atom_site_fract_z
 _atom_site_occupancy
  Tm  Tm0  1  0.258390  0.816531  0.266897  1
  Tm  Tm1  1  0.743415  0.184964  0.733389  1
  Tm  Tm2  1  0.758184  0.183169  0.234966  1
  Tm  Tm3  1  0.240867  0.817169  0.761094  1
  Hf  Hf4  1  0.756583  0.726280  0.043628  1
  Hf  Hf5  1  0.244143  0.275681  0.954420  1
  Hf  Hf6  1  0.256809  0.275187  0.455607  1
  Pt  Pt7  1  0.739841  0.727573  0.544095  1
  F  F8  1  0.937477  0.703960  0.417286  1
  F  F9  1  0.039194  0.289004  0.582126  1
  F  F10  1  0.462257  0.290588  0.081278  1
  F  F11  1  0.535752  0.710635  0.918240  1
  F  F12  1  0.482253  0.733302  0.148552  1
  F  F13  1  0.520674  0.267455  0.851970  1
  F  F14  1  0.979315  0.266931  0.352804  1
  F  F15  1  0.029035  0.727209  0.637845  1
  F  F16  1  0.968309  0.747591  0.172415  1
  F  F17  1  0.036472  0.251876  0.826221  1
  F  F18  1  0.466907  0.254135  0.326520  1
  F  F19  1  0.548197  0.742934  0.676940  1
  F  F20  1  0.774753  0.474068  0.140934  1
  F  F21  1  0.223596  0.527646  0.856590  1
  F  F22  1  0.269246  0.528061  0.359732  1
  F  F23  1  0.728877  0.479151  0.643270  1
  F  F24  1  0.947788  0.275843  0.050373  1
  F  F25  1  0.051498  0.724985  0.947586  1
  F  F26  1  0.442923  0.720527  0.457140  1
  F  F27  1  0.553749  0.279749  0.548940  1
  F  F28  1  0.742411  0.976423  0.449716  1
  F  F29  1  0.261495  0.022876  0.556855  1
  F  F30  1  0.241939  0.023516  0.059710  1
  F  F31  1  0.759183  0.978338  0.940782  1
  F  F32  1  0.576554  0.970800  0.236094  1
  F  F33  1  0.423001  0.027557  0.764987  1
  F  F34  1  0.076614  0.026410  0.269672  1
  F  F35  1  0.922301  0.971873  0.731326  1
