# generated using pymatgen
data_Nd4CuNi19Sn4
_symmetry_space_group_name_H-M   'P 1'
_cell_length_a   4.93586600
_cell_length_b   4.93586707
_cell_length_c   19.79585000
_cell_angle_alpha   90.00000000
_cell_angle_beta   90.00000000
_cell_angle_gamma   120.00000626
_symmetry_Int_Tables_number   1
_chemical_formula_structural   Nd4CuNi19Sn4
_chemical_formula_sum   'Nd4 Cu1 Ni19 Sn4'
_cell_volume   417.66835734
_cell_formula_units_Z   1
loop_
 _symmetry_equiv_pos_site_id
 _symmetry_equiv_pos_as_xyz
  1  'x, y, z'
loop_
 _atom_site_type_symbol
 _atom_site_label
 _atom_site_symmetry_multiplicity
 _atom_site_fract_x
 _atom_site_fract_y
 _atom_site_fract_z
 _atom_site_occupancy
  Nd  Nd0  1  0.333333  0.666667  0.250000  1
  Nd  Nd1  1  0.666667  0.333333  0.750000  1
  Nd  Nd2  1  0.000000  0.000000  0.500249  1
  Nd  Nd3  1  0.000000  0.000000  0.999751  1
  Cu  Cu4  1  0.000000  0.000000  0.250000  1
  Ni  Ni5  1  0.000000  0.000000  0.750000  1
  Ni  Ni6  1  0.333333  0.666667  0.750000  1
  Ni  Ni7  1  0.666667  0.333333  0.250000  1
  Ni  Ni8  1  0.333333  0.666667  0.956506  1
  Ni  Ni9  1  0.666667  0.333333  0.043473  1
  Ni  Ni10  1  0.666667  0.333333  0.456527  1
  Ni  Ni11  1  0.333333  0.666667  0.543494  1
  Ni  Ni12  1  0.832912  0.167088  0.354116  1
  Ni  Ni13  1  0.832912  0.665824  0.354116  1
  Ni  Ni14  1  0.334176  0.167088  0.354116  1
  Ni  Ni15  1  0.166084  0.833916  0.646185  1
  Ni  Ni16  1  0.166084  0.332168  0.646185  1
  Ni  Ni17  1  0.667832  0.833916  0.646185  1
  Ni  Ni18  1  0.166084  0.833916  0.853815  1
  Ni  Ni19  1  0.166084  0.332168  0.853815  1
  Ni  Ni20  1  0.667832  0.833916  0.853815  1
  Ni  Ni21  1  0.832912  0.167088  0.145884  1
  Ni  Ni22  1  0.832912  0.665824  0.145884  1
  Ni  Ni23  1  0.334176  0.167088  0.145884  1
  Sn  Sn24  1  0.333333  0.666667  0.412583  1
  Sn  Sn25  1  0.666667  0.333333  0.587358  1
  Sn  Sn26  1  0.666667  0.333333  0.912642  1
  Sn  Sn27  1  0.333333  0.666667  0.087417  1
