# generated using pymatgen
data_Y3Mg3Pd2Ru
_symmetry_space_group_name_H-M   'P 1'
_cell_length_a   7.41676400
_cell_length_b   7.41676433
_cell_length_c   4.05479400
_cell_angle_alpha   90.00000000
_cell_angle_beta   90.00000000
_cell_angle_gamma   119.99998959
_symmetry_Int_Tables_number   1
_chemical_formula_structural   Y3Mg3Pd2Ru
_chemical_formula_sum   'Y3 Mg3 Pd2 Ru1'
_cell_volume   193.16498828
_cell_formula_units_Z   1
loop_
 _symmetry_equiv_pos_site_id
 _symmetry_equiv_pos_as_xyz
  1  'x, y, z'
loop_
 _atom_site_type_symbol
 _atom_site_label
 _atom_site_symmetry_multiplicity
 _atom_site_fract_x
 _atom_site_fract_y
 _atom_site_fract_z
 _atom_site_occupancy
  Y  Y0  1  0.422852  0.406756  0.500000  1
  Y  Y1  1  0.983904  0.577148  0.500000  1
  Y  Y2  1  0.593244  0.016096  0.500000  1
  Mg  Mg3  1  0.753981  0.752603  0.000000  1
  Mg  Mg4  1  0.247397  0.001378  0.000000  1
  Mg  Mg5  1  0.998622  0.246019  0.000000  1
  Pd  Pd6  1  0.333333  0.666667  0.000000  1
  Pd  Pd7  1  0.000000  0.000000  0.500000  1
  Ru  Ru8  1  0.666667  0.333333  0.000000  1
