# generated using pymatgen
data_Pr3DyErPb3
_symmetry_space_group_name_H-M   'P 1'
_cell_length_a   9.30586200
_cell_length_b   9.30586296
_cell_length_c   6.79549500
_cell_angle_alpha   90.00000000
_cell_angle_beta   90.00000000
_cell_angle_gamma   119.99999660
_symmetry_Int_Tables_number   1
_chemical_formula_structural   Pr3DyErPb3
_chemical_formula_sum   'Pr6 Dy2 Er2 Pb6'
_cell_volume   509.64175704
_cell_formula_units_Z   2
loop_
 _symmetry_equiv_pos_site_id
 _symmetry_equiv_pos_as_xyz
  1  'x, y, z'
loop_
 _atom_site_type_symbol
 _atom_site_label
 _atom_site_symmetry_multiplicity
 _atom_site_fract_x
 _atom_site_fract_y
 _atom_site_fract_z
 _atom_site_occupancy
  Pr  Pr0  1  0.759216  0.759216  0.750759  1
  Pr  Pr1  1  0.240784  0.000000  0.750759  1
  Pr  Pr2  1  0.000000  0.240784  0.750759  1
  Pr  Pr3  1  0.240784  0.240784  0.249241  1
  Pr  Pr4  1  0.759216  0.000000  0.249241  1
  Pr  Pr5  1  0.000000  0.759216  0.249241  1
  Dy  Dy6  1  0.333333  0.666667  0.500000  1
  Dy  Dy7  1  0.666667  0.333333  0.500000  1
  Er  Er8  1  0.666667  0.333333  0.000000  1
  Er  Er9  1  0.333333  0.666667  0.000000  1
  Pb  Pb10  1  0.398298  0.398298  0.753976  1
  Pb  Pb11  1  0.601702  0.000000  0.753976  1
  Pb  Pb12  1  0.000000  0.601702  0.753976  1
  Pb  Pb13  1  0.601702  0.601702  0.246024  1
  Pb  Pb14  1  0.398298  0.000000  0.246024  1
  Pb  Pb15  1  0.000000  0.398298  0.246024  1
