# generated using pymatgen
data_DyLu2Fe7B2
_symmetry_space_group_name_H-M   'P 1'
_cell_length_a   5.09056500
_cell_length_b   5.09056422
_cell_length_c   14.41009800
_cell_angle_alpha   90.00000000
_cell_angle_beta   90.00000000
_cell_angle_gamma   119.99999856
_symmetry_Int_Tables_number   1
_chemical_formula_structural   DyLu2Fe7B2
_chemical_formula_sum   'Dy2 Lu4 Fe14 B4'
_cell_volume   323.39215503
_cell_formula_units_Z   2
loop_
 _symmetry_equiv_pos_site_id
 _symmetry_equiv_pos_as_xyz
  1  'x, y, z'
loop_
 _atom_site_type_symbol
 _atom_site_label
 _atom_site_symmetry_multiplicity
 _atom_site_fract_x
 _atom_site_fract_y
 _atom_site_fract_z
 _atom_site_occupancy
  Dy  Dy0  1  0.333333  0.666667  0.750000  1
  Dy  Dy1  1  0.666667  0.333333  0.250000  1
  Lu  Lu2  1  0.333333  0.666667  0.534385  1
  Lu  Lu3  1  0.666667  0.333333  0.034385  1
  Lu  Lu4  1  0.666667  0.333333  0.465615  1
  Lu  Lu5  1  0.333333  0.666667  0.965615  1
  Fe  Fe6  1  0.000000  0.000000  0.000000  1
  Fe  Fe7  1  0.000000  0.000000  0.500000  1
  Fe  Fe8  1  0.166420  0.332839  0.144820  1
  Fe  Fe9  1  0.833580  0.667161  0.644820  1
  Fe  Fe10  1  0.667161  0.833580  0.144820  1
  Fe  Fe11  1  0.166420  0.833580  0.144820  1
  Fe  Fe12  1  0.833580  0.166420  0.644820  1
  Fe  Fe13  1  0.332839  0.166420  0.644820  1
  Fe  Fe14  1  0.833580  0.667161  0.855180  1
  Fe  Fe15  1  0.833580  0.166420  0.855180  1
  Fe  Fe16  1  0.332839  0.166420  0.855180  1
  Fe  Fe17  1  0.667161  0.833580  0.355180  1
  Fe  Fe18  1  0.166420  0.833580  0.355180  1
  Fe  Fe19  1  0.166420  0.332839  0.355180  1
  B  B20  1  0.333333  0.666667  0.250000  1
  B  B21  1  0.666667  0.333333  0.750000  1
  B  B22  1  0.000000  0.000000  0.250000  1
  B  B23  1  0.000000  0.000000  0.750000  1
