# generated using pymatgen
data_Dy2HoTh3Si4
_symmetry_space_group_name_H-M   'P 1'
_cell_length_a   7.61639809
_cell_length_b   7.61856864
_cell_length_c   4.24565300
_cell_angle_alpha   90.00000000
_cell_angle_beta   90.00000000
_cell_angle_gamma   90.49879640
_symmetry_Int_Tables_number   1
_chemical_formula_structural   Dy2HoTh3Si4
_chemical_formula_sum   'Dy2 Ho1 Th3 Si4'
_cell_volume   246.34914483
_cell_formula_units_Z   1
loop_
 _symmetry_equiv_pos_site_id
 _symmetry_equiv_pos_as_xyz
  1  'x, y, z'
loop_
 _atom_site_type_symbol
 _atom_site_label
 _atom_site_symmetry_multiplicity
 _atom_site_fract_x
 _atom_site_fract_y
 _atom_site_fract_z
 _atom_site_occupancy
  Dy  Dy0  1  0.001378  0.000343  0.000000  1
  Dy  Dy1  1  0.675797  0.176363  0.500000  1
  Ho  Ho2  1  0.500518  0.501315  0.000000  1
  Th  Th3  1  0.323193  0.822701  0.500000  1
  Th  Th4  1  0.178254  0.320488  0.500000  1
  Th  Th5  1  0.820066  0.677781  0.500000  1
  Si  Si6  1  0.116673  0.616340  0.000000  1
  Si  Si7  1  0.879641  0.380089  0.000000  1
  Si  Si8  1  0.618378  0.885831  0.000000  1
  Si  Si9  1  0.386101  0.118748  0.000000  1
