# generated using pymatgen
data_Ho2TmMg3Si2Ag
_symmetry_space_group_name_H-M   'P 1'
_cell_length_a   7.21718494
_cell_length_b   7.21718576
_cell_length_c   4.30484700
_cell_angle_alpha   90.00000000
_cell_angle_beta   90.00000000
_cell_angle_gamma   119.88024797
_symmetry_Int_Tables_number   1
_chemical_formula_structural   Ho2TmMg3Si2Ag
_chemical_formula_sum   'Ho2 Tm1 Mg3 Si2 Ag1'
_cell_volume   194.42265524
_cell_formula_units_Z   1
loop_
 _symmetry_equiv_pos_site_id
 _symmetry_equiv_pos_as_xyz
  1  'x, y, z'
loop_
 _atom_site_type_symbol
 _atom_site_label
 _atom_site_symmetry_multiplicity
 _atom_site_fract_x
 _atom_site_fract_y
 _atom_site_fract_z
 _atom_site_occupancy
  Ho  Ho0  1  0.577186  0.999572  0.000000  1
  Ho  Ho1  1  0.999572  0.577186  0.000000  1
  Tm  Tm2  1  0.422461  0.422461  0.000000  1
  Mg  Mg3  1  0.248617  0.000321  0.500000  1
  Mg  Mg4  1  0.000321  0.248617  0.500000  1
  Mg  Mg5  1  0.751034  0.751034  0.500000  1
  Si  Si6  1  0.333615  0.666197  0.500000  1
  Si  Si7  1  0.666197  0.333615  0.500000  1
  Ag  Ag8  1  0.000997  0.000997  0.000000  1
