# generated using pymatgen
data_Dy5Hf3Co16As11P
_symmetry_space_group_name_H-M   'P 1'
_cell_length_a   12.68118502
_cell_length_b   12.67239375
_cell_length_c   3.82410700
_cell_angle_alpha   90.00000000
_cell_angle_beta   90.00000000
_cell_angle_gamma   119.97706500
_symmetry_Int_Tables_number   1
_chemical_formula_structural   Dy5Hf3Co16As11P
_chemical_formula_sum   'Dy5 Hf3 Co16 As11 P1'
_cell_volume   532.32821712
_cell_formula_units_Z   1
loop_
 _symmetry_equiv_pos_site_id
 _symmetry_equiv_pos_as_xyz
  1  'x, y, z'
loop_
 _atom_site_type_symbol
 _atom_site_label
 _atom_site_symmetry_multiplicity
 _atom_site_fract_x
 _atom_site_fract_y
 _atom_site_fract_z
 _atom_site_occupancy
  Dy  Dy0  1  0.667096  0.333217  0.000000  1
  Dy  Dy1  1  0.332904  0.666121  0.000000  1
  Dy  Dy2  1  0.178300  0.182848  0.500000  1
  Dy  Dy3  1  0.821700  0.004548  0.500000  1
  Dy  Dy4  1  0.000000  0.817710  0.500000  1
  Hf  Hf5  1  0.560746  0.560532  0.000000  1
  Hf  Hf6  1  0.439254  0.999786  0.000000  1
  Hf  Hf7  1  0.000000  0.437929  0.000000  1
  Co  Co8  1  0.828130  0.196466  0.000000  1
  Co  Co9  1  0.802974  0.626335  0.000000  1
  Co  Co10  1  0.374245  0.176907  0.000000  1
  Co  Co11  1  0.197026  0.823361  0.000000  1
  Co  Co12  1  0.625755  0.802662  0.000000  1
  Co  Co13  1  0.171870  0.368336  0.000000  1
  Co  Co14  1  0.643167  0.122561  0.500000  1
  Co  Co15  1  0.877926  0.519685  0.500000  1
  Co  Co16  1  0.480085  0.358107  0.500000  1
  Co  Co17  1  0.122074  0.641759  0.500000  1
  Co  Co18  1  0.519915  0.878022  0.500000  1
  Co  Co19  1  0.356833  0.479393  0.500000  1
  Co  Co20  1  0.719030  0.718947  0.500000  1
  Co  Co21  1  0.280970  0.999918  0.500000  1
  Co  Co22  1  0.000000  0.274837  0.500000  1
  Co  Co23  1  0.000000  0.008322  0.000000  1
  As  As24  1  0.350757  0.350996  0.000000  1
  As  As25  1  0.649243  0.000239  0.000000  1
  As  As26  1  0.000000  0.647527  0.000000  1
  As  As27  1  0.828010  0.308077  0.500000  1
  As  As28  1  0.691209  0.517903  0.500000  1
  As  As29  1  0.482000  0.173035  0.500000  1
  As  As30  1  0.308791  0.826695  0.500000  1
  As  As31  1  0.518000  0.691035  0.500000  1
  As  As32  1  0.171990  0.480067  0.500000  1
  As  As33  1  0.823830  0.824820  0.000000  1
  As  As34  1  0.176170  0.000990  0.000000  1
  P  P35  1  0.000000  0.180305  0.000000  1
