# generated using pymatgen
data_Pu8Re3B24Ru
_symmetry_space_group_name_H-M   'P 1'
_cell_length_a   9.33526958
_cell_length_b   11.43212070
_cell_length_c   3.62761100
_cell_angle_alpha   90.00000000
_cell_angle_beta   90.00000000
_cell_angle_gamma   89.95975839
_symmetry_Int_Tables_number   1
_chemical_formula_structural   Pu8Re3B24Ru
_chemical_formula_sum   'Pu8 Re3 B24 Ru1'
_cell_volume   387.14554665
_cell_formula_units_Z   1
loop_
 _symmetry_equiv_pos_site_id
 _symmetry_equiv_pos_as_xyz
  1  'x, y, z'
loop_
 _atom_site_type_symbol
 _atom_site_label
 _atom_site_symmetry_multiplicity
 _atom_site_fract_x
 _atom_site_fract_y
 _atom_site_fract_z
 _atom_site_occupancy
  Pu  Pu0  1  0.836164  0.092767  0.000000  1
  Pu  Pu1  1  0.455356  0.108488  0.000000  1
  Pu  Pu2  1  0.954502  0.391254  0.000000  1
  Pu  Pu3  1  0.336737  0.408205  0.000000  1
  Pu  Pu4  1  0.663742  0.592247  0.000000  1
  Pu  Pu5  1  0.045820  0.608763  0.000000  1
  Pu  Pu6  1  0.544138  0.891143  0.000000  1
  Pu  Pu7  1  0.164722  0.907941  0.000000  1
  Re  Re8  1  0.143996  0.179473  0.000000  1
  Re  Re9  1  0.646178  0.319963  0.000000  1
  Re  Re10  1  0.354255  0.680318  0.000000  1
  B  B11  1  0.643018  0.039030  0.500001  1
  B  B12  1  0.051927  0.068050  0.500001  1
  B  B13  1  0.244320  0.076772  0.500001  1
  B  B14  1  0.644390  0.187930  0.500001  1
  B  B15  1  0.988239  0.218644  0.500001  1
  B  B16  1  0.303481  0.227166  0.500001  1
  B  B17  1  0.802596  0.273336  0.500001  1
  B  B18  1  0.487238  0.281255  0.500001  1
  B  B19  1  0.144824  0.311710  0.500001  1
  B  B20  1  0.743312  0.423790  0.500001  1
  B  B21  1  0.551543  0.432315  0.500001  1
  B  B22  1  0.143423  0.459942  0.500001  1
  B  B23  1  0.857412  0.540260  0.500001  1
  B  B24  1  0.447972  0.567380  0.500001  1
  B  B25  1  0.255889  0.576550  0.500001  1
  B  B26  1  0.855592  0.688668  0.500001  1
  B  B27  1  0.511749  0.718089  0.500001  1
  B  B28  1  0.196965  0.726986  0.500001  1
  B  B29  1  0.697456  0.772993  0.500001  1
  B  B30  1  0.010956  0.781785  0.500001  1
  B  B31  1  0.355595  0.811750  0.500001  1
  B  B32  1  0.756287  0.922610  0.500001  1
  B  B33  1  0.947336  0.931412  0.500001  1
  B  B34  1  0.358137  0.960570  0.500001  1
  Ru  Ru35  1  0.854729  0.820446  0.000000  1
