# generated using pymatgen
data_Cs5Mn2NiS7
_symmetry_space_group_name_H-M   'P 1'
_cell_length_a   10.70174852
_cell_length_b   10.70174880
_cell_length_c   9.12196300
_cell_angle_alpha   78.52352810
_cell_angle_beta   78.52352779
_cell_angle_gamma   73.10968848
_symmetry_Int_Tables_number   1
_chemical_formula_structural   Cs5Mn2NiS7
_chemical_formula_sum   'Cs10 Mn4 Ni2 S14'
_cell_volume   968.49926922
_cell_formula_units_Z   2
loop_
 _symmetry_equiv_pos_site_id
 _symmetry_equiv_pos_as_xyz
  1  'x, y, z'
loop_
 _atom_site_type_symbol
 _atom_site_label
 _atom_site_symmetry_multiplicity
 _atom_site_fract_x
 _atom_site_fract_y
 _atom_site_fract_z
 _atom_site_occupancy
  Cs  Cs0  1  0.034307  0.424622  0.731120  1
  Cs  Cs1  1  0.424622  0.034307  0.731120  1
  Cs  Cs2  1  0.965693  0.575378  0.268880  1
  Cs  Cs3  1  0.575378  0.965693  0.268880  1
  Cs  Cs4  1  0.287479  0.712521  0.000000  1
  Cs  Cs5  1  0.712521  0.287479  0.000000  1
  Cs  Cs6  1  0.845226  0.154774  0.500000  1
  Cs  Cs7  1  0.154774  0.845226  0.500000  1
  Cs  Cs8  1  0.426952  0.426952  0.701046  1
  Cs  Cs9  1  0.573048  0.573048  0.298954  1
  Mn  Mn10  1  0.076114  0.076114  0.065773  1
  Mn  Mn11  1  0.923886  0.923886  0.934227  1
  Mn  Mn12  1  0.332085  0.332085  0.325785  1
  Mn  Mn13  1  0.667915  0.667915  0.674215  1
  Ni  Ni14  1  0.207452  0.207452  0.190586  1
  Ni  Ni15  1  0.792548  0.792548  0.809414  1
  S  S16  1  0.003401  0.278313  0.125261  1
  S  S17  1  0.278313  0.003401  0.125261  1
  S  S18  1  0.996599  0.721687  0.874739  1
  S  S19  1  0.721687  0.996599  0.874739  1
  S  S20  1  0.205025  0.205025  0.437123  1
  S  S21  1  0.794975  0.794975  0.562877  1
  S  S22  1  0.058926  0.058926  0.824123  1
  S  S23  1  0.941074  0.941074  0.175877  1
  S  S24  1  0.339622  0.339622  0.083680  1
  S  S25  1  0.660378  0.660378  0.916320  1
  S  S26  1  0.260083  0.529258  0.392675  1
  S  S27  1  0.529258  0.260083  0.392675  1
  S  S28  1  0.739917  0.470742  0.607325  1
  S  S29  1  0.470742  0.739917  0.607325  1
