# generated using pymatgen
data_ZnCo(WO3)4
_symmetry_space_group_name_H-M   'P 1'
_cell_length_a   6.62144634
_cell_length_b   6.64035988
_cell_length_c   10.72634426
_cell_angle_alpha   71.96798645
_cell_angle_beta   72.01776435
_cell_angle_gamma   89.99427099
_symmetry_Int_Tables_number   1
_chemical_formula_structural   ZnCo(WO3)4
_chemical_formula_sum   'Zn2 Co2 W8 O24'
_cell_volume   424.17086406
_cell_formula_units_Z   2
loop_
 _symmetry_equiv_pos_site_id
 _symmetry_equiv_pos_as_xyz
  1  'x, y, z'
loop_
 _atom_site_type_symbol
 _atom_site_label
 _atom_site_symmetry_multiplicity
 _atom_site_fract_x
 _atom_site_fract_y
 _atom_site_fract_z
 _atom_site_occupancy
  Zn  Zn0  1  0.250036  0.749997  0.499975  1
  Zn  Zn1  1  0.749932  0.249990  0.500096  1
  Co  Co2  1  0.499999  0.500003  0.999997  1
  Co  Co3  1  0.999999  0.000001  0.999999  1
  W  W4  1  0.418176  0.918242  0.163582  1
  W  W5  1  0.918172  0.418240  0.163579  1
  W  W6  1  0.081821  0.581754  0.836434  1
  W  W7  1  0.581828  0.081764  0.836407  1
  W  W8  1  0.167817  0.167774  0.664376  1
  W  W9  1  0.667811  0.667756  0.664457  1
  W  W10  1  0.332195  0.332252  0.335529  1
  W  W11  1  0.832195  0.832234  0.335611  1
  O  O12  1  0.558860  0.750007  0.500052  1
  O  O13  1  0.058873  0.250088  0.499956  1
  O  O14  1  0.941143  0.749920  0.500029  1
  O  O15  1  0.441148  0.249989  0.499927  1
  O  O16  1  0.499934  0.191462  0.999971  1
  O  O17  1  0.999976  0.691542  0.999993  1
  O  O18  1  0.500077  0.808554  0.000006  1
  O  O19  1  0.000025  0.308460  0.000005  1
  O  O20  1  0.705973  0.913057  0.174035  1
  O  O21  1  0.205996  0.413050  0.173930  1
  O  O22  1  0.119962  0.913024  0.173998  1
  O  O23  1  0.620024  0.413004  0.173930  1
  O  O24  1  0.793987  0.586969  0.826033  1
  O  O25  1  0.294004  0.086964  0.825935  1
  O  O26  1  0.380027  0.587005  0.826035  1
  O  O27  1  0.880094  0.086987  0.825963  1
  O  O28  1  0.162083  0.870046  0.675835  1
  O  O29  1  0.662063  0.370042  0.675898  1
  O  O30  1  0.162108  0.454042  0.675856  1
  O  O31  1  0.662125  0.954049  0.675866  1
  O  O32  1  0.337924  0.629950  0.324133  1
  O  O33  1  0.837895  0.129948  0.324214  1
  O  O34  1  0.337839  0.045922  0.324167  1
  O  O35  1  0.837879  0.545910  0.324190  1
