# generated using pymatgen
data_Rb6YTmBi4
_symmetry_space_group_name_H-M   'P 1'
_cell_length_a   10.38498343
_cell_length_b   10.38498444
_cell_length_c   10.38498357
_cell_angle_alpha   128.10700083
_cell_angle_beta   70.48754365
_cell_angle_gamma   135.79747287
_symmetry_Int_Tables_number   1
_chemical_formula_structural   Rb6YTmBi4
_chemical_formula_sum   'Rb6 Y1 Tm1 Bi4'
_cell_volume   602.31296044
_cell_formula_units_Z   1
loop_
 _symmetry_equiv_pos_site_id
 _symmetry_equiv_pos_as_xyz
  1  'x, y, z'
loop_
 _atom_site_type_symbol
 _atom_site_label
 _atom_site_symmetry_multiplicity
 _atom_site_fract_x
 _atom_site_fract_y
 _atom_site_fract_z
 _atom_site_occupancy
  Rb  Rb0  1  0.250000  0.250000  0.000000  1
  Rb  Rb1  1  0.750000  0.750000  0.000000  1
  Rb  Rb2  1  0.314059  0.806630  0.120358  1
  Rb  Rb3  1  0.185941  0.306298  0.492570  1
  Rb  Rb4  1  0.813729  0.693371  0.507431  1
  Rb  Rb5  1  0.686271  0.193701  0.879641  1
  Y  Y6  1  0.250000  0.749999  0.499999  1
  Tm  Tm7  1  0.750000  0.250000  0.500000  1
  Bi  Bi8  1  0.900054  0.303356  0.206382  1
  Bi  Bi9  1  0.599946  0.806331  0.403302  1
  Bi  Bi10  1  0.403028  0.196644  0.596698  1
  Bi  Bi11  1  0.096972  0.693669  0.793617  1
