# generated using pymatgen
data_TmPa3Fe2(CoGe2)2
_symmetry_space_group_name_H-M   'P 1'
_cell_length_a   4.23279900
_cell_length_b   6.95956750
_cell_length_c   7.21040900
_cell_angle_alpha   90.54642665
_cell_angle_beta   90.00000000
_cell_angle_gamma   90.00000000
_symmetry_Int_Tables_number   1
_chemical_formula_structural   TmPa3Fe2(CoGe2)2
_chemical_formula_sum   'Tm1 Pa3 Fe2 Co2 Ge4'
_cell_volume   212.39781591
_cell_formula_units_Z   1
loop_
 _symmetry_equiv_pos_site_id
 _symmetry_equiv_pos_as_xyz
  1  'x, y, z'
loop_
 _atom_site_type_symbol
 _atom_site_label
 _atom_site_symmetry_multiplicity
 _atom_site_fract_x
 _atom_site_fract_y
 _atom_site_fract_z
 _atom_site_occupancy
  Tm  Tm0  1  0.750000  0.486850  0.285466  1
  Pa  Pa1  1  0.250000  0.004026  0.802153  1
  Pa  Pa2  1  0.250000  0.521423  0.726544  1
  Pa  Pa3  1  0.750000  0.996931  0.198184  1
  Fe  Fe4  1  0.250000  0.857254  0.438564  1
  Fe  Fe5  1  0.750000  0.139839  0.556624  1
  Co  Co6  1  0.250000  0.262674  0.061630  1
  Co  Co7  1  0.750000  0.722564  0.924193  1
  Ge  Ge8  1  0.250000  0.219565  0.413050  1
  Ge  Ge9  1  0.250000  0.698725  0.110905  1
  Ge  Ge10  1  0.750000  0.785362  0.582492  1
  Ge  Ge11  1  0.750000  0.304784  0.900194  1
