# generated using pymatgen
data_Y20Zn3Cd3Ru2
_symmetry_space_group_name_H-M   'P 1'
_cell_length_a   9.59138600
_cell_length_b   9.59138606
_cell_length_c   9.75915100
_cell_angle_alpha   90.00000000
_cell_angle_beta   90.00000000
_cell_angle_gamma   119.99999980
_symmetry_Int_Tables_number   1
_chemical_formula_structural   Y20Zn3Cd3Ru2
_chemical_formula_sum   'Y20 Zn3 Cd3 Ru2'
_cell_volume   777.50897603
_cell_formula_units_Z   1
loop_
 _symmetry_equiv_pos_site_id
 _symmetry_equiv_pos_as_xyz
  1  'x, y, z'
loop_
 _atom_site_type_symbol
 _atom_site_label
 _atom_site_symmetry_multiplicity
 _atom_site_fract_x
 _atom_site_fract_y
 _atom_site_fract_z
 _atom_site_occupancy
  Y  Y0  1  0.000000  0.000000  0.474731  1
  Y  Y1  1  0.000000  0.000000  0.025269  1
  Y  Y2  1  0.208166  0.791834  0.438430  1
  Y  Y3  1  0.208166  0.416332  0.438430  1
  Y  Y4  1  0.583668  0.791834  0.438430  1
  Y  Y5  1  0.790867  0.209133  0.557236  1
  Y  Y6  1  0.790867  0.581734  0.557236  1
  Y  Y7  1  0.418266  0.209133  0.557236  1
  Y  Y8  1  0.790867  0.209133  0.942764  1
  Y  Y9  1  0.790867  0.581734  0.942764  1
  Y  Y10  1  0.418266  0.209133  0.942764  1
  Y  Y11  1  0.208166  0.791834  0.061570  1
  Y  Y12  1  0.208166  0.416332  0.061570  1
  Y  Y13  1  0.583668  0.791834  0.061570  1
  Y  Y14  1  0.541642  0.458358  0.250000  1
  Y  Y15  1  0.541642  0.083284  0.250000  1
  Y  Y16  1  0.916716  0.458358  0.250000  1
  Y  Y17  1  0.458803  0.541197  0.750000  1
  Y  Y18  1  0.458803  0.917606  0.750000  1
  Y  Y19  1  0.082394  0.541197  0.750000  1
  Zn  Zn20  1  0.878345  0.121655  0.250000  1
  Zn  Zn21  1  0.878345  0.756692  0.250000  1
  Zn  Zn22  1  0.243308  0.121655  0.250000  1
  Cd  Cd23  1  0.110511  0.889489  0.750000  1
  Cd  Cd24  1  0.110511  0.221021  0.750000  1
  Cd  Cd25  1  0.778979  0.889489  0.750000  1
  Ru  Ru26  1  0.333333  0.666667  0.250000  1
  Ru  Ru27  1  0.666667  0.333333  0.750000  1
