# generated using pymatgen
data_Li2PuP2Pd
_symmetry_space_group_name_H-M   'P 1'
_cell_length_a   4.08195100
_cell_length_b   4.08195375
_cell_length_c   6.58173600
_cell_angle_alpha   90.00000000
_cell_angle_beta   90.00000000
_cell_angle_gamma   120.00001820
_symmetry_Int_Tables_number   1
_chemical_formula_structural   Li2PuP2Pd
_chemical_formula_sum   'Li2 Pu1 P2 Pd1'
_cell_volume   94.97446977
_cell_formula_units_Z   1
loop_
 _symmetry_equiv_pos_site_id
 _symmetry_equiv_pos_as_xyz
  1  'x, y, z'
loop_
 _atom_site_type_symbol
 _atom_site_label
 _atom_site_symmetry_multiplicity
 _atom_site_fract_x
 _atom_site_fract_y
 _atom_site_fract_z
 _atom_site_occupancy
  Li  Li0  1  0.000000  0.000000  0.509826  1
  Li  Li1  1  0.333333  0.666667  0.639766  1
  Pu  Pu2  1  0.000000  0.000000  0.003779  1
  P  P3  1  0.333333  0.666667  0.243946  1
  P  P4  1  0.666667  0.333333  0.749830  1
  Pd  Pd5  1  0.666667  0.333333  0.352852  1
