# generated using pymatgen
data_Ho5Lu3(CdCo)2
_symmetry_space_group_name_H-M   'P 1'
_cell_length_a   9.40131595
_cell_length_b   9.40131597
_cell_length_c   9.40131600
_cell_angle_alpha   60.00000692
_cell_angle_beta   60.00000685
_cell_angle_gamma   60.00000667
_symmetry_Int_Tables_number   1
_chemical_formula_structural   Ho5Lu3(CdCo)2
_chemical_formula_sum   'Ho10 Lu6 Cd4 Co4'
_cell_volume   587.55836951
_cell_formula_units_Z   2
loop_
 _symmetry_equiv_pos_site_id
 _symmetry_equiv_pos_as_xyz
  1  'x, y, z'
loop_
 _atom_site_type_symbol
 _atom_site_label
 _atom_site_symmetry_multiplicity
 _atom_site_fract_x
 _atom_site_fract_y
 _atom_site_fract_z
 _atom_site_occupancy
  Ho  Ho0  1  0.652805  0.652805  0.652805  1
  Ho  Ho1  1  0.652805  0.652805  0.041586  1
  Ho  Ho2  1  0.041586  0.652805  0.652805  1
  Ho  Ho3  1  0.652805  0.041586  0.652805  1
  Ho  Ho4  1  0.061190  0.438810  0.438810  1
  Ho  Ho5  1  0.438812  0.061189  0.061189  1
  Ho  Ho6  1  0.438810  0.061190  0.438810  1
  Ho  Ho7  1  0.438810  0.438810  0.061190  1
  Ho  Ho8  1  0.061189  0.438812  0.061189  1
  Ho  Ho9  1  0.061189  0.061189  0.438812  1
  Lu  Lu10  1  0.186407  0.813593  0.813593  1
  Lu  Lu11  1  0.813593  0.186407  0.186407  1
  Lu  Lu12  1  0.813593  0.186407  0.813593  1
  Lu  Lu13  1  0.813593  0.813593  0.186407  1
  Lu  Lu14  1  0.186407  0.813593  0.186407  1
  Lu  Lu15  1  0.186407  0.186407  0.813593  1
  Cd  Cd16  1  0.419429  0.419429  0.419429  1
  Cd  Cd17  1  0.419429  0.419429  0.741714  1
  Cd  Cd18  1  0.741714  0.419429  0.419429  1
  Cd  Cd19  1  0.419429  0.741714  0.419429  1
  Co  Co20  1  0.859225  0.859225  0.859225  1
  Co  Co21  1  0.859225  0.859225  0.422323  1
  Co  Co22  1  0.422323  0.859225  0.859225  1
  Co  Co23  1  0.859225  0.422323  0.859225  1
