# generated using pymatgen
data_Sm5Tm3(As3Rh4)4
_symmetry_space_group_name_H-M   'P 1'
_cell_length_a   13.44106300
_cell_length_b   13.44106324
_cell_length_c   4.04959300
_cell_angle_alpha   90.00000000
_cell_angle_beta   90.00000000
_cell_angle_gamma   120.00000187
_symmetry_Int_Tables_number   1
_chemical_formula_structural   Sm5Tm3(As3Rh4)4
_chemical_formula_sum   'Sm5 Tm3 As12 Rh16'
_cell_volume   633.59135329
_cell_formula_units_Z   1
loop_
 _symmetry_equiv_pos_site_id
 _symmetry_equiv_pos_as_xyz
  1  'x, y, z'
loop_
 _atom_site_type_symbol
 _atom_site_label
 _atom_site_symmetry_multiplicity
 _atom_site_fract_x
 _atom_site_fract_y
 _atom_site_fract_z
 _atom_site_occupancy
  Sm  Sm0  1  0.188421  0.188421  0.500000  1
  Sm  Sm1  1  0.811579  0.000000  0.500000  1
  Sm  Sm2  1  0.000000  0.811579  0.500000  1
  Sm  Sm3  1  0.333333  0.666667  0.000000  1
  Sm  Sm4  1  0.666667  0.333333  0.000000  1
  Tm  Tm5  1  0.559175  0.559175  0.000000  1
  Tm  Tm6  1  0.440825  0.000000  0.000000  1
  Tm  Tm7  1  0.000000  0.440825  0.000000  1
  As  As8  1  0.823302  0.823302  0.000000  1
  As  As9  1  0.176698  0.000000  0.000000  1
  As  As10  1  0.000000  0.176698  0.000000  1
  As  As11  1  0.173040  0.485457  0.500000  1
  As  As12  1  0.514543  0.687583  0.500000  1
  As  As13  1  0.312417  0.826960  0.500000  1
  As  As14  1  0.687583  0.514543  0.500000  1
  As  As15  1  0.826960  0.312417  0.500000  1
  As  As16  1  0.485457  0.173040  0.500000  1
  As  As17  1  0.352406  0.352406  0.000000  1
  As  As18  1  0.647594  0.000000  0.000000  1
  As  As19  1  0.000000  0.647594  0.000000  1
  Rh  Rh20  1  0.721209  0.721209  0.500000  1
  Rh  Rh21  1  0.278791  0.000000  0.500000  1
  Rh  Rh22  1  0.000000  0.278791  0.500000  1
  Rh  Rh23  1  0.176992  0.375256  0.000000  1
  Rh  Rh24  1  0.624744  0.801736  0.000000  1
  Rh  Rh25  1  0.198264  0.823008  0.000000  1
  Rh  Rh26  1  0.801736  0.624744  0.000000  1
  Rh  Rh27  1  0.823008  0.198264  0.000000  1
  Rh  Rh28  1  0.375256  0.176992  0.000000  1
  Rh  Rh29  1  0.354131  0.480092  0.500000  1
  Rh  Rh30  1  0.519908  0.874039  0.500000  1
  Rh  Rh31  1  0.125961  0.645869  0.500000  1
  Rh  Rh32  1  0.874039  0.519908  0.500000  1
  Rh  Rh33  1  0.645869  0.125961  0.500000  1
  Rh  Rh34  1  0.480092  0.354131  0.500000  1
  Rh  Rh35  1  0.000000  0.000000  0.000000  1
