# generated using pymatgen
data_Y8Tm12Si15Sn
_symmetry_space_group_name_H-M   'P 1'
_cell_length_a   7.43626161
_cell_length_b   7.63558858
_cell_length_c   14.53767728
_cell_angle_alpha   89.97611981
_cell_angle_beta   89.16936011
_cell_angle_gamma   90.27236486
_symmetry_Int_Tables_number   1
_chemical_formula_structural   Y8Tm12Si15Sn
_chemical_formula_sum   'Y8 Tm12 Si15 Sn1'
_cell_volume   825.35655560
_cell_formula_units_Z   1
loop_
 _symmetry_equiv_pos_site_id
 _symmetry_equiv_pos_as_xyz
  1  'x, y, z'
loop_
 _atom_site_type_symbol
 _atom_site_label
 _atom_site_symmetry_multiplicity
 _atom_site_fract_x
 _atom_site_fract_y
 _atom_site_fract_z
 _atom_site_occupancy
  Y  Y0  1  0.497268  0.316185  0.899870  1
  Y  Y1  1  0.009006  0.180609  0.597606  1
  Y  Y2  1  0.491714  0.679580  0.402829  1
  Y  Y3  1  0.994966  0.829213  0.099339  1
  Y  Y4  1  0.488596  0.687133  0.100654  1
  Y  Y5  1  0.991775  0.819701  0.403316  1
  Y  Y6  1  0.509020  0.320205  0.597988  1
  Y  Y7  1  0.007920  0.173398  0.899648  1
  Tm  Tm8  1  0.357787  0.827566  0.878557  1
  Tm  Tm9  1  0.861941  0.668283  0.620571  1
  Tm  Tm10  1  0.638983  0.167110  0.380750  1
  Tm  Tm11  1  0.154303  0.324837  0.124815  1
  Tm  Tm12  1  0.636018  0.160520  0.124456  1
  Tm  Tm13  1  0.139019  0.331672  0.380017  1
  Tm  Tm14  1  0.363081  0.831798  0.619387  1
  Tm  Tm15  1  0.859361  0.683468  0.870411  1
  Tm  Tm16  1  0.192616  0.496810  0.747065  1
  Tm  Tm17  1  0.693032  0.005494  0.748134  1
  Tm  Tm18  1  0.808788  0.501960  0.255831  1
  Tm  Tm19  1  0.304046  0.994913  0.253647  1
  Si  Si20  1  0.307822  0.035602  0.040562  1
  Si  Si21  1  0.801154  0.463571  0.458873  1
  Si  Si22  1  0.701126  0.963336  0.542235  1
  Si  Si23  1  0.180365  0.534754  0.958586  1
  Si  Si24  1  0.690989  0.964704  0.958100  1
  Si  Si25  1  0.200244  0.535820  0.542003  1
  Si  Si26  1  0.300270  0.037107  0.458397  1
  Si  Si27  1  0.564386  0.611590  0.749987  1
  Si  Si28  1  0.068910  0.891912  0.747397  1
  Si  Si29  1  0.437835  0.388726  0.250820  1
  Si  Si30  1  0.932733  0.112123  0.250619  1
  Si  Si31  1  0.306662  0.127532  0.749316  1
  Si  Si32  1  0.805657  0.371640  0.750266  1
  Si  Si33  1  0.694114  0.869741  0.250912  1
  Si  Si34  1  0.193277  0.628945  0.250291  1
  Sn  Sn35  1  0.815216  0.462442  0.036744  1
