# generated using pymatgen
data_CaHo6(CCl5)2
_symmetry_space_group_name_H-M   'P 1'
_cell_length_a   10.09185150
_cell_length_b   10.09185142
_cell_length_c   12.59167300
_cell_angle_alpha   80.91187150
_cell_angle_beta   80.91187157
_cell_angle_gamma   21.52637186
_symmetry_Int_Tables_number   1
_chemical_formula_structural   CaHo6(CCl5)2
_chemical_formula_sum   'Ca1 Ho6 C2 Cl10'
_cell_volume   464.43015931
_cell_formula_units_Z   1
loop_
 _symmetry_equiv_pos_site_id
 _symmetry_equiv_pos_as_xyz
  1  'x, y, z'
loop_
 _atom_site_type_symbol
 _atom_site_label
 _atom_site_symmetry_multiplicity
 _atom_site_fract_x
 _atom_site_fract_y
 _atom_site_fract_z
 _atom_site_occupancy
  Ca  Ca0  1  0.000000  0.000000  0.000000  1
  Ho  Ho1  1  0.818661  0.818661  0.509399  1
  Ho  Ho2  1  0.181339  0.181339  0.490601  1
  Ho  Ho3  1  0.697674  0.697674  0.725166  1
  Ho  Ho4  1  0.302326  0.302326  0.274834  1
  Ho  Ho5  1  0.347794  0.347794  0.735415  1
  Ho  Ho6  1  0.652206  0.652206  0.264585  1
  C  C7  1  0.263139  0.263139  0.626113  1
  C  C8  1  0.736861  0.736861  0.373887  1
  Cl  Cl9  1  0.450014  0.450014  0.878207  1
  Cl  Cl10  1  0.549986  0.549986  0.121793  1
  Cl  Cl11  1  0.786411  0.786411  0.872166  1
  Cl  Cl12  1  0.213589  0.213589  0.127834  1
  Cl  Cl13  1  0.125774  0.125774  0.860746  1
  Cl  Cl14  1  0.074051  0.074051  0.370851  1
  Cl  Cl15  1  0.925949  0.925949  0.629149  1
  Cl  Cl16  1  0.404013  0.404013  0.386737  1
  Cl  Cl17  1  0.595987  0.595987  0.613263  1
  Cl  Cl18  1  0.874226  0.874226  0.139254  1
