# generated using pymatgen
data_Ca11Pr8DySi16
_symmetry_space_group_name_H-M   'P 1'
_cell_length_a   7.52496102
_cell_length_b   7.97464621
_cell_length_c   15.21388439
_cell_angle_alpha   89.97460059
_cell_angle_beta   90.00534763
_cell_angle_gamma   90.00680491
_symmetry_Int_Tables_number   1
_chemical_formula_structural   Ca11Pr8DySi16
_chemical_formula_sum   'Ca11 Pr8 Dy1 Si16'
_cell_volume   912.96839568
_cell_formula_units_Z   1
loop_
 _symmetry_equiv_pos_site_id
 _symmetry_equiv_pos_as_xyz
  1  'x, y, z'
loop_
 _atom_site_type_symbol
 _atom_site_label
 _atom_site_symmetry_multiplicity
 _atom_site_fract_x
 _atom_site_fract_y
 _atom_site_fract_z
 _atom_site_occupancy
  Ca  Ca0  1  0.646310  0.998436  0.249725  1
  Ca  Ca1  1  0.145615  0.501363  0.249675  1
  Ca  Ca2  1  0.855598  0.495779  0.751245  1
  Ca  Ca3  1  0.351552  0.003630  0.750690  1
  Ca  Ca4  1  0.680696  0.818909  0.877860  1
  Ca  Ca5  1  0.180894  0.682525  0.621210  1
  Ca  Ca6  1  0.819410  0.318280  0.122141  1
  Ca  Ca7  1  0.318965  0.180613  0.378858  1
  Ca  Ca8  1  0.319229  0.181573  0.122308  1
  Ca  Ca9  1  0.819048  0.319043  0.378295  1
  Ca  Ca10  1  0.181819  0.680998  0.877800  1
  Pr  Pr11  1  0.971997  0.813700  0.098635  1
  Pr  Pr12  1  0.471230  0.685857  0.400560  1
  Pr  Pr13  1  0.527082  0.314745  0.902123  1
  Pr  Pr14  1  0.027539  0.186609  0.597434  1
  Pr  Pr15  1  0.027598  0.185498  0.901483  1
  Pr  Pr16  1  0.528024  0.314509  0.599015  1
  Pr  Pr17  1  0.472081  0.686240  0.098862  1
  Pr  Pr18  1  0.971446  0.813337  0.400733  1
  Dy  Dy19  1  0.679545  0.816611  0.623629  1
  Si  Si20  1  0.755645  0.626210  0.250366  1
  Si  Si21  1  0.256003  0.874230  0.250481  1
  Si  Si22  1  0.741508  0.121670  0.747045  1
  Si  Si23  1  0.246450  0.376544  0.749531  1
  Si  Si24  1  0.029622  0.090107  0.250247  1
  Si  Si25  1  0.529547  0.409340  0.250698  1
  Si  Si26  1  0.474054  0.594418  0.746669  1
  Si  Si27  1  0.966567  0.906341  0.745837  1
  Si  Si28  1  0.857544  0.526556  0.962109  1
  Si  Si29  1  0.363551  0.971296  0.539982  1
  Si  Si30  1  0.642608  0.027025  0.037232  1
  Si  Si31  1  0.140216  0.473050  0.463278  1
  Si  Si32  1  0.143238  0.472950  0.037118  1
  Si  Si33  1  0.647744  0.024443  0.466256  1
  Si  Si34  1  0.357028  0.973689  0.962246  1
  Si  Si35  1  0.852998  0.533876  0.538622  1
