# generated using pymatgen
data_Dy7TmCd2(SnAu4)2
_symmetry_space_group_name_H-M   'P 1'
_cell_length_a   8.01280047
_cell_length_b   8.01280047
_cell_length_c   7.34614533
_cell_angle_alpha   89.93531277
_cell_angle_beta   90.06468723
_cell_angle_gamma   90.32987264
_symmetry_Int_Tables_number   1
_chemical_formula_structural   Dy7TmCd2(SnAu4)2
_chemical_formula_sum   'Dy7 Tm1 Cd2 Sn2 Au8'
_cell_volume   471.65063601
_cell_formula_units_Z   1
loop_
 _symmetry_equiv_pos_site_id
 _symmetry_equiv_pos_as_xyz
  1  'x, y, z'
loop_
 _atom_site_type_symbol
 _atom_site_label
 _atom_site_symmetry_multiplicity
 _atom_site_fract_x
 _atom_site_fract_y
 _atom_site_fract_z
 _atom_site_occupancy
  Dy  Dy0  1  0.840080  0.159196  0.499922  1
  Dy  Dy1  1  0.159196  0.840080  0.500078  1
  Dy  Dy2  1  0.340854  0.340854  0.000000  1
  Dy  Dy3  1  0.659636  0.659636  0.000000  1
  Dy  Dy4  1  0.318235  0.318235  0.500000  1
  Dy  Dy5  1  0.181781  0.817731  0.000072  1
  Dy  Dy6  1  0.817731  0.181781  0.999928  1
  Tm  Tm7  1  0.681350  0.681350  0.500000  1
  Cd  Cd8  1  0.500223  0.999783  0.250501  1
  Cd  Cd9  1  0.999783  0.500223  0.749499  1
  Sn  Sn10  1  0.500252  0.999518  0.749701  1
  Sn  Sn11  1  0.999518  0.500252  0.250299  1
  Au  Au12  1  0.625398  0.369417  0.273498  1
  Au  Au13  1  0.376576  0.632272  0.273526  1
  Au  Au14  1  0.124451  0.131485  0.772621  1
  Au  Au15  1  0.874324  0.867438  0.770487  1
  Au  Au16  1  0.369417  0.625398  0.726502  1
  Au  Au17  1  0.632272  0.376576  0.726474  1
  Au  Au18  1  0.867438  0.874324  0.229513  1
  Au  Au19  1  0.131485  0.124451  0.227379  1
