# generated using pymatgen
data_Sc4Co10P12Ir9Ru
_symmetry_space_group_name_H-M   'P 1'
_cell_length_a   3.75422900
_cell_length_b   10.43829546
_cell_length_c   12.05403137
_cell_angle_alpha   90.12711477
_cell_angle_beta   90.00000000
_cell_angle_gamma   90.00000000
_symmetry_Int_Tables_number   1
_chemical_formula_structural   Sc4Co10P12Ir9Ru
_chemical_formula_sum   'Sc4 Co10 P12 Ir9 Ru1'
_cell_volume   472.36922382
_cell_formula_units_Z   1
loop_
 _symmetry_equiv_pos_site_id
 _symmetry_equiv_pos_as_xyz
  1  'x, y, z'
loop_
 _atom_site_type_symbol
 _atom_site_label
 _atom_site_symmetry_multiplicity
 _atom_site_fract_x
 _atom_site_fract_y
 _atom_site_fract_z
 _atom_site_occupancy
  Sc  Sc0  1  0.250000  0.588153  0.714652  1
  Sc  Sc1  1  0.250000  0.912155  0.214019  1
  Sc  Sc2  1  0.750000  0.420414  0.288098  1
  Sc  Sc3  1  0.750000  0.080623  0.791711  1
  Co  Co4  1  0.750000  0.774932  0.823363  1
  Co  Co5  1  0.750000  0.723931  0.324003  1
  Co  Co6  1  0.250000  0.877257  0.697299  1
  Co  Co7  1  0.250000  0.622287  0.196383  1
  Co  Co8  1  0.750000  0.108961  0.300342  1
  Co  Co9  1  0.750000  0.389254  0.800838  1
  Co  Co10  1  0.250000  0.462985  0.932418  1
  Co  Co11  1  0.250000  0.037206  0.432539  1
  Co  Co12  1  0.750000  0.539194  0.067153  1
  Co  Co13  1  0.750000  0.961916  0.568374  1
  P  P14  1  0.250000  0.432511  0.112461  1
  P  P15  1  0.250000  0.065577  0.614185  1
  P  P16  1  0.750000  0.577111  0.886374  1
  P  P17  1  0.750000  0.921938  0.386845  1
  P  P18  1  0.250000  0.270791  0.870105  1
  P  P19  1  0.250000  0.228315  0.368581  1
  P  P20  1  0.750000  0.728687  0.141989  1
  P  P21  1  0.750000  0.771596  0.641344  1
  P  P22  1  0.250000  0.603390  0.373948  1
  P  P23  1  0.250000  0.896991  0.875202  1
  P  P24  1  0.750000  0.407149  0.622215  1
  P  P25  1  0.750000  0.095408  0.119491  1
  Ir  Ir26  1  0.250000  0.712367  0.981875  1
  Ir  Ir27  1  0.250000  0.786262  0.483529  1
  Ir  Ir28  1  0.750000  0.223016  0.505901  1
  Ir  Ir29  1  0.250000  0.414273  0.472811  1
  Ir  Ir30  1  0.250000  0.086650  0.975191  1
  Ir  Ir31  1  0.750000  0.596524  0.525196  1
  Ir  Ir32  1  0.750000  0.902464  0.025211  1
  Ir  Ir33  1  0.250000  0.227463  0.179354  1
  Ir  Ir34  1  0.250000  0.270837  0.679532  1
  Ru  Ru35  1  0.750000  0.281413  0.007466  1
