# generated using pymatgen
data_TlInNi2Ag4F14
_symmetry_space_group_name_H-M   'P 1'
_cell_length_a   7.77146217
_cell_length_b   7.74655313
_cell_length_c   7.74655230
_cell_angle_alpha   120.76921350
_cell_angle_beta   118.08914973
_cell_angle_gamma   90.91724961
_symmetry_Int_Tables_number   1
_chemical_formula_structural   TlInNi2Ag4F14
_chemical_formula_sum   'Tl1 In1 Ni2 Ag4 F14'
_cell_volume   332.59601954
_cell_formula_units_Z   1
loop_
 _symmetry_equiv_pos_site_id
 _symmetry_equiv_pos_as_xyz
  1  'x, y, z'
loop_
 _atom_site_type_symbol
 _atom_site_label
 _atom_site_symmetry_multiplicity
 _atom_site_fract_x
 _atom_site_fract_y
 _atom_site_fract_z
 _atom_site_occupancy
  Tl  Tl0  1  0.000000  0.500000  0.500000  1
  In  In1  1  0.500000  0.000000  0.500000  1
  Ni  Ni2  1  0.500000  0.500000  0.500000  1
  Ni  Ni3  1  0.500000  0.000000  0.000000  1
  Ag  Ag4  1  0.500000  0.500000  0.000000  1
  Ag  Ag5  1  0.000000  0.000000  0.000000  1
  Ag  Ag6  1  0.000000  0.500000  0.000000  1
  Ag  Ag7  1  0.000000  0.000000  0.500000  1
  F  F8  1  0.866383  0.605429  0.260955  1
  F  F9  1  0.171706  0.900104  0.271603  1
  F  F10  1  0.185218  0.843593  0.782750  1
  F  F11  1  0.458069  0.678059  0.369734  1
  F  F12  1  0.458069  0.088337  0.780010  1
  F  F13  1  0.185218  0.402468  0.341626  1
  F  F14  1  0.814782  0.597532  0.658374  1
  F  F15  1  0.541931  0.911663  0.219990  1
  F  F16  1  0.541931  0.321941  0.630266  1
  F  F17  1  0.814782  0.156407  0.217250  1
  F  F18  1  0.449189  0.262888  0.186301  1
  F  F19  1  0.133617  0.394571  0.739045  1
  F  F20  1  0.828294  0.099896  0.728397  1
  F  F21  1  0.550811  0.737112  0.813699  1
