# generated using pymatgen
data_Tb7Y13(SnBi)8
_symmetry_space_group_name_H-M   'P 1'
_cell_length_a   8.19343709
_cell_length_b   8.23376303
_cell_length_c   15.66833416
_cell_angle_alpha   90.00656507
_cell_angle_beta   90.01514670
_cell_angle_gamma   89.99319825
_symmetry_Int_Tables_number   1
_chemical_formula_structural   Tb7Y13(SnBi)8
_chemical_formula_sum   'Tb7 Y13 Sn8 Bi8'
_cell_volume   1057.02994582
_cell_formula_units_Z   1
loop_
 _symmetry_equiv_pos_site_id
 _symmetry_equiv_pos_as_xyz
  1  'x, y, z'
loop_
 _atom_site_type_symbol
 _atom_site_label
 _atom_site_symmetry_multiplicity
 _atom_site_fract_x
 _atom_site_fract_y
 _atom_site_fract_z
 _atom_site_occupancy
  Tb  Tb0  1  0.052900  0.171969  0.610117  1
  Tb  Tb1  1  0.447098  0.671944  0.389895  1
  Tb  Tb2  1  0.947085  0.828085  0.110107  1
  Tb  Tb3  1  0.447071  0.671942  0.110110  1
  Tb  Tb4  1  0.947107  0.828058  0.389898  1
  Tb  Tb5  1  0.552914  0.328075  0.610091  1
  Tb  Tb6  1  0.052891  0.171941  0.889902  1
  Y  Y7  1  0.386067  0.838331  0.876551  1
  Y  Y8  1  0.886061  0.661627  0.623460  1
  Y  Y9  1  0.613933  0.161639  0.376548  1
  Y  Y10  1  0.113920  0.338330  0.123460  1
  Y  Y11  1  0.613925  0.161642  0.123453  1
  Y  Y12  1  0.113931  0.338365  0.376546  1
  Y  Y13  1  0.386067  0.838344  0.623470  1
  Y  Y14  1  0.886080  0.661648  0.876535  1
  Y  Y15  1  0.553013  0.328219  0.889810  1
  Y  Y16  1  0.217488  0.498101  0.750009  1
  Y  Y17  1  0.717504  0.001903  0.750005  1
  Y  Y18  1  0.782509  0.501897  0.250010  1
  Y  Y19  1  0.282502  0.998084  0.250000  1
  Sn  Sn20  1  0.582688  0.626336  0.749985  1
  Sn  Sn21  1  0.082669  0.873641  0.750004  1
  Sn  Sn22  1  0.417309  0.373647  0.249996  1
  Sn  Sn23  1  0.917308  0.126349  0.249998  1
  Sn  Sn24  1  0.356441  0.143748  0.750062  1
  Sn  Sn25  1  0.856369  0.356298  0.750001  1
  Sn  Sn26  1  0.643634  0.856315  0.250003  1
  Sn  Sn27  1  0.143615  0.643687  0.249999  1
  Bi  Bi28  1  0.270494  0.020818  0.044190  1
  Bi  Bi29  1  0.770521  0.479124  0.455831  1
  Bi  Bi30  1  0.729474  0.979120  0.544171  1
  Bi  Bi31  1  0.229542  0.520792  0.955835  1
  Bi  Bi32  1  0.729415  0.979181  0.955830  1
  Bi  Bi33  1  0.229465  0.520874  0.544169  1
  Bi  Bi34  1  0.270530  0.020864  0.455834  1
  Bi  Bi35  1  0.770462  0.479062  0.044112  1
