# generated using pymatgen
data_Tb19Y(Cd3Tc)2
_symmetry_space_group_name_H-M   'P 1'
_cell_length_a   9.60147169
_cell_length_b   9.60775260
_cell_length_c   10.00709700
_cell_angle_alpha   90.00000000
_cell_angle_beta   90.00000000
_cell_angle_gamma   120.02164167
_symmetry_Int_Tables_number   1
_chemical_formula_structural   Tb19Y(Cd3Tc)2
_chemical_formula_sum   'Tb19 Y1 Cd6 Tc2'
_cell_volume   799.28857964
_cell_formula_units_Z   1
loop_
 _symmetry_equiv_pos_site_id
 _symmetry_equiv_pos_as_xyz
  1  'x, y, z'
loop_
 _atom_site_type_symbol
 _atom_site_label
 _atom_site_symmetry_multiplicity
 _atom_site_fract_x
 _atom_site_fract_y
 _atom_site_fract_z
 _atom_site_occupancy
  Tb  Tb0  1  0.999962  0.999981  0.500064  1
  Tb  Tb1  1  0.999962  0.999981  0.999936  1
  Tb  Tb2  1  0.209938  0.790059  0.440864  1
  Tb  Tb3  1  0.209938  0.419879  0.440864  1
  Tb  Tb4  1  0.580053  0.790026  0.440907  1
  Tb  Tb5  1  0.790085  0.209943  0.559137  1
  Tb  Tb6  1  0.790085  0.580142  0.559137  1
  Tb  Tb7  1  0.419874  0.209937  0.559127  1
  Tb  Tb8  1  0.790085  0.209943  0.940863  1
  Tb  Tb9  1  0.790085  0.580142  0.940863  1
  Tb  Tb10  1  0.419874  0.209937  0.940873  1
  Tb  Tb11  1  0.209938  0.790059  0.059136  1
  Tb  Tb12  1  0.209938  0.419879  0.059136  1
  Tb  Tb13  1  0.580053  0.790026  0.059093  1
  Tb  Tb14  1  0.539761  0.460272  0.250000  1
  Tb  Tb15  1  0.539761  0.079491  0.250000  1
  Tb  Tb16  1  0.920485  0.460243  0.250000  1
  Tb  Tb17  1  0.460277  0.539699  0.750000  1
  Tb  Tb18  1  0.460277  0.920577  0.750000  1
  Y  Y19  1  0.079500  0.539749  0.750000  1
  Cd  Cd20  1  0.885502  0.114578  0.250000  1
  Cd  Cd21  1  0.885502  0.770926  0.250000  1
  Cd  Cd22  1  0.229043  0.114522  0.250000  1
  Cd  Cd23  1  0.114537  0.885430  0.750000  1
  Cd  Cd24  1  0.114537  0.229106  0.750000  1
  Cd  Cd25  1  0.770952  0.885476  0.750000  1
  Tc  Tc26  1  0.333447  0.666724  0.250000  1
  Tc  Tc27  1  0.666550  0.333274  0.750000  1
