# generated using pymatgen
data_Hf7Zr3ZnSn6Ge
_symmetry_space_group_name_H-M   'P 1'
_cell_length_a   8.65683900
_cell_length_b   8.65683833
_cell_length_c   5.86209600
_cell_angle_alpha   90.00000000
_cell_angle_beta   90.00000000
_cell_angle_gamma   119.99999876
_symmetry_Int_Tables_number   1
_chemical_formula_structural   Hf7Zr3ZnSn6Ge
_chemical_formula_sum   'Hf7 Zr3 Zn1 Sn6 Ge1'
_cell_volume   380.45404928
_cell_formula_units_Z   1
loop_
 _symmetry_equiv_pos_site_id
 _symmetry_equiv_pos_as_xyz
  1  'x, y, z'
loop_
 _atom_site_type_symbol
 _atom_site_label
 _atom_site_symmetry_multiplicity
 _atom_site_fract_x
 _atom_site_fract_y
 _atom_site_fract_z
 _atom_site_occupancy
  Hf  Hf0  1  0.666667  0.333333  0.998596  1
  Hf  Hf1  1  0.333333  0.666667  0.998596  1
  Hf  Hf2  1  0.333333  0.666667  0.501479  1
  Hf  Hf3  1  0.666667  0.333333  0.501479  1
  Hf  Hf4  1  0.730090  0.730090  0.752385  1
  Hf  Hf5  1  0.269910  0.000000  0.752385  1
  Hf  Hf6  1  0.000000  0.269910  0.752385  1
  Zr  Zr7  1  0.262575  0.262575  0.247441  1
  Zr  Zr8  1  0.737425  0.000000  0.247441  1
  Zr  Zr9  1  0.000000  0.737425  0.247441  1
  Zn  Zn10  1  0.000000  0.000000  0.510278  1
  Sn  Sn11  1  0.387155  0.387155  0.748217  1
  Sn  Sn12  1  0.612845  0.000000  0.748217  1
  Sn  Sn13  1  0.000000  0.612845  0.748217  1
  Sn  Sn14  1  0.609569  0.609569  0.251535  1
  Sn  Sn15  1  0.390431  0.000000  0.251535  1
  Sn  Sn16  1  0.000000  0.390431  0.251535  1
  Ge  Ge17  1  0.000000  0.000000  0.990837  1
