# generated using pymatgen
data_Tb3Er9Co4
_symmetry_space_group_name_H-M   'P 1'
_cell_length_a   6.20311793
_cell_length_b   6.93474805
_cell_length_c   9.37372000
_cell_angle_alpha   90.00000000
_cell_angle_beta   90.00000000
_cell_angle_gamma   90.09334033
_symmetry_Int_Tables_number   1
_chemical_formula_structural   Tb3Er9Co4
_chemical_formula_sum   'Tb3 Er9 Co4'
_cell_volume   403.22934041
_cell_formula_units_Z   1
loop_
 _symmetry_equiv_pos_site_id
 _symmetry_equiv_pos_as_xyz
  1  'x, y, z'
loop_
 _atom_site_type_symbol
 _atom_site_label
 _atom_site_symmetry_multiplicity
 _atom_site_fract_x
 _atom_site_fract_y
 _atom_site_fract_z
 _atom_site_occupancy
  Tb  Tb0  1  0.862079  0.542063  0.250000  1
  Tb  Tb1  1  0.638398  0.041637  0.250000  1
  Tb  Tb2  1  0.140034  0.458508  0.750000  1
  Er  Er3  1  0.324752  0.675475  0.067257  1
  Er  Er4  1  0.175217  0.174129  0.432621  1
  Er  Er5  1  0.675338  0.324765  0.568138  1
  Er  Er6  1  0.823885  0.825050  0.931338  1
  Er  Er7  1  0.675338  0.324765  0.931862  1
  Er  Er8  1  0.823885  0.825050  0.568662  1
  Er  Er9  1  0.324752  0.675475  0.432743  1
  Er  Er10  1  0.175217  0.174129  0.067379  1
  Er  Er11  1  0.360337  0.958076  0.750000  1
  Co  Co12  1  0.052633  0.886083  0.250000  1
  Co  Co13  1  0.447562  0.386431  0.250000  1
  Co  Co14  1  0.950002  0.113684  0.750000  1
  Co  Co15  1  0.550572  0.614681  0.750000  1
