# generated using pymatgen
data_Tb11YHo8(CoBi2)4
_symmetry_space_group_name_H-M   'P 1'
_cell_length_a   8.02201407
_cell_length_b   8.91375000
_cell_length_c   12.45292011
_cell_angle_alpha   90.00000000
_cell_angle_beta   89.98453774
_cell_angle_gamma   90.00000000
_symmetry_Int_Tables_number   1
_chemical_formula_structural   Tb11YHo8(CoBi2)4
_chemical_formula_sum   'Tb11 Y1 Ho8 Co4 Bi8'
_cell_volume   890.46131176
_cell_formula_units_Z   1
loop_
 _symmetry_equiv_pos_site_id
 _symmetry_equiv_pos_as_xyz
  1  'x, y, z'
loop_
 _atom_site_type_symbol
 _atom_site_label
 _atom_site_symmetry_multiplicity
 _atom_site_fract_x
 _atom_site_fract_y
 _atom_site_fract_z
 _atom_site_occupancy
  Tb  Tb0  1  0.348674  0.750000  0.699154  1
  Tb  Tb1  1  0.651185  0.250000  0.300716  1
  Tb  Tb2  1  0.848756  0.250000  0.801052  1
  Tb  Tb3  1  0.151041  0.750000  0.198882  1
  Tb  Tb4  1  0.882861  0.750000  0.810944  1
  Tb  Tb5  1  0.117666  0.250000  0.188965  1
  Tb  Tb6  1  0.382527  0.250000  0.689394  1
  Tb  Tb7  1  0.617248  0.750000  0.310681  1
  Tb  Tb8  1  0.050423  0.750000  0.497554  1
  Tb  Tb9  1  0.949605  0.250000  0.502437  1
  Tb  Tb10  1  0.550367  0.250000  0.002507  1
  Y  Y11  1  0.451014  0.750000  0.997396  1
  Ho  Ho12  1  0.675473  0.536442  0.562871  1
  Ho  Ho13  1  0.324500  0.463590  0.437080  1
  Ho  Ho14  1  0.175442  0.463843  0.937121  1
  Ho  Ho15  1  0.324500  0.036410  0.437080  1
  Ho  Ho16  1  0.824805  0.536178  0.063191  1
  Ho  Ho17  1  0.675473  0.963558  0.562871  1
  Ho  Ho18  1  0.824805  0.963822  0.063191  1
  Ho  Ho19  1  0.175442  0.036157  0.937121  1
  Co  Co20  1  0.060162  0.750000  0.992644  1
  Co  Co21  1  0.938206  0.250000  0.007648  1
  Co  Co22  1  0.561749  0.250000  0.507731  1
  Co  Co23  1  0.438309  0.750000  0.492230  1
  Bi  Bi24  1  0.571623  0.508839  0.826513  1
  Bi  Bi25  1  0.428192  0.491814  0.173270  1
  Bi  Bi26  1  0.071899  0.491445  0.673685  1
  Bi  Bi27  1  0.428192  0.008186  0.173270  1
  Bi  Bi28  1  0.928170  0.508566  0.326300  1
  Bi  Bi29  1  0.571623  0.991161  0.826513  1
  Bi  Bi30  1  0.928170  0.991434  0.326300  1
  Bi  Bi31  1  0.071899  0.008555  0.673685  1
