# generated using pymatgen
data_Dy20IrPt8Rh3
_symmetry_space_group_name_H-M   'P 1'
_cell_length_a   11.04818600
_cell_length_b   11.04818600
_cell_length_c   6.33437600
_cell_angle_alpha   90.00000000
_cell_angle_beta   90.00000000
_cell_angle_gamma   90.00000000
_symmetry_Int_Tables_number   1
_chemical_formula_structural   Dy20IrPt8Rh3
_chemical_formula_sum   'Dy20 Ir1 Pt8 Rh3'
_cell_volume   773.18922505
_cell_formula_units_Z   1
loop_
 _symmetry_equiv_pos_site_id
 _symmetry_equiv_pos_as_xyz
  1  'x, y, z'
loop_
 _atom_site_type_symbol
 _atom_site_label
 _atom_site_symmetry_multiplicity
 _atom_site_fract_x
 _atom_site_fract_y
 _atom_site_fract_z
 _atom_site_occupancy
  Dy  Dy0  1  0.293863  0.088282  0.375428  1
  Dy  Dy1  1  0.293935  0.911603  0.875348  1
  Dy  Dy2  1  0.706065  0.088397  0.875348  1
  Dy  Dy3  1  0.706137  0.911718  0.375428  1
  Dy  Dy4  1  0.588397  0.793935  0.875348  1
  Dy  Dy5  1  0.588282  0.206137  0.375428  1
  Dy  Dy6  1  0.411718  0.793863  0.375428  1
  Dy  Dy7  1  0.411603  0.206065  0.875348  1
  Dy  Dy8  1  0.205641  0.411893  0.623692  1
  Dy  Dy9  1  0.205736  0.588213  0.125750  1
  Dy  Dy10  1  0.794264  0.411787  0.125750  1
  Dy  Dy11  1  0.794359  0.588107  0.623692  1
  Dy  Dy12  1  0.911787  0.705736  0.125750  1
  Dy  Dy13  1  0.911893  0.294359  0.623692  1
  Dy  Dy14  1  0.088107  0.705641  0.623692  1
  Dy  Dy15  1  0.088213  0.294264  0.125750  1
  Dy  Dy16  1  0.000000  0.000000  0.500009  1
  Dy  Dy17  1  0.000000  0.000000  0.999927  1
  Dy  Dy18  1  0.500000  0.500000  0.999927  1
  Dy  Dy19  1  0.500000  0.500000  0.500009  1
  Ir  Ir20  1  0.000000  0.500000  0.378522  1
  Pt  Pt21  1  0.845642  0.153694  0.249799  1
  Pt  Pt22  1  0.845812  0.846049  0.749814  1
  Pt  Pt23  1  0.154188  0.153951  0.749814  1
  Pt  Pt24  1  0.154358  0.846306  0.249799  1
  Pt  Pt25  1  0.653951  0.345812  0.749814  1
  Pt  Pt26  1  0.653694  0.654358  0.249799  1
  Pt  Pt27  1  0.346306  0.345642  0.249799  1
  Pt  Pt28  1  0.346049  0.654188  0.749814  1
  Rh  Rh29  1  0.500000  0.000000  0.121755  1
  Rh  Rh30  1  0.500000  0.000000  0.621733  1
  Rh  Rh31  1  0.000000  0.500000  0.878791  1
