# generated using pymatgen
data_Dy4Y11Th(CdPt)4
_symmetry_space_group_name_H-M   'P 1'
_cell_length_a   9.72395498
_cell_length_b   9.72728293
_cell_length_c   9.72728409
_cell_angle_alpha   60.11729432
_cell_angle_beta   60.15134740
_cell_angle_gamma   60.15134767
_symmetry_Int_Tables_number   1
_chemical_formula_structural   Dy4Y11Th(CdPt)4
_chemical_formula_sum   'Dy4 Y11 Th1 Cd4 Pt4'
_cell_volume   652.65860408
_cell_formula_units_Z   1
loop_
 _symmetry_equiv_pos_site_id
 _symmetry_equiv_pos_as_xyz
  1  'x, y, z'
loop_
 _atom_site_type_symbol
 _atom_site_label
 _atom_site_symmetry_multiplicity
 _atom_site_fract_x
 _atom_site_fract_y
 _atom_site_fract_z
 _atom_site_occupancy
  Dy  Dy0  1  0.353646  0.353502  0.939823  1
  Dy  Dy1  1  0.353646  0.939823  0.353502  1
  Dy  Dy2  1  0.939344  0.353747  0.353747  1
  Dy  Dy3  1  0.812942  0.188928  0.188928  1
  Y  Y4  1  0.190626  0.810493  0.810493  1
  Y  Y5  1  0.189142  0.812372  0.189268  1
  Y  Y6  1  0.810627  0.190660  0.810494  1
  Y  Y7  1  0.189142  0.189268  0.812372  1
  Y  Y8  1  0.810627  0.810494  0.190660  1
  Y  Y9  1  0.936305  0.565657  0.565657  1
  Y  Y10  1  0.564045  0.936623  0.936623  1
  Y  Y11  1  0.565857  0.936410  0.565458  1
  Y  Y12  1  0.936843  0.563577  0.936996  1
  Y  Y13  1  0.565857  0.565458  0.936410  1
  Y  Y14  1  0.936843  0.936996  0.563577  1
  Th  Th15  1  0.349650  0.349516  0.349516  1
  Cd  Cd16  1  0.581750  0.581815  0.581815  1
  Cd  Cd17  1  0.582459  0.582824  0.252625  1
  Cd  Cd18  1  0.582459  0.252625  0.582824  1
  Cd  Cd19  1  0.252571  0.582629  0.582629  1
  Pt  Pt20  1  0.143224  0.145042  0.145042  1
  Pt  Pt21  1  0.141571  0.141249  0.568553  1
  Pt  Pt22  1  0.141571  0.568553  0.141249  1
  Pt  Pt23  1  0.569252  0.141739  0.141739  1
