# generated using pymatgen
data_HoThMnC2
_symmetry_space_group_name_H-M   'P 1'
_cell_length_a   5.20589700
_cell_length_b   6.44188400
_cell_length_c   9.59526300
_cell_angle_alpha   90.00000000
_cell_angle_beta   90.00000000
_cell_angle_gamma   90.00000000
_symmetry_Int_Tables_number   1
_chemical_formula_structural   HoThMnC2
_chemical_formula_sum   'Ho4 Th4 Mn4 C8'
_cell_volume   321.78467305
_cell_formula_units_Z   4
loop_
 _symmetry_equiv_pos_site_id
 _symmetry_equiv_pos_as_xyz
  1  'x, y, z'
loop_
 _atom_site_type_symbol
 _atom_site_label
 _atom_site_symmetry_multiplicity
 _atom_site_fract_x
 _atom_site_fract_y
 _atom_site_fract_z
 _atom_site_occupancy
  Ho  Ho0  1  0.250000  0.824411  0.052731  1
  Ho  Ho1  1  0.750000  0.675589  0.552731  1
  Ho  Ho2  1  0.250000  0.324411  0.447269  1
  Ho  Ho3  1  0.750000  0.175589  0.947269  1
  Th  Th4  1  0.250000  0.480014  0.790080  1
  Th  Th5  1  0.750000  0.019986  0.290080  1
  Th  Th6  1  0.250000  0.980014  0.709920  1
  Th  Th7  1  0.750000  0.519986  0.209920  1
  Mn  Mn8  1  0.250000  0.267921  0.141788  1
  Mn  Mn9  1  0.750000  0.232079  0.641788  1
  Mn  Mn10  1  0.250000  0.767921  0.358212  1
  Mn  Mn11  1  0.750000  0.732079  0.858212  1
  C  C12  1  0.250000  0.178961  0.957614  1
  C  C13  1  0.750000  0.821039  0.042386  1
  C  C14  1  0.250000  0.678961  0.542386  1
  C  C15  1  0.750000  0.321039  0.457614  1
  C  C16  1  0.250000  0.036983  0.261984  1
  C  C17  1  0.750000  0.463017  0.761984  1
  C  C18  1  0.250000  0.536983  0.238016  1
  C  C19  1  0.750000  0.963017  0.738016  1
