# generated using pymatgen
data_Dy3BRh6Pb
_symmetry_space_group_name_H-M   'P 1'
_cell_length_a   5.82233600
_cell_length_b   5.82233473
_cell_length_c   14.07792000
_cell_angle_alpha   90.00000000
_cell_angle_beta   90.00000000
_cell_angle_gamma   119.99999583
_symmetry_Int_Tables_number   1
_chemical_formula_structural   Dy3BRh6Pb
_chemical_formula_sum   'Dy6 B2 Rh12 Pb2'
_cell_volume   413.29826033
_cell_formula_units_Z   2
loop_
 _symmetry_equiv_pos_site_id
 _symmetry_equiv_pos_as_xyz
  1  'x, y, z'
loop_
 _atom_site_type_symbol
 _atom_site_label
 _atom_site_symmetry_multiplicity
 _atom_site_fract_x
 _atom_site_fract_y
 _atom_site_fract_z
 _atom_site_occupancy
  Dy  Dy0  1  0.000000  0.000000  0.750000  1
  Dy  Dy1  1  0.000000  0.000000  0.250000  1
  Dy  Dy2  1  0.333333  0.666667  0.412038  1
  Dy  Dy3  1  0.666667  0.333333  0.912038  1
  Dy  Dy4  1  0.666667  0.333333  0.587962  1
  Dy  Dy5  1  0.333333  0.666667  0.087962  1
  B  B6  1  0.000000  0.000000  0.500000  1
  B  B7  1  0.000000  0.000000  0.000000  1
  Rh  Rh8  1  0.342374  0.171188  0.414816  1
  Rh  Rh9  1  0.828812  0.171188  0.414816  1
  Rh  Rh10  1  0.828812  0.657626  0.414816  1
  Rh  Rh11  1  0.171188  0.342374  0.914816  1
  Rh  Rh12  1  0.657626  0.828812  0.585184  1
  Rh  Rh13  1  0.657626  0.828812  0.914816  1
  Rh  Rh14  1  0.342374  0.171188  0.085184  1
  Rh  Rh15  1  0.171188  0.342374  0.585184  1
  Rh  Rh16  1  0.171188  0.828812  0.585184  1
  Rh  Rh17  1  0.828812  0.171188  0.085184  1
  Rh  Rh18  1  0.828812  0.657626  0.085184  1
  Rh  Rh19  1  0.171188  0.828812  0.914816  1
  Pb  Pb20  1  0.333333  0.666667  0.750000  1
  Pb  Pb21  1  0.666667  0.333333  0.250000  1
