# generated using pymatgen
data_HoHf3Zr5(In2Co)7
_symmetry_space_group_name_H-M   'P 1'
_cell_length_a   9.45626799
_cell_length_b   9.46833949
_cell_length_c   9.46549403
_cell_angle_alpha   60.06715342
_cell_angle_beta   60.03254591
_cell_angle_gamma   60.04234045
_symmetry_Int_Tables_number   1
_chemical_formula_structural   HoHf3Zr5(In2Co)7
_chemical_formula_sum   'Ho1 Hf3 Zr5 In14 Co7'
_cell_volume   599.91208096
_cell_formula_units_Z   1
loop_
 _symmetry_equiv_pos_site_id
 _symmetry_equiv_pos_as_xyz
  1  'x, y, z'
loop_
 _atom_site_type_symbol
 _atom_site_label
 _atom_site_symmetry_multiplicity
 _atom_site_fract_x
 _atom_site_fract_y
 _atom_site_fract_z
 _atom_site_occupancy
  Ho  Ho0  1  0.500026  0.499928  0.500023  1
  Hf  Hf1  1  0.119595  0.642400  0.118400  1
  Hf  Hf2  1  0.357781  0.879928  0.881148  1
  Hf  Hf3  1  0.881141  0.879918  0.881158  1
  Zr  Zr4  1  0.637220  0.120451  0.120496  1
  Zr  Zr5  1  0.879519  0.878364  0.362586  1
  Zr  Zr6  1  0.121835  0.120457  0.120487  1
  Zr  Zr7  1  0.879055  0.362796  0.879099  1
  Zr  Zr8  1  0.121253  0.119961  0.637542  1
  In  In9  1  0.500460  0.844313  0.154776  1
  In  In10  1  0.500226  0.844266  0.500305  1
  In  In11  1  0.500004  0.155242  0.500117  1
  In  In12  1  0.499821  0.500077  0.844664  1
  In  In13  1  0.155699  0.499796  0.499714  1
  In  In14  1  0.844635  0.155242  0.500109  1
  In  In15  1  0.155204  0.844264  0.500310  1
  In  In16  1  0.500287  0.154913  0.844496  1
  In  In17  1  0.155436  0.500069  0.844665  1
  In  In18  1  0.499829  0.500077  0.155370  1
  In  In19  1  0.844792  0.499809  0.499701  1
  In  In20  1  0.844733  0.500090  0.155360  1
  In  In21  1  0.249149  0.252271  0.249433  1
  In  In22  1  0.748503  0.751687  0.751308  1
  Co  Co23  1  0.781441  0.779800  0.218407  1
  Co  Co24  1  0.001454  0.997514  0.999579  1
  Co  Co25  1  0.220331  0.779823  0.218386  1
  Co  Co26  1  0.219325  0.779772  0.781579  1
  Co  Co27  1  0.220411  0.218574  0.780616  1
  Co  Co28  1  0.780422  0.218549  0.780643  1
  Co  Co29  1  0.780415  0.219647  0.219523  1
