# generated using pymatgen
data_La2Hg2PtRh3O14
_symmetry_space_group_name_H-M   'P 1'
_cell_length_a   7.35990414
_cell_length_b   7.35990335
_cell_length_c   7.25554162
_cell_angle_alpha   60.65316702
_cell_angle_beta   60.65316544
_cell_angle_gamma   62.18019093
_symmetry_Int_Tables_number   1
_chemical_formula_structural   La2Hg2PtRh3O14
_chemical_formula_sum   'La2 Hg2 Pt1 Rh3 O14'
_cell_volume   285.04197030
_cell_formula_units_Z   1
loop_
 _symmetry_equiv_pos_site_id
 _symmetry_equiv_pos_as_xyz
  1  'x, y, z'
loop_
 _atom_site_type_symbol
 _atom_site_label
 _atom_site_symmetry_multiplicity
 _atom_site_fract_x
 _atom_site_fract_y
 _atom_site_fract_z
 _atom_site_occupancy
  La  La0  1  0.625000  0.125000  0.125000  1
  La  La1  1  0.125000  0.625000  0.125000  1
  Hg  Hg2  1  0.125000  0.125000  0.125000  1
  Hg  Hg3  1  0.125000  0.125000  0.625000  1
  Pt  Pt4  1  0.625000  0.625000  0.625000  1
  Rh  Rh5  1  0.625000  0.625000  0.125000  1
  Rh  Rh6  1  0.625000  0.125000  0.625000  1
  Rh  Rh7  1  0.125000  0.625000  0.625000  1
  O  O8  1  0.694492  0.303911  0.300541  1
  O  O9  1  0.696990  0.300151  0.705823  1
  O  O10  1  0.013082  0.013082  0.988062  1
  O  O11  1  0.303911  0.694492  0.300541  1
  O  O12  1  0.711234  0.711234  0.288678  1
  O  O13  1  0.949849  0.553010  0.544177  1
  O  O14  1  0.300151  0.696990  0.705823  1
  O  O15  1  0.236918  0.236918  0.261938  1
  O  O16  1  0.946089  0.555508  0.949459  1
  O  O17  1  0.553010  0.949849  0.544177  1
  O  O18  1  0.538766  0.538766  0.961322  1
  O  O19  1  0.947034  0.947034  0.551849  1
  O  O20  1  0.555508  0.946089  0.949459  1
  O  O21  1  0.302966  0.302966  0.698151  1
