# generated using pymatgen
data_BaCeNiSe3
_symmetry_space_group_name_H-M   'P 1'
_cell_length_a   7.32304919
_cell_length_b   7.32304901
_cell_length_c   10.70230300
_cell_angle_alpha   90.00000000
_cell_angle_beta   90.00000000
_cell_angle_gamma   146.81866691
_symmetry_Int_Tables_number   1
_chemical_formula_structural   BaCeNiSe3
_chemical_formula_sum   'Ba2 Ce2 Ni2 Se6'
_cell_volume   314.10807810
_cell_formula_units_Z   2
loop_
 _symmetry_equiv_pos_site_id
 _symmetry_equiv_pos_as_xyz
  1  'x, y, z'
loop_
 _atom_site_type_symbol
 _atom_site_label
 _atom_site_symmetry_multiplicity
 _atom_site_fract_x
 _atom_site_fract_y
 _atom_site_fract_z
 _atom_site_occupancy
  Ba  Ba0  1  0.257045  0.742955  0.250000  1
  Ba  Ba1  1  0.742955  0.257045  0.750000  1
  Ce  Ce2  1  0.000000  0.000000  0.500000  1
  Ce  Ce3  1  0.000000  0.000000  0.000000  1
  Ni  Ni4  1  0.529229  0.470771  0.250000  1
  Ni  Ni5  1  0.470771  0.529229  0.750000  1
  Se  Se6  1  0.634399  0.365601  0.430495  1
  Se  Se7  1  0.365601  0.634399  0.569505  1
  Se  Se8  1  0.634399  0.365601  0.069505  1
  Se  Se9  1  0.365601  0.634399  0.930495  1
  Se  Se10  1  0.935712  0.064288  0.250000  1
  Se  Se11  1  0.064288  0.935712  0.750000  1
