# generated using pymatgen
data_U4(Al8Pt3)3
_symmetry_space_group_name_H-M   'P 1'
_cell_length_a   7.57619043
_cell_length_b   7.58101334
_cell_length_c   13.17867816
_cell_angle_alpha   84.20627913
_cell_angle_beta   78.90430803
_cell_angle_gamma   59.89551558
_symmetry_Int_Tables_number   1
_chemical_formula_structural   U4(Al8Pt3)3
_chemical_formula_sum   'U4 Al24 Pt9'
_cell_volume   642.57154059
_cell_formula_units_Z   1
loop_
 _symmetry_equiv_pos_site_id
 _symmetry_equiv_pos_as_xyz
  1  'x, y, z'
loop_
 _atom_site_type_symbol
 _atom_site_label
 _atom_site_symmetry_multiplicity
 _atom_site_fract_x
 _atom_site_fract_y
 _atom_site_fract_z
 _atom_site_occupancy
  U  U0  1  0.393977  0.168723  0.805544  1
  U  U1  1  0.606023  0.831277  0.194456  1
  U  U2  1  0.735185  0.498998  0.805227  1
  U  U3  1  0.264815  0.501002  0.194773  1
  Al  Al4  1  0.681532  0.834314  0.945897  1
  Al  Al5  1  0.318468  0.165686  0.054103  1
  Al  Al6  1  0.145714  0.833678  0.561032  1
  Al  Al7  1  0.854286  0.166322  0.438968  1
  Al  Al8  1  0.481245  0.166676  0.558520  1
  Al  Al9  1  0.518755  0.833324  0.441480  1
  Al  Al10  1  0.215971  0.165307  0.330069  1
  Al  Al11  1  0.784029  0.834693  0.669931  1
  Al  Al12  1  0.436865  0.506916  0.670312  1
  Al  Al13  1  0.563135  0.493084  0.329688  1
  Al  Al14  1  0.110276  0.157516  0.668846  1
  Al  Al15  1  0.889724  0.842484  0.331154  1
  Al  Al16  1  0.354727  0.497795  0.945902  1
  Al  Al17  1  0.645273  0.502205  0.054098  1
  Al  Al18  1  0.014954  0.169736  0.952178  1
  Al  Al19  1  0.985046  0.830264  0.047822  1
  Al  Al20  1  0.186211  0.500078  0.441680  1
  Al  Al21  1  0.813789  0.499922  0.558320  1
  Al  Al22  1  0.735674  0.164347  0.182178  1
  Al  Al23  1  0.264326  0.835653  0.817822  1
  Al  Al24  1  0.061054  0.631535  0.816642  1
  Al  Al25  1  0.938946  0.368465  0.183358  1
  Al  Al26  1  0.855687  0.040348  0.817592  1
  Al  Al27  1  0.144313  0.959652  0.182408  1
  Pt  Pt28  1  0.120667  0.492145  0.639045  1
  Pt  Pt29  1  0.879333  0.507855  0.360955  1
  Pt  Pt30  1  0.661238  0.168944  0.000073  1
  Pt  Pt31  1  0.338762  0.831056  0.999927  1
  Pt  Pt32  1  0.537856  0.167692  0.361407  1
  Pt  Pt33  1  0.462144  0.832308  0.638593  1
  Pt  Pt34  1  0.780114  0.173988  0.637685  1
  Pt  Pt35  1  0.219886  0.826012  0.362315  1
  Pt  Pt36  1  0.000000  0.500000  0.000000  1
