# generated using pymatgen
data_Ho3Tm4Th(InAu2)4
_symmetry_space_group_name_H-M   'P 1'
_cell_length_a   7.99288163
_cell_length_b   7.99288257
_cell_length_c   7.35284000
_cell_angle_alpha   90.00000000
_cell_angle_beta   90.00000000
_cell_angle_gamma   90.12443563
_symmetry_Int_Tables_number   1
_chemical_formula_structural   Ho3Tm4Th(InAu2)4
_chemical_formula_sum   'Ho3 Tm4 Th1 In4 Au8'
_cell_volume   469.74363598
_cell_formula_units_Z   1
loop_
 _symmetry_equiv_pos_site_id
 _symmetry_equiv_pos_as_xyz
  1  'x, y, z'
loop_
 _atom_site_type_symbol
 _atom_site_label
 _atom_site_symmetry_multiplicity
 _atom_site_fract_x
 _atom_site_fract_y
 _atom_site_fract_z
 _atom_site_occupancy
  Ho  Ho0  1  0.160205  0.839795  0.500000  1
  Ho  Ho1  1  0.680221  0.681321  0.500000  1
  Ho  Ho2  1  0.318679  0.319779  0.500000  1
  Tm  Tm3  1  0.340542  0.343413  0.000000  1
  Tm  Tm4  1  0.656587  0.659458  0.000000  1
  Tm  Tm5  1  0.182784  0.817216  0.000000  1
  Tm  Tm6  1  0.819580  0.180420  0.000000  1
  Th  Th7  1  0.840984  0.159016  0.500000  1
  In  In8  1  0.497280  0.997833  0.250006  1
  In  In9  1  0.002167  0.502720  0.749994  1
  In  In10  1  0.497280  0.997833  0.749994  1
  In  In11  1  0.002167  0.502720  0.250006  1
  Au  Au12  1  0.626144  0.373856  0.265353  1
  Au  Au13  1  0.370218  0.629782  0.271333  1
  Au  Au14  1  0.131930  0.127530  0.778489  1
  Au  Au15  1  0.872470  0.868070  0.778489  1
  Au  Au16  1  0.370218  0.629782  0.728667  1
  Au  Au17  1  0.626144  0.373856  0.734647  1
  Au  Au18  1  0.872470  0.868070  0.221511  1
  Au  Au19  1  0.131930  0.127530  0.221511  1
