# generated using pymatgen
data_Pr3Dy3Ho2(CdPt)2
_symmetry_space_group_name_H-M   'P 1'
_cell_length_a   9.82405644
_cell_length_b   9.81834115
_cell_length_c   9.81833966
_cell_angle_alpha   60.03851054
_cell_angle_beta   59.98073523
_cell_angle_gamma   59.98073519
_symmetry_Int_Tables_number   1
_chemical_formula_structural   Pr3Dy3Ho2(CdPt)2
_chemical_formula_sum   'Pr6 Dy6 Ho4 Cd4 Pt4'
_cell_volume   669.65584664
_cell_formula_units_Z   2
loop_
 _symmetry_equiv_pos_site_id
 _symmetry_equiv_pos_as_xyz
  1  'x, y, z'
loop_
 _atom_site_type_symbol
 _atom_site_label
 _atom_site_symmetry_multiplicity
 _atom_site_fract_x
 _atom_site_fract_y
 _atom_site_fract_z
 _atom_site_occupancy
  Pr  Pr0  1  0.938612  0.561388  0.561388  1
  Pr  Pr1  1  0.561388  0.938612  0.938612  1
  Pr  Pr2  1  0.561490  0.938510  0.561490  1
  Pr  Pr3  1  0.938510  0.561490  0.938510  1
  Pr  Pr4  1  0.561490  0.561490  0.938510  1
  Pr  Pr5  1  0.938510  0.938510  0.561490  1
  Dy  Dy6  1  0.350199  0.350419  0.350419  1
  Dy  Dy7  1  0.350419  0.350199  0.948963  1
  Dy  Dy8  1  0.350419  0.948963  0.350199  1
  Dy  Dy9  1  0.948963  0.350419  0.350419  1
  Dy  Dy10  1  0.812756  0.187244  0.187244  1
  Dy  Dy11  1  0.187244  0.812756  0.812756  1
  Ho  Ho12  1  0.187418  0.812582  0.187418  1
  Ho  Ho13  1  0.812582  0.187418  0.812582  1
  Ho  Ho14  1  0.187418  0.187418  0.812582  1
  Ho  Ho15  1  0.812582  0.812582  0.187418  1
  Cd  Cd16  1  0.579517  0.579296  0.579296  1
  Cd  Cd17  1  0.579296  0.579517  0.261891  1
  Cd  Cd18  1  0.579296  0.261891  0.579517  1
  Cd  Cd19  1  0.261891  0.579296  0.579296  1
  Pt  Pt20  1  0.142743  0.142573  0.142573  1
  Pt  Pt21  1  0.142573  0.142743  0.572111  1
  Pt  Pt22  1  0.142573  0.572111  0.142743  1
  Pt  Pt23  1  0.572111  0.142573  0.142573  1
