# generated using pymatgen
data_Dy10SnBi5S2
_symmetry_space_group_name_H-M   'P 1'
_cell_length_a   9.15071100
_cell_length_b   9.17198646
_cell_length_c   6.60663800
_cell_angle_alpha   90.00000000
_cell_angle_beta   90.00000000
_cell_angle_gamma   120.07694986
_symmetry_Int_Tables_number   1
_chemical_formula_structural   Dy10SnBi5S2
_chemical_formula_sum   'Dy10 Sn1 Bi5 S2'
_cell_volume   479.83521094
_cell_formula_units_Z   1
loop_
 _symmetry_equiv_pos_site_id
 _symmetry_equiv_pos_as_xyz
  1  'x, y, z'
loop_
 _atom_site_type_symbol
 _atom_site_label
 _atom_site_symmetry_multiplicity
 _atom_site_fract_x
 _atom_site_fract_y
 _atom_site_fract_z
 _atom_site_occupancy
  Dy  Dy0  1  0.754826  0.754601  0.750000  1
  Dy  Dy1  1  0.245174  0.999775  0.750000  1
  Dy  Dy2  1  0.000000  0.245797  0.750000  1
  Dy  Dy3  1  0.242146  0.247128  0.250000  1
  Dy  Dy4  1  0.757854  0.004982  0.250000  1
  Dy  Dy5  1  0.000000  0.752131  0.250000  1
  Dy  Dy6  1  0.669482  0.334184  0.001922  1
  Dy  Dy7  1  0.330518  0.664703  0.001922  1
  Dy  Dy8  1  0.330518  0.664703  0.498078  1
  Dy  Dy9  1  0.669482  0.334184  0.498078  1
  Sn  Sn10  1  0.000000  0.397427  0.250000  1
  Bi  Bi11  1  0.396762  0.396464  0.750000  1
  Bi  Bi12  1  0.603238  0.999703  0.750000  1
  Bi  Bi13  1  0.000000  0.602055  0.750000  1
  Bi  Bi14  1  0.603679  0.604238  0.250000  1
  Bi  Bi15  1  0.396321  0.000559  0.250000  1
  S  S16  1  0.000000  0.998683  0.999599  1
  S  S17  1  0.000000  0.998683  0.500401  1
