# generated using pymatgen
data_Dy3Y2Zr3(Co4As3)4
_symmetry_space_group_name_H-M   'P 1'
_cell_length_a   12.74218200
_cell_length_b   12.74218086
_cell_length_c   3.83640000
_cell_angle_alpha   90.00000000
_cell_angle_beta   90.00000000
_cell_angle_gamma   120.00000295
_symmetry_Int_Tables_number   1
_chemical_formula_structural   Dy3Y2Zr3(Co4As3)4
_chemical_formula_sum   'Dy3 Y2 Zr3 Co16 As12'
_cell_volume   539.43866299
_cell_formula_units_Z   1
loop_
 _symmetry_equiv_pos_site_id
 _symmetry_equiv_pos_as_xyz
  1  'x, y, z'
loop_
 _atom_site_type_symbol
 _atom_site_label
 _atom_site_symmetry_multiplicity
 _atom_site_fract_x
 _atom_site_fract_y
 _atom_site_fract_z
 _atom_site_occupancy
  Dy  Dy0  1  0.182542  0.182542  0.500000  1
  Dy  Dy1  1  0.817458  0.000000  0.500000  1
  Dy  Dy2  1  0.000000  0.817458  0.500000  1
  Y  Y3  1  0.333333  0.666667  0.000000  1
  Y  Y4  1  0.666667  0.333333  0.000000  1
  Zr  Zr5  1  0.560533  0.560533  0.000000  1
  Zr  Zr6  1  0.439467  0.000000  0.000000  1
  Zr  Zr7  1  0.000000  0.439467  0.000000  1
  Co  Co8  1  0.719492  0.719492  0.500000  1
  Co  Co9  1  0.280508  0.000000  0.500000  1
  Co  Co10  1  0.000000  0.280508  0.500000  1
  Co  Co11  1  0.177417  0.373664  0.000000  1
  Co  Co12  1  0.626336  0.803753  0.000000  1
  Co  Co13  1  0.196247  0.822583  0.000000  1
  Co  Co14  1  0.803753  0.626336  0.000000  1
  Co  Co15  1  0.822583  0.196247  0.000000  1
  Co  Co16  1  0.373664  0.177417  0.000000  1
  Co  Co17  1  0.356630  0.479114  0.500000  1
  Co  Co18  1  0.520886  0.877517  0.500000  1
  Co  Co19  1  0.122483  0.643370  0.500000  1
  Co  Co20  1  0.877517  0.520886  0.500000  1
  Co  Co21  1  0.643370  0.122483  0.500000  1
  Co  Co22  1  0.479114  0.356630  0.500000  1
  Co  Co23  1  0.000000  0.000000  0.000000  1
  As  As24  1  0.822479  0.822479  0.000000  1
  As  As25  1  0.177521  0.000000  0.000000  1
  As  As26  1  0.000000  0.177521  0.000000  1
  As  As27  1  0.173183  0.481772  0.500000  1
  As  As28  1  0.518228  0.691411  0.500000  1
  As  As29  1  0.308589  0.826817  0.500000  1
  As  As30  1  0.691411  0.518228  0.500000  1
  As  As31  1  0.826817  0.308589  0.500000  1
  As  As32  1  0.481772  0.173183  0.500000  1
  As  As33  1  0.351517  0.351517  0.000000  1
  As  As34  1  0.648483  0.000000  0.000000  1
  As  As35  1  0.000000  0.648483  0.000000  1
