# generated using pymatgen
data_Ti(NiO2)2
_symmetry_space_group_name_H-M   'P 1'
_cell_length_a   5.95102180
_cell_length_b   5.95102188
_cell_length_c   5.95102200
_cell_angle_alpha   59.99999935
_cell_angle_beta   59.99999889
_cell_angle_gamma   59.99999972
_symmetry_Int_Tables_number   1
_chemical_formula_structural   Ti(NiO2)2
_chemical_formula_sum   'Ti2 Ni4 O8'
_cell_volume   149.02517474
_cell_formula_units_Z   2
loop_
 _symmetry_equiv_pos_site_id
 _symmetry_equiv_pos_as_xyz
  1  'x, y, z'
loop_
 _atom_site_type_symbol
 _atom_site_label
 _atom_site_symmetry_multiplicity
 _atom_site_fract_x
 _atom_site_fract_y
 _atom_site_fract_z
 _atom_site_occupancy
  Ti  Ti0  1  0.000000  0.000000  0.000000  1
  Ti  Ti1  1  0.250000  0.250000  0.250000  1
  Ni  Ni2  1  0.625000  0.625000  0.625000  1
  Ni  Ni3  1  0.125000  0.625000  0.625000  1
  Ni  Ni4  1  0.625000  0.625000  0.125000  1
  Ni  Ni5  1  0.625000  0.125000  0.625000  1
  O  O6  1  0.377001  0.868995  0.377001  1
  O  O7  1  0.872999  0.872999  0.381005  1
  O  O8  1  0.872999  0.872999  0.872999  1
  O  O9  1  0.381005  0.872999  0.872999  1
  O  O10  1  0.377001  0.377001  0.377001  1
  O  O11  1  0.868995  0.377001  0.377001  1
  O  O12  1  0.872999  0.381005  0.872999  1
  O  O13  1  0.377001  0.377001  0.868995  1
