# generated using pymatgen
data_Ho2Si5GePRh12
_symmetry_space_group_name_H-M   'P 1'
_cell_length_a   9.79154648
_cell_length_b   9.76200481
_cell_length_c   3.85396227
_cell_angle_alpha   89.98088248
_cell_angle_beta   90.03467876
_cell_angle_gamma   120.13436901
_symmetry_Int_Tables_number   1
_chemical_formula_structural   Ho2Si5GePRh12
_chemical_formula_sum   'Ho2 Si5 Ge1 P1 Rh12'
_cell_volume   318.59480714
_cell_formula_units_Z   1
loop_
 _symmetry_equiv_pos_site_id
 _symmetry_equiv_pos_as_xyz
  1  'x, y, z'
loop_
 _atom_site_type_symbol
 _atom_site_label
 _atom_site_symmetry_multiplicity
 _atom_site_fract_x
 _atom_site_fract_y
 _atom_site_fract_z
 _atom_site_occupancy
  Ho  Ho0  1  0.332793  0.666455  0.748941  1
  Ho  Ho1  1  0.665148  0.332443  0.250220  1
  Si  Si2  1  0.400929  0.289281  0.748478  1
  Si  Si3  1  0.708893  0.110751  0.750033  1
  Si  Si4  1  0.886631  0.596881  0.750242  1
  Si  Si5  1  0.599313  0.710286  0.250870  1
  Si  Si6  1  0.291295  0.888993  0.249823  1
  Ge  Ge7  1  0.000472  0.999649  0.507996  1
  P  P8  1  0.112726  0.402350  0.247838  1
  Rh  Rh9  1  0.445165  0.064203  0.751404  1
  Rh  Rh10  1  0.933809  0.380761  0.751028  1
  Rh  Rh11  1  0.616693  0.554350  0.750741  1
  Rh  Rh12  1  0.556224  0.936659  0.248717  1
  Rh  Rh13  1  0.065338  0.614779  0.248416  1
  Rh  Rh14  1  0.378175  0.446200  0.248234  1
  Rh  Rh15  1  0.147317  0.272684  0.747490  1
  Rh  Rh16  1  0.733129  0.878586  0.749150  1
  Rh  Rh17  1  0.122607  0.851556  0.747546  1
  Rh  Rh18  1  0.854688  0.730287  0.251394  1
  Rh  Rh19  1  0.266679  0.122132  0.249411  1
  Rh  Rh20  1  0.881975  0.150710  0.252029  1
