# generated using pymatgen
data_Gd3AlAu5
_symmetry_space_group_name_H-M   'P 1'
_cell_length_a   8.48341700
_cell_length_b   8.48341656
_cell_length_c   13.49441700
_cell_angle_alpha   90.00000000
_cell_angle_beta   90.00000000
_cell_angle_gamma   127.65487028
_symmetry_Int_Tables_number   1
_chemical_formula_structural   Gd3AlAu5
_chemical_formula_sum   'Gd12 Al4 Au20'
_cell_volume   768.88095216
_cell_formula_units_Z   4
loop_
 _symmetry_equiv_pos_site_id
 _symmetry_equiv_pos_as_xyz
  1  'x, y, z'
loop_
 _atom_site_type_symbol
 _atom_site_label
 _atom_site_symmetry_multiplicity
 _atom_site_fract_x
 _atom_site_fract_y
 _atom_site_fract_z
 _atom_site_occupancy
  Gd  Gd0  1  0.928777  0.071223  0.250000  1
  Gd  Gd1  1  0.071223  0.928777  0.750000  1
  Gd  Gd2  1  0.318810  0.681190  0.250000  1
  Gd  Gd3  1  0.681190  0.318810  0.750000  1
  Gd  Gd4  1  0.631575  0.368425  0.466095  1
  Gd  Gd5  1  0.368425  0.631575  0.533905  1
  Gd  Gd6  1  0.631575  0.368425  0.033905  1
  Gd  Gd7  1  0.368425  0.631575  0.966095  1
  Gd  Gd8  1  0.882055  0.117945  0.950654  1
  Gd  Gd9  1  0.117945  0.882055  0.049346  1
  Gd  Gd10  1  0.882055  0.117945  0.549346  1
  Gd  Gd11  1  0.117945  0.882055  0.450654  1
  Al  Al12  1  0.719877  0.280123  0.250000  1
  Al  Al13  1  0.280123  0.719877  0.750000  1
  Al  Al14  1  0.533117  0.466883  0.250000  1
  Al  Al15  1  0.466883  0.533117  0.750000  1
  Au  Au16  1  0.323973  0.069229  0.250000  1
  Au  Au17  1  0.069229  0.323973  0.750000  1
  Au  Au18  1  0.676027  0.930771  0.750000  1
  Au  Au19  1  0.930771  0.676027  0.250000  1
  Au  Au20  1  0.573708  0.005881  0.395454  1
  Au  Au21  1  0.005881  0.573708  0.604546  1
  Au  Au22  1  0.573708  0.005881  0.104546  1
  Au  Au23  1  0.005881  0.573708  0.895454  1
  Au  Au24  1  0.426292  0.994119  0.604546  1
  Au  Au25  1  0.994119  0.426292  0.395454  1
  Au  Au26  1  0.426292  0.994119  0.895454  1
  Au  Au27  1  0.994119  0.426292  0.104546  1
  Au  Au28  1  0.684811  0.738731  0.393537  1
  Au  Au29  1  0.738731  0.684811  0.606463  1
  Au  Au30  1  0.684811  0.738731  0.106463  1
  Au  Au31  1  0.738731  0.684811  0.893537  1
  Au  Au32  1  0.315189  0.261269  0.606463  1
  Au  Au33  1  0.261269  0.315189  0.393537  1
  Au  Au34  1  0.315189  0.261269  0.893537  1
  Au  Au35  1  0.261269  0.315189  0.106463  1
