# generated using pymatgen
data_CrFe4P4W3
_symmetry_space_group_name_H-M   'P 1'
_cell_length_a   3.61906700
_cell_length_b   5.89537011
_cell_length_c   6.71428027
_cell_angle_alpha   90.07042002
_cell_angle_beta   90.00000000
_cell_angle_gamma   90.00000000
_symmetry_Int_Tables_number   1
_chemical_formula_structural   CrFe4P4W3
_chemical_formula_sum   'Cr1 Fe4 P4 W3'
_cell_volume   143.25402605
_cell_formula_units_Z   1
loop_
 _symmetry_equiv_pos_site_id
 _symmetry_equiv_pos_as_xyz
  1  'x, y, z'
loop_
 _atom_site_type_symbol
 _atom_site_label
 _atom_site_symmetry_multiplicity
 _atom_site_fract_x
 _atom_site_fract_y
 _atom_site_fract_z
 _atom_site_occupancy
  Cr  Cr0  1  0.250000  0.529451  0.674132  1
  Fe  Fe1  1  0.250000  0.641438  0.064651  1
  Fe  Fe2  1  0.750000  0.359068  0.934752  1
  Fe  Fe3  1  0.250000  0.142249  0.437272  1
  Fe  Fe4  1  0.750000  0.856204  0.562126  1
  P  P5  1  0.250000  0.273057  0.122359  1
  P  P6  1  0.750000  0.722185  0.870451  1
  P  P7  1  0.250000  0.769887  0.383610  1
  P  P8  1  0.750000  0.235654  0.622255  1
  W  W9  1  0.750000  0.971084  0.167752  1
  W  W10  1  0.250000  0.024378  0.829079  1
  W  W11  1  0.750000  0.475346  0.331561  1
