# generated using pymatgen
data_Dy8LuSc11Si15Ru
_symmetry_space_group_name_H-M   'P 1'
_cell_length_a   7.09152690
_cell_length_b   7.47146021
_cell_length_c   13.99267483
_cell_angle_alpha   89.95038999
_cell_angle_beta   90.03136713
_cell_angle_gamma   90.25863032
_symmetry_Int_Tables_number   1
_chemical_formula_structural   Dy8LuSc11Si15Ru
_chemical_formula_sum   'Dy8 Lu1 Sc11 Si15 Ru1'
_cell_volume   741.38079676
_cell_formula_units_Z   1
loop_
 _symmetry_equiv_pos_site_id
 _symmetry_equiv_pos_as_xyz
  1  'x, y, z'
loop_
 _atom_site_type_symbol
 _atom_site_label
 _atom_site_symmetry_multiplicity
 _atom_site_fract_x
 _atom_site_fract_y
 _atom_site_fract_z
 _atom_site_occupancy
  Dy  Dy0  1  0.011321  0.178972  0.096113  1
  Dy  Dy1  1  0.990822  0.826451  0.904835  1
  Dy  Dy2  1  0.489543  0.676751  0.904848  1
  Dy  Dy3  1  0.989831  0.825168  0.595585  1
  Dy  Dy4  1  0.511139  0.322714  0.096149  1
  Dy  Dy5  1  0.011095  0.178820  0.403639  1
  Dy  Dy6  1  0.511770  0.322697  0.402897  1
  Dy  Dy7  1  0.489580  0.676914  0.595889  1
  Lu  Lu8  1  0.316391  0.172011  0.627120  1
  Sc  Sc9  1  0.157084  0.503746  0.751022  1
  Sc  Sc10  1  0.838156  0.495293  0.249942  1
  Sc  Sc11  1  0.339020  0.005289  0.249748  1
  Sc  Sc12  1  0.670972  0.997923  0.750661  1
  Sc  Sc13  1  0.672201  0.825432  0.373465  1
  Sc  Sc14  1  0.171358  0.677667  0.373251  1
  Sc  Sc15  1  0.671935  0.825678  0.126062  1
  Sc  Sc16  1  0.836875  0.320160  0.627712  1
  Sc  Sc17  1  0.316317  0.171876  0.872424  1
  Sc  Sc18  1  0.837716  0.319732  0.872729  1
  Sc  Sc19  1  0.171390  0.677891  0.125896  1
  Si  Si20  1  0.968712  0.884726  0.249834  1
  Si  Si21  1  0.469367  0.614016  0.249878  1
  Si  Si22  1  0.531223  0.391322  0.751717  1
  Si  Si23  1  0.285536  0.864264  0.751550  1
  Si  Si24  1  0.713086  0.129511  0.250003  1
  Si  Si25  1  0.213927  0.371292  0.249877  1
  Si  Si26  1  0.780543  0.627475  0.750314  1
  Si  Si27  1  0.156496  0.473104  0.536199  1
  Si  Si28  1  0.843530  0.536315  0.461151  1
  Si  Si29  1  0.345417  0.962988  0.457505  1
  Si  Si30  1  0.844064  0.535865  0.038547  1
  Si  Si31  1  0.660241  0.033566  0.537392  1
  Si  Si32  1  0.159823  0.468309  0.962870  1
  Si  Si33  1  0.655740  0.034903  0.961480  1
  Si  Si34  1  0.344465  0.965771  0.039784  1
  Ru  Ru35  1  0.023313  0.105389  0.751908  1
