# generated using pymatgen
data_Y5Tm3(CdPd)2
_symmetry_space_group_name_H-M   'P 1'
_cell_length_a   9.66317659
_cell_length_b   9.68409141
_cell_length_c   9.68409053
_cell_angle_alpha   59.85717607
_cell_angle_beta   60.07140519
_cell_angle_gamma   60.07140922
_symmetry_Int_Tables_number   1
_chemical_formula_structural   Y5Tm3(CdPd)2
_chemical_formula_sum   'Y10 Tm6 Cd4 Pd4'
_cell_volume   640.79419093
_cell_formula_units_Z   2
loop_
 _symmetry_equiv_pos_site_id
 _symmetry_equiv_pos_as_xyz
  1  'x, y, z'
loop_
 _atom_site_type_symbol
 _atom_site_label
 _atom_site_symmetry_multiplicity
 _atom_site_fract_x
 _atom_site_fract_y
 _atom_site_fract_z
 _atom_site_occupancy
  Y  Y0  1  0.189824  0.810176  0.189824  1
  Y  Y1  1  0.810176  0.189824  0.810176  1
  Y  Y2  1  0.189824  0.189824  0.810176  1
  Y  Y3  1  0.810176  0.810176  0.189824  1
  Y  Y4  1  0.935458  0.564542  0.564542  1
  Y  Y5  1  0.564542  0.935458  0.935458  1
  Y  Y6  1  0.564247  0.935753  0.564247  1
  Y  Y7  1  0.935753  0.564247  0.935753  1
  Y  Y8  1  0.564247  0.564247  0.935753  1
  Y  Y9  1  0.935753  0.935753  0.564247  1
  Tm  Tm10  1  0.353831  0.353431  0.353431  1
  Tm  Tm11  1  0.353431  0.353831  0.939306  1
  Tm  Tm12  1  0.353431  0.939306  0.353831  1
  Tm  Tm13  1  0.939306  0.353431  0.353431  1
  Tm  Tm14  1  0.809646  0.190354  0.190354  1
  Tm  Tm15  1  0.190354  0.809646  0.809646  1
  Cd  Cd16  1  0.581731  0.581776  0.581776  1
  Cd  Cd17  1  0.581776  0.581731  0.254717  1
  Cd  Cd18  1  0.581776  0.254717  0.581731  1
  Cd  Cd19  1  0.254717  0.581776  0.581776  1
  Pd  Pd20  1  0.142868  0.147452  0.147452  1
  Pd  Pd21  1  0.147452  0.142868  0.562226  1
  Pd  Pd22  1  0.147452  0.562226  0.142868  1
  Pd  Pd23  1  0.562226  0.147452  0.147452  1
