# generated using pymatgen
data_Dy5P12Ir10Ru9
_symmetry_space_group_name_H-M   'P 1'
_cell_length_a   12.65506998
_cell_length_b   12.57671775
_cell_length_c   3.97261800
_cell_angle_alpha   90.00000000
_cell_angle_beta   90.00000000
_cell_angle_gamma   119.95544680
_symmetry_Int_Tables_number   1
_chemical_formula_structural   Dy5P12Ir10Ru9
_chemical_formula_sum   'Dy5 P12 Ir10 Ru9'
_cell_volume   547.81523201
_cell_formula_units_Z   1
loop_
 _symmetry_equiv_pos_site_id
 _symmetry_equiv_pos_as_xyz
  1  'x, y, z'
loop_
 _atom_site_type_symbol
 _atom_site_label
 _atom_site_symmetry_multiplicity
 _atom_site_fract_x
 _atom_site_fract_y
 _atom_site_fract_z
 _atom_site_occupancy
  Dy  Dy0  1  0.666761  0.331782  0.000000  1
  Dy  Dy1  1  0.335006  0.667457  0.000000  1
  Dy  Dy2  1  0.812356  0.001099  0.500000  1
  Dy  Dy3  1  0.184704  0.186552  0.500000  1
  Dy  Dy4  1  0.999766  0.814375  0.500000  1
  P  P5  1  0.632644  0.998421  0.000000  1
  P  P6  1  0.364512  0.369764  0.000000  1
  P  P7  1  0.000898  0.635448  0.000000  1
  P  P8  1  0.688939  0.518906  0.500000  1
  P  P9  1  0.829136  0.306892  0.500000  1
  P  P10  1  0.316612  0.832816  0.500000  1
  P  P11  1  0.517665  0.686915  0.500000  1
  P  P12  1  0.180104  0.000814  0.000000  1
  P  P13  1  0.819050  0.820143  0.000000  1
  P  P14  1  0.995921  0.181212  0.000000  1
  P  P15  1  0.479718  0.167625  0.500000  1
  P  P16  1  0.173496  0.481624  0.500000  1
  Ir  Ir17  1  0.624758  0.804793  0.000000  1
  Ir  Ir18  1  0.180616  0.376816  0.000000  1
  Ir  Ir19  1  0.374028  0.183275  0.000000  1
  Ir  Ir20  1  0.192988  0.818424  0.000000  1
  Ir  Ir21  1  0.807337  0.624346  0.000000  1
  Ir  Ir22  1  0.869450  0.506727  0.500000  1
  Ir  Ir23  1  0.493559  0.360738  0.500000  1
  Ir  Ir24  1  0.636256  0.128319  0.500000  1
  Ir  Ir25  1  0.131598  0.639383  0.500000  1
  Ir  Ir26  1  0.999789  0.000674  0.000000  1
  Ru  Ru27  1  0.362416  0.487801  0.500000  1
  Ru  Ru28  1  0.510962  0.870391  0.500000  1
  Ru  Ru29  1  0.713920  0.712745  0.500000  1
  Ru  Ru30  1  0.000897  0.288083  0.500000  1
  Ru  Ru31  1  0.449897  0.999638  0.000000  1
  Ru  Ru32  1  0.550818  0.547115  0.000000  1
  Ru  Ru33  1  0.000367  0.453556  0.000000  1
  Ru  Ru34  1  0.816868  0.195297  0.000000  1
  Ru  Ru35  1  0.286188  0.000034  0.500000  1
