# generated using pymatgen
data_Ca2Tb9Yb(SiPd)12
_symmetry_space_group_name_H-M   'P 1'
_cell_length_a   4.34452600
_cell_length_b   7.46090505
_cell_length_c   21.27361716
_cell_angle_alpha   89.93173282
_cell_angle_beta   90.00000000
_cell_angle_gamma   90.00000000
_symmetry_Int_Tables_number   1
_chemical_formula_structural   Ca2Tb9Yb(SiPd)12
_chemical_formula_sum   'Ca2 Tb9 Yb1 Si12 Pd12'
_cell_volume   689.56457864
_cell_formula_units_Z   1
loop_
 _symmetry_equiv_pos_site_id
 _symmetry_equiv_pos_as_xyz
  1  'x, y, z'
loop_
 _atom_site_type_symbol
 _atom_site_label
 _atom_site_symmetry_multiplicity
 _atom_site_fract_x
 _atom_site_fract_y
 _atom_site_fract_z
 _atom_site_occupancy
  Ca  Ca0  1  0.250000  0.703595  0.332337  1
  Ca  Ca1  1  0.750000  0.295110  0.667420  1
  Tb  Tb2  1  0.250000  0.797250  0.832447  1
  Tb  Tb3  1  0.250000  0.798122  0.166155  1
  Tb  Tb4  1  0.750000  0.204198  0.833508  1
  Tb  Tb5  1  0.750000  0.296469  0.333635  1
  Tb  Tb6  1  0.250000  0.703923  0.665791  1
  Tb  Tb7  1  0.250000  0.708804  0.001164  1
  Tb  Tb8  1  0.750000  0.291309  0.999920  1
  Tb  Tb9  1  0.750000  0.206979  0.499084  1
  Tb  Tb10  1  0.250000  0.793969  0.500361  1
  Yb  Yb11  1  0.750000  0.203280  0.167564  1
  Si  Si12  1  0.250000  0.088489  0.065906  1
  Si  Si13  1  0.750000  0.910324  0.928544  1
  Si  Si14  1  0.750000  0.586847  0.434196  1
  Si  Si15  1  0.250000  0.412798  0.566025  1
  Si  Si16  1  0.250000  0.086549  0.274472  1
  Si  Si17  1  0.750000  0.911420  0.727792  1
  Si  Si18  1  0.750000  0.587030  0.225676  1
  Si  Si19  1  0.250000  0.414617  0.774112  1
  Si  Si20  1  0.250000  0.089554  0.395066  1
  Si  Si21  1  0.750000  0.910765  0.605724  1
  Si  Si22  1  0.750000  0.588811  0.104972  1
  Si  Si23  1  0.250000  0.411006  0.895457  1
  Pd  Pd24  1  0.250000  0.414639  0.236513  1
  Pd  Pd25  1  0.750000  0.583534  0.764109  1
  Pd  Pd26  1  0.750000  0.916562  0.262885  1
  Pd  Pd27  1  0.250000  0.084310  0.737070  1
  Pd  Pd28  1  0.250000  0.417122  0.437005  1
  Pd  Pd29  1  0.750000  0.583312  0.562961  1
  Pd  Pd30  1  0.750000  0.916818  0.063789  1
  Pd  Pd31  1  0.250000  0.083184  0.938084  1
  Pd  Pd32  1  0.250000  0.418490  0.094050  1
  Pd  Pd33  1  0.750000  0.580574  0.906032  1
  Pd  Pd34  1  0.750000  0.917907  0.406829  1
  Pd  Pd35  1  0.250000  0.082329  0.593343  1
