# generated using pymatgen
data_TbY3B16OsRu3
_symmetry_space_group_name_H-M   'P 1'
_cell_length_a   3.56986000
_cell_length_b   5.97251125
_cell_length_c   11.55892217
_cell_angle_alpha   89.97339902
_cell_angle_beta   90.00000000
_cell_angle_gamma   90.00000000
_symmetry_Int_Tables_number   1
_chemical_formula_structural   TbY3B16OsRu3
_chemical_formula_sum   'Tb1 Y3 B16 Os1 Ru3'
_cell_volume   246.44808856
_cell_formula_units_Z   1
loop_
 _symmetry_equiv_pos_site_id
 _symmetry_equiv_pos_as_xyz
  1  'x, y, z'
loop_
 _atom_site_type_symbol
 _atom_site_label
 _atom_site_symmetry_multiplicity
 _atom_site_fract_x
 _atom_site_fract_y
 _atom_site_fract_z
 _atom_site_occupancy
  Tb  Tb0  1  0.000000  0.629014  0.350321  1
  Y  Y1  1  0.000000  0.370904  0.649674  1
  Y  Y2  1  0.000000  0.129198  0.150253  1
  Y  Y3  1  0.000000  0.870709  0.849803  1
  B  B4  1  0.500000  0.789304  0.185711  1
  B  B5  1  0.500000  0.210697  0.814332  1
  B  B6  1  0.500000  0.289036  0.314600  1
  B  B7  1  0.500000  0.710701  0.685322  1
  B  B8  1  0.500000  0.863662  0.029817  1
  B  B9  1  0.500000  0.136314  0.969937  1
  B  B10  1  0.500000  0.363610  0.469859  1
  B  B11  1  0.500000  0.636309  0.530345  1
  B  B12  1  0.500000  0.888463  0.453548  1
  B  B13  1  0.500000  0.111807  0.546686  1
  B  B14  1  0.500000  0.388122  0.046721  1
  B  B15  1  0.500000  0.611859  0.953226  1
  B  B16  1  0.500000  0.977267  0.308413  1
  B  B17  1  0.500000  0.023164  0.691717  1
  B  B18  1  0.500000  0.476276  0.191561  1
  B  B19  1  0.500000  0.523409  0.808268  1
  Os  Os20  1  0.000000  0.641251  0.092550  1
  Ru  Ru21  1  0.000000  0.358811  0.907355  1
  Ru  Ru22  1  0.000000  0.140327  0.407366  1
  Ru  Ru23  1  0.000000  0.859785  0.592613  1
