# generated using pymatgen
data_LaSm3Mg4(SnH)4
_symmetry_space_group_name_H-M   'P 1'
_cell_length_a   4.43288700
_cell_length_b   8.05471505
_cell_length_c   9.14028111
_cell_angle_alpha   90.25386175
_cell_angle_beta   90.00000000
_cell_angle_gamma   90.00000000
_symmetry_Int_Tables_number   1
_chemical_formula_structural   LaSm3Mg4(SnH)4
_chemical_formula_sum   'La1 Sm3 Mg4 Sn4 H4'
_cell_volume   326.35639828
_cell_formula_units_Z   1
loop_
 _symmetry_equiv_pos_site_id
 _symmetry_equiv_pos_as_xyz
  1  'x, y, z'
loop_
 _atom_site_type_symbol
 _atom_site_label
 _atom_site_symmetry_multiplicity
 _atom_site_fract_x
 _atom_site_fract_y
 _atom_site_fract_z
 _atom_site_occupancy
  La  La0  1  0.750000  0.982967  0.666796  1
  Sm  Sm1  1  0.750000  0.481414  0.839655  1
  Sm  Sm2  1  0.250000  0.518756  0.162908  1
  Sm  Sm3  1  0.250000  0.018770  0.335813  1
  Mg  Mg4  1  0.750000  0.341901  0.428547  1
  Mg  Mg5  1  0.250000  0.658722  0.569350  1
  Mg  Mg6  1  0.250000  0.161212  0.930735  1
  Mg  Mg7  1  0.750000  0.838287  0.072427  1
  Sn  Sn8  1  0.750000  0.206491  0.122670  1
  Sn  Sn9  1  0.250000  0.790336  0.879862  1
  Sn  Sn10  1  0.250000  0.296228  0.624195  1
  Sn  Sn11  1  0.750000  0.706861  0.374244  1
  H  H12  1  0.250000  0.925918  0.565855  1
  H  H13  1  0.750000  0.073435  0.424298  1
  H  H14  1  0.750000  0.567211  0.071984  1
  H  H15  1  0.250000  0.431491  0.930662  1
