# generated using pymatgen
data_K3AgSe13
_symmetry_space_group_name_H-M   'P 1'
_cell_length_a   5.10099600
_cell_length_b   13.94417566
_cell_length_c   15.37062327
_cell_angle_alpha   85.55764401
_cell_angle_beta   90.00000000
_cell_angle_gamma   90.00000000
_symmetry_Int_Tables_number   1
_chemical_formula_structural   K3AgSe13
_chemical_formula_sum   'K6 Ag2 Se26'
_cell_volume   1090.01536524
_cell_formula_units_Z   2
loop_
 _symmetry_equiv_pos_site_id
 _symmetry_equiv_pos_as_xyz
  1  'x, y, z'
loop_
 _atom_site_type_symbol
 _atom_site_label
 _atom_site_symmetry_multiplicity
 _atom_site_fract_x
 _atom_site_fract_y
 _atom_site_fract_z
 _atom_site_occupancy
  K  K0  1  0.201149  0.163894  0.721955  1
  K  K1  1  0.201149  0.336106  0.278045  1
  K  K2  1  0.162617  0.250000  0.000000  1
  K  K3  1  0.837383  0.750000  0.000000  1
  K  K4  1  0.798851  0.836106  0.278045  1
  K  K5  1  0.798851  0.663894  0.721955  1
  Ag  Ag6  1  0.000000  0.500000  0.500000  1
  Ag  Ag7  1  0.000000  0.000000  0.500000  1
  Se  Se8  1  0.300281  0.551207  0.621063  1
  Se  Se9  1  0.645134  0.576447  0.268772  1
  Se  Se10  1  0.354866  0.076447  0.268772  1
  Se  Se11  1  0.354866  0.423553  0.731228  1
  Se  Se12  1  0.923571  0.534896  0.150357  1
  Se  Se13  1  0.923571  0.965104  0.849643  1
  Se  Se14  1  0.076429  0.465104  0.849643  1
  Se  Se15  1  0.076429  0.034896  0.150357  1
  Se  Se16  1  0.680949  0.420828  0.073619  1
  Se  Se17  1  0.645134  0.923553  0.731228  1
  Se  Se18  1  0.319051  0.579172  0.926381  1
  Se  Se19  1  0.319051  0.920828  0.073619  1
  Se  Se20  1  0.691699  0.266947  0.150744  1
  Se  Se21  1  0.691699  0.233053  0.849256  1
  Se  Se22  1  0.308301  0.733053  0.849256  1
  Se  Se23  1  0.308301  0.766947  0.150744  1
  Se  Se24  1  0.096569  0.659148  0.412460  1
  Se  Se25  1  0.096569  0.840852  0.587540  1
  Se  Se26  1  0.903431  0.340852  0.587540  1
  Se  Se27  1  0.903431  0.159148  0.412460  1
  Se  Se28  1  0.628617  0.250000  0.500000  1
  Se  Se29  1  0.371383  0.750000  0.500000  1
  Se  Se30  1  0.699719  0.448793  0.378937  1
  Se  Se31  1  0.699719  0.051207  0.621063  1
  Se  Se32  1  0.680949  0.079172  0.926381  1
  Se  Se33  1  0.300281  0.948793  0.378937  1
