# generated using pymatgen
data_Pr2Nd6Re3TcC8
_symmetry_space_group_name_H-M   'P 1'
_cell_length_a   5.37156700
_cell_length_b   6.73361248
_cell_length_c   10.22493001
_cell_angle_alpha   89.97550193
_cell_angle_beta   90.00000000
_cell_angle_gamma   90.00000000
_symmetry_Int_Tables_number   1
_chemical_formula_structural   Pr2Nd6Re3TcC8
_chemical_formula_sum   'Pr2 Nd6 Re3 Tc1 C8'
_cell_volume   369.83620190
_cell_formula_units_Z   1
loop_
 _symmetry_equiv_pos_site_id
 _symmetry_equiv_pos_as_xyz
  1  'x, y, z'
loop_
 _atom_site_type_symbol
 _atom_site_label
 _atom_site_symmetry_multiplicity
 _atom_site_fract_x
 _atom_site_fract_y
 _atom_site_fract_z
 _atom_site_occupancy
  Pr  Pr0  1  0.750000  0.025859  0.285853  1
  Pr  Pr1  1  0.750000  0.525277  0.213110  1
  Nd  Nd2  1  0.250000  0.473078  0.785975  1
  Nd  Nd3  1  0.250000  0.973618  0.714093  1
  Nd  Nd4  1  0.250000  0.813708  0.050892  1
  Nd  Nd5  1  0.750000  0.687648  0.551520  1
  Nd  Nd6  1  0.250000  0.312038  0.448241  1
  Nd  Nd7  1  0.750000  0.187367  0.948141  1
  Re  Re8  1  0.750000  0.229833  0.642164  1
  Re  Re9  1  0.250000  0.770506  0.358068  1
  Re  Re10  1  0.750000  0.729662  0.857711  1
  Tc  Tc11  1  0.250000  0.270199  0.141941  1
  C  C12  1  0.250000  0.686428  0.537851  1
  C  C13  1  0.750000  0.813965  0.037127  1
  C  C14  1  0.250000  0.186166  0.963176  1
  C  C15  1  0.750000  0.314158  0.462846  1
  C  C16  1  0.250000  0.033477  0.258352  1
  C  C17  1  0.750000  0.465909  0.757974  1
  C  C18  1  0.250000  0.535510  0.243161  1
  C  C19  1  0.750000  0.965591  0.741805  1
