# generated using pymatgen
data_Er8Nb2V10Si15Ge
_symmetry_space_group_name_H-M   'P 1'
_cell_length_a   6.67838726
_cell_length_b   6.88079669
_cell_length_c   12.97258123
_cell_angle_alpha   90.03561316
_cell_angle_beta   89.94351645
_cell_angle_gamma   90.02412425
_symmetry_Int_Tables_number   1
_chemical_formula_structural   Er8Nb2V10Si15Ge
_chemical_formula_sum   'Er8 Nb2 V10 Si15 Ge1'
_cell_volume   596.12370287
_cell_formula_units_Z   1
loop_
 _symmetry_equiv_pos_site_id
 _symmetry_equiv_pos_as_xyz
  1  'x, y, z'
loop_
 _atom_site_type_symbol
 _atom_site_label
 _atom_site_symmetry_multiplicity
 _atom_site_fract_x
 _atom_site_fract_y
 _atom_site_fract_z
 _atom_site_occupancy
  Er  Er0  1  0.501794  0.330854  0.096709  1
  Er  Er1  1  0.001231  0.168732  0.402632  1
  Er  Er2  1  0.502088  0.672869  0.595485  1
  Er  Er3  1  0.998549  0.828866  0.905957  1
  Er  Er4  1  0.499691  0.669103  0.905984  1
  Er  Er5  1  0.999621  0.831261  0.594731  1
  Er  Er6  1  0.501668  0.329564  0.401394  1
  Er  Er7  1  0.000928  0.169593  0.097366  1
  Nb  Nb8  1  0.836340  0.325951  0.876513  1
  Nb  Nb9  1  0.339019  0.169858  0.625034  1
  V  V10  1  0.662137  0.012240  0.750128  1
  V  V11  1  0.162434  0.486618  0.752541  1
  V  V12  1  0.336243  0.984829  0.248900  1
  V  V13  1  0.836839  0.515636  0.250757  1
  V  V14  1  0.834438  0.325318  0.626726  1
  V  V15  1  0.336403  0.173694  0.874236  1
  V  V16  1  0.165224  0.674835  0.127239  1
  V  V17  1  0.665053  0.826004  0.372052  1
  V  V18  1  0.159646  0.675971  0.369775  1
  V  V19  1  0.660169  0.826906  0.127875  1
  Si  Si20  1  0.801992  0.624422  0.748601  1
  Si  Si21  1  0.300519  0.873799  0.752658  1
  Si  Si22  1  0.197232  0.383859  0.249453  1
  Si  Si23  1  0.697238  0.116391  0.249592  1
  Si  Si24  1  0.537367  0.372620  0.751139  1
  Si  Si25  1  0.037671  0.127287  0.749593  1
  Si  Si26  1  0.460558  0.633863  0.249925  1
  Si  Si27  1  0.959735  0.866980  0.248686  1
  Si  Si28  1  0.667880  0.041160  0.539278  1
  Si  Si29  1  0.166877  0.459374  0.960291  1
  Si  Si30  1  0.337889  0.957750  0.044666  1
  Si  Si31  1  0.834792  0.543710  0.454170  1
  Si  Si32  1  0.340802  0.953659  0.451622  1
  Si  Si33  1  0.841159  0.545788  0.048679  1
  Si  Si34  1  0.656364  0.035339  0.959872  1
  Ge  Ge35  1  0.162414  0.465299  0.539749  1
