# generated using pymatgen
data_Tb6Al24FePdRu6
_symmetry_space_group_name_H-M   'P 1'
_cell_length_a   8.82561380
_cell_length_b   8.82561226
_cell_length_c   9.53245608
_cell_angle_alpha   89.90377656
_cell_angle_beta   90.09622065
_cell_angle_gamma   119.73515274
_symmetry_Int_Tables_number   1
_chemical_formula_structural   Tb6Al24FePdRu6
_chemical_formula_sum   'Tb6 Al24 Fe1 Pd1 Ru6'
_cell_volume   644.72906338
_cell_formula_units_Z   1
loop_
 _symmetry_equiv_pos_site_id
 _symmetry_equiv_pos_as_xyz
  1  'x, y, z'
loop_
 _atom_site_type_symbol
 _atom_site_label
 _atom_site_symmetry_multiplicity
 _atom_site_fract_x
 _atom_site_fract_y
 _atom_site_fract_z
 _atom_site_occupancy
  Tb  Tb0  1  0.385589  0.191125  0.249679  1
  Tb  Tb1  1  0.806129  0.193871  0.248727  1
  Tb  Tb2  1  0.808875  0.614411  0.249679  1
  Tb  Tb3  1  0.614411  0.808875  0.750321  1
  Tb  Tb4  1  0.193871  0.806129  0.751273  1
  Tb  Tb5  1  0.191125  0.385589  0.750321  1
  Al  Al6  1  0.439069  0.877765  0.250424  1
  Al  Al7  1  0.122235  0.560931  0.250424  1
  Al  Al8  1  0.438132  0.561868  0.247293  1
  Al  Al9  1  0.560931  0.122235  0.749576  1
  Al  Al10  1  0.877765  0.439069  0.749576  1
  Al  Al11  1  0.561868  0.438132  0.752707  1
  Al  Al12  1  0.162591  0.837409  0.422934  1
  Al  Al13  1  0.155974  0.322049  0.421158  1
  Al  Al14  1  0.677951  0.844026  0.421158  1
  Al  Al15  1  0.837409  0.162591  0.577066  1
  Al  Al16  1  0.844026  0.677951  0.578842  1
  Al  Al17  1  0.322049  0.155974  0.578842  1
  Al  Al18  1  0.840682  0.159318  0.923538  1
  Al  Al19  1  0.840758  0.681871  0.923858  1
  Al  Al20  1  0.318129  0.159242  0.923858  1
  Al  Al21  1  0.159318  0.840682  0.076462  1
  Al  Al22  1  0.159242  0.318129  0.076142  1
  Al  Al23  1  0.681871  0.840758  0.076142  1
  Al  Al24  1  0.330277  0.669723  0.519108  1
  Al  Al25  1  0.669723  0.330277  0.480892  1
  Al  Al26  1  0.666739  0.333261  0.013522  1
  Al  Al27  1  0.333261  0.666739  0.986478  1
  Al  Al28  1  0.000391  0.999609  0.243974  1
  Al  Al29  1  0.999609  0.000391  0.756026  1
  Fe  Fe30  1  0.000000  0.000000  0.000000  1
  Pd  Pd31  1  0.500000  0.500000  0.500000  1
  Ru  Ru32  1  0.000000  0.000000  0.500000  1
  Ru  Ru33  1  0.500000  0.000000  0.500000  1
  Ru  Ru34  1  0.000000  0.500000  0.500000  1
  Ru  Ru35  1  0.500000  0.000000  0.000000  1
  Ru  Ru36  1  0.000000  0.500000  0.000000  1
  Ru  Ru37  1  0.500000  0.500000  0.000000  1
