# generated using pymatgen
data_Hf2UTc4Mo
_symmetry_space_group_name_H-M   'P 1'
_cell_length_a   6.49966500
_cell_length_b   6.50360400
_cell_length_c   6.51376400
_cell_angle_alpha   90.00000000
_cell_angle_beta   90.00070445
_cell_angle_gamma   90.00000000
_symmetry_Int_Tables_number   1
_chemical_formula_structural   Hf2UTc4Mo
_chemical_formula_sum   'Hf4 U2 Tc8 Mo2'
_cell_volume   275.34492884
_cell_formula_units_Z   2
loop_
 _symmetry_equiv_pos_site_id
 _symmetry_equiv_pos_as_xyz
  1  'x, y, z'
loop_
 _atom_site_type_symbol
 _atom_site_label
 _atom_site_symmetry_multiplicity
 _atom_site_fract_x
 _atom_site_fract_y
 _atom_site_fract_z
 _atom_site_occupancy
  Hf  Hf0  1  0.250109  0.250000  0.000246  1
  Hf  Hf1  1  0.750117  0.750000  0.499754  1
  Hf  Hf2  1  0.249889  0.250000  0.500305  1
  Hf  Hf3  1  0.749896  0.750000  0.999694  1
  U  U4  1  0.249981  0.750000  0.001238  1
  U  U5  1  0.749982  0.250000  0.498762  1
  Tc  Tc6  1  0.999981  0.000086  0.249930  1
  Tc  Tc7  1  0.999981  0.499913  0.249930  1
  Tc  Tc8  1  0.499981  0.500074  0.250080  1
  Tc  Tc9  1  0.499981  0.999927  0.250080  1
  Tc  Tc10  1  0.500024  0.000085  0.749922  1
  Tc  Tc11  1  0.500024  0.499914  0.749922  1
  Tc  Tc12  1  0.000002  0.500074  0.750069  1
  Tc  Tc13  1  0.000002  0.999927  0.750069  1
  Mo  Mo14  1  0.250025  0.750000  0.501324  1
  Mo  Mo15  1  0.750025  0.250000  0.998675  1
