# generated using pymatgen
data_MnNb6TcS12
_symmetry_space_group_name_H-M   'P 1'
_cell_length_a   5.82141600
_cell_length_b   5.82141551
_cell_length_c   12.30017200
_cell_angle_alpha   90.00000000
_cell_angle_beta   90.00000000
_cell_angle_gamma   120.00001414
_symmetry_Int_Tables_number   1
_chemical_formula_structural   MnNb6TcS12
_chemical_formula_sum   'Mn1 Nb6 Tc1 S12'
_cell_volume   360.99317254
_cell_formula_units_Z   1
loop_
 _symmetry_equiv_pos_site_id
 _symmetry_equiv_pos_as_xyz
  1  'x, y, z'
loop_
 _atom_site_type_symbol
 _atom_site_label
 _atom_site_symmetry_multiplicity
 _atom_site_fract_x
 _atom_site_fract_y
 _atom_site_fract_z
 _atom_site_occupancy
  Mn  Mn0  1  0.333333  0.666667  0.250000  1
  Nb  Nb1  1  0.333333  0.666667  0.506503  1
  Nb  Nb2  1  0.666667  0.333333  0.998075  1
  Nb  Nb3  1  0.666667  0.333333  0.501925  1
  Nb  Nb4  1  0.333333  0.666667  0.993497  1
  Nb  Nb5  1  0.000000  0.000000  0.505834  1
  Nb  Nb6  1  0.000000  0.000000  0.994166  1
  Tc  Tc7  1  0.666667  0.333333  0.750000  1
  S  S8  1  0.330661  0.329641  0.124364  1
  S  S9  1  0.670359  0.001019  0.124364  1
  S  S10  1  0.998981  0.669339  0.124364  1
  S  S11  1  0.996816  0.333146  0.631917  1
  S  S12  1  0.666854  0.003184  0.868083  1
  S  S13  1  0.666854  0.663670  0.631917  1
  S  S14  1  0.336330  0.003184  0.631917  1
  S  S15  1  0.670359  0.669339  0.375636  1
  S  S16  1  0.330661  0.001019  0.375636  1
  S  S17  1  0.336330  0.333146  0.868083  1
  S  S18  1  0.996816  0.663670  0.868083  1
  S  S19  1  0.998981  0.329641  0.375636  1
