# generated using pymatgen
data_Tb7Y(ErRu2)2
_symmetry_space_group_name_H-M   'P 1'
_cell_length_a   6.36349167
_cell_length_b   7.28918052
_cell_length_c   8.51728555
_cell_angle_alpha   96.64252886
_cell_angle_beta   112.08873097
_cell_angle_gamma   90.01388287
_symmetry_Int_Tables_number   1
_chemical_formula_structural   Tb7Y(ErRu2)2
_chemical_formula_sum   'Tb7 Y1 Er2 Ru4'
_cell_volume   363.20577194
_cell_formula_units_Z   1
loop_
 _symmetry_equiv_pos_site_id
 _symmetry_equiv_pos_as_xyz
  1  'x, y, z'
loop_
 _atom_site_type_symbol
 _atom_site_label
 _atom_site_symmetry_multiplicity
 _atom_site_fract_x
 _atom_site_fract_y
 _atom_site_fract_z
 _atom_site_occupancy
  Tb  Tb0  1  0.977867  0.915587  0.185403  1
  Tb  Tb1  1  0.207456  0.415711  0.185695  1
  Tb  Tb2  1  0.021898  0.084572  0.814554  1
  Tb  Tb3  1  0.207075  0.685345  0.567303  1
  Tb  Tb4  1  0.639826  0.814636  0.432967  1
  Tb  Tb5  1  0.793163  0.314737  0.432836  1
  Tb  Tb6  1  0.360152  0.185188  0.567001  1
  Y  Y7  1  0.792441  0.583689  0.814376  1
  Er  Er8  1  0.421850  0.749589  0.999931  1
  Er  Er9  1  0.578113  0.250455  0.000271  1
  Ru  Ru10  1  0.602427  0.926079  0.781021  1
  Ru  Ru11  1  0.821718  0.575454  0.218646  1
  Ru  Ru12  1  0.396840  0.074967  0.218828  1
  Ru  Ru13  1  0.179172  0.423991  0.781169  1
