# generated using pymatgen
data_Tb16MgCd3NiRu3
_symmetry_space_group_name_H-M   'P 1'
_cell_length_a   9.64112472
_cell_length_b   9.71196716
_cell_length_c   9.71196745
_cell_angle_alpha   59.55788318
_cell_angle_beta   59.34744946
_cell_angle_gamma   59.34744275
_symmetry_Int_Tables_number   1
_chemical_formula_structural   Tb16MgCd3NiRu3
_chemical_formula_sum   'Tb16 Mg1 Cd3 Ni1 Ru3'
_cell_volume   634.49666489
_cell_formula_units_Z   1
loop_
 _symmetry_equiv_pos_site_id
 _symmetry_equiv_pos_as_xyz
  1  'x, y, z'
loop_
 _atom_site_type_symbol
 _atom_site_label
 _atom_site_symmetry_multiplicity
 _atom_site_fract_x
 _atom_site_fract_y
 _atom_site_fract_z
 _atom_site_occupancy
  Tb  Tb0  1  0.350817  0.346675  0.346675  1
  Tb  Tb1  1  0.350161  0.344936  0.962295  1
  Tb  Tb2  1  0.350161  0.962295  0.344936  1
  Tb  Tb3  1  0.962565  0.345733  0.345733  1
  Tb  Tb4  1  0.810664  0.188884  0.188884  1
  Tb  Tb5  1  0.184276  0.812238  0.812238  1
  Tb  Tb6  1  0.188024  0.811254  0.189381  1
  Tb  Tb7  1  0.811007  0.188473  0.811590  1
  Tb  Tb8  1  0.188024  0.189381  0.811254  1
  Tb  Tb9  1  0.811007  0.811590  0.188473  1
  Tb  Tb10  1  0.938396  0.561443  0.561443  1
  Tb  Tb11  1  0.558666  0.937247  0.937247  1
  Tb  Tb12  1  0.558136  0.937402  0.568113  1
  Tb  Tb13  1  0.939442  0.560363  0.939287  1
  Tb  Tb14  1  0.558136  0.568113  0.937402  1
  Tb  Tb15  1  0.939442  0.939287  0.560363  1
  Mg  Mg16  1  0.573909  0.575512  0.575512  1
  Cd  Cd17  1  0.580367  0.580976  0.256296  1
  Cd  Cd18  1  0.580367  0.256296  0.580976  1
  Cd  Cd19  1  0.256250  0.580515  0.580515  1
  Ni  Ni20  1  0.578443  0.142685  0.142685  1
  Ru  Ru21  1  0.143359  0.139133  0.139133  1
  Ru  Ru22  1  0.144191  0.139946  0.579622  1
  Ru  Ru23  1  0.144191  0.579622  0.139946  1
