# generated using pymatgen
data_Dy7Er9(ZnRh)4
_symmetry_space_group_name_H-M   'P 1'
_cell_length_a   9.44105126
_cell_length_b   9.43934625
_cell_length_c   9.44453286
_cell_angle_alpha   59.79261953
_cell_angle_beta   59.83836417
_cell_angle_gamma   59.80812462
_symmetry_Int_Tables_number   1
_chemical_formula_structural   Dy7Er9(ZnRh)4
_chemical_formula_sum   'Dy7 Er9 Zn4 Rh4'
_cell_volume   592.62584763
_cell_formula_units_Z   1
loop_
 _symmetry_equiv_pos_site_id
 _symmetry_equiv_pos_as_xyz
  1  'x, y, z'
loop_
 _atom_site_type_symbol
 _atom_site_label
 _atom_site_symmetry_multiplicity
 _atom_site_fract_x
 _atom_site_fract_y
 _atom_site_fract_z
 _atom_site_occupancy
  Dy  Dy0  1  0.563483  0.564398  0.936053  1
  Dy  Dy1  1  0.145418  0.563072  0.144730  1
  Dy  Dy2  1  0.692082  0.308106  0.309538  1
  Dy  Dy3  1  0.936781  0.564370  0.563611  1
  Dy  Dy4  1  0.936610  0.563818  0.934884  1
  Dy  Dy5  1  0.690080  0.691200  0.310484  1
  Dy  Dy6  1  0.563422  0.936370  0.934970  1
  Er  Er7  1  0.146898  0.146007  0.146518  1
  Er  Er8  1  0.308149  0.692601  0.309697  1
  Er  Er9  1  0.562534  0.145189  0.144932  1
  Er  Er10  1  0.308939  0.309010  0.692185  1
  Er  Er11  1  0.309684  0.690794  0.690349  1
  Er  Er12  1  0.145052  0.144560  0.563429  1
  Er  Er13  1  0.690481  0.309463  0.691198  1
  Er  Er14  1  0.936336  0.936001  0.562970  1
  Er  Er15  1  0.563535  0.936966  0.563725  1
  Zn  Zn16  1  0.921243  0.921756  0.920745  1
  Zn  Zn17  1  0.237705  0.921313  0.920542  1
  Zn  Zn18  1  0.920632  0.921254  0.238088  1
  Zn  Zn19  1  0.921161  0.237072  0.921045  1
  Rh  Rh20  1  0.356596  0.355242  0.930169  1
  Rh  Rh21  1  0.356823  0.355519  0.357352  1
  Rh  Rh22  1  0.931566  0.354029  0.356810  1
  Rh  Rh23  1  0.354790  0.931890  0.355977  1
