# generated using pymatgen
data_CaSmCd2(Ru2O7)2
_symmetry_space_group_name_H-M   'P 1'
_cell_length_a   7.28149833
_cell_length_b   7.28149934
_cell_length_c   7.36984184
_cell_angle_alpha   59.62189571
_cell_angle_beta   59.62189487
_cell_angle_gamma   59.53237521
_symmetry_Int_Tables_number   1
_chemical_formula_structural   CaSmCd2(Ru2O7)2
_chemical_formula_sum   'Ca1 Sm1 Cd2 Ru4 O14'
_cell_volume   273.73997006
_cell_formula_units_Z   1
loop_
 _symmetry_equiv_pos_site_id
 _symmetry_equiv_pos_as_xyz
  1  'x, y, z'
loop_
 _atom_site_type_symbol
 _atom_site_label
 _atom_site_symmetry_multiplicity
 _atom_site_fract_x
 _atom_site_fract_y
 _atom_site_fract_z
 _atom_site_occupancy
  Ca  Ca0  1  0.625000  0.625000  0.625000  1
  Sm  Sm1  1  0.625000  0.625000  0.125000  1
  Cd  Cd2  1  0.125000  0.625000  0.625000  1
  Cd  Cd3  1  0.625000  0.125000  0.625000  1
  Ru  Ru4  1  0.125000  0.125000  0.125000  1
  Ru  Ru5  1  0.625000  0.125000  0.125000  1
  Ru  Ru6  1  0.125000  0.125000  0.625000  1
  Ru  Ru7  1  0.125000  0.625000  0.125000  1
  O  O8  1  0.491472  0.491472  0.509054  1
  O  O9  1  0.758528  0.758528  0.740946  1
  O  O10  1  0.061334  0.061334  0.436997  1
  O  O11  1  0.794292  0.794292  0.205212  1
  O  O12  1  0.444105  0.056964  0.438863  1
  O  O13  1  0.450976  0.050185  0.049128  1
  O  O14  1  0.056964  0.444105  0.438863  1
  O  O15  1  0.050185  0.450976  0.049128  1
  O  O16  1  0.455708  0.455708  0.044788  1
  O  O17  1  0.193036  0.805895  0.811137  1
  O  O18  1  0.799024  0.199815  0.200872  1
  O  O19  1  0.188666  0.188666  0.813003  1
  O  O20  1  0.199815  0.799024  0.200872  1
  O  O21  1  0.805895  0.193036  0.811137  1
