# generated using pymatgen
data_Th3In2GaIr3
_symmetry_space_group_name_H-M   'P 1'
_cell_length_a   7.61420185
_cell_length_b   7.62339015
_cell_length_c   4.01281000
_cell_angle_alpha   90.00000000
_cell_angle_beta   90.00000000
_cell_angle_gamma   120.03993492
_symmetry_Int_Tables_number   1
_chemical_formula_structural   Th3In2GaIr3
_chemical_formula_sum   'Th3 In2 Ga1 Ir3'
_cell_volume   201.64007748
_cell_formula_units_Z   1
loop_
 _symmetry_equiv_pos_site_id
 _symmetry_equiv_pos_as_xyz
  1  'x, y, z'
loop_
 _atom_site_type_symbol
 _atom_site_label
 _atom_site_symmetry_multiplicity
 _atom_site_fract_x
 _atom_site_fract_y
 _atom_site_fract_z
 _atom_site_occupancy
  Th  Th0  1  0.403799  0.408415  0.500000  1
  Th  Th1  1  0.596201  0.004616  0.500000  1
  Th  Th2  1  0.000000  0.573761  0.500000  1
  In  In3  1  0.756039  0.752355  0.000000  1
  In  In4  1  0.243961  0.996316  0.000000  1
  Ga  Ga5  1  0.000000  0.246406  0.000000  1
  Ir  Ir6  1  0.674750  0.331986  0.000000  1
  Ir  Ir7  1  0.325250  0.657236  0.000000  1
  Ir  Ir8  1  0.000000  0.028908  0.500000  1
