# generated using pymatgen
data_Nd2Co3Cu2Ni3B2
_symmetry_space_group_name_H-M   'P 1'
_cell_length_a   5.10968500
_cell_length_b   5.10968474
_cell_length_c   6.91842200
_cell_angle_alpha   90.00000000
_cell_angle_beta   90.00000000
_cell_angle_gamma   119.99999523
_symmetry_Int_Tables_number   1
_chemical_formula_structural   Nd2Co3Cu2Ni3B2
_chemical_formula_sum   'Nd2 Co3 Cu2 Ni3 B2'
_cell_volume   156.43212131
_cell_formula_units_Z   1
loop_
 _symmetry_equiv_pos_site_id
 _symmetry_equiv_pos_as_xyz
  1  'x, y, z'
loop_
 _atom_site_type_symbol
 _atom_site_label
 _atom_site_symmetry_multiplicity
 _atom_site_fract_x
 _atom_site_fract_y
 _atom_site_fract_z
 _atom_site_occupancy
  Nd  Nd0  1  0.000000  0.000000  0.500805  1
  Nd  Nd1  1  0.000000  0.000000  0.013158  1
  Co  Co2  1  0.500000  0.000000  0.296577  1
  Co  Co3  1  0.500000  0.500000  0.296577  1
  Co  Co4  1  0.000000  0.500000  0.296577  1
  Cu  Cu5  1  0.333333  0.666667  0.999507  1
  Cu  Cu6  1  0.666667  0.333333  0.999507  1
  Ni  Ni7  1  0.500000  0.000000  0.702900  1
  Ni  Ni8  1  0.500000  0.500000  0.702900  1
  Ni  Ni9  1  0.000000  0.500000  0.702900  1
  B  B10  1  0.666667  0.333333  0.494295  1
  B  B11  1  0.333333  0.666667  0.494295  1
