# generated using pymatgen
data_Ti8Co11Si16Ir
_symmetry_space_group_name_H-M   'P 1'
_cell_length_a   5.14677523
_cell_length_b   6.60505840
_cell_length_c   13.40015889
_cell_angle_alpha   90.10246715
_cell_angle_beta   89.95086990
_cell_angle_gamma   89.90333851
_symmetry_Int_Tables_number   1
_chemical_formula_structural   Ti8Co11Si16Ir
_chemical_formula_sum   'Ti8 Co11 Si16 Ir1'
_cell_volume   455.53351869
_cell_formula_units_Z   1
loop_
 _symmetry_equiv_pos_site_id
 _symmetry_equiv_pos_as_xyz
  1  'x, y, z'
loop_
 _atom_site_type_symbol
 _atom_site_label
 _atom_site_symmetry_multiplicity
 _atom_site_fract_x
 _atom_site_fract_y
 _atom_site_fract_z
 _atom_site_occupancy
  Ti  Ti0  1  0.231685  0.396635  0.154923  1
  Ti  Ti1  1  0.725819  0.101673  0.153264  1
  Ti  Ti2  1  0.273999  0.102182  0.648445  1
  Ti  Ti3  1  0.769647  0.400196  0.647857  1
  Ti  Ti4  1  0.227070  0.602064  0.350694  1
  Ti  Ti5  1  0.727926  0.897605  0.350249  1
  Ti  Ti6  1  0.269026  0.902239  0.848818  1
  Ti  Ti7  1  0.774370  0.602869  0.846517  1
  Co  Co8  1  0.505891  0.219395  0.484051  1
  Co  Co9  1  0.778000  0.000103  0.748686  1
  Co  Co10  1  0.494290  0.215607  0.983983  1
  Co  Co11  1  0.719666  0.500424  0.251983  1
  Co  Co12  1  0.495549  0.780970  0.516040  1
  Co  Co13  1  0.006001  0.281116  0.483904  1
  Co  Co14  1  0.005246  0.719009  0.017098  1
  Co  Co15  1  0.219155  0.998672  0.251918  1
  Co  Co16  1  0.283074  0.502580  0.748419  1
  Co  Co17  1  0.505309  0.777236  0.017490  1
  Co  Co18  1  0.995304  0.719837  0.516203  1
  Si  Si19  1  0.216156  0.013914  0.073832  1
  Si  Si20  1  0.709218  0.521757  0.431249  1
  Si  Si21  1  0.792314  0.021879  0.568628  1
  Si  Si22  1  0.477023  0.754304  0.189619  1
  Si  Si23  1  0.023024  0.256191  0.803894  1
  Si  Si24  1  0.522049  0.246430  0.811522  1
  Si  Si25  1  0.208805  0.978794  0.431375  1
  Si  Si26  1  0.300722  0.529165  0.927615  1
  Si  Si27  1  0.975993  0.744930  0.188376  1
  Si  Si28  1  0.699201  0.482356  0.073274  1
  Si  Si29  1  0.291714  0.479469  0.568483  1
  Si  Si30  1  0.476761  0.245035  0.314213  1
  Si  Si31  1  0.023915  0.746840  0.686566  1
  Si  Si32  1  0.782020  0.968590  0.927717  1
  Si  Si33  1  0.522821  0.756212  0.686611  1
  Si  Si34  1  0.976661  0.254263  0.313524  1
  Ir  Ir35  1  0.994578  0.279463  0.982962  1
