# generated using pymatgen
data_K6HoFeF12
_symmetry_space_group_name_H-M   'P 1'
_cell_length_a   6.53534247
_cell_length_b   6.26458973
_cell_length_c   10.86622489
_cell_angle_alpha   55.49894398
_cell_angle_beta   90.23384015
_cell_angle_gamma   89.90142194
_symmetry_Int_Tables_number   1
_chemical_formula_structural   K6HoFeF12
_chemical_formula_sum   'K6 Ho1 Fe1 F12'
_cell_volume   366.62246417
_cell_formula_units_Z   1
loop_
 _symmetry_equiv_pos_site_id
 _symmetry_equiv_pos_as_xyz
  1  'x, y, z'
loop_
 _atom_site_type_symbol
 _atom_site_label
 _atom_site_symmetry_multiplicity
 _atom_site_fract_x
 _atom_site_fract_y
 _atom_site_fract_z
 _atom_site_occupancy
  K  K0  1  0.945629  0.736323  0.746940  1
  K  K1  1  0.449892  0.281353  0.735150  1
  K  K2  1  0.054371  0.263677  0.253060  1
  K  K3  1  0.550108  0.718647  0.264850  1
  K  K4  1  0.000000  0.500000  0.500000  1
  K  K5  1  0.500000  0.500000  0.000000  1
  Ho  Ho6  1  0.000000  0.000000  0.000000  1
  Fe  Fe7  1  0.500000  0.000000  0.500000  1
  F  F8  1  0.939772  0.888935  0.225880  1
  F  F9  1  0.446596  0.100158  0.294707  1
  F  F10  1  0.060228  0.111065  0.774120  1
  F  F11  1  0.553404  0.899842  0.705293  1
  F  F12  1  0.728515  0.245707  0.923473  1
  F  F13  1  0.252964  0.776324  0.566223  1
  F  F14  1  0.271485  0.754293  0.076527  1
  F  F15  1  0.747036  0.223676  0.433777  1
  F  F16  1  0.331135  0.297469  0.457884  1
  F  F17  1  0.823316  0.668531  0.049526  1
  F  F18  1  0.668865  0.702531  0.542116  1
  F  F19  1  0.176684  0.331469  0.950474  1
