# generated using pymatgen
data_Ba3DyScWO9
_symmetry_space_group_name_H-M   'P 1'
_cell_length_a   6.00322800
_cell_length_b   6.00322841
_cell_length_c   7.36464000
_cell_angle_alpha   90.00000000
_cell_angle_beta   90.00000000
_cell_angle_gamma   119.99998674
_symmetry_Int_Tables_number   1
_chemical_formula_structural   Ba3DyScWO9
_chemical_formula_sum   'Ba3 Dy1 Sc1 W1 O9'
_cell_volume   229.85392150
_cell_formula_units_Z   1
loop_
 _symmetry_equiv_pos_site_id
 _symmetry_equiv_pos_as_xyz
  1  'x, y, z'
loop_
 _atom_site_type_symbol
 _atom_site_label
 _atom_site_symmetry_multiplicity
 _atom_site_fract_x
 _atom_site_fract_y
 _atom_site_fract_z
 _atom_site_occupancy
  Ba  Ba0  1  0.000000  0.000000  0.502601  1
  Ba  Ba1  1  0.666667  0.333333  0.820239  1
  Ba  Ba2  1  0.333333  0.666667  0.175281  1
  Dy  Dy3  1  0.666667  0.333333  0.336464  1
  Sc  Sc4  1  0.333333  0.666667  0.658716  1
  W  W5  1  0.000000  0.000000  0.993681  1
  O  O6  1  0.687005  0.843502  0.845459  1
  O  O7  1  0.306822  0.153411  0.150395  1
  O  O8  1  0.008371  0.504185  0.508485  1
  O  O9  1  0.495815  0.991629  0.508485  1
  O  O10  1  0.156498  0.312995  0.845459  1
  O  O11  1  0.846589  0.693178  0.150395  1
  O  O12  1  0.495815  0.504185  0.508485  1
  O  O13  1  0.156498  0.843502  0.845459  1
  O  O14  1  0.846589  0.153411  0.150395  1
