# generated using pymatgen
data_Tb2Ga10Tc2Rh
_symmetry_space_group_name_H-M   'P 1'
_cell_length_a   9.05649200
_cell_length_b   9.05649200
_cell_length_c   6.38675100
_cell_angle_alpha   90.00000000
_cell_angle_beta   90.00000000
_cell_angle_gamma   90.00000000
_symmetry_Int_Tables_number   1
_chemical_formula_structural   Tb2Ga10Tc2Rh
_chemical_formula_sum   'Tb4 Ga20 Tc4 Rh2'
_cell_volume   523.84161941
_cell_formula_units_Z   2
loop_
 _symmetry_equiv_pos_site_id
 _symmetry_equiv_pos_as_xyz
  1  'x, y, z'
loop_
 _atom_site_type_symbol
 _atom_site_label
 _atom_site_symmetry_multiplicity
 _atom_site_fract_x
 _atom_site_fract_y
 _atom_site_fract_z
 _atom_site_occupancy
  Tb  Tb0  1  0.182867  0.317133  0.000000  1
  Tb  Tb1  1  0.682867  0.182867  0.000000  1
  Tb  Tb2  1  0.817133  0.682867  0.000000  1
  Tb  Tb3  1  0.317133  0.817133  0.000000  1
  Ga  Ga4  1  0.500000  0.000000  0.290358  1
  Ga  Ga5  1  0.500000  0.000000  0.709642  1
  Ga  Ga6  1  0.293514  0.559988  0.706265  1
  Ga  Ga7  1  0.000000  0.500000  0.290358  1
  Ga  Ga8  1  0.000000  0.500000  0.709642  1
  Ga  Ga9  1  0.059988  0.793514  0.706265  1
  Ga  Ga10  1  0.206486  0.059988  0.293735  1
  Ga  Ga11  1  0.059988  0.793514  0.293735  1
  Ga  Ga12  1  0.706486  0.440012  0.706265  1
  Ga  Ga13  1  0.206486  0.059988  0.706265  1
  Ga  Ga14  1  0.940012  0.206486  0.706265  1
  Ga  Ga15  1  0.706486  0.440012  0.293735  1
  Ga  Ga16  1  0.559988  0.706486  0.293735  1
  Ga  Ga17  1  0.940012  0.206486  0.293735  1
  Ga  Ga18  1  0.559988  0.706486  0.706265  1
  Ga  Ga19  1  0.793514  0.940012  0.293735  1
  Ga  Ga20  1  0.440012  0.293514  0.706265  1
  Ga  Ga21  1  0.793514  0.940012  0.706265  1
  Ga  Ga22  1  0.440012  0.293514  0.293735  1
  Ga  Ga23  1  0.293514  0.559988  0.293735  1
  Tc  Tc24  1  0.179482  0.320518  0.500000  1
  Tc  Tc25  1  0.320518  0.820518  0.500000  1
  Tc  Tc26  1  0.820518  0.679482  0.500000  1
  Tc  Tc27  1  0.679482  0.179482  0.500000  1
  Rh  Rh28  1  0.000000  0.000000  0.000000  1
  Rh  Rh29  1  0.500000  0.500000  0.000000  1
