# generated using pymatgen
data_Cs4Na2LuInAs4
_symmetry_space_group_name_H-M   'P 1'
_cell_length_a   9.89883425
_cell_length_b   9.89883497
_cell_length_c   9.89883418
_cell_angle_alpha   137.73562854
_cell_angle_beta   60.35893528
_cell_angle_gamma   138.98305427
_symmetry_Int_Tables_number   1
_chemical_formula_structural   Cs4Na2LuInAs4
_chemical_formula_sum   'Cs4 Na2 Lu1 In1 As4'
_cell_volume   423.62537755
_cell_formula_units_Z   1
loop_
 _symmetry_equiv_pos_site_id
 _symmetry_equiv_pos_as_xyz
  1  'x, y, z'
loop_
 _atom_site_type_symbol
 _atom_site_label
 _atom_site_symmetry_multiplicity
 _atom_site_fract_x
 _atom_site_fract_y
 _atom_site_fract_z
 _atom_site_occupancy
  Cs  Cs0  1  0.328754  0.772173  0.093419  1
  Cs  Cs1  1  0.171246  0.264666  0.443419  1
  Cs  Cs2  1  0.821247  0.727828  0.556581  1
  Cs  Cs3  1  0.678754  0.235335  0.906582  1
  Na  Na4  1  0.750000  0.250000  0.500000  1
  Na  Na5  1  0.250000  0.750000  0.500000  1
  Lu  Lu6  1  0.250000  0.250000  0.000000  1
  In  In7  1  0.750000  0.750000  0.000000  1
  As  As8  1  0.908787  0.215750  0.126888  1
  As  As9  1  0.591214  0.718103  0.306963  1
  As  As10  1  0.411140  0.284251  0.693038  1
  As  As11  1  0.088860  0.781897  0.873111  1
