# generated using pymatgen
data_Er20TlOs4Au7
_symmetry_space_group_name_H-M   'P 1'
_cell_length_a   11.15801818
_cell_length_b   11.15801860
_cell_length_c   6.35562200
_cell_angle_alpha   89.80117464
_cell_angle_beta   89.80117464
_cell_angle_gamma   90.84115760
_symmetry_Int_Tables_number   1
_chemical_formula_structural   Er20TlOs4Au7
_chemical_formula_sum   'Er20 Tl1 Os4 Au7'
_cell_volume   791.18873354
_cell_formula_units_Z   1
loop_
 _symmetry_equiv_pos_site_id
 _symmetry_equiv_pos_as_xyz
  1  'x, y, z'
loop_
 _atom_site_type_symbol
 _atom_site_label
 _atom_site_symmetry_multiplicity
 _atom_site_fract_x
 _atom_site_fract_y
 _atom_site_fract_z
 _atom_site_occupancy
  Er  Er0  1  0.302549  0.083801  0.354829  1
  Er  Er1  1  0.299278  0.924079  0.854949  1
  Er  Er2  1  0.699798  0.083608  0.853165  1
  Er  Er3  1  0.699275  0.918297  0.355868  1
  Er  Er4  1  0.584471  0.803827  0.854657  1
  Er  Er5  1  0.584459  0.198311  0.353200  1
  Er  Er6  1  0.418475  0.803663  0.343553  1
  Er  Er7  1  0.419181  0.200004  0.854780  1
  Er  Er8  1  0.196173  0.415529  0.645343  1
  Er  Er9  1  0.196337  0.581525  0.156447  1
  Er  Er10  1  0.801689  0.415541  0.146800  1
  Er  Er11  1  0.799996  0.580819  0.645220  1
  Er  Er12  1  0.916199  0.697451  0.145171  1
  Er  Er13  1  0.916392  0.300202  0.646835  1
  Er  Er14  1  0.075921  0.700722  0.645051  1
  Er  Er15  1  0.081703  0.300725  0.144132  1
  Er  Er16  1  0.999577  0.001467  0.500191  1
  Er  Er17  1  0.998533  0.000423  0.999809  1
  Er  Er18  1  0.507222  0.493653  0.001916  1
  Er  Er19  1  0.506347  0.492778  0.498084  1
  Tl  Tl20  1  0.341727  0.658273  0.750000  1
  Os  Os21  1  0.500971  0.001387  0.105581  1
  Os  Os22  1  0.500372  0.000848  0.607683  1
  Os  Os23  1  0.999152  0.499628  0.892317  1
  Os  Os24  1  0.998613  0.499029  0.394419  1
  Au  Au25  1  0.845274  0.154726  0.250000  1
  Au  Au26  1  0.844236  0.844463  0.750428  1
  Au  Au27  1  0.155537  0.155764  0.749572  1
  Au  Au28  1  0.152831  0.847169  0.250000  1
  Au  Au29  1  0.657479  0.342521  0.750000  1
  Au  Au30  1  0.655785  0.655552  0.249924  1
  Au  Au31  1  0.344448  0.344215  0.250076  1
