# generated using pymatgen
data_Ti4MnFe2Pt9
_symmetry_space_group_name_H-M   'P 1'
_cell_length_a   5.51999900
_cell_length_b   5.50913216
_cell_length_c   9.01629500
_cell_angle_alpha   90.00000000
_cell_angle_beta   90.00000000
_cell_angle_gamma   120.06527772
_symmetry_Int_Tables_number   1
_chemical_formula_structural   Ti4MnFe2Pt9
_chemical_formula_sum   'Ti4 Mn1 Fe2 Pt9'
_cell_volume   237.29844238
_cell_formula_units_Z   1
loop_
 _symmetry_equiv_pos_site_id
 _symmetry_equiv_pos_as_xyz
  1  'x, y, z'
loop_
 _atom_site_type_symbol
 _atom_site_label
 _atom_site_symmetry_multiplicity
 _atom_site_fract_x
 _atom_site_fract_y
 _atom_site_fract_z
 _atom_site_occupancy
  Ti  Ti0  1  0.004393  0.008787  0.503903  1
  Ti  Ti1  1  0.004393  0.008787  0.996097  1
  Ti  Ti2  1  0.332610  0.665222  0.250000  1
  Ti  Ti3  1  0.666977  0.333953  0.750000  1
  Mn  Mn4  1  0.821269  0.642539  0.250000  1
  Fe  Fe5  1  0.500682  0.001364  0.497272  1
  Fe  Fe6  1  0.500682  0.001364  0.002728  1
  Pt  Pt7  1  0.504876  0.506038  0.495320  1
  Pt  Pt8  1  0.001161  0.506038  0.495320  1
  Pt  Pt9  1  0.504876  0.506038  0.004680  1
  Pt  Pt10  1  0.001161  0.506038  0.004680  1
  Pt  Pt11  1  0.324509  0.145602  0.250000  1
  Pt  Pt12  1  0.821092  0.145602  0.250000  1
  Pt  Pt13  1  0.168219  0.336436  0.750000  1
  Pt  Pt14  1  0.666211  0.843095  0.750000  1
  Pt  Pt15  1  0.176884  0.843095  0.750000  1
