# generated using pymatgen
data_LaLu2U(ReB6)2
_symmetry_space_group_name_H-M   'P 1'
_cell_length_a   3.69522200
_cell_length_b   9.15418904
_cell_length_c   11.57067552
_cell_angle_alpha   90.25538114
_cell_angle_beta   90.00000000
_cell_angle_gamma   90.00000000
_symmetry_Int_Tables_number   1
_chemical_formula_structural   LaLu2U(ReB6)2
_chemical_formula_sum   'La2 Lu4 U2 Re4 B24'
_cell_volume   391.39458446
_cell_formula_units_Z   2
loop_
 _symmetry_equiv_pos_site_id
 _symmetry_equiv_pos_as_xyz
  1  'x, y, z'
loop_
 _atom_site_type_symbol
 _atom_site_label
 _atom_site_symmetry_multiplicity
 _atom_site_fract_x
 _atom_site_fract_y
 _atom_site_fract_z
 _atom_site_occupancy
  La  La0  1  0.000000  0.822734  0.086193  1
  La  La1  1  0.000000  0.177266  0.913807  1
  Lu  Lu2  1  0.000000  0.945063  0.374594  1
  Lu  Lu3  1  0.000000  0.054937  0.625406  1
  Lu  Lu4  1  0.000000  0.444672  0.128962  1
  Lu  Lu5  1  0.000000  0.555328  0.871038  1
  U  U6  1  0.000000  0.322853  0.414584  1
  U  U7  1  0.000000  0.677147  0.585416  1
  Re  Re8  1  0.000000  0.634511  0.327131  1
  Re  Re9  1  0.000000  0.365489  0.672869  1
  Re  Re10  1  0.000000  0.145260  0.188152  1
  Re  Re11  1  0.000000  0.854740  0.811848  1
  B  B12  1  0.500000  0.552913  0.434840  1
  B  B13  1  0.500000  0.447087  0.565160  1
  B  B14  1  0.500000  0.057905  0.073627  1
  B  B15  1  0.500000  0.942095  0.926373  1
  B  B16  1  0.500000  0.748702  0.421513  1
  B  B17  1  0.500000  0.251298  0.578487  1
  B  B18  1  0.500000  0.252110  0.086245  1
  B  B19  1  0.500000  0.747890  0.913755  1
  B  B20  1  0.500000  0.790533  0.269973  1
  B  B21  1  0.500000  0.209467  0.730027  1
  B  B22  1  0.500000  0.295203  0.238568  1
  B  B23  1  0.500000  0.704797  0.761432  1
  B  B24  1  0.500000  0.628149  0.188700  1
  B  B25  1  0.500000  0.371851  0.811300  1
  B  B26  1  0.500000  0.134299  0.318780  1
  B  B27  1  0.500000  0.865701  0.681220  1
  B  B28  1  0.500000  0.985680  0.217651  1
  B  B29  1  0.500000  0.014320  0.782349  1
  B  B30  1  0.500000  0.481469  0.289523  1
  B  B31  1  0.500000  0.518531  0.710477  1
  B  B32  1  0.500000  0.596297  0.026830  1
  B  B33  1  0.500000  0.403703  0.973170  1
  B  B34  1  0.500000  0.109266  0.470922  1
  B  B35  1  0.500000  0.890734  0.529078  1
