# generated using pymatgen
data_Dy5Er7Ga2Co3Ni
_symmetry_space_group_name_H-M   'P 1'
_cell_length_a   8.21568925
_cell_length_b   8.21501445
_cell_length_c   8.21568936
_cell_angle_alpha   112.48261299
_cell_angle_beta   109.38487750
_cell_angle_gamma   106.60306486
_symmetry_Int_Tables_number   1
_chemical_formula_structural   Dy5Er7Ga2Co3Ni
_chemical_formula_sum   'Dy5 Er7 Ga2 Co3 Ni1'
_cell_volume   425.70521530
_cell_formula_units_Z   1
loop_
 _symmetry_equiv_pos_site_id
 _symmetry_equiv_pos_as_xyz
  1  'x, y, z'
loop_
 _atom_site_type_symbol
 _atom_site_label
 _atom_site_symmetry_multiplicity
 _atom_site_fract_x
 _atom_site_fract_y
 _atom_site_fract_z
 _atom_site_occupancy
  Dy  Dy0  1  0.041387  0.738271  0.302732  1
  Dy  Dy1  1  0.957841  0.260968  0.697206  1
  Dy  Dy2  1  0.563764  0.260968  0.303127  1
  Dy  Dy3  1  0.435539  0.738271  0.696884  1
  Dy  Dy4  1  0.674006  0.862235  0.188228  1
  Er  Er5  1  0.330799  0.520304  0.189505  1
  Er  Er6  1  0.331016  0.141541  0.810526  1
  Er  Er7  1  0.673928  0.485919  0.811992  1
  Er  Er8  1  0.179048  0.219126  0.401299  1
  Er  Er9  1  0.817828  0.219126  0.040078  1
  Er  Er10  1  0.178421  0.777495  0.959650  1
  Er  Er11  1  0.817846  0.777495  0.599073  1
  Ga  Ga12  1  0.999497  0.499517  0.500020  1
  Ga  Ga13  1  0.499185  0.999361  0.500176  1
  Co  Co14  1  0.661073  0.498098  0.162579  1
  Co  Co15  1  0.335518  0.498098  0.837025  1
  Co  Co16  1  0.884643  0.884489  0.999847  1
  Ni  Ni17  1  0.118664  0.118717  0.000053  1
