# generated using pymatgen
data_Hf2Ta(MoP)3
_symmetry_space_group_name_H-M   'P 1'
_cell_length_a   6.88079967
_cell_length_b   6.91068855
_cell_length_c   3.38737000
_cell_angle_alpha   90.00000000
_cell_angle_beta   90.00000000
_cell_angle_gamma   120.14378655
_symmetry_Int_Tables_number   1
_chemical_formula_structural   Hf2Ta(MoP)3
_chemical_formula_sum   'Hf2 Ta1 Mo3 P3'
_cell_volume   139.29080023
_cell_formula_units_Z   1
loop_
 _symmetry_equiv_pos_site_id
 _symmetry_equiv_pos_as_xyz
  1  'x, y, z'
loop_
 _atom_site_type_symbol
 _atom_site_label
 _atom_site_symmetry_multiplicity
 _atom_site_fract_x
 _atom_site_fract_y
 _atom_site_fract_z
 _atom_site_occupancy
  Hf  Hf0  1  0.402606  0.404314  0.500000  1
  Hf  Hf1  1  0.597394  0.001707  0.500000  1
  Ta  Ta2  1  0.000000  0.596705  0.500000  1
  Mo  Mo3  1  0.251000  0.995065  0.000000  1
  Mo  Mo4  1  0.749000  0.744065  0.000000  1
  Mo  Mo5  1  0.000000  0.256081  0.000000  1
  P  P6  1  0.669666  0.336003  0.000000  1
  P  P7  1  0.330334  0.666337  0.000000  1
  P  P8  1  0.000000  0.999723  0.500000  1
