# generated using pymatgen
data_NdNi3GeRh
_symmetry_space_group_name_H-M   'P 1'
_cell_length_a   4.89455740
_cell_length_b   5.11587506
_cell_length_c   4.04845600
_cell_angle_alpha   90.00000000
_cell_angle_beta   90.00000000
_cell_angle_gamma   115.67249243
_symmetry_Int_Tables_number   1
_chemical_formula_structural   NdNi3GeRh
_chemical_formula_sum   'Nd1 Ni3 Ge1 Rh1'
_cell_volume   91.36607706
_cell_formula_units_Z   1
loop_
 _symmetry_equiv_pos_site_id
 _symmetry_equiv_pos_as_xyz
  1  'x, y, z'
loop_
 _atom_site_type_symbol
 _atom_site_label
 _atom_site_symmetry_multiplicity
 _atom_site_fract_x
 _atom_site_fract_y
 _atom_site_fract_z
 _atom_site_occupancy
  Nd  Nd0  1  0.000000  0.000000  0.000000  1
  Ni  Ni1  1  0.313715  0.633744  0.000000  1
  Ni  Ni2  1  0.686285  0.366256  0.000000  1
  Ni  Ni3  1  0.000000  0.500000  0.500000  1
  Ge  Ge4  1  0.500000  0.500000  0.500000  1
  Rh  Rh5  1  0.500000  0.000000  0.500000  1
