# generated using pymatgen
data_TbLu3(Ga8Pt3)3
_symmetry_space_group_name_H-M   'P 1'
_cell_length_a   7.54279591
_cell_length_b   7.56164121
_cell_length_c   13.23533874
_cell_angle_alpha   84.65872737
_cell_angle_beta   79.25260937
_cell_angle_gamma   60.02834245
_symmetry_Int_Tables_number   1
_chemical_formula_structural   TbLu3(Ga8Pt3)3
_chemical_formula_sum   'Tb1 Lu3 Ga24 Pt9'
_cell_volume   642.46942502
_cell_formula_units_Z   1
loop_
 _symmetry_equiv_pos_site_id
 _symmetry_equiv_pos_as_xyz
  1  'x, y, z'
loop_
 _atom_site_type_symbol
 _atom_site_label
 _atom_site_symmetry_multiplicity
 _atom_site_fract_x
 _atom_site_fract_y
 _atom_site_fract_z
 _atom_site_occupancy
  Tb  Tb0  1  0.393636  0.167887  0.810035  1
  Lu  Lu1  1  0.605962  0.831473  0.192114  1
  Lu  Lu2  1  0.733177  0.498738  0.807819  1
  Lu  Lu3  1  0.266671  0.501539  0.192218  1
  Ga  Ga4  1  0.684193  0.832008  0.939316  1
  Ga  Ga5  1  0.317362  0.166223  0.062992  1
  Ga  Ga6  1  0.146946  0.832467  0.560753  1
  Ga  Ga7  1  0.853207  0.167564  0.438814  1
  Ga  Ga8  1  0.479866  0.166698  0.557509  1
  Ga  Ga9  1  0.520162  0.833234  0.442102  1
  Ga  Ga10  1  0.220060  0.165488  0.325147  1
  Ga  Ga11  1  0.780525  0.834207  0.673792  1
  Ga  Ga12  1  0.437085  0.505387  0.673794  1
  Ga  Ga13  1  0.563311  0.494756  0.325100  1
  Ga  Ga14  1  0.107628  0.161858  0.673341  1
  Ga  Ga15  1  0.892353  0.838253  0.325486  1
  Ga  Ga16  1  0.358338  0.497663  0.939250  1
  Ga  Ga17  1  0.641104  0.504408  0.061857  1
  Ga  Ga18  1  0.016944  0.171303  0.944498  1
  Ga  Ga19  1  0.980970  0.828586  0.056899  1
  Ga  Ga20  1  0.186203  0.499643  0.442160  1
  Ga  Ga21  1  0.813825  0.500438  0.557426  1
  Ga  Ga22  1  0.734860  0.163934  0.182570  1
  Ga  Ga23  1  0.265276  0.834510  0.817235  1
  Ga  Ga24  1  0.059392  0.632505  0.816752  1
  Ga  Ga25  1  0.938995  0.368674  0.183050  1
  Ga  Ga26  1  0.856700  0.041646  0.816783  1
  Ga  Ga27  1  0.144354  0.958706  0.183068  1
  Pt  Pt28  1  0.118237  0.492752  0.639763  1
  Pt  Pt29  1  0.881334  0.508195  0.359372  1
  Pt  Pt30  1  0.659923  0.169787  0.999952  1
  Pt  Pt31  1  0.339595  0.830953  0.000306  1
  Pt  Pt32  1  0.537526  0.166961  0.359535  1
  Pt  Pt33  1  0.462572  0.832256  0.639796  1
  Pt  Pt34  1  0.777859  0.175332  0.638019  1
  Pt  Pt35  1  0.223020  0.824468  0.361179  1
  Pt  Pt36  1  0.000830  0.499500  0.000200  1
