# generated using pymatgen
data_DySc4Fe9Co7(TcP4)3
_symmetry_space_group_name_H-M   'P 1'
_cell_length_a   11.85958400
_cell_length_b   11.85958435
_cell_length_c   3.64139300
_cell_angle_alpha   90.00000000
_cell_angle_beta   90.00000000
_cell_angle_gamma   119.99999345
_symmetry_Int_Tables_number   1
_chemical_formula_structural   DySc4Fe9Co7(TcP4)3
_chemical_formula_sum   'Dy1 Sc4 Fe9 Co7 Tc3 P12'
_cell_volume   443.54443742
_cell_formula_units_Z   1
loop_
 _symmetry_equiv_pos_site_id
 _symmetry_equiv_pos_as_xyz
  1  'x, y, z'
loop_
 _atom_site_type_symbol
 _atom_site_label
 _atom_site_symmetry_multiplicity
 _atom_site_fract_x
 _atom_site_fract_y
 _atom_site_fract_z
 _atom_site_occupancy
  Dy  Dy0  1  0.333333  0.666667  0.000000  1
  Sc  Sc1  1  0.666667  0.333333  0.000000  1
  Sc  Sc2  1  0.182127  0.182992  0.500000  1
  Sc  Sc3  1  0.817008  0.999134  0.500000  1
  Sc  Sc4  1  0.000866  0.817873  0.500000  1
  Fe  Fe5  1  0.646069  0.126530  0.500000  1
  Fe  Fe6  1  0.873470  0.519539  0.500000  1
  Fe  Fe7  1  0.480461  0.353931  0.500000  1
  Fe  Fe8  1  0.123570  0.647143  0.500000  1
  Fe  Fe9  1  0.523572  0.876430  0.500000  1
  Fe  Fe10  1  0.352857  0.476428  0.500000  1
  Fe  Fe11  1  0.722145  0.719585  0.500000  1
  Fe  Fe12  1  0.280415  0.002560  0.500000  1
  Fe  Fe13  1  0.997440  0.277855  0.500000  1
  Co  Co14  1  0.819793  0.194176  0.000000  1
  Co  Co15  1  0.805824  0.625617  0.000000  1
  Co  Co16  1  0.374383  0.180207  0.000000  1
  Co  Co17  1  0.193496  0.823179  0.000000  1
  Co  Co18  1  0.629683  0.806504  0.000000  1
  Co  Co19  1  0.176821  0.370317  0.000000  1
  Co  Co20  1  0.000000  0.000000  0.000000  1
  Tc  Tc21  1  0.556021  0.555363  0.000000  1
  Tc  Tc22  1  0.444637  0.000658  0.000000  1
  Tc  Tc23  1  0.999342  0.443979  0.000000  1
  P  P24  1  0.360818  0.360988  0.000000  1
  P  P25  1  0.639012  0.999830  0.000000  1
  P  P26  1  0.000170  0.639182  0.000000  1
  P  P27  1  0.832235  0.315988  0.500000  1
  P  P28  1  0.684012  0.516247  0.500000  1
  P  P29  1  0.483753  0.167765  0.500000  1
  P  P30  1  0.316326  0.837662  0.500000  1
  P  P31  1  0.521338  0.683674  0.500000  1
  P  P32  1  0.162338  0.478662  0.500000  1
  P  P33  1  0.822686  0.820544  0.000000  1
  P  P34  1  0.179456  0.002141  0.000000  1
  P  P35  1  0.997859  0.177314  0.000000  1
