# generated using pymatgen
data_Cs2Ga13Bi
_symmetry_space_group_name_H-M   'P 1'
_cell_length_a   10.65658387
_cell_length_b   10.65658297
_cell_length_c   10.65658602
_cell_angle_alpha   38.21342729
_cell_angle_beta   38.21342550
_cell_angle_gamma   38.21343717
_symmetry_Int_Tables_number   1
_chemical_formula_structural   Cs2Ga13Bi
_chemical_formula_sum   'Cs2 Ga13 Bi1'
_cell_volume   415.85212254
_cell_formula_units_Z   1
loop_
 _symmetry_equiv_pos_site_id
 _symmetry_equiv_pos_as_xyz
  1  'x, y, z'
loop_
 _atom_site_type_symbol
 _atom_site_label
 _atom_site_symmetry_multiplicity
 _atom_site_fract_x
 _atom_site_fract_y
 _atom_site_fract_z
 _atom_site_occupancy
  Cs  Cs0  1  0.196422  0.196422  0.196422  1
  Cs  Cs1  1  0.803606  0.803606  0.803606  1
  Ga  Ga2  1  0.557957  0.557957  0.557957  1
  Ga  Ga3  1  0.576274  0.184693  0.184693  1
  Ga  Ga4  1  0.184693  0.184693  0.576274  1
  Ga  Ga5  1  0.184693  0.576274  0.184693  1
  Ga  Ga6  1  0.812928  0.422565  0.812928  1
  Ga  Ga7  1  0.422565  0.812928  0.812928  1
  Ga  Ga8  1  0.812928  0.812928  0.422565  1
  Ga  Ga9  1  0.805233  0.203492  0.203492  1
  Ga  Ga10  1  0.203492  0.203492  0.805233  1
  Ga  Ga11  1  0.203492  0.805233  0.203492  1
  Ga  Ga12  1  0.793281  0.192430  0.793281  1
  Ga  Ga13  1  0.192430  0.793281  0.793281  1
  Ga  Ga14  1  0.793281  0.793281  0.192430  1
  Bi  Bi15  1  0.456722  0.456722  0.456722  1
