# generated using pymatgen
data_TmNb(BiRh)2
_symmetry_space_group_name_H-M   'P 1'
_cell_length_a   4.57905900
_cell_length_b   6.46246700
_cell_length_c   9.11777300
_cell_angle_alpha   90.00000000
_cell_angle_beta   90.00000000
_cell_angle_gamma   90.00000000
_symmetry_Int_Tables_number   1
_chemical_formula_structural   TmNb(BiRh)2
_chemical_formula_sum   'Tm2 Nb2 Bi4 Rh4'
_cell_volume   269.81329981
_cell_formula_units_Z   2
loop_
 _symmetry_equiv_pos_site_id
 _symmetry_equiv_pos_as_xyz
  1  'x, y, z'
loop_
 _atom_site_type_symbol
 _atom_site_label
 _atom_site_symmetry_multiplicity
 _atom_site_fract_x
 _atom_site_fract_y
 _atom_site_fract_z
 _atom_site_occupancy
  Tm  Tm0  1  0.000000  0.009609  0.374851  1
  Tm  Tm1  1  0.500002  0.509608  0.625149  1
  Nb  Nb2  1  0.500002  0.491615  0.122812  1
  Nb  Nb3  1  0.000000  0.991614  0.877187  1
  Bi  Bi4  1  0.500002  0.982221  0.126350  1
  Bi  Bi5  1  0.000000  0.513792  0.374972  1
  Bi  Bi6  1  0.500002  0.013791  0.625026  1
  Bi  Bi7  1  0.000000  0.482222  0.873649  1
  Rh  Rh8  1  0.000000  0.733210  0.110693  1
  Rh  Rh9  1  0.500002  0.269548  0.355267  1
  Rh  Rh10  1  0.000000  0.769547  0.644733  1
  Rh  Rh11  1  0.500002  0.233211  0.889306  1
