# generated using pymatgen
data_Ca9La(TaN5)2
_symmetry_space_group_name_H-M   'P 1'
_cell_length_a   6.96050370
_cell_length_b   6.92381198
_cell_length_c   8.92187600
_cell_angle_alpha   80.63101048
_cell_angle_beta   80.31488064
_cell_angle_gamma   59.72994991
_symmetry_Int_Tables_number   1
_chemical_formula_structural   Ca9La(TaN5)2
_chemical_formula_sum   'Ca9 La1 Ta2 N10'
_cell_volume   364.51894119
_cell_formula_units_Z   1
loop_
 _symmetry_equiv_pos_site_id
 _symmetry_equiv_pos_as_xyz
  1  'x, y, z'
loop_
 _atom_site_type_symbol
 _atom_site_label
 _atom_site_symmetry_multiplicity
 _atom_site_fract_x
 _atom_site_fract_y
 _atom_site_fract_z
 _atom_site_occupancy
  Ca  Ca0  1  0.870820  0.868891  0.827776  1
  Ca  Ca1  1  0.740745  0.743043  0.520467  1
  Ca  Ca2  1  0.755020  0.247160  0.501390  1
  Ca  Ca3  1  0.622738  0.135295  0.156652  1
  Ca  Ca4  1  0.362820  0.871293  0.837597  1
  Ca  Ca5  1  0.249747  0.756291  0.507003  1
  Ca  Ca6  1  0.245700  0.245006  0.487772  1
  Ca  Ca7  1  0.145255  0.136547  0.167662  1
  Ca  Ca8  1  0.136828  0.626780  0.154739  1
  La  La9  1  0.879922  0.346764  0.839146  1
  Ta  Ta10  1  0.629800  0.631085  0.222610  1
  Ta  Ta11  1  0.372695  0.368074  0.771685  1
  N  N12  1  0.914120  0.465715  0.320004  1
  N  N13  1  0.993372  0.001948  0.017704  1
  N  N14  1  0.674706  0.686049  0.001262  1
  N  N15  1  0.537307  0.536253  0.692398  1
  N  N16  1  0.465005  0.915057  0.324618  1
  N  N17  1  0.540936  0.083280  0.675044  1
  N  N18  1  0.463620  0.466383  0.301035  1
  N  N19  1  0.318364  0.319434  0.992231  1
  N  N20  1  0.054209  0.074150  0.650981  1
  N  N21  1  0.088558  0.537788  0.676028  1
