# generated using pymatgen
data_ThGe(AsRh2)3
_symmetry_space_group_name_H-M   'P 1'
_cell_length_a   7.26630500
_cell_length_b   7.26630463
_cell_length_c   3.91381300
_cell_angle_alpha   90.00000000
_cell_angle_beta   90.00000000
_cell_angle_gamma   120.00000626
_symmetry_Int_Tables_number   1
_chemical_formula_structural   ThGe(AsRh2)3
_chemical_formula_sum   'Th1 Ge1 As3 Rh6'
_cell_volume   178.96079477
_cell_formula_units_Z   1
loop_
 _symmetry_equiv_pos_site_id
 _symmetry_equiv_pos_as_xyz
  1  'x, y, z'
loop_
 _atom_site_type_symbol
 _atom_site_label
 _atom_site_symmetry_multiplicity
 _atom_site_fract_x
 _atom_site_fract_y
 _atom_site_fract_z
 _atom_site_occupancy
  Th  Th0  1  0.000000  0.000000  0.000000  1
  Ge  Ge1  1  0.333333  0.666667  0.000000  1
  As  As2  1  0.806199  0.612401  0.500000  1
  As  As3  1  0.387599  0.193801  0.500000  1
  As  As4  1  0.806199  0.193801  0.500000  1
  Rh  Rh5  1  0.533768  0.067535  0.000000  1
  Rh  Rh6  1  0.932465  0.466232  0.000000  1
  Rh  Rh7  1  0.533768  0.466232  0.000000  1
  Rh  Rh8  1  0.196803  0.393607  0.500000  1
  Rh  Rh9  1  0.606393  0.803197  0.500000  1
  Rh  Rh10  1  0.196803  0.803197  0.500000  1
