# generated using pymatgen
data_DyFe3B4Os
_symmetry_space_group_name_H-M   'P 1'
_cell_length_a   7.00141884
_cell_length_b   7.22382068
_cell_length_c   3.87912600
_cell_angle_alpha   90.00000000
_cell_angle_beta   90.00000000
_cell_angle_gamma   91.66912405
_symmetry_Int_Tables_number   1
_chemical_formula_structural   DyFe3B4Os
_chemical_formula_sum   'Dy2 Fe6 B8 Os2'
_cell_volume   196.11128807
_cell_formula_units_Z   2
loop_
 _symmetry_equiv_pos_site_id
 _symmetry_equiv_pos_as_xyz
  1  'x, y, z'
loop_
 _atom_site_type_symbol
 _atom_site_label
 _atom_site_symmetry_multiplicity
 _atom_site_fract_x
 _atom_site_fract_y
 _atom_site_fract_z
 _atom_site_occupancy
  Dy  Dy0  1  0.000000  0.000000  0.921081  1
  Dy  Dy1  1  0.500000  0.500000  0.415837  1
  Fe  Fe2  1  0.889483  0.347966  0.394578  1
  Fe  Fe3  1  0.110517  0.652034  0.394578  1
  Fe  Fe4  1  0.378639  0.112739  0.623472  1
  Fe  Fe5  1  0.621361  0.887261  0.623472  1
  Fe  Fe6  1  0.622310  0.122343  0.124145  1
  Fe  Fe7  1  0.377690  0.877657  0.124145  1
  B  B8  1  0.660165  0.818040  0.121826  1
  B  B9  1  0.339835  0.181960  0.121826  1
  B  B10  1  0.312575  0.832914  0.619024  1
  B  B11  1  0.687425  0.167086  0.619024  1
  B  B12  1  0.828385  0.730379  0.402589  1
  B  B13  1  0.171615  0.269621  0.402589  1
  B  B14  1  0.207808  0.672469  0.899203  1
  B  B15  1  0.792192  0.327531  0.899203  1
  Os  Os16  1  0.147949  0.386770  0.896704  1
  Os  Os17  1  0.852051  0.613230  0.896704  1
