# generated using pymatgen
data_Ti12Ga8CoCu3C4
_symmetry_space_group_name_H-M   'P 1'
_cell_length_a   8.12211240
_cell_length_b   8.12211276
_cell_length_c   8.12211181
_cell_angle_alpha   59.90932095
_cell_angle_beta   59.90931565
_cell_angle_gamma   59.90932266
_symmetry_Int_Tables_number   1
_chemical_formula_structural   Ti12Ga8CoCu3C4
_chemical_formula_sum   'Ti12 Ga8 Co1 Cu3 C4'
_cell_volume   378.09214987
_cell_formula_units_Z   1
loop_
 _symmetry_equiv_pos_site_id
 _symmetry_equiv_pos_as_xyz
  1  'x, y, z'
loop_
 _atom_site_type_symbol
 _atom_site_label
 _atom_site_symmetry_multiplicity
 _atom_site_fract_x
 _atom_site_fract_y
 _atom_site_fract_z
 _atom_site_occupancy
  Ti  Ti0  1  0.937690  0.937690  0.559235  1
  Ti  Ti1  1  0.690765  0.312310  0.312310  1
  Ti  Ti2  1  0.314355  0.685899  0.685899  1
  Ti  Ti3  1  0.685899  0.685899  0.314355  1
  Ti  Ti4  1  0.685899  0.314355  0.685899  1
  Ti  Ti5  1  0.312310  0.690765  0.312310  1
  Ti  Ti6  1  0.564101  0.935645  0.564101  1
  Ti  Ti7  1  0.559235  0.937690  0.937690  1
  Ti  Ti8  1  0.935645  0.564101  0.564101  1
  Ti  Ti9  1  0.937690  0.559235  0.937690  1
  Ti  Ti10  1  0.312310  0.312310  0.690765  1
  Ti  Ti11  1  0.564101  0.564101  0.935645  1
  Ga  Ga12  1  0.917350  0.256748  0.917350  1
  Ga  Ga13  1  0.332650  0.332650  0.993252  1
  Ga  Ga14  1  0.993252  0.332650  0.332650  1
  Ga  Ga15  1  0.335997  0.335997  0.335997  1
  Ga  Ga16  1  0.256748  0.917350  0.917350  1
  Ga  Ga17  1  0.914003  0.914003  0.914003  1
  Ga  Ga18  1  0.917350  0.917350  0.256748  1
  Ga  Ga19  1  0.332650  0.993252  0.332650  1
  Co  Co20  1  0.125000  0.125000  0.125000  1
  Cu  Cu21  1  0.125000  0.625000  0.125000  1
  Cu  Cu22  1  0.125000  0.125000  0.625000  1
  Cu  Cu23  1  0.625000  0.125000  0.125000  1
  C  C24  1  0.625000  0.125000  0.625000  1
  C  C25  1  0.625000  0.625000  0.125000  1
  C  C26  1  0.125000  0.625000  0.625000  1
  C  C27  1  0.625000  0.625000  0.625000  1
