# generated using pymatgen
data_Tb4Sn4Sb2Rh7
_symmetry_space_group_name_H-M   'P 1'
_cell_length_a   7.63695365
_cell_length_b   7.61590472
_cell_length_c   7.61590359
_cell_angle_alpha   109.08799083
_cell_angle_beta   109.60675382
_cell_angle_gamma   109.60675230
_symmetry_Int_Tables_number   1
_chemical_formula_structural   Tb4Sn4Sb2Rh7
_chemical_formula_sum   'Tb4 Sn4 Sb2 Rh7'
_cell_volume   341.45386859
_cell_formula_units_Z   1
loop_
 _symmetry_equiv_pos_site_id
 _symmetry_equiv_pos_as_xyz
  1  'x, y, z'
loop_
 _atom_site_type_symbol
 _atom_site_label
 _atom_site_symmetry_multiplicity
 _atom_site_fract_x
 _atom_site_fract_y
 _atom_site_fract_z
 _atom_site_occupancy
  Tb  Tb0  1  0.492631  0.998515  0.998515  1
  Tb  Tb1  1  0.997652  0.498826  0.998826  1
  Tb  Tb2  1  0.997652  0.998826  0.498826  1
  Tb  Tb3  1  0.492631  0.494116  0.494116  1
  Sn  Sn4  1  0.994957  0.315060  0.315060  1
  Sn  Sn5  1  0.686690  0.997395  0.689295  1
  Sn  Sn6  1  0.686690  0.689295  0.997395  1
  Sn  Sn7  1  0.994957  0.679897  0.679897  1
  Sb  Sb8  1  0.319757  0.997805  0.321952  1
  Sb  Sb9  1  0.319757  0.321952  0.997805  1
  Rh  Rh10  1  0.014598  0.007299  0.007299  1
  Rh  Rh11  1  0.502138  0.751069  0.251069  1
  Rh  Rh12  1  0.748289  0.501141  0.247148  1
  Rh  Rh13  1  0.250587  0.749414  0.501173  1
  Rh  Rh14  1  0.250587  0.501173  0.749414  1
  Rh  Rh15  1  0.502138  0.251069  0.751069  1
  Rh  Rh16  1  0.748289  0.247148  0.501141  1
