# generated using pymatgen
data_Tm3LuAl8
_symmetry_space_group_name_H-M   'P 1'
_cell_length_a   9.58328530
_cell_length_b   9.58328490
_cell_length_c   9.58328538
_cell_angle_alpha   33.34404928
_cell_angle_beta   33.34405029
_cell_angle_gamma   33.34404979
_symmetry_Int_Tables_number   1
_chemical_formula_structural   Tm3LuAl8
_chemical_formula_sum   'Tm3 Lu1 Al8'
_cell_volume   236.77227342
_cell_formula_units_Z   1
loop_
 _symmetry_equiv_pos_site_id
 _symmetry_equiv_pos_as_xyz
  1  'x, y, z'
loop_
 _atom_site_type_symbol
 _atom_site_label
 _atom_site_symmetry_multiplicity
 _atom_site_fract_x
 _atom_site_fract_y
 _atom_site_fract_z
 _atom_site_occupancy
  Tm  Tm0  1  0.374924  0.374924  0.374924  1
  Tm  Tm1  1  0.999783  0.999783  0.999783  1
  Tm  Tm2  1  0.500317  0.500317  0.500317  1
  Lu  Lu3  1  0.874907  0.874907  0.874907  1
  Al  Al4  1  0.437211  0.936984  0.437211  1
  Al  Al5  1  0.937708  0.438202  0.937708  1
  Al  Al6  1  0.437211  0.437211  0.936984  1
  Al  Al7  1  0.937708  0.937708  0.438202  1
  Al  Al8  1  0.187549  0.187549  0.187549  1
  Al  Al9  1  0.687497  0.687497  0.687497  1
  Al  Al10  1  0.936984  0.437211  0.437211  1
  Al  Al11  1  0.438202  0.937708  0.937708  1
