# generated using pymatgen
data_YBi3O8
_symmetry_space_group_name_H-M   'P 1'
_cell_length_a   5.77409200
_cell_length_b   5.63891683
_cell_length_c   11.56216584
_cell_angle_alpha   68.02155022
_cell_angle_beta   90.00000000
_cell_angle_gamma   90.00000000
_symmetry_Int_Tables_number   1
_chemical_formula_structural   YBi3O8
_chemical_formula_sum   'Y2 Bi6 O16'
_cell_volume   349.10044664
_cell_formula_units_Z   2
loop_
 _symmetry_equiv_pos_site_id
 _symmetry_equiv_pos_as_xyz
  1  'x, y, z'
loop_
 _atom_site_type_symbol
 _atom_site_label
 _atom_site_symmetry_multiplicity
 _atom_site_fract_x
 _atom_site_fract_y
 _atom_site_fract_z
 _atom_site_occupancy
  Y  Y0  1  0.723279  0.500000  0.750000  1
  Y  Y1  1  0.276721  0.500000  0.250000  1
  Bi  Bi2  1  0.298926  0.000000  0.750000  1
  Bi  Bi3  1  0.701074  0.000000  0.250000  1
  Bi  Bi4  1  0.184861  0.751713  0.499529  1
  Bi  Bi5  1  0.184861  0.248287  0.000471  1
  Bi  Bi6  1  0.815139  0.248287  0.500471  1
  Bi  Bi7  1  0.815139  0.751713  0.999529  1
  O  O8  1  0.424393  0.224893  0.870230  1
  O  O9  1  0.424393  0.775107  0.629770  1
  O  O10  1  0.575607  0.775107  0.129770  1
  O  O11  1  0.575607  0.224893  0.370230  1
  O  O12  1  0.947292  0.623324  0.379075  1
  O  O13  1  0.947292  0.376676  0.120925  1
  O  O14  1  0.052708  0.376676  0.620925  1
  O  O15  1  0.052708  0.623324  0.879075  1
  O  O16  1  0.579053  0.720025  0.866921  1
  O  O17  1  0.579053  0.279975  0.633079  1
  O  O18  1  0.420947  0.279975  0.133079  1
  O  O19  1  0.420947  0.720025  0.366921  1
  O  O20  1  0.916965  0.140858  0.888679  1
  O  O21  1  0.083035  0.859142  0.111321  1
  O  O22  1  0.916965  0.859142  0.611321  1
  O  O23  1  0.083035  0.140858  0.388679  1
