# generated using pymatgen
data_U6AgP13PtRh18
_symmetry_space_group_name_H-M   'P 1'
_cell_length_a   13.47082989
_cell_length_b   13.53719756
_cell_length_c   3.88966300
_cell_angle_alpha   90.00000000
_cell_angle_beta   90.00000000
_cell_angle_gamma   119.96411060
_symmetry_Int_Tables_number   1
_chemical_formula_structural   U6AgP13PtRh18
_chemical_formula_sum   'U6 Ag1 P13 Pt1 Rh18'
_cell_volume   614.50111227
_cell_formula_units_Z   1
loop_
 _symmetry_equiv_pos_site_id
 _symmetry_equiv_pos_as_xyz
  1  'x, y, z'
loop_
 _atom_site_type_symbol
 _atom_site_label
 _atom_site_symmetry_multiplicity
 _atom_site_fract_x
 _atom_site_fract_y
 _atom_site_fract_z
 _atom_site_occupancy
  U  U0  1  0.190300  0.472329  0.000000  1
  U  U1  1  0.529422  0.719442  0.000000  1
  U  U2  1  0.281514  0.804790  0.000000  1
  U  U3  1  0.719545  0.187807  0.500000  1
  U  U4  1  0.812294  0.532549  0.500000  1
  U  U5  1  0.468963  0.282928  0.500000  1
  Ag  Ag6  1  0.432675  0.016402  0.500000  1
  P  P7  1  0.387421  0.526451  0.500000  1
  P  P8  1  0.476879  0.855941  0.500000  1
  P  P9  1  0.136792  0.607722  0.500000  1
  P  P10  1  0.774655  0.056251  0.000000  1
  P  P11  1  0.940642  0.709231  0.000000  1
  P  P12  1  0.288892  0.237145  0.000000  1
  P  P13  1  0.058596  0.287924  0.500000  1
  P  P14  1  0.719287  0.771363  0.500000  1
  P  P15  1  0.219178  0.943480  0.500000  1
  P  P16  1  0.532054  0.148142  0.000000  1
  P  P17  1  0.863689  0.387886  0.000000  1
  P  P18  1  0.609847  0.477205  0.000000  1
  P  P19  1  0.012202  0.006138  0.000000  1
  Pt  Pt20  1  0.671563  0.342653  0.000000  1
  Rh  Rh21  1  0.979985  0.417428  0.500000  1
  Rh  Rh22  1  0.583019  0.564326  0.500000  1
  Rh  Rh23  1  0.418696  0.443454  0.000000  1
  Rh  Rh24  1  0.569654  0.984199  0.000000  1
  Rh  Rh25  1  0.020826  0.579825  0.000000  1
  Rh  Rh26  1  0.922203  0.253083  0.000000  1
  Rh  Rh27  1  0.747037  0.673955  0.000000  1
  Rh  Rh28  1  0.327207  0.086920  0.000000  1
  Rh  Rh29  1  0.331306  0.664371  0.500000  1
  Rh  Rh30  1  0.902969  0.097760  0.500000  1
  Rh  Rh31  1  0.907952  0.807214  0.500000  1
  Rh  Rh32  1  0.138052  0.062446  0.500000  1
  Rh  Rh33  1  0.099766  0.199222  0.000000  1
  Rh  Rh34  1  0.820617  0.910809  0.000000  1
  Rh  Rh35  1  0.095925  0.894601  0.000000  1
  Rh  Rh36  1  0.256671  0.325391  0.500000  1
  Rh  Rh37  1  0.672509  0.916938  0.500000  1
  Rh  Rh38  1  0.079200  0.744279  0.500000  1
