# generated using pymatgen
data_Tb2Ho6TaTi11Si16
_symmetry_space_group_name_H-M   'P 1'
_cell_length_a   7.04287930
_cell_length_b   7.04407229
_cell_length_c   12.96253496
_cell_angle_alpha   89.98894924
_cell_angle_beta   90.00622629
_cell_angle_gamma   90.01500868
_symmetry_Int_Tables_number   1
_chemical_formula_structural   Tb2Ho6TaTi11Si16
_chemical_formula_sum   'Tb2 Ho6 Ta1 Ti11 Si16'
_cell_volume   643.07846202
_cell_formula_units_Z   1
loop_
 _symmetry_equiv_pos_site_id
 _symmetry_equiv_pos_as_xyz
  1  'x, y, z'
loop_
 _atom_site_type_symbol
 _atom_site_label
 _atom_site_symmetry_multiplicity
 _atom_site_fract_x
 _atom_site_fract_y
 _atom_site_fract_z
 _atom_site_occupancy
  Tb  Tb0  1  0.003065  0.339532  0.533267  1
  Tb  Tb1  1  0.997263  0.659961  0.033244  1
  Ho  Ho2  1  0.339893  0.002438  0.466687  1
  Ho  Ho3  1  0.497368  0.839844  0.716759  1
  Ho  Ho4  1  0.502321  0.159458  0.216406  1
  Ho  Ho5  1  0.839660  0.497318  0.283271  1
  Ho  Ho6  1  0.159575  0.502366  0.783546  1
  Ho  Ho7  1  0.659558  0.997892  0.966641  1
  Ta  Ta8  1  0.327218  0.326817  0.999995  1
  Ti  Ti9  1  0.173404  0.827137  0.250025  1
  Ti  Ti10  1  0.826960  0.173205  0.750021  1
  Ti  Ti11  1  0.672604  0.672885  0.500014  1
  Ti  Ti12  1  0.154094  0.008784  0.876599  1
  Ti  Ti13  1  0.491372  0.651987  0.125669  1
  Ti  Ti14  1  0.508286  0.348020  0.626462  1
  Ti  Ti15  1  0.651872  0.491216  0.874353  1
  Ti  Ti16  1  0.348143  0.508435  0.373577  1
  Ti  Ti17  1  0.847029  0.992048  0.376290  1
  Ti  Ti18  1  0.008893  0.154119  0.123358  1
  Ti  Ti19  1  0.991965  0.847000  0.623687  1
  Si  Si20  1  0.202509  0.129380  0.684829  1
  Si  Si21  1  0.370613  0.702380  0.934374  1
  Si  Si22  1  0.629226  0.297549  0.434572  1
  Si  Si23  1  0.701879  0.369589  0.065489  1
  Si  Si24  1  0.298087  0.630327  0.565352  1
  Si  Si25  1  0.797066  0.870458  0.185004  1
  Si  Si26  1  0.129906  0.201930  0.315280  1
  Si  Si27  1  0.869975  0.797675  0.815098  1
  Si  Si28  1  0.291885  0.953706  0.065030  1
  Si  Si29  1  0.546643  0.791833  0.314987  1
  Si  Si30  1  0.454055  0.207640  0.814138  1
  Si  Si31  1  0.791395  0.547110  0.685219  1
  Si  Si32  1  0.207992  0.453607  0.186036  1
  Si  Si33  1  0.708472  0.045973  0.564838  1
  Si  Si34  1  0.953196  0.290854  0.934835  1
  Si  Si35  1  0.046556  0.709525  0.435048  1
