# generated using pymatgen
data_YTh2CuHg3Au2
_symmetry_space_group_name_H-M   'P 1'
_cell_length_a   7.80734657
_cell_length_b   7.80734860
_cell_length_c   3.99443300
_cell_angle_alpha   90.00000000
_cell_angle_beta   90.00000000
_cell_angle_gamma   119.74952151
_symmetry_Int_Tables_number   1
_chemical_formula_structural   YTh2CuHg3Au2
_chemical_formula_sum   'Y1 Th2 Cu1 Hg3 Au2'
_cell_volume   211.38951007
_cell_formula_units_Z   1
loop_
 _symmetry_equiv_pos_site_id
 _symmetry_equiv_pos_as_xyz
  1  'x, y, z'
loop_
 _atom_site_type_symbol
 _atom_site_label
 _atom_site_symmetry_multiplicity
 _atom_site_fract_x
 _atom_site_fract_y
 _atom_site_fract_z
 _atom_site_occupancy
  Y  Y0  1  0.404786  0.404786  0.000000  1
  Th  Th1  1  0.594510  0.999666  0.000000  1
  Th  Th2  1  0.999666  0.594510  0.000000  1
  Cu  Cu3  1  0.996509  0.996509  0.000000  1
  Hg  Hg4  1  0.250065  0.007408  0.500000  1
  Hg  Hg5  1  0.007408  0.250065  0.500000  1
  Hg  Hg6  1  0.746703  0.746703  0.500000  1
  Au  Au7  1  0.333653  0.666698  0.500000  1
  Au  Au8  1  0.666698  0.333653  0.500000  1
