# generated using pymatgen
data_SrGd4(ThS4)3
_symmetry_space_group_name_H-M   'P 1'
_cell_length_a   3.95887400
_cell_length_b   10.54012831
_cell_length_c   10.80058300
_cell_angle_alpha   89.95460968
_cell_angle_beta   90.00000000
_cell_angle_gamma   90.00000000
_symmetry_Int_Tables_number   1
_chemical_formula_structural   SrGd4(ThS4)3
_chemical_formula_sum   'Sr1 Gd4 Th3 S12'
_cell_volume   450.67621650
_cell_formula_units_Z   1
loop_
 _symmetry_equiv_pos_site_id
 _symmetry_equiv_pos_as_xyz
  1  'x, y, z'
loop_
 _atom_site_type_symbol
 _atom_site_label
 _atom_site_symmetry_multiplicity
 _atom_site_fract_x
 _atom_site_fract_y
 _atom_site_fract_z
 _atom_site_occupancy
  Sr  Sr0  1  0.250000  0.508252  0.306254  1
  Gd  Gd1  1  0.250000  0.186828  0.486995  1
  Gd  Gd2  1  0.750000  0.811136  0.510020  1
  Gd  Gd3  1  0.750000  0.683170  0.012904  1
  Gd  Gd4  1  0.250000  0.316240  0.990868  1
  Th  Th5  1  0.250000  0.998077  0.805930  1
  Th  Th6  1  0.750000  0.994689  0.194815  1
  Th  Th7  1  0.750000  0.495325  0.690513  1
  S  S8  1  0.250000  0.295029  0.730851  1
  S  S9  1  0.750000  0.721766  0.265158  1
  S  S10  1  0.750000  0.801090  0.775569  1
  S  S11  1  0.250000  0.192125  0.224290  1
  S  S12  1  0.250000  0.946697  0.384634  1
  S  S13  1  0.750000  0.054055  0.618665  1
  S  S14  1  0.750000  0.442401  0.111730  1
  S  S15  1  0.250000  0.556633  0.877661  1
  S  S16  1  0.250000  0.871980  0.042503  1
  S  S17  1  0.750000  0.126297  0.952922  1
  S  S18  1  0.750000  0.365772  0.461240  1
  S  S19  1  0.250000  0.632441  0.556481  1
