# generated using pymatgen
data_Er9Lu(RuRh)2
_symmetry_space_group_name_H-M   'P 1'
_cell_length_a   6.33640987
_cell_length_b   7.21318071
_cell_length_c   8.42977230
_cell_angle_alpha   96.71152566
_cell_angle_beta   112.46966644
_cell_angle_gamma   90.04914465
_symmetry_Int_Tables_number   1
_chemical_formula_structural   Er9Lu(RuRh)2
_chemical_formula_sum   'Er9 Lu1 Ru2 Rh2'
_cell_volume   353.16288175
_cell_formula_units_Z   1
loop_
 _symmetry_equiv_pos_site_id
 _symmetry_equiv_pos_as_xyz
  1  'x, y, z'
loop_
 _atom_site_type_symbol
 _atom_site_label
 _atom_site_symmetry_multiplicity
 _atom_site_fract_x
 _atom_site_fract_y
 _atom_site_fract_z
 _atom_site_occupancy
  Er  Er0  1  0.524228  0.080912  0.816291  1
  Er  Er1  1  0.476584  0.917570  0.183548  1
  Er  Er2  1  0.711249  0.416708  0.187721  1
  Er  Er3  1  0.289441  0.584833  0.812515  1
  Er  Er4  1  0.288478  0.312140  0.435246  1
  Er  Er5  1  0.711149  0.688354  0.565754  1
  Er  Er6  1  0.856571  0.183228  0.562550  1
  Er  Er7  1  0.142426  0.816350  0.436381  1
  Er  Er8  1  0.078147  0.247721  0.999167  1
  Lu  Lu9  1  0.923717  0.752406  0.000945  1
  Ru  Ru10  1  0.105068  0.922885  0.783296  1
  Ru  Ru11  1  0.893638  0.075246  0.216298  1
  Rh  Rh12  1  0.323075  0.575388  0.222685  1
  Rh  Rh13  1  0.676230  0.426260  0.777602  1
