# generated using pymatgen
data_Li3YEr2Pt3
_symmetry_space_group_name_H-M   'P 1'
_cell_length_a   7.10722400
_cell_length_b   7.10722239
_cell_length_c   4.05974200
_cell_angle_alpha   90.00000000
_cell_angle_beta   90.00000000
_cell_angle_gamma   120.29181974
_symmetry_Int_Tables_number   1
_chemical_formula_structural   Li3YEr2Pt3
_chemical_formula_sum   'Li3 Y1 Er2 Pt3'
_cell_volume   177.06975096
_cell_formula_units_Z   1
loop_
 _symmetry_equiv_pos_site_id
 _symmetry_equiv_pos_as_xyz
  1  'x, y, z'
loop_
 _atom_site_type_symbol
 _atom_site_label
 _atom_site_symmetry_multiplicity
 _atom_site_fract_x
 _atom_site_fract_y
 _atom_site_fract_z
 _atom_site_occupancy
  Li  Li0  1  0.765214  0.765214  0.000000  1
  Li  Li1  1  0.233966  0.000220  0.000000  1
  Li  Li2  1  0.000220  0.233966  0.000000  1
  Y  Y3  1  0.411220  0.411220  0.500000  1
  Er  Er4  1  0.592296  0.999782  0.500000  1
  Er  Er5  1  0.999782  0.592296  0.500000  1
  Pt  Pt6  1  0.670105  0.331198  0.000000  1
  Pt  Pt7  1  0.331198  0.670105  0.000000  1
  Pt  Pt8  1  0.995999  0.995999  0.500000  1
