# generated using pymatgen
data_TbNd2Y3CoI10
_symmetry_space_group_name_H-M   'P 1'
_cell_length_a   7.78094632
_cell_length_b   9.79522844
_cell_length_c   9.75680821
_cell_angle_alpha   106.96265951
_cell_angle_beta   96.43320548
_cell_angle_gamma   105.16383543
_symmetry_Int_Tables_number   1
_chemical_formula_structural   TbNd2Y3CoI10
_chemical_formula_sum   'Tb1 Nd2 Y3 Co1 I10'
_cell_volume   672.06838751
_cell_formula_units_Z   1
loop_
 _symmetry_equiv_pos_site_id
 _symmetry_equiv_pos_as_xyz
  1  'x, y, z'
loop_
 _atom_site_type_symbol
 _atom_site_label
 _atom_site_symmetry_multiplicity
 _atom_site_fract_x
 _atom_site_fract_y
 _atom_site_fract_z
 _atom_site_occupancy
  Tb  Tb0  1  0.029802  0.717795  0.915272  1
  Nd  Nd1  1  0.887779  0.958904  0.231429  1
  Nd  Nd2  1  0.112127  0.041378  0.768658  1
  Y  Y3  1  0.970509  0.282297  0.084719  1
  Y  Y4  1  0.655471  0.876539  0.836502  1
  Y  Y5  1  0.344446  0.123700  0.163536  1
  Co  Co6  1  0.999927  0.999728  0.999913  1
  I  I7  1  0.649146  0.551078  0.728985  1
  I  I8  1  0.350454  0.448839  0.270869  1
  I  I9  1  0.733831  0.910081  0.540300  1
  I  I10  1  0.266158  0.089954  0.459694  1
  I  I11  1  0.084334  0.375922  0.822149  1
  I  I12  1  0.915528  0.623597  0.178181  1
  I  I13  1  0.449483  0.815883  0.090635  1
  I  I14  1  0.550729  0.184234  0.909462  1
  I  I15  1  0.223420  0.738866  0.655203  1
  I  I16  1  0.776855  0.261207  0.344493  1
