# generated using pymatgen
data_Zr10ZnCuSn5Bi
_symmetry_space_group_name_H-M   'P 1'
_cell_length_a   8.71794614
_cell_length_b   8.71794656
_cell_length_c   5.89845735
_cell_angle_alpha   90.01968336
_cell_angle_beta   90.01968783
_cell_angle_gamma   119.96756595
_symmetry_Int_Tables_number   1
_chemical_formula_structural   Zr10ZnCuSn5Bi
_chemical_formula_sum   'Zr10 Zn1 Cu1 Sn5 Bi1'
_cell_volume   388.36421211
_cell_formula_units_Z   1
loop_
 _symmetry_equiv_pos_site_id
 _symmetry_equiv_pos_as_xyz
  1  'x, y, z'
loop_
 _atom_site_type_symbol
 _atom_site_label
 _atom_site_symmetry_multiplicity
 _atom_site_fract_x
 _atom_site_fract_y
 _atom_site_fract_z
 _atom_site_occupancy
  Zr  Zr0  1  0.668968  0.332955  0.501609  1
  Zr  Zr1  1  0.332955  0.668968  0.501609  1
  Zr  Zr2  1  0.332978  0.669174  0.998355  1
  Zr  Zr3  1  0.669174  0.332978  0.998355  1
  Zr  Zr4  1  0.737882  0.737882  0.247507  1
  Zr  Zr5  1  0.262664  0.994865  0.247868  1
  Zr  Zr6  1  0.994865  0.262664  0.247868  1
  Zr  Zr7  1  0.264820  0.264820  0.752024  1
  Zr  Zr8  1  0.734517  0.000672  0.752347  1
  Zr  Zr9  1  0.000672  0.734517  0.752347  1
  Zn  Zn10  1  0.999942  0.999942  0.501828  1
  Cu  Cu11  1  0.999916  0.999916  0.998084  1
  Sn  Sn12  1  0.613577  0.999310  0.250002  1
  Sn  Sn13  1  0.999310  0.613577  0.250002  1
  Sn  Sn14  1  0.616258  0.616258  0.749811  1
  Sn  Sn15  1  0.385426  0.001006  0.750083  1
  Sn  Sn16  1  0.001006  0.385426  0.750083  1
  Bi  Bi17  1  0.385073  0.385073  0.250218  1
