# generated using pymatgen
data_Li3Sc5P12(IrRh3)4
_symmetry_space_group_name_H-M   'P 1'
_cell_length_a   12.59003000
_cell_length_b   12.59002929
_cell_length_c   3.87915500
_cell_angle_alpha   90.00000000
_cell_angle_beta   90.00000000
_cell_angle_gamma   120.00000185
_symmetry_Int_Tables_number   1
_chemical_formula_structural   Li3Sc5P12(IrRh3)4
_chemical_formula_sum   'Li3 Sc5 P12 Ir4 Rh12'
_cell_volume   532.50202335
_cell_formula_units_Z   1
loop_
 _symmetry_equiv_pos_site_id
 _symmetry_equiv_pos_as_xyz
  1  'x, y, z'
loop_
 _atom_site_type_symbol
 _atom_site_label
 _atom_site_symmetry_multiplicity
 _atom_site_fract_x
 _atom_site_fract_y
 _atom_site_fract_z
 _atom_site_occupancy
  Li  Li0  1  0.441720  0.999532  0.000000  1
  Li  Li1  1  0.000468  0.442189  0.000000  1
  Li  Li2  1  0.557811  0.558280  0.000000  1
  Sc  Sc3  1  0.333333  0.666667  0.000000  1
  Sc  Sc4  1  0.666667  0.333333  0.000000  1
  Sc  Sc5  1  0.807541  0.000525  0.500000  1
  Sc  Sc6  1  0.999475  0.807016  0.500000  1
  Sc  Sc7  1  0.192984  0.192459  0.500000  1
  P  P8  1  0.178510  0.999819  0.000000  1
  P  P9  1  0.000181  0.178691  0.000000  1
  P  P10  1  0.821309  0.821490  0.000000  1
  P  P11  1  0.175674  0.485485  0.500000  1
  P  P12  1  0.514515  0.690188  0.500000  1
  P  P13  1  0.309812  0.824326  0.500000  1
  P  P14  1  0.690179  0.514677  0.500000  1
  P  P15  1  0.824496  0.309821  0.500000  1
  P  P16  1  0.485323  0.175504  0.500000  1
  P  P17  1  0.633665  0.000190  0.000000  1
  P  P18  1  0.999810  0.633475  0.000000  1
  P  P19  1  0.366525  0.366335  0.000000  1
  Ir  Ir20  1  0.808107  0.627297  0.000000  1
  Ir  Ir21  1  0.819191  0.191893  0.000000  1
  Ir  Ir22  1  0.372703  0.180809  0.000000  1
  Ir  Ir23  1  0.000000  0.000000  0.000000  1
  Rh  Rh24  1  0.361343  0.491702  0.500000  1
  Rh  Rh25  1  0.508298  0.869641  0.500000  1
  Rh  Rh26  1  0.130359  0.638657  0.500000  1
  Rh  Rh27  1  0.870155  0.508221  0.500000  1
  Rh  Rh28  1  0.638066  0.129845  0.500000  1
  Rh  Rh29  1  0.491779  0.361934  0.500000  1
  Rh  Rh30  1  0.180623  0.373690  0.000000  1
  Rh  Rh31  1  0.626310  0.806934  0.000000  1
  Rh  Rh32  1  0.193066  0.819377  0.000000  1
  Rh  Rh33  1  0.279892  0.999260  0.500000  1
  Rh  Rh34  1  0.000740  0.280631  0.500000  1
  Rh  Rh35  1  0.719369  0.720108  0.500000  1
