# generated using pymatgen
data_SrSc2(SiIr2)3
_symmetry_space_group_name_H-M   'P 1'
_cell_length_a   5.54207600
_cell_length_b   5.54207684
_cell_length_c   14.94779400
_cell_angle_alpha   90.00000000
_cell_angle_beta   90.00000000
_cell_angle_gamma   120.00000692
_symmetry_Int_Tables_number   1
_chemical_formula_structural   SrSc2(SiIr2)3
_chemical_formula_sum   'Sr2 Sc4 Si6 Ir12'
_cell_volume   397.60581342
_cell_formula_units_Z   2
loop_
 _symmetry_equiv_pos_site_id
 _symmetry_equiv_pos_as_xyz
  1  'x, y, z'
loop_
 _atom_site_type_symbol
 _atom_site_label
 _atom_site_symmetry_multiplicity
 _atom_site_fract_x
 _atom_site_fract_y
 _atom_site_fract_z
 _atom_site_occupancy
  Sr  Sr0  1  0.333333  0.666667  0.750000  1
  Sr  Sr1  1  0.666667  0.333333  0.250000  1
  Sc  Sc2  1  0.333333  0.666667  0.538011  1
  Sc  Sc3  1  0.666667  0.333333  0.461989  1
  Sc  Sc4  1  0.666667  0.333333  0.038011  1
  Sc  Sc5  1  0.333333  0.666667  0.961989  1
  Si  Si6  1  0.000000  0.000000  0.250000  1
  Si  Si7  1  0.000000  0.000000  0.750000  1
  Si  Si8  1  0.333333  0.666667  0.250000  1
  Si  Si9  1  0.666667  0.333333  0.750000  1
  Si  Si10  1  0.000000  0.000000  0.000000  1
  Si  Si11  1  0.000000  0.000000  0.500000  1
  Ir  Ir12  1  0.168637  0.337276  0.125069  1
  Ir  Ir13  1  0.831363  0.662724  0.874931  1
  Ir  Ir14  1  0.662724  0.831363  0.125069  1
  Ir  Ir15  1  0.831363  0.662724  0.625069  1
  Ir  Ir16  1  0.337276  0.168637  0.874931  1
  Ir  Ir17  1  0.168637  0.337276  0.374931  1
  Ir  Ir18  1  0.168637  0.831363  0.125069  1
  Ir  Ir19  1  0.337276  0.168637  0.625069  1
  Ir  Ir20  1  0.831363  0.168637  0.874931  1
  Ir  Ir21  1  0.662724  0.831363  0.374931  1
  Ir  Ir22  1  0.831363  0.168637  0.625069  1
  Ir  Ir23  1  0.168637  0.831363  0.374931  1
