# generated using pymatgen
data_Ca3Eu(NiH6)2
_symmetry_space_group_name_H-M   'P 1'
_cell_length_a   7.07486192
_cell_length_b   7.07486265
_cell_length_c   5.04320788
_cell_angle_alpha   90.02777845
_cell_angle_beta   90.02778312
_cell_angle_gamma   138.11965278
_symmetry_Int_Tables_number   1
_chemical_formula_structural   Ca3Eu(NiH6)2
_chemical_formula_sum   'Ca3 Eu1 Ni2 H12'
_cell_volume   168.51709189
_cell_formula_units_Z   1
loop_
 _symmetry_equiv_pos_site_id
 _symmetry_equiv_pos_as_xyz
  1  'x, y, z'
loop_
 _atom_site_type_symbol
 _atom_site_label
 _atom_site_symmetry_multiplicity
 _atom_site_fract_x
 _atom_site_fract_y
 _atom_site_fract_z
 _atom_site_occupancy
  Ca  Ca0  1  0.647252  0.352748  0.000000  1
  Ca  Ca1  1  0.854538  0.145462  0.500000  1
  Ca  Ca2  1  0.355624  0.644376  0.000000  1
  Eu  Eu3  1  0.143994  0.856006  0.500000  1
  Ni  Ni4  1  0.499326  0.500674  0.500000  1
  Ni  Ni5  1  0.999367  0.000633  0.000000  1
  H  H6  1  0.000212  0.498829  0.750881  1
  H  H7  1  0.501171  0.999788  0.249119  1
  H  H8  1  0.000712  0.499294  0.248954  1
  H  H9  1  0.500706  0.999288  0.751046  1
  H  H10  1  0.380916  0.619084  0.500000  1
  H  H11  1  0.881096  0.118904  0.000000  1
  H  H12  1  0.618189  0.381811  0.500000  1
  H  H13  1  0.118078  0.881922  0.000000  1
  H  H14  1  0.253385  0.253998  0.744041  1
  H  H15  1  0.746002  0.746615  0.255959  1
  H  H16  1  0.243959  0.244525  0.247218  1
  H  H17  1  0.755475  0.756041  0.752782  1
