# generated using pymatgen
data_SrYbCdBi2
_symmetry_space_group_name_H-M   'P 1'
_cell_length_a   4.85217067
_cell_length_b   7.46548500
_cell_length_c   9.61351827
_cell_angle_alpha   90.00000000
_cell_angle_beta   75.38268741
_cell_angle_gamma   90.00000000
_symmetry_Int_Tables_number   1
_chemical_formula_structural   SrYbCdBi2
_chemical_formula_sum   'Sr2 Yb2 Cd2 Bi4'
_cell_volume   336.96679327
_cell_formula_units_Z   2
loop_
 _symmetry_equiv_pos_site_id
 _symmetry_equiv_pos_as_xyz
  1  'x, y, z'
loop_
 _atom_site_type_symbol
 _atom_site_label
 _atom_site_symmetry_multiplicity
 _atom_site_fract_x
 _atom_site_fract_y
 _atom_site_fract_z
 _atom_site_occupancy
  Sr  Sr0  1  0.301587  0.527201  0.396826  1
  Sr  Sr1  1  0.698413  0.027200  0.603174  1
  Yb  Yb2  1  0.481917  0.220735  0.036168  1
  Yb  Yb3  1  0.518083  0.720736  0.963832  1
  Cd  Cd4  1  0.905130  0.895052  0.189738  1
  Cd  Cd5  1  0.094870  0.395052  0.810261  1
  Bi  Bi6  1  0.934784  0.495484  0.130431  1
  Bi  Bi7  1  0.327679  0.017389  0.344644  1
  Bi  Bi8  1  0.672322  0.517389  0.655355  1
  Bi  Bi9  1  0.065217  0.995483  0.869568  1
