# generated using pymatgen
data_Hf4FeMoIr2
_symmetry_space_group_name_H-M   'P 1'
_cell_length_a   6.55280000
_cell_length_b   4.58612100
_cell_length_c   9.15353400
_cell_angle_alpha   90.00000000
_cell_angle_beta   89.99996373
_cell_angle_gamma   90.00000000
_symmetry_Int_Tables_number   1
_chemical_formula_structural   Hf4FeMoIr2
_chemical_formula_sum   'Hf8 Fe2 Mo2 Ir4'
_cell_volume   275.08139679
_cell_formula_units_Z   2
loop_
 _symmetry_equiv_pos_site_id
 _symmetry_equiv_pos_as_xyz
  1  'x, y, z'
loop_
 _atom_site_type_symbol
 _atom_site_label
 _atom_site_symmetry_multiplicity
 _atom_site_fract_x
 _atom_site_fract_y
 _atom_site_fract_z
 _atom_site_occupancy
  Hf  Hf0  1  0.001634  0.750001  0.122679  1
  Hf  Hf1  1  0.498408  0.750001  0.122687  1
  Hf  Hf2  1  0.998377  0.250000  0.377332  1
  Hf  Hf3  1  0.501663  0.250000  0.377339  1
  Hf  Hf4  1  0.501112  0.750001  0.627125  1
  Hf  Hf5  1  0.998854  0.750001  0.627123  1
  Hf  Hf6  1  0.498887  0.250000  0.872870  1
  Hf  Hf7  1  0.001075  0.250000  0.872868  1
  Fe  Fe8  1  0.749982  0.250000  0.627549  1
  Fe  Fe9  1  0.249982  0.750001  0.872430  1
  Mo  Mo10  1  0.750012  0.250000  0.123021  1
  Mo  Mo11  1  0.250013  0.750001  0.376970  1
  Ir  Ir12  1  0.250015  0.250000  0.121338  1
  Ir  Ir13  1  0.750016  0.750001  0.378683  1
  Ir  Ir14  1  0.249986  0.250000  0.628611  1
  Ir  Ir15  1  0.749984  0.750001  0.871376  1
