# generated using pymatgen
data_Zr2MnCo3
_symmetry_space_group_name_H-M   'P 1'
_cell_length_a   5.01588180
_cell_length_b   5.01588229
_cell_length_c   4.87202601
_cell_angle_alpha   59.01835524
_cell_angle_beta   59.01834877
_cell_angle_gamma   60.00000614
_symmetry_Int_Tables_number   1
_chemical_formula_structural   Zr2MnCo3
_chemical_formula_sum   'Zr2 Mn1 Co3'
_cell_volume   85.36570246
_cell_formula_units_Z   1
loop_
 _symmetry_equiv_pos_site_id
 _symmetry_equiv_pos_as_xyz
  1  'x, y, z'
loop_
 _atom_site_type_symbol
 _atom_site_label
 _atom_site_symmetry_multiplicity
 _atom_site_fract_x
 _atom_site_fract_y
 _atom_site_fract_z
 _atom_site_occupancy
  Zr  Zr0  1  0.751088  0.751088  0.746735  1
  Zr  Zr1  1  0.498912  0.498912  0.503265  1
  Mn  Mn2  1  0.125000  0.125000  0.625000  1
  Co  Co3  1  0.125000  0.625000  0.125000  1
  Co  Co4  1  0.625000  0.125000  0.125000  1
  Co  Co5  1  0.125000  0.125000  0.125000  1
