# generated using pymatgen
data_Tb2Zr4Pb5
_symmetry_space_group_name_H-M   'P 1'
_cell_length_a   6.11198940
_cell_length_b   9.26324886
_cell_length_c   11.38886630
_cell_angle_alpha   113.99645712
_cell_angle_beta   105.56502397
_cell_angle_gamma   90.00000119
_symmetry_Int_Tables_number   1
_chemical_formula_structural   Tb2Zr4Pb5
_chemical_formula_sum   'Tb4 Zr8 Pb10'
_cell_volume   563.08954483
_cell_formula_units_Z   2
loop_
 _symmetry_equiv_pos_site_id
 _symmetry_equiv_pos_as_xyz
  1  'x, y, z'
loop_
 _atom_site_type_symbol
 _atom_site_label
 _atom_site_symmetry_multiplicity
 _atom_site_fract_x
 _atom_site_fract_y
 _atom_site_fract_z
 _atom_site_occupancy
  Tb  Tb0  1  0.143293  0.255477  0.286585  1
  Tb  Tb1  1  0.856707  0.744523  0.713415  1
  Tb  Tb2  1  0.643293  0.031108  0.286585  1
  Tb  Tb3  1  0.356707  0.968892  0.713415  1
  Zr  Zr4  1  0.561548  0.311548  0.623095  1
  Zr  Zr5  1  0.438452  0.688452  0.376905  1
  Zr  Zr6  1  0.938452  0.688452  0.376905  1
  Zr  Zr7  1  0.061548  0.311548  0.623095  1
  Zr  Zr8  1  0.436021  0.674234  0.872043  1
  Zr  Zr9  1  0.563979  0.325766  0.127957  1
  Zr  Zr10  1  0.936021  0.197808  0.872043  1
  Zr  Zr11  1  0.063979  0.802192  0.127957  1
  Pb  Pb12  1  0.289332  0.589392  0.578662  1
  Pb  Pb13  1  0.710668  0.410608  0.421338  1
  Pb  Pb14  1  0.789332  0.989270  0.578662  1
  Pb  Pb15  1  0.210668  0.010730  0.421338  1
  Pb  Pb16  1  0.250000  0.000000  0.000000  1
  Pb  Pb17  1  0.750000  0.000000  0.000000  1
  Pb  Pb18  1  0.067250  0.465071  0.134501  1
  Pb  Pb19  1  0.932750  0.534929  0.865499  1
  Pb  Pb20  1  0.567250  0.669429  0.134501  1
  Pb  Pb21  1  0.432750  0.330571  0.865499  1
