# generated using pymatgen
data_Y12Co4AgBi
_symmetry_space_group_name_H-M   'P 1'
_cell_length_a   8.43252084
_cell_length_b   8.43252096
_cell_length_c   8.43252010
_cell_angle_alpha   109.71664107
_cell_angle_beta   111.32992740
_cell_angle_gamma   107.39115200
_symmetry_Int_Tables_number   1
_chemical_formula_structural   Y12Co4AgBi
_chemical_formula_sum   'Y12 Co4 Ag1 Bi1'
_cell_volume   461.03434803
_cell_formula_units_Z   1
loop_
 _symmetry_equiv_pos_site_id
 _symmetry_equiv_pos_as_xyz
  1  'x, y, z'
loop_
 _atom_site_type_symbol
 _atom_site_label
 _atom_site_symmetry_multiplicity
 _atom_site_fract_x
 _atom_site_fract_y
 _atom_site_fract_z
 _atom_site_occupancy
  Y  Y0  1  0.291130  0.184481  0.475611  1
  Y  Y1  1  0.708870  0.815519  0.524389  1
  Y  Y2  1  0.291130  0.815519  0.106650  1
  Y  Y3  1  0.708870  0.184481  0.893350  1
  Y  Y4  1  0.619012  0.312519  0.306493  1
  Y  Y5  1  0.380988  0.687481  0.693507  1
  Y  Y6  1  0.006026  0.312519  0.693507  1
  Y  Y7  1  0.993974  0.687481  0.306493  1
  Y  Y8  1  0.215255  0.422590  0.207336  1
  Y  Y9  1  0.784745  0.577410  0.792664  1
  Y  Y10  1  0.215255  0.007919  0.792664  1
  Y  Y11  1  0.784745  0.992081  0.207336  1
  Co  Co12  1  0.000000  0.381332  0.381332  1
  Co  Co13  1  0.000000  0.618668  0.618668  1
  Co  Co14  1  0.388701  0.888701  0.500000  1
  Co  Co15  1  0.611299  0.111299  0.500000  1
  Ag  Ag16  1  0.000000  0.000000  0.000000  1
  Bi  Bi17  1  0.500000  0.500000  0.000000  1
