# generated using pymatgen
data_NdHo2Mg3Sn2Hg
_symmetry_space_group_name_H-M   'P 1'
_cell_length_a   7.49137000
_cell_length_b   7.56988475
_cell_length_c   4.62240400
_cell_angle_alpha   90.00000000
_cell_angle_beta   90.00000000
_cell_angle_gamma   119.65749516
_symmetry_Int_Tables_number   1
_chemical_formula_structural   NdHo2Mg3Sn2Hg
_chemical_formula_sum   'Nd1 Ho2 Mg3 Sn2 Hg1'
_cell_volume   227.79154888
_cell_formula_units_Z   1
loop_
 _symmetry_equiv_pos_site_id
 _symmetry_equiv_pos_as_xyz
  1  'x, y, z'
loop_
 _atom_site_type_symbol
 _atom_site_label
 _atom_site_symmetry_multiplicity
 _atom_site_fract_x
 _atom_site_fract_y
 _atom_site_fract_z
 _atom_site_occupancy
  Nd  Nd0  1  0.418440  0.000000  0.000000  1
  Ho  Ho1  1  0.002697  0.418726  0.000000  1
  Ho  Ho2  1  0.583971  0.581274  0.000000  1
  Mg  Mg3  1  0.000558  0.762561  0.500000  1
  Mg  Mg4  1  0.237997  0.237439  0.500000  1
  Mg  Mg5  1  0.760981  0.000000  0.500000  1
  Sn  Sn6  1  0.672724  0.340949  0.500000  1
  Sn  Sn7  1  0.331774  0.659051  0.500000  1
  Hg  Hg8  1  0.990858  0.000000  0.000000  1
