# generated using pymatgen
data_Dy5Lu5(SiBi)4
_symmetry_space_group_name_H-M   'P 1'
_cell_length_a   8.46772637
_cell_length_b   8.67943620
_cell_length_c   7.83733102
_cell_angle_alpha   90.14690916
_cell_angle_beta   90.11071135
_cell_angle_gamma   125.73169121
_symmetry_Int_Tables_number   1
_chemical_formula_structural   Dy5Lu5(SiBi)4
_chemical_formula_sum   'Dy5 Lu5 Si4 Bi4'
_cell_volume   467.57276295
_cell_formula_units_Z   1
loop_
 _symmetry_equiv_pos_site_id
 _symmetry_equiv_pos_as_xyz
  1  'x, y, z'
loop_
 _atom_site_type_symbol
 _atom_site_label
 _atom_site_symmetry_multiplicity
 _atom_site_fract_x
 _atom_site_fract_y
 _atom_site_fract_z
 _atom_site_occupancy
  Dy  Dy0  1  0.799493  0.548124  0.167941  1
  Dy  Dy1  1  0.538701  0.779994  0.163875  1
  Dy  Dy2  1  0.202198  0.452445  0.831722  1
  Dy  Dy3  1  0.700999  0.951524  0.667532  1
  Dy  Dy4  1  0.297941  0.046482  0.332801  1
  Lu  Lu5  1  0.038896  0.273233  0.338223  1
  Lu  Lu6  1  0.959966  0.724249  0.661835  1
  Lu  Lu7  1  0.460799  0.225008  0.838152  1
  Lu  Lu8  1  0.000831  0.000946  0.999298  1
  Lu  Lu9  1  0.499887  0.498695  0.500542  1
  Si  Si10  1  0.364204  0.363376  0.135010  1
  Si  Si11  1  0.636093  0.635345  0.864717  1
  Si  Si12  1  0.135191  0.134290  0.633807  1
  Si  Si13  1  0.866358  0.864699  0.367158  1
  Bi  Bi14  1  0.785061  0.201368  0.012134  1
  Bi  Bi15  1  0.217617  0.804373  0.983288  1
  Bi  Bi16  1  0.718938  0.302089  0.514556  1
  Bi  Bi17  1  0.276827  0.693761  0.487408  1
