# generated using pymatgen
data_Pr2Mn2(Re5C)3
_symmetry_space_group_name_H-M   'P 1'
_cell_length_a   7.00889360
_cell_length_b   7.00889482
_cell_length_c   7.00638400
_cell_angle_alpha   82.59010539
_cell_angle_beta   82.59010281
_cell_angle_gamma   83.00770408
_symmetry_Int_Tables_number   1
_chemical_formula_structural   Pr2Mn2(Re5C)3
_chemical_formula_sum   'Pr2 Mn2 Re15 C3'
_cell_volume   336.52237220
_cell_formula_units_Z   1
loop_
 _symmetry_equiv_pos_site_id
 _symmetry_equiv_pos_as_xyz
  1  'x, y, z'
loop_
 _atom_site_type_symbol
 _atom_site_label
 _atom_site_symmetry_multiplicity
 _atom_site_fract_x
 _atom_site_fract_y
 _atom_site_fract_z
 _atom_site_occupancy
  Pr  Pr0  1  0.648237  0.648237  0.646762  1
  Pr  Pr1  1  0.351763  0.351763  0.353238  1
  Mn  Mn2  1  0.500000  0.000000  0.000000  1
  Mn  Mn3  1  0.000000  0.500000  0.000000  1
  Re  Re4  1  0.000000  0.000000  0.500000  1
  Re  Re5  1  0.721122  0.278878  0.000000  1
  Re  Re6  1  0.000629  0.719653  0.275226  1
  Re  Re7  1  0.280347  0.999371  0.724774  1
  Re  Re8  1  0.999371  0.280347  0.724774  1
  Re  Re9  1  0.719653  0.000629  0.275226  1
  Re  Re10  1  0.278878  0.721122  0.000000  1
  Re  Re11  1  0.350115  0.862547  0.343485  1
  Re  Re12  1  0.343547  0.343547  0.866729  1
  Re  Re13  1  0.862547  0.350115  0.343485  1
  Re  Re14  1  0.649885  0.137453  0.656515  1
  Re  Re15  1  0.656453  0.656453  0.133271  1
  Re  Re16  1  0.137453  0.649885  0.656515  1
  Re  Re17  1  0.900421  0.900421  0.903079  1
  Re  Re18  1  0.099579  0.099579  0.096921  1
  C  C19  1  0.500000  0.500000  0.000000  1
  C  C20  1  0.000000  0.500000  0.500000  1
  C  C21  1  0.500000  0.000000  0.500000  1
