# generated using pymatgen
data_Er5RuPb2
_symmetry_space_group_name_H-M   'P 1'
_cell_length_a   7.82636600
_cell_length_b   9.04846900
_cell_length_c   12.24319100
_cell_angle_alpha   90.00000000
_cell_angle_beta   90.00000000
_cell_angle_gamma   90.00000000
_symmetry_Int_Tables_number   1
_chemical_formula_structural   Er5RuPb2
_chemical_formula_sum   'Er20 Ru4 Pb8'
_cell_volume   867.02152870
_cell_formula_units_Z   4
loop_
 _symmetry_equiv_pos_site_id
 _symmetry_equiv_pos_as_xyz
  1  'x, y, z'
loop_
 _atom_site_type_symbol
 _atom_site_label
 _atom_site_symmetry_multiplicity
 _atom_site_fract_x
 _atom_site_fract_y
 _atom_site_fract_z
 _atom_site_occupancy
  Er  Er0  1  0.657591  0.750000  0.711208  1
  Er  Er1  1  0.342409  0.250000  0.288792  1
  Er  Er2  1  0.157591  0.250000  0.788792  1
  Er  Er3  1  0.842409  0.750000  0.211208  1
  Er  Er4  1  0.125419  0.750000  0.808063  1
  Er  Er5  1  0.874581  0.250000  0.191937  1
  Er  Er6  1  0.625419  0.250000  0.691937  1
  Er  Er7  1  0.374581  0.750000  0.308063  1
  Er  Er8  1  0.547402  0.750000  0.995858  1
  Er  Er9  1  0.452598  0.250000  0.004142  1
  Er  Er10  1  0.047402  0.250000  0.504142  1
  Er  Er11  1  0.952598  0.750000  0.495858  1
  Er  Er12  1  0.825114  0.462075  0.930390  1
  Er  Er13  1  0.174886  0.537925  0.069610  1
  Er  Er14  1  0.325114  0.537925  0.569610  1
  Er  Er15  1  0.174886  0.962075  0.069610  1
  Er  Er16  1  0.674886  0.462075  0.430390  1
  Er  Er17  1  0.825114  0.037925  0.930390  1
  Er  Er18  1  0.674886  0.037925  0.430390  1
  Er  Er19  1  0.325114  0.962075  0.569610  1
  Ru  Ru20  1  0.926422  0.750000  0.992041  1
  Ru  Ru21  1  0.073578  0.250000  0.007959  1
  Ru  Ru22  1  0.426422  0.250000  0.507959  1
  Ru  Ru23  1  0.573578  0.750000  0.492041  1
  Pb  Pb24  1  0.932582  0.004318  0.671530  1
  Pb  Pb25  1  0.067418  0.995682  0.328470  1
  Pb  Pb26  1  0.432582  0.995682  0.828470  1
  Pb  Pb27  1  0.067418  0.504318  0.328470  1
  Pb  Pb28  1  0.567418  0.004318  0.171530  1
  Pb  Pb29  1  0.932582  0.495682  0.671530  1
  Pb  Pb30  1  0.567418  0.495682  0.171530  1
  Pb  Pb31  1  0.432582  0.504318  0.828470  1
