# generated using pymatgen
data_Ho3Co2P6Ir6W
_symmetry_space_group_name_H-M   'P 1'
_cell_length_a   3.88575800
_cell_length_b   11.01173400
_cell_length_c   12.73182700
_cell_angle_alpha   90.00000000
_cell_angle_beta   90.00000000
_cell_angle_gamma   90.00000000
_symmetry_Int_Tables_number   1
_chemical_formula_structural   Ho3Co2P6Ir6W
_chemical_formula_sum   'Ho6 Co4 P12 Ir12 W2'
_cell_volume   544.78129864
_cell_formula_units_Z   2
loop_
 _symmetry_equiv_pos_site_id
 _symmetry_equiv_pos_as_xyz
  1  'x, y, z'
loop_
 _atom_site_type_symbol
 _atom_site_label
 _atom_site_symmetry_multiplicity
 _atom_site_fract_x
 _atom_site_fract_y
 _atom_site_fract_z
 _atom_site_occupancy
  Ho  Ho0  1  0.000000  0.500000  0.522241  1
  Ho  Ho1  1  0.500000  0.000000  0.477092  1
  Ho  Ho2  1  0.500000  0.821133  0.198392  1
  Ho  Ho3  1  0.500000  0.178867  0.198392  1
  Ho  Ho4  1  0.000000  0.684032  0.801789  1
  Ho  Ho5  1  0.000000  0.315968  0.801789  1
  Co  Co6  1  0.000000  0.500000  0.993420  1
  Co  Co7  1  0.500000  0.000000  0.010817  1
  Co  Co8  1  0.000000  0.162531  0.009328  1
  Co  Co9  1  0.000000  0.837469  0.009328  1
  P  P10  1  0.500000  0.314613  0.619771  1
  P  P11  1  0.500000  0.685387  0.619771  1
  P  P12  1  0.000000  0.185050  0.379672  1
  P  P13  1  0.000000  0.814950  0.379672  1
  P  P14  1  0.500000  0.500000  0.881830  1
  P  P15  1  0.000000  0.000000  0.112292  1
  P  P16  1  0.500000  0.850788  0.896911  1
  P  P17  1  0.500000  0.149212  0.896911  1
  P  P18  1  0.000000  0.658118  0.103723  1
  P  P19  1  0.000000  0.341882  0.103723  1
  P  P20  1  0.500000  0.500000  0.346601  1
  P  P21  1  0.000000  0.000000  0.655099  1
  Ir  Ir22  1  0.500000  0.296515  0.430373  1
  Ir  Ir23  1  0.500000  0.703485  0.430373  1
  Ir  Ir24  1  0.000000  0.203175  0.569242  1
  Ir  Ir25  1  0.000000  0.796825  0.569242  1
  Ir  Ir26  1  0.500000  0.872302  0.716214  1
  Ir  Ir27  1  0.500000  0.127698  0.716214  1
  Ir  Ir28  1  0.000000  0.629059  0.282749  1
  Ir  Ir29  1  0.000000  0.370941  0.282749  1
  Ir  Ir30  1  0.500000  0.330617  0.990580  1
  Ir  Ir31  1  0.500000  0.669383  0.990580  1
  Ir  Ir32  1  0.500000  0.500000  0.702421  1
  Ir  Ir33  1  0.000000  0.000000  0.296024  1
  W  W34  1  0.500000  0.500000  0.157811  1
  W  W35  1  0.000000  0.000000  0.846866  1
