# generated using pymatgen
data_Nb2H13
_symmetry_space_group_name_H-M   'P 1'
_cell_length_a   3.13066882
_cell_length_b   2.94476122
_cell_length_c   21.14601066
_cell_angle_alpha   92.43560465
_cell_angle_beta   84.23506257
_cell_angle_gamma   57.02754817
_symmetry_Int_Tables_number   1
_chemical_formula_structural   Nb2H13
_chemical_formula_sum   'Nb2 H13'
_cell_volume   161.61360976
_cell_formula_units_Z   1
loop_
 _symmetry_equiv_pos_site_id
 _symmetry_equiv_pos_as_xyz
  1  'x, y, z'
loop_
 _atom_site_type_symbol
 _atom_site_label
 _atom_site_symmetry_multiplicity
 _atom_site_fract_x
 _atom_site_fract_y
 _atom_site_fract_z
 _atom_site_occupancy
  Nb  Nb0  1  0.673628  0.292760  0.470864  1
  Nb  Nb1  1  0.025366  0.179395  0.592916  1
  H  H2  1  0.341374  0.972779  0.149524  1
  H  H3  1  0.850614  0.850893  0.021256  1
  H  H4  1  0.741421  0.091391  0.002636  1
  H  H5  1  0.661673  0.597028  0.762725  1
  H  H6  1  0.355075  0.237241  0.880306  1
  H  H7  1  0.780138  0.386395  0.785379  1
  H  H8  1  0.959427  0.677715  0.279841  1
  H  H9  1  0.304113  0.545603  0.643401  1
  H  H10  1  0.399524  0.925537  0.419854  1
  H  H11  1  0.170758  0.470514  0.905321  1
  H  H12  1  0.759095  0.795168  0.539229  1
  H  H13  1  0.353106  0.762658  0.126832  1
  H  H14  1  0.160946  0.647572  0.254466  1
