# generated using pymatgen
data_Er4ReSi4Ir
_symmetry_space_group_name_H-M   'P 1'
_cell_length_a   5.69349714
_cell_length_b   5.69349749
_cell_length_c   9.97128982
_cell_angle_alpha   116.55640347
_cell_angle_beta   116.55640378
_cell_angle_gamma   43.47046332
_symmetry_Int_Tables_number   1
_chemical_formula_structural   Er4ReSi4Ir
_chemical_formula_sum   'Er4 Re1 Si4 Ir1'
_cell_volume   194.92447239
_cell_formula_units_Z   1
loop_
 _symmetry_equiv_pos_site_id
 _symmetry_equiv_pos_as_xyz
  1  'x, y, z'
loop_
 _atom_site_type_symbol
 _atom_site_label
 _atom_site_symmetry_multiplicity
 _atom_site_fract_x
 _atom_site_fract_y
 _atom_site_fract_z
 _atom_site_occupancy
  Er  Er0  1  0.186729  0.186729  0.111246  1
  Er  Er1  1  0.990265  0.990265  0.319815  1
  Er  Er2  1  0.006646  0.006646  0.679650  1
  Er  Er3  1  0.816520  0.816520  0.889990  1
  Re  Re4  1  0.271106  0.271106  0.627204  1
  Si  Si5  1  0.492823  0.492823  0.124008  1
  Si  Si6  1  0.359947  0.359947  0.438452  1
  Si  Si7  1  0.641246  0.641246  0.560153  1
  Si  Si8  1  0.505578  0.505578  0.878193  1
  Ir  Ir9  1  0.729140  0.729140  0.371288  1
