# generated using pymatgen
data_Pr10SnBi5S2
_symmetry_space_group_name_H-M   'P 1'
_cell_length_a   9.57561547
_cell_length_b   9.58972261
_cell_length_c   6.82924000
_cell_angle_alpha   90.00000000
_cell_angle_beta   90.00000000
_cell_angle_gamma   120.04875243
_symmetry_Int_Tables_number   1
_chemical_formula_structural   Pr10SnBi5S2
_chemical_formula_sum   'Pr10 Sn1 Bi5 S2'
_cell_volume   542.82793334
_cell_formula_units_Z   1
loop_
 _symmetry_equiv_pos_site_id
 _symmetry_equiv_pos_as_xyz
  1  'x, y, z'
loop_
 _atom_site_type_symbol
 _atom_site_label
 _atom_site_symmetry_multiplicity
 _atom_site_fract_x
 _atom_site_fract_y
 _atom_site_fract_z
 _atom_site_occupancy
  Pr  Pr0  1  0.669154  0.333905  0.001254  1
  Pr  Pr1  1  0.330846  0.664752  0.001254  1
  Pr  Pr2  1  0.330846  0.664752  0.498746  1
  Pr  Pr3  1  0.669154  0.333905  0.498746  1
  Pr  Pr4  1  0.754567  0.754692  0.750000  1
  Pr  Pr5  1  0.245433  0.000125  0.750000  1
  Pr  Pr6  1  0.000000  0.246046  0.750000  1
  Pr  Pr7  1  0.242271  0.246796  0.250000  1
  Pr  Pr8  1  0.757729  0.004525  0.250000  1
  Pr  Pr9  1  0.000000  0.752323  0.250000  1
  Sn  Sn10  1  0.000000  0.396014  0.250000  1
  Bi  Bi11  1  0.395376  0.395158  0.750000  1
  Bi  Bi12  1  0.604624  0.999781  0.750000  1
  Bi  Bi13  1  0.000000  0.603840  0.750000  1
  Bi  Bi14  1  0.604834  0.605178  0.250000  1
  Bi  Bi15  1  0.395166  0.000344  0.250000  1
  S  S16  1  0.000000  0.998933  0.999751  1
  S  S17  1  0.000000  0.998933  0.500249  1
