# generated using pymatgen
data_Y6Ti2Al22Os7Ru
_symmetry_space_group_name_H-M   'P 1'
_cell_length_a   8.88606600
_cell_length_b   8.88606696
_cell_length_c   9.55271800
_cell_angle_alpha   90.00000000
_cell_angle_beta   90.00000000
_cell_angle_gamma   119.99999644
_symmetry_Int_Tables_number   1
_chemical_formula_structural   Y6Ti2Al22Os7Ru
_chemical_formula_sum   'Y6 Ti2 Al22 Os7 Ru1'
_cell_volume   653.24594202
_cell_formula_units_Z   1
loop_
 _symmetry_equiv_pos_site_id
 _symmetry_equiv_pos_as_xyz
  1  'x, y, z'
loop_
 _atom_site_type_symbol
 _atom_site_label
 _atom_site_symmetry_multiplicity
 _atom_site_fract_x
 _atom_site_fract_y
 _atom_site_fract_z
 _atom_site_occupancy
  Y  Y0  1  0.193473  0.386945  0.251795  1
  Y  Y1  1  0.806527  0.613055  0.748205  1
  Y  Y2  1  0.613055  0.806527  0.251795  1
  Y  Y3  1  0.386945  0.193473  0.748205  1
  Y  Y4  1  0.193473  0.806527  0.251795  1
  Y  Y5  1  0.806527  0.193473  0.748205  1
  Ti  Ti6  1  0.333333  0.666667  0.994052  1
  Ti  Ti7  1  0.666667  0.333333  0.005948  1
  Al  Al8  1  0.666667  0.333333  0.517980  1
  Al  Al9  1  0.333333  0.666667  0.482020  1
  Al  Al10  1  0.162227  0.324453  0.575168  1
  Al  Al11  1  0.837773  0.675547  0.424832  1
  Al  Al12  1  0.675547  0.837773  0.575168  1
  Al  Al13  1  0.840557  0.681114  0.075336  1
  Al  Al14  1  0.324453  0.162227  0.424832  1
  Al  Al15  1  0.159443  0.318886  0.924664  1
  Al  Al16  1  0.162227  0.837773  0.575168  1
  Al  Al17  1  0.318886  0.159443  0.075336  1
  Al  Al18  1  0.837773  0.162227  0.424832  1
  Al  Al19  1  0.681114  0.840557  0.924664  1
  Al  Al20  1  0.840557  0.159443  0.075336  1
  Al  Al21  1  0.159443  0.840557  0.924664  1
  Al  Al22  1  0.560289  0.120576  0.252439  1
  Al  Al23  1  0.439711  0.879424  0.747561  1
  Al  Al24  1  0.879424  0.439711  0.252439  1
  Al  Al25  1  0.120576  0.560289  0.747561  1
  Al  Al26  1  0.560289  0.439711  0.252439  1
  Al  Al27  1  0.439711  0.560289  0.747561  1
  Al  Al28  1  0.000000  0.000000  0.248726  1
  Al  Al29  1  0.000000  0.000000  0.751274  1
  Os  Os30  1  0.500000  0.000000  0.000000  1
  Os  Os31  1  0.000000  0.500000  0.000000  1
  Os  Os32  1  0.500000  0.000000  0.500000  1
  Os  Os33  1  0.500000  0.500000  0.000000  1
  Os  Os34  1  0.000000  0.500000  0.500000  1
  Os  Os35  1  0.500000  0.500000  0.500000  1
  Os  Os36  1  0.000000  0.000000  0.500000  1
  Ru  Ru37  1  0.000000  0.000000  0.000000  1
