# generated using pymatgen
data_Tb5AsRuO12
_symmetry_space_group_name_H-M   'P 1'
_cell_length_a   6.85503662
_cell_length_b   6.85503658
_cell_length_c   7.26037303
_cell_angle_alpha   74.56755461
_cell_angle_beta   74.56755884
_cell_angle_gamma   51.12307625
_symmetry_Int_Tables_number   1
_chemical_formula_structural   Tb5AsRuO12
_chemical_formula_sum   'Tb5 As1 Ru1 O12'
_cell_volume   253.78623957
_cell_formula_units_Z   1
loop_
 _symmetry_equiv_pos_site_id
 _symmetry_equiv_pos_as_xyz
  1  'x, y, z'
loop_
 _atom_site_type_symbol
 _atom_site_label
 _atom_site_symmetry_multiplicity
 _atom_site_fract_x
 _atom_site_fract_y
 _atom_site_fract_z
 _atom_site_occupancy
  Tb  Tb0  1  0.694245  0.693417  0.667326  1
  Tb  Tb1  1  0.696549  0.698835  0.140188  1
  Tb  Tb2  1  0.005516  0.994484  0.000000  1
  Tb  Tb3  1  0.301165  0.303451  0.859812  1
  Tb  Tb4  1  0.306583  0.305755  0.332674  1
  As  As5  1  0.243375  0.756625  0.500000  1
  Ru  Ru6  1  0.754149  0.245851  0.500000  1
  O  O7  1  0.404085  0.903125  0.925283  1
  O  O8  1  0.573120  0.097264  0.581354  1
  O  O9  1  0.902736  0.426880  0.418646  1
  O  O10  1  0.096875  0.595915  0.074717  1
  O  O11  1  0.016779  0.983682  0.323517  1
  O  O12  1  0.482544  0.517821  0.678028  1
  O  O13  1  0.903464  0.400496  0.923980  1
  O  O14  1  0.102729  0.581912  0.579817  1
  O  O15  1  0.418088  0.897271  0.420183  1
  O  O16  1  0.599504  0.096536  0.076020  1
  O  O17  1  0.482179  0.517456  0.321972  1
  O  O18  1  0.016318  0.983221  0.676483  1
