# generated using pymatgen
data_Eu3GaAg2Pt3
_symmetry_space_group_name_H-M   'P 1'
_cell_length_a   7.58829643
_cell_length_b   7.58829594
_cell_length_c   4.10116100
_cell_angle_alpha   90.00000000
_cell_angle_beta   90.00000000
_cell_angle_gamma   121.60836829
_symmetry_Int_Tables_number   1
_chemical_formula_structural   Eu3GaAg2Pt3
_chemical_formula_sum   'Eu3 Ga1 Ag2 Pt3'
_cell_volume   201.12067534
_cell_formula_units_Z   1
loop_
 _symmetry_equiv_pos_site_id
 _symmetry_equiv_pos_as_xyz
  1  'x, y, z'
loop_
 _atom_site_type_symbol
 _atom_site_label
 _atom_site_symmetry_multiplicity
 _atom_site_fract_x
 _atom_site_fract_y
 _atom_site_fract_z
 _atom_site_occupancy
  Eu  Eu0  1  0.594842  0.011053  0.000000  1
  Eu  Eu1  1  0.402498  0.402497  0.000000  1
  Eu  Eu2  1  0.011053  0.594843  0.000000  1
  Ga  Ga3  1  0.748633  0.748634  0.499999  1
  Ag  Ag4  1  0.245949  0.005628  0.499999  1
  Ag  Ag5  1  0.005628  0.245950  0.499999  1
  Pt  Pt6  1  0.954110  0.954110  0.000000  1
  Pt  Pt7  1  0.676871  0.360415  0.499999  1
  Pt  Pt8  1  0.360415  0.676872  0.499999  1
