# generated using pymatgen
data_Ce3Ho7(Al2Os3)2
_symmetry_space_group_name_H-M   'P 1'
_cell_length_a   8.37581147
_cell_length_b   8.37581124
_cell_length_c   8.37581200
_cell_angle_alpha   110.03662696
_cell_angle_beta   110.03663367
_cell_angle_gamma   110.03662856
_symmetry_Int_Tables_number   1
_chemical_formula_structural   Ce3Ho7(Al2Os3)2
_chemical_formula_sum   'Ce3 Ho7 Al4 Os6'
_cell_volume   442.61150832
_cell_formula_units_Z   1
loop_
 _symmetry_equiv_pos_site_id
 _symmetry_equiv_pos_as_xyz
  1  'x, y, z'
loop_
 _atom_site_type_symbol
 _atom_site_label
 _atom_site_symmetry_multiplicity
 _atom_site_fract_x
 _atom_site_fract_y
 _atom_site_fract_z
 _atom_site_occupancy
  Ce  Ce0  1  0.252959  0.195453  0.938774  1
  Ce  Ce1  1  0.938774  0.252959  0.195453  1
  Ce  Ce2  1  0.195453  0.938774  0.252959  1
  Ho  Ho3  1  0.778878  0.778878  0.778878  1
  Ho  Ho4  1  0.318017  0.571177  0.749956  1
  Ho  Ho5  1  0.749956  0.318017  0.571177  1
  Ho  Ho6  1  0.571177  0.749956  0.318017  1
  Ho  Ho7  1  0.720326  0.507737  0.997642  1
  Ho  Ho8  1  0.997642  0.720326  0.507737  1
  Ho  Ho9  1  0.507737  0.997642  0.720326  1
  Al  Al10  1  0.408915  0.408915  0.408915  1
  Al  Al11  1  0.092150  0.496952  0.000643  1
  Al  Al12  1  0.000643  0.092150  0.496952  1
  Al  Al13  1  0.496952  0.000643  0.092150  1
  Os  Os14  1  0.891295  0.119922  0.748655  1
  Os  Os15  1  0.748655  0.891295  0.119922  1
  Os  Os16  1  0.119922  0.748655  0.891295  1
  Os  Os17  1  0.234892  0.606703  0.368955  1
  Os  Os18  1  0.368955  0.234892  0.606703  1
  Os  Os19  1  0.606703  0.368955  0.234892  1
