# generated using pymatgen
data_DyHo5Al24(Os3Ru)2
_symmetry_space_group_name_H-M   'P 1'
_cell_length_a   8.81668715
_cell_length_b   8.81953667
_cell_length_c   9.54859500
_cell_angle_alpha   90.00000000
_cell_angle_beta   90.00000000
_cell_angle_gamma   120.01068762
_symmetry_Int_Tables_number   1
_chemical_formula_structural   DyHo5Al24(Os3Ru)2
_chemical_formula_sum   'Dy1 Ho5 Al24 Os6 Ru2'
_cell_volume   642.94603805
_cell_formula_units_Z   1
loop_
 _symmetry_equiv_pos_site_id
 _symmetry_equiv_pos_as_xyz
  1  'x, y, z'
loop_
 _atom_site_type_symbol
 _atom_site_label
 _atom_site_symmetry_multiplicity
 _atom_site_fract_x
 _atom_site_fract_y
 _atom_site_fract_z
 _atom_site_occupancy
  Dy  Dy0  1  0.386910  0.193455  0.750000  1
  Ho  Ho1  1  0.193532  0.806443  0.250000  1
  Ho  Ho2  1  0.193532  0.387089  0.250000  1
  Ho  Ho3  1  0.612936  0.806468  0.250000  1
  Ho  Ho4  1  0.806478  0.193551  0.750000  1
  Ho  Ho5  1  0.806478  0.612926  0.750000  1
  Al  Al6  1  0.560593  0.439434  0.250000  1
  Al  Al7  1  0.560593  0.121159  0.250000  1
  Al  Al8  1  0.878818  0.439410  0.250000  1
  Al  Al9  1  0.439424  0.560802  0.750000  1
  Al  Al10  1  0.439424  0.878621  0.750000  1
  Al  Al11  1  0.121156  0.560578  0.750000  1
  Al  Al12  1  0.323932  0.161966  0.423347  1
  Al  Al13  1  0.838042  0.161970  0.423453  1
  Al  Al14  1  0.838042  0.676073  0.423453  1
  Al  Al15  1  0.676023  0.838011  0.576502  1
  Al  Al16  1  0.161897  0.837911  0.576488  1
  Al  Al17  1  0.161897  0.323985  0.576488  1
  Al  Al18  1  0.676023  0.838011  0.923498  1
  Al  Al19  1  0.161897  0.837911  0.923512  1
  Al  Al20  1  0.161897  0.323985  0.923512  1
  Al  Al21  1  0.323932  0.161966  0.076653  1
  Al  Al22  1  0.838042  0.161970  0.076547  1
  Al  Al23  1  0.838042  0.676073  0.076547  1
  Al  Al24  1  0.666775  0.333387  0.515786  1
  Al  Al25  1  0.333348  0.666675  0.484157  1
  Al  Al26  1  0.333348  0.666675  0.015843  1
  Al  Al27  1  0.666775  0.333387  0.984214  1
  Al  Al28  1  0.000003  0.000001  0.250000  1
  Al  Al29  1  0.999800  0.999900  0.750000  1
  Os  Os30  1  0.500063  0.500151  0.499880  1
  Os  Os31  1  0.500063  0.999912  0.499880  1
  Os  Os32  1  0.000080  0.500040  0.499944  1
  Os  Os33  1  0.500063  0.500151  0.000120  1
  Os  Os34  1  0.500063  0.999912  0.000120  1
  Os  Os35  1  0.000080  0.500040  0.000056  1
  Ru  Ru36  1  0.000002  0.000001  0.499967  1
  Ru  Ru37  1  0.000002  0.000001  0.000033  1
