# generated using pymatgen
data_Dy4Si4RuRh3
_symmetry_space_group_name_H-M   'P 1'
_cell_length_a   4.30120200
_cell_length_b   6.95482559
_cell_length_c   7.26276561
_cell_angle_alpha   90.04715880
_cell_angle_beta   90.00000000
_cell_angle_gamma   90.00000000
_symmetry_Int_Tables_number   1
_chemical_formula_structural   Dy4Si4RuRh3
_chemical_formula_sum   'Dy4 Si4 Ru1 Rh3'
_cell_volume   217.25909398
_cell_formula_units_Z   1
loop_
 _symmetry_equiv_pos_site_id
 _symmetry_equiv_pos_as_xyz
  1  'x, y, z'
loop_
 _atom_site_type_symbol
 _atom_site_label
 _atom_site_symmetry_multiplicity
 _atom_site_fract_x
 _atom_site_fract_y
 _atom_site_fract_z
 _atom_site_occupancy
  Dy  Dy0  1  0.250000  0.989602  0.812138  1
  Dy  Dy1  1  0.750000  0.008377  0.188744  1
  Dy  Dy2  1  0.250000  0.495273  0.685473  1
  Dy  Dy3  1  0.750000  0.505989  0.314566  1
  Si  Si4  1  0.250000  0.301484  0.103973  1
  Si  Si5  1  0.750000  0.700334  0.901143  1
  Si  Si6  1  0.250000  0.798044  0.386537  1
  Si  Si7  1  0.750000  0.200944  0.608189  1
  Ru  Ru8  1  0.250000  0.652172  0.066911  1
  Rh  Rh9  1  0.750000  0.845811  0.570074  1
  Rh  Rh10  1  0.250000  0.155950  0.430564  1
  Rh  Rh11  1  0.750000  0.346020  0.931688  1
