# generated using pymatgen
data_SmHo3(TcB4)4
_symmetry_space_group_name_H-M   'P 1'
_cell_length_a   3.58973300
_cell_length_b   5.96047100
_cell_length_c   11.53790100
_cell_angle_alpha   89.99904835
_cell_angle_beta   90.00000000
_cell_angle_gamma   90.00000000
_symmetry_Int_Tables_number   1
_chemical_formula_structural   SmHo3(TcB4)4
_chemical_formula_sum   'Sm1 Ho3 Tc4 B16'
_cell_volume   246.87069233
_cell_formula_units_Z   1
loop_
 _symmetry_equiv_pos_site_id
 _symmetry_equiv_pos_as_xyz
  1  'x, y, z'
loop_
 _atom_site_type_symbol
 _atom_site_label
 _atom_site_symmetry_multiplicity
 _atom_site_fract_x
 _atom_site_fract_y
 _atom_site_fract_z
 _atom_site_occupancy
  Sm  Sm0  1  0.000000  0.372721  0.150504  1
  Ho  Ho1  1  0.000000  0.127367  0.650089  1
  Ho  Ho2  1  0.000000  0.872388  0.350277  1
  Ho  Ho3  1  0.000000  0.627269  0.849586  1
  Tc  Tc4  1  0.000000  0.132170  0.911482  1
  Tc  Tc5  1  0.000000  0.867549  0.086716  1
  Tc  Tc6  1  0.000000  0.633263  0.587939  1
  Tc  Tc7  1  0.000000  0.366832  0.413826  1
  B  B8  1  0.500000  0.477232  0.692642  1
  B  B9  1  0.500000  0.524289  0.309134  1
  B  B10  1  0.500000  0.977143  0.806842  1
  B  B11  1  0.500000  0.021410  0.192494  1
  B  B12  1  0.500000  0.287860  0.814511  1
  B  B13  1  0.500000  0.714807  0.185242  1
  B  B14  1  0.500000  0.787914  0.685007  1
  B  B15  1  0.500000  0.211688  0.316368  1
  B  B16  1  0.500000  0.363948  0.967195  1
  B  B17  1  0.500000  0.636569  0.030437  1
  B  B18  1  0.500000  0.864534  0.531748  1
  B  B19  1  0.500000  0.135204  0.469110  1
  B  B20  1  0.500000  0.386553  0.547794  1
  B  B21  1  0.500000  0.613928  0.453405  1
  B  B22  1  0.500000  0.885974  0.951621  1
  B  B23  1  0.500000  0.111387  0.046032  1
