# generated using pymatgen
data_Pa3Fe2Si7
_symmetry_space_group_name_H-M   'P 1'
_cell_length_a   12.38966766
_cell_length_b   12.38966826
_cell_length_c   4.03998900
_cell_angle_alpha   90.00000000
_cell_angle_beta   90.00000000
_cell_angle_gamma   161.12029684
_symmetry_Int_Tables_number   1
_chemical_formula_structural   Pa3Fe2Si7
_chemical_formula_sum   'Pa3 Fe2 Si7'
_cell_volume   200.67081218
_cell_formula_units_Z   1
loop_
 _symmetry_equiv_pos_site_id
 _symmetry_equiv_pos_as_xyz
  1  'x, y, z'
loop_
 _atom_site_type_symbol
 _atom_site_label
 _atom_site_symmetry_multiplicity
 _atom_site_fract_x
 _atom_site_fract_y
 _atom_site_fract_z
 _atom_site_occupancy
  Pa  Pa0  1  0.000000  0.000000  0.500000  1
  Pa  Pa1  1  0.317105  0.682895  0.000000  1
  Pa  Pa2  1  0.682895  0.317105  0.000000  1
  Fe  Fe3  1  0.129931  0.870069  0.500000  1
  Fe  Fe4  1  0.870069  0.129931  0.500000  1
  Si  Si5  1  0.224056  0.775944  0.500000  1
  Si  Si6  1  0.775944  0.224056  0.500000  1
  Si  Si7  1  0.087518  0.912482  0.000000  1
  Si  Si8  1  0.912482  0.087518  0.000000  1
  Si  Si9  1  0.411937  0.588063  0.500000  1
  Si  Si10  1  0.500000  0.500000  0.000000  1
  Si  Si11  1  0.588063  0.411937  0.500000  1
