# generated using pymatgen
data_TbPr3Y4(CdPt)2
_symmetry_space_group_name_H-M   'P 1'
_cell_length_a   9.84921459
_cell_length_b   9.84921421
_cell_length_c   9.83074400
_cell_angle_alpha   60.06200829
_cell_angle_beta   60.06200954
_cell_angle_gamma   60.16789822
_symmetry_Int_Tables_number   1
_chemical_formula_structural   TbPr3Y4(CdPt)2
_chemical_formula_sum   'Tb2 Pr6 Y8 Cd4 Pt4'
_cell_volume   675.81847958
_cell_formula_units_Z   2
loop_
 _symmetry_equiv_pos_site_id
 _symmetry_equiv_pos_as_xyz
  1  'x, y, z'
loop_
 _atom_site_type_symbol
 _atom_site_label
 _atom_site_symmetry_multiplicity
 _atom_site_fract_x
 _atom_site_fract_y
 _atom_site_fract_z
 _atom_site_occupancy
  Tb  Tb0  1  0.349762  0.349762  0.350127  1
  Tb  Tb1  1  0.349762  0.349762  0.950350  1
  Pr  Pr2  1  0.939478  0.560968  0.562253  1
  Pr  Pr3  1  0.560968  0.939478  0.937301  1
  Pr  Pr4  1  0.560968  0.939478  0.562253  1
  Pr  Pr5  1  0.939478  0.560968  0.937301  1
  Pr  Pr6  1  0.560960  0.560960  0.939040  1
  Pr  Pr7  1  0.937787  0.937787  0.562213  1
  Y  Y8  1  0.350992  0.947254  0.350877  1
  Y  Y9  1  0.947254  0.350992  0.350877  1
  Y  Y10  1  0.811733  0.188320  0.188702  1
  Y  Y11  1  0.188320  0.811733  0.811245  1
  Y  Y12  1  0.188320  0.811733  0.188702  1
  Y  Y13  1  0.811733  0.188320  0.811245  1
  Y  Y14  1  0.188664  0.188664  0.811336  1
  Y  Y15  1  0.811736  0.811736  0.188264  1
  Cd  Cd16  1  0.579876  0.579876  0.578842  1
  Cd  Cd17  1  0.579876  0.579876  0.261404  1
  Cd  Cd18  1  0.579908  0.261246  0.579422  1
  Cd  Cd19  1  0.261246  0.579908  0.579422  1
  Pt  Pt20  1  0.143144  0.143144  0.142785  1
  Pt  Pt21  1  0.143144  0.143144  0.570926  1
  Pt  Pt22  1  0.142979  0.571909  0.142556  1
  Pt  Pt23  1  0.571909  0.142979  0.142556  1
