# generated using pymatgen
data_Pr5HfOsO12
_symmetry_space_group_name_H-M   'P 1'
_cell_length_a   7.19437833
_cell_length_b   7.19437857
_cell_length_c   7.69894916
_cell_angle_alpha   74.53669708
_cell_angle_beta   74.53668815
_cell_angle_gamma   50.56662950
_symmetry_Int_Tables_number   1
_chemical_formula_structural   Pr5HfOsO12
_chemical_formula_sum   'Pr5 Hf1 Os1 O12'
_cell_volume   294.09519975
_cell_formula_units_Z   1
loop_
 _symmetry_equiv_pos_site_id
 _symmetry_equiv_pos_as_xyz
  1  'x, y, z'
loop_
 _atom_site_type_symbol
 _atom_site_label
 _atom_site_symmetry_multiplicity
 _atom_site_fract_x
 _atom_site_fract_y
 _atom_site_fract_z
 _atom_site_occupancy
  Pr  Pr0  1  0.299973  0.305307  0.359795  1
  Pr  Pr1  1  0.694693  0.700027  0.640205  1
  Pr  Pr2  1  0.688548  0.701461  0.165979  1
  Pr  Pr3  1  0.298539  0.311452  0.834021  1
  Pr  Pr4  1  0.005099  0.994901  0.500000  1
  Hf  Hf5  1  0.767434  0.232566  0.000000  1
  Os  Os6  1  0.252509  0.747491  0.000000  1
  O  O7  1  0.093163  0.598561  0.574857  1
  O  O8  1  0.017126  0.982186  0.180424  1
  O  O9  1  0.401439  0.906837  0.425143  1
  O  O10  1  0.495614  0.505935  0.177249  1
  O  O11  1  0.098955  0.584400  0.080584  1
  O  O12  1  0.902554  0.405129  0.422275  1
  O  O13  1  0.017814  0.982874  0.819576  1
  O  O14  1  0.594871  0.097445  0.577725  1
  O  O15  1  0.494065  0.504386  0.822751  1
  O  O16  1  0.567190  0.105186  0.080892  1
  O  O17  1  0.415600  0.901045  0.919416  1
  O  O18  1  0.894814  0.432810  0.919108  1
