# generated using pymatgen
data_Ce2LuHf3F22
_symmetry_space_group_name_H-M   'P 1'
_cell_length_a   8.41796577
_cell_length_b   8.41796686
_cell_length_c   8.44329904
_cell_angle_alpha   124.88365915
_cell_angle_beta   106.48857476
_cell_angle_gamma   98.14557807
_symmetry_Int_Tables_number   1
_chemical_formula_structural   Ce2LuHf3F22
_chemical_formula_sum   'Ce2 Lu1 Hf3 F22'
_cell_volume   434.04784122
_cell_formula_units_Z   1
loop_
 _symmetry_equiv_pos_site_id
 _symmetry_equiv_pos_as_xyz
  1  'x, y, z'
loop_
 _atom_site_type_symbol
 _atom_site_label
 _atom_site_symmetry_multiplicity
 _atom_site_fract_x
 _atom_site_fract_y
 _atom_site_fract_z
 _atom_site_occupancy
  Ce  Ce0  1  0.749103  0.247746  0.496045  1
  Ce  Ce1  1  0.248299  0.746942  0.496045  1
  Lu  Lu2  1  0.681069  0.635630  0.316699  1
  Hf  Hf3  1  0.320254  0.366072  0.686326  1
  Hf  Hf4  1  0.179507  0.866618  0.046126  1
  Hf  Hf5  1  0.816980  0.134707  0.951686  1
  F  F6  1  0.707274  0.913190  0.346975  1
  F  F7  1  0.293535  0.101281  0.654251  1
  F  F8  1  0.552969  0.360717  0.654251  1
  F  F9  1  0.946852  0.605599  0.813199  1
  F  F10  1  0.433785  0.639701  0.346975  1
  F  F11  1  0.055600  0.391468  0.185649  1
  F  F12  1  0.794180  0.130048  0.185649  1
  F  F13  1  0.207600  0.866347  0.813199  1
  F  F14  1  0.493595  0.495480  0.989075  1
  F  F15  1  0.002133  0.001715  0.003848  1
  F  F16  1  0.782169  0.878164  0.660334  1
  F  F17  1  0.221108  0.129832  0.350939  1
  F  F18  1  0.277994  0.630746  0.908742  1
  F  F19  1  0.720971  0.362974  0.083945  1
  F  F20  1  0.968625  0.739376  0.422342  1
  F  F21  1  0.048977  0.263819  0.584478  1
  F  F22  1  0.320659  0.535501  0.584478  1
  F  F23  1  0.175998  0.761577  0.211780  1
  F  F24  1  0.682965  0.453716  0.422342  1
  F  F25  1  0.823632  0.242459  0.786422  1
  F  F26  1  0.543963  0.962790  0.786422  1
  F  F27  1  0.450204  0.035783  0.211780  1
