# generated using pymatgen
data_Ca6Sn4IrPd3
_symmetry_space_group_name_H-M   'P 1'
_cell_length_a   5.89205503
_cell_length_b   8.52699011
_cell_length_c   14.01821800
_cell_angle_alpha   90.00000000
_cell_angle_beta   90.00000000
_cell_angle_gamma   90.25553693
_symmetry_Int_Tables_number   1
_chemical_formula_structural   Ca6Sn4IrPd3
_chemical_formula_sum   'Ca12 Sn8 Ir2 Pd6'
_cell_volume   704.28922512
_cell_formula_units_Z   2
loop_
 _symmetry_equiv_pos_site_id
 _symmetry_equiv_pos_as_xyz
  1  'x, y, z'
loop_
 _atom_site_type_symbol
 _atom_site_label
 _atom_site_symmetry_multiplicity
 _atom_site_fract_x
 _atom_site_fract_y
 _atom_site_fract_z
 _atom_site_occupancy
  Ca  Ca0  1  0.151759  0.390688  0.597620  1
  Ca  Ca1  1  0.848241  0.609312  0.097620  1
  Ca  Ca2  1  0.149525  0.103671  0.405290  1
  Ca  Ca3  1  0.850475  0.896329  0.905290  1
  Ca  Ca4  1  0.849698  0.605041  0.401542  1
  Ca  Ca5  1  0.150302  0.394959  0.901542  1
  Ca  Ca6  1  0.846120  0.900622  0.599018  1
  Ca  Ca7  1  0.153880  0.099378  0.099018  1
  Ca  Ca8  1  0.637767  0.249690  0.748286  1
  Ca  Ca9  1  0.362233  0.750310  0.248286  1
  Ca  Ca10  1  0.636781  0.240741  0.247441  1
  Ca  Ca11  1  0.363219  0.759259  0.747441  1
  Sn  Sn12  1  0.641957  0.246983  0.501561  1
  Sn  Sn13  1  0.358043  0.753017  0.001561  1
  Sn  Sn14  1  0.351237  0.753605  0.502125  1
  Sn  Sn15  1  0.648763  0.246395  0.002125  1
  Sn  Sn16  1  0.137508  0.103225  0.748658  1
  Sn  Sn17  1  0.862492  0.896775  0.248658  1
  Sn  Sn18  1  0.136490  0.399302  0.249967  1
  Sn  Sn19  1  0.863510  0.600698  0.749967  1
  Ir  Ir20  1  0.370598  0.034956  0.590084  1
  Ir  Ir21  1  0.629402  0.965044  0.090084  1
  Pd  Pd22  1  0.373655  0.467094  0.410636  1
  Pd  Pd23  1  0.626345  0.532906  0.910636  1
  Pd  Pd24  1  0.627714  0.963466  0.408578  1
  Pd  Pd25  1  0.372286  0.036534  0.908578  1
  Pd  Pd26  1  0.628298  0.535830  0.589194  1
  Pd  Pd27  1  0.371702  0.464170  0.089194  1
