# generated using pymatgen
data_Pa4Fe5Mo3(PRh)12
_symmetry_space_group_name_H-M   'P 1'
_cell_length_a   3.87534000
_cell_length_b   10.75976847
_cell_length_c   12.38120793
_cell_angle_alpha   89.84055792
_cell_angle_beta   90.00000000
_cell_angle_gamma   90.00000000
_symmetry_Int_Tables_number   1
_chemical_formula_structural   Pa4Fe5Mo3(PRh)12
_chemical_formula_sum   'Pa4 Fe5 Mo3 P12 Rh12'
_cell_volume   516.26665224
_cell_formula_units_Z   1
loop_
 _symmetry_equiv_pos_site_id
 _symmetry_equiv_pos_as_xyz
  1  'x, y, z'
loop_
 _atom_site_type_symbol
 _atom_site_label
 _atom_site_symmetry_multiplicity
 _atom_site_fract_x
 _atom_site_fract_y
 _atom_site_fract_z
 _atom_site_occupancy
  Pa  Pa0  1  0.250000  0.576020  0.709609  1
  Pa  Pa1  1  0.250000  0.918511  0.212232  1
  Pa  Pa2  1  0.750000  0.416585  0.292008  1
  Pa  Pa3  1  0.750000  0.081389  0.788719  1
  Fe  Fe4  1  0.750000  0.386143  0.800814  1
  Fe  Fe5  1  0.250000  0.464732  0.931871  1
  Fe  Fe6  1  0.250000  0.036336  0.433512  1
  Fe  Fe7  1  0.750000  0.534753  0.064286  1
  Fe  Fe8  1  0.750000  0.964481  0.570964  1
  Mo  Mo9  1  0.250000  0.704883  0.987201  1
  Mo  Mo10  1  0.250000  0.793621  0.487031  1
  Mo  Mo11  1  0.750000  0.294440  0.008671  1
  P  P12  1  0.250000  0.424690  0.103013  1
  P  P13  1  0.250000  0.074266  0.606766  1
  P  P14  1  0.750000  0.564374  0.889980  1
  P  P15  1  0.750000  0.928656  0.396515  1
  P  P16  1  0.250000  0.277933  0.867222  1
  P  P17  1  0.250000  0.229128  0.371712  1
  P  P18  1  0.750000  0.727551  0.126654  1
  P  P19  1  0.750000  0.772340  0.627616  1
  P  P20  1  0.250000  0.603647  0.392684  1
  P  P21  1  0.250000  0.895931  0.891996  1
  P  P22  1  0.750000  0.396702  0.617760  1
  P  P23  1  0.750000  0.104568  0.108533  1
  Rh  Rh24  1  0.750000  0.215086  0.516127  1
  Rh  Rh25  1  0.250000  0.409933  0.480117  1
  Rh  Rh26  1  0.250000  0.095842  0.979638  1
  Rh  Rh27  1  0.750000  0.593630  0.518822  1
  Rh  Rh28  1  0.750000  0.906540  0.015549  1
  Rh  Rh29  1  0.250000  0.229378  0.173854  1
  Rh  Rh30  1  0.250000  0.271555  0.682980  1
  Rh  Rh31  1  0.750000  0.764575  0.822226  1
  Rh  Rh32  1  0.750000  0.729179  0.321092  1
  Rh  Rh33  1  0.250000  0.884054  0.702454  1
  Rh  Rh34  1  0.250000  0.610401  0.200128  1
  Rh  Rh35  1  0.750000  0.118141  0.299641  1
