# generated using pymatgen
data_Hf7Zr3(Hg2Rh)4
_symmetry_space_group_name_H-M   'P 1'
_cell_length_a   3.29846400
_cell_length_b   7.61580521
_cell_length_c   17.64632750
_cell_angle_alpha   89.97285108
_cell_angle_beta   90.00000000
_cell_angle_gamma   90.00000000
_symmetry_Int_Tables_number   1
_chemical_formula_structural   Hf7Zr3(Hg2Rh)4
_chemical_formula_sum   'Hf7 Zr3 Hg8 Rh4'
_cell_volume   443.28380238
_cell_formula_units_Z   1
loop_
 _symmetry_equiv_pos_site_id
 _symmetry_equiv_pos_as_xyz
  1  'x, y, z'
loop_
 _atom_site_type_symbol
 _atom_site_label
 _atom_site_symmetry_multiplicity
 _atom_site_fract_x
 _atom_site_fract_y
 _atom_site_fract_z
 _atom_site_occupancy
  Hf  Hf0  1  0.000000  0.135108  0.918504  1
  Hf  Hf1  1  0.000000  0.760747  0.780445  1
  Hf  Hf2  1  0.000000  0.635826  0.582089  1
  Hf  Hf3  1  0.000000  0.260986  0.720057  1
  Hf  Hf4  1  0.000000  0.364577  0.417963  1
  Hf  Hf5  1  0.000000  0.238234  0.219482  1
  Hf  Hf6  1  0.000000  0.740009  0.279994  1
  Zr  Zr7  1  0.000000  0.000021  0.500192  1
  Zr  Zr8  1  0.000000  0.500297  0.000097  1
  Zr  Zr9  1  0.000000  0.862869  0.079980  1
  Hg  Hg10  1  0.500000  0.799668  0.932257  1
  Hg  Hg11  1  0.500000  0.559170  0.149207  1
  Hg  Hg12  1  0.500000  0.439657  0.851488  1
  Hg  Hg13  1  0.500000  0.060244  0.351744  1
  Hg  Hg14  1  0.500000  0.301007  0.565998  1
  Hg  Hg15  1  0.500000  0.940157  0.649044  1
  Hg  Hg16  1  0.500000  0.699018  0.434136  1
  Hg  Hg17  1  0.500000  0.200462  0.066173  1
  Rh  Rh18  1  0.500000  0.547872  0.693551  1
  Rh  Rh19  1  0.500000  0.452443  0.306601  1
  Rh  Rh20  1  0.500000  0.048125  0.806711  1
  Rh  Rh21  1  0.500000  0.953501  0.194289  1
