# generated using pymatgen
data_Y2TmCd(Ir2O7)2
_symmetry_space_group_name_H-M   'P 1'
_cell_length_a   7.19835308
_cell_length_b   7.18374573
_cell_length_c   7.19835541
_cell_angle_alpha   60.88237456
_cell_angle_beta   60.99162050
_cell_angle_gamma   60.88237542
_symmetry_Int_Tables_number   1
_chemical_formula_structural   Y2TmCd(Ir2O7)2
_chemical_formula_sum   'Y2 Tm1 Cd1 Ir4 O14'
_cell_volume   268.65964962
_cell_formula_units_Z   1
loop_
 _symmetry_equiv_pos_site_id
 _symmetry_equiv_pos_as_xyz
  1  'x, y, z'
loop_
 _atom_site_type_symbol
 _atom_site_label
 _atom_site_symmetry_multiplicity
 _atom_site_fract_x
 _atom_site_fract_y
 _atom_site_fract_z
 _atom_site_occupancy
  Y  Y0  1  0.625000  0.125000  0.125000  1
  Y  Y1  1  0.125000  0.125000  0.625000  1
  Tm  Tm2  1  0.125000  0.625000  0.125000  1
  Cd  Cd3  1  0.125000  0.125000  0.125000  1
  Ir  Ir4  1  0.125000  0.625000  0.625000  1
  Ir  Ir5  1  0.625000  0.125000  0.625000  1
  Ir  Ir6  1  0.625000  0.625000  0.125000  1
  Ir  Ir7  1  0.625000  0.625000  0.625000  1
  O  O8  1  0.716682  0.707646  0.289778  1
  O  O9  1  0.295154  0.295761  0.698918  1
  O  O10  1  0.711779  0.290371  0.711779  1
  O  O11  1  0.294500  0.694099  0.294500  1
  O  O12  1  0.289778  0.707646  0.716682  1
  O  O13  1  0.698918  0.295761  0.295154  1
  O  O14  1  0.533318  0.542354  0.960222  1
  O  O15  1  0.954846  0.954239  0.551082  1
  O  O16  1  0.538221  0.959629  0.538221  1
  O  O17  1  0.955500  0.555901  0.955500  1
  O  O18  1  0.960222  0.542354  0.533318  1
  O  O19  1  0.551082  0.954239  0.954846  1
  O  O20  1  0.249672  0.255441  0.249672  1
  O  O21  1  0.000328  0.994559  0.000328  1
