# generated using pymatgen
data_Dy4Zr4Tc(B8Ru)3
_symmetry_space_group_name_H-M   'P 1'
_cell_length_a   3.63097600
_cell_length_b   9.07438281
_cell_length_c   11.46667100
_cell_angle_alpha   89.92017821
_cell_angle_beta   90.00000000
_cell_angle_gamma   90.00000000
_symmetry_Int_Tables_number   1
_chemical_formula_structural   Dy4Zr4Tc(B8Ru)3
_chemical_formula_sum   'Dy4 Zr4 Tc1 B24 Ru3'
_cell_volume   377.81344171
_cell_formula_units_Z   1
loop_
 _symmetry_equiv_pos_site_id
 _symmetry_equiv_pos_as_xyz
  1  'x, y, z'
loop_
 _atom_site_type_symbol
 _atom_site_label
 _atom_site_symmetry_multiplicity
 _atom_site_fract_x
 _atom_site_fract_y
 _atom_site_fract_z
 _atom_site_occupancy
  Dy  Dy0  1  0.000000  0.322449  0.413391  1
  Dy  Dy1  1  0.000000  0.678477  0.585968  1
  Dy  Dy2  1  0.000000  0.820862  0.087779  1
  Dy  Dy3  1  0.000000  0.178589  0.913565  1
  Zr  Zr4  1  0.000000  0.942608  0.374107  1
  Zr  Zr5  1  0.000000  0.056014  0.625919  1
  Zr  Zr6  1  0.000000  0.446251  0.126428  1
  Zr  Zr7  1  0.000000  0.555580  0.874139  1
  Tc  Tc8  1  0.000000  0.640497  0.318184  1
  B  B9  1  0.500000  0.554037  0.432890  1
  B  B10  1  0.500000  0.445674  0.567412  1
  B  B11  1  0.500000  0.053768  0.067239  1
  B  B12  1  0.500000  0.945585  0.932985  1
  B  B13  1  0.500000  0.751475  0.418076  1
  B  B14  1  0.500000  0.248721  0.581824  1
  B  B15  1  0.500000  0.251070  0.081392  1
  B  B16  1  0.500000  0.748021  0.918230  1
  B  B17  1  0.500000  0.794262  0.264753  1
  B  B18  1  0.500000  0.205850  0.735395  1
  B  B19  1  0.500000  0.293703  0.234723  1
  B  B20  1  0.500000  0.706177  0.764278  1
  B  B21  1  0.500000  0.629409  0.183965  1
  B  B22  1  0.500000  0.370171  0.816569  1
  B  B23  1  0.500000  0.129758  0.316238  1
  B  B24  1  0.500000  0.870544  0.683515  1
  B  B25  1  0.500000  0.982050  0.212758  1
  B  B26  1  0.500000  0.018305  0.787410  1
  B  B27  1  0.500000  0.481457  0.286865  1
  B  B28  1  0.500000  0.518375  0.712577  1
  B  B29  1  0.500000  0.601317  0.026962  1
  B  B30  1  0.500000  0.397572  0.971988  1
  B  B31  1  0.500000  0.102673  0.472579  1
  B  B32  1  0.500000  0.899004  0.527853  1
  Ru  Ru33  1  0.000000  0.359522  0.681575  1
  Ru  Ru34  1  0.000000  0.141065  0.181483  1
  Ru  Ru35  1  0.000000  0.859109  0.818985  1
