# generated using pymatgen
data_Er3Tm17(Zn3Ru)2
_symmetry_space_group_name_H-M   'P 1'
_cell_length_a   9.28720100
_cell_length_b   9.28720075
_cell_length_c   9.51496300
_cell_angle_alpha   90.00000000
_cell_angle_beta   90.00000000
_cell_angle_gamma   119.99999732
_symmetry_Int_Tables_number   1
_chemical_formula_structural   Er3Tm17(Zn3Ru)2
_chemical_formula_sum   'Er3 Tm17 Zn6 Ru2'
_cell_volume   710.73454655
_cell_formula_units_Z   1
loop_
 _symmetry_equiv_pos_site_id
 _symmetry_equiv_pos_as_xyz
  1  'x, y, z'
loop_
 _atom_site_type_symbol
 _atom_site_label
 _atom_site_symmetry_multiplicity
 _atom_site_fract_x
 _atom_site_fract_y
 _atom_site_fract_z
 _atom_site_occupancy
  Er  Er0  1  0.458937  0.541063  0.750000  1
  Er  Er1  1  0.458937  0.917873  0.750000  1
  Er  Er2  1  0.082127  0.541063  0.750000  1
  Tm  Tm3  1  0.000000  0.000000  0.499996  1
  Tm  Tm4  1  0.000000  0.000000  0.000004  1
  Tm  Tm5  1  0.207809  0.792191  0.442075  1
  Tm  Tm6  1  0.207809  0.415618  0.442075  1
  Tm  Tm7  1  0.584382  0.792191  0.442075  1
  Tm  Tm8  1  0.792161  0.207839  0.557694  1
  Tm  Tm9  1  0.792161  0.584321  0.557694  1
  Tm  Tm10  1  0.415679  0.207839  0.557694  1
  Tm  Tm11  1  0.792161  0.207839  0.942306  1
  Tm  Tm12  1  0.792161  0.584321  0.942306  1
  Tm  Tm13  1  0.415679  0.207839  0.942306  1
  Tm  Tm14  1  0.207809  0.792191  0.057925  1
  Tm  Tm15  1  0.207809  0.415618  0.057925  1
  Tm  Tm16  1  0.584382  0.792191  0.057925  1
  Tm  Tm17  1  0.541161  0.458839  0.250000  1
  Tm  Tm18  1  0.541161  0.082321  0.250000  1
  Tm  Tm19  1  0.917679  0.458839  0.250000  1
  Zn  Zn20  1  0.885780  0.114220  0.250000  1
  Zn  Zn21  1  0.885780  0.771561  0.250000  1
  Zn  Zn22  1  0.228439  0.114220  0.250000  1
  Zn  Zn23  1  0.114141  0.885859  0.750000  1
  Zn  Zn24  1  0.114141  0.228280  0.750000  1
  Zn  Zn25  1  0.771720  0.885859  0.750000  1
  Ru  Ru26  1  0.333333  0.666667  0.250000  1
  Ru  Ru27  1  0.666667  0.333333  0.750000  1
