# generated using pymatgen
data_Eu3Th5(Si3Pd)4
_symmetry_space_group_name_H-M   'P 1'
_cell_length_a   8.44939600
_cell_length_b   8.45337379
_cell_length_c   8.69258900
_cell_angle_alpha   90.00000000
_cell_angle_beta   90.00000000
_cell_angle_gamma   119.95886598
_symmetry_Int_Tables_number   1
_chemical_formula_structural   Eu3Th5(Si3Pd)4
_chemical_formula_sum   'Eu3 Th5 Si12 Pd4'
_cell_volume   537.91713457
_cell_formula_units_Z   1
loop_
 _symmetry_equiv_pos_site_id
 _symmetry_equiv_pos_as_xyz
  1  'x, y, z'
loop_
 _atom_site_type_symbol
 _atom_site_label
 _atom_site_symmetry_multiplicity
 _atom_site_fract_x
 _atom_site_fract_y
 _atom_site_fract_z
 _atom_site_occupancy
  Eu  Eu0  1  0.500303  0.000629  0.250000  1
  Eu  Eu1  1  0.499684  0.999394  0.750000  1
  Eu  Eu2  1  0.999480  0.499731  0.250000  1
  Th  Th3  1  0.000466  0.500188  0.750000  1
  Th  Th4  1  0.500196  0.499765  0.250000  1
  Th  Th5  1  0.499764  0.500276  0.750000  1
  Th  Th6  1  0.000008  0.999965  0.250000  1
  Th  Th7  1  0.000019  0.000018  0.750000  1
  Si  Si8  1  0.164611  0.328662  0.998803  1
  Si  Si9  1  0.835371  0.671344  0.998406  1
  Si  Si10  1  0.669618  0.834112  0.999643  1
  Si  Si11  1  0.835371  0.671344  0.501594  1
  Si  Si12  1  0.330398  0.165915  0.999165  1
  Si  Si13  1  0.164611  0.328662  0.501197  1
  Si  Si14  1  0.165541  0.833218  0.997402  1
  Si  Si15  1  0.330398  0.165915  0.500835  1
  Si  Si16  1  0.834448  0.166754  0.996865  1
  Si  Si17  1  0.669618  0.834112  0.500357  1
  Si  Si18  1  0.834448  0.166754  0.503135  1
  Si  Si19  1  0.165541  0.833218  0.502598  1
  Pd  Pd20  1  0.333582  0.662332  0.997914  1
  Pd  Pd21  1  0.666472  0.337679  0.996062  1
  Pd  Pd22  1  0.666472  0.337679  0.503938  1
  Pd  Pd23  1  0.333582  0.662332  0.502086  1
