# generated using pymatgen
data_Ho8Lu2Ir5Pt
_symmetry_space_group_name_H-M   'P 1'
_cell_length_a   10.86196919
_cell_length_b   10.86253000
_cell_length_c   6.31520911
_cell_angle_alpha   90.00000000
_cell_angle_beta   89.97840412
_cell_angle_gamma   90.00000000
_symmetry_Int_Tables_number   1
_chemical_formula_structural   Ho8Lu2Ir5Pt
_chemical_formula_sum   'Ho16 Lu4 Ir10 Pt2'
_cell_volume   745.12178405
_cell_formula_units_Z   2
loop_
 _symmetry_equiv_pos_site_id
 _symmetry_equiv_pos_as_xyz
  1  'x, y, z'
loop_
 _atom_site_type_symbol
 _atom_site_label
 _atom_site_symmetry_multiplicity
 _atom_site_fract_x
 _atom_site_fract_y
 _atom_site_fract_z
 _atom_site_occupancy
  Ho  Ho0  1  0.290519  0.087761  0.376746  1
  Ho  Ho1  1  0.290519  0.912239  0.876746  1
  Ho  Ho2  1  0.706937  0.088951  0.875116  1
  Ho  Ho3  1  0.706937  0.911049  0.375116  1
  Ho  Ho4  1  0.584933  0.790120  0.878958  1
  Ho  Ho5  1  0.584933  0.209880  0.378958  1
  Ho  Ho6  1  0.412096  0.790526  0.377734  1
  Ho  Ho7  1  0.412096  0.209474  0.877734  1
  Ho  Ho8  1  0.209524  0.412250  0.622053  1
  Ho  Ho9  1  0.209524  0.587750  0.122053  1
  Ho  Ho10  1  0.789999  0.414599  0.121964  1
  Ho  Ho11  1  0.789999  0.585401  0.621964  1
  Ho  Ho12  1  0.913421  0.707892  0.125292  1
  Ho  Ho13  1  0.913421  0.292108  0.625292  1
  Ho  Ho14  1  0.089902  0.708283  0.622292  1
  Ho  Ho15  1  0.089902  0.291717  0.122292  1
  Lu  Lu16  1  0.002731  0.000057  0.499843  1
  Lu  Lu17  1  0.002731  0.999943  0.999843  1
  Lu  Lu18  1  0.499890  0.499968  0.000183  1
  Lu  Lu19  1  0.499890  0.500032  0.500183  1
  Ir  Ir20  1  0.150599  0.151597  0.750051  1
  Ir  Ir21  1  0.150599  0.848403  0.250051  1
  Ir  Ir22  1  0.652777  0.347583  0.749899  1
  Ir  Ir23  1  0.652777  0.652417  0.249899  1
  Ir  Ir24  1  0.348311  0.348104  0.250116  1
  Ir  Ir25  1  0.348311  0.651896  0.750116  1
  Ir  Ir26  1  0.501007  0.999856  0.123703  1
  Ir  Ir27  1  0.501007  0.000144  0.623703  1
  Ir  Ir28  1  0.999495  0.499978  0.876403  1
  Ir  Ir29  1  0.999495  0.500022  0.376403  1
  Pt  Pt30  1  0.847860  0.151025  0.249648  1
  Pt  Pt31  1  0.847860  0.848975  0.749648  1
