# generated using pymatgen
data_YbHf4CN4
_symmetry_space_group_name_H-M   'P 1'
_cell_length_a   13.73470600
_cell_length_b   13.73470700
_cell_length_c   13.73470700
_cell_angle_alpha   13.52090873
_cell_angle_beta   13.52090919
_cell_angle_gamma   13.52090975
_symmetry_Int_Tables_number   1
_chemical_formula_structural   YbHf4CN4
_chemical_formula_sum   'Yb1 Hf4 C1 N4'
_cell_volume   123.22227315
_cell_formula_units_Z   1
loop_
 _symmetry_equiv_pos_site_id
 _symmetry_equiv_pos_as_xyz
  1  'x, y, z'
loop_
 _atom_site_type_symbol
 _atom_site_label
 _atom_site_symmetry_multiplicity
 _atom_site_fract_x
 _atom_site_fract_y
 _atom_site_fract_z
 _atom_site_occupancy
  Yb  Yb0  1  0.000000  0.000000  0.000000  1
  Hf  Hf1  1  0.598414  0.598414  0.598414  1
  Hf  Hf2  1  0.198554  0.198554  0.198554  1
  Hf  Hf3  1  0.801446  0.801446  0.801446  1
  Hf  Hf4  1  0.401586  0.401586  0.401586  1
  C  C5  1  0.500000  0.500000  0.500000  1
  N  N6  1  0.706104  0.706104  0.706104  1
  N  N7  1  0.100643  0.100643  0.100643  1
  N  N8  1  0.293896  0.293896  0.293896  1
  N  N9  1  0.899357  0.899357  0.899357  1
