# generated using pymatgen
data_NaFe4Ag3P8(O3F)8
_symmetry_space_group_name_H-M   'P 1'
_cell_length_a   14.40797100
_cell_length_b   6.55292599
_cell_length_c   6.56675400
_cell_angle_alpha   83.94683646
_cell_angle_beta   90.00000000
_cell_angle_gamma   90.00000000
_symmetry_Int_Tables_number   1
_chemical_formula_structural   NaFe4Ag3P8(O3F)8
_chemical_formula_sum   'Na1 Fe4 Ag3 P8 O24 F8'
_cell_volume   616.53912470
_cell_formula_units_Z   1
loop_
 _symmetry_equiv_pos_site_id
 _symmetry_equiv_pos_as_xyz
  1  'x, y, z'
loop_
 _atom_site_type_symbol
 _atom_site_label
 _atom_site_symmetry_multiplicity
 _atom_site_fract_x
 _atom_site_fract_y
 _atom_site_fract_z
 _atom_site_occupancy
  Na  Na0  1  0.075099  0.690015  0.995868  1
  Fe  Fe1  1  0.612108  0.731112  0.128580  1
  Fe  Fe2  1  0.108664  0.272786  0.366675  1
  Fe  Fe3  1  0.389467  0.263265  0.870537  1
  Fe  Fe4  1  0.892542  0.733348  0.634138  1
  Ag  Ag5  1  0.434993  0.677308  0.501481  1
  Ag  Ag6  1  0.928081  0.317163  0.000999  1
  Ag  Ag7  1  0.566193  0.322182  0.499910  1
  P  P8  1  0.660774  0.775778  0.630708  1
  P  P9  1  0.155192  0.227900  0.870653  1
  P  P10  1  0.340055  0.222852  0.369665  1
  P  P11  1  0.843501  0.771515  0.129767  1
  P  P12  1  0.394122  0.751127  0.982434  1
  P  P13  1  0.893341  0.246133  0.518562  1
  P  P14  1  0.606749  0.244694  0.017323  1
  P  P15  1  0.105390  0.756498  0.480143  1
  O  O16  1  0.469662  0.736910  0.148601  1
  O  O17  1  0.967724  0.260554  0.349581  1
  O  O18  1  0.530844  0.258392  0.851728  1
  O  O19  1  0.031641  0.741402  0.649147  1
  O  O20  1  0.384333  0.960761  0.863688  1
  O  O21  1  0.883928  0.036605  0.637640  1
  O  O22  1  0.617863  0.034181  0.133809  1
  O  O23  1  0.115012  0.967202  0.361677  1
  O  O24  1  0.602979  0.745130  0.825217  1
  O  O25  1  0.101881  0.256221  0.670941  1
  O  O26  1  0.396899  0.252098  0.173981  1
  O  O27  1  0.896640  0.745997  0.329971  1
  O  O28  1  0.398898  0.580986  0.839420  1
  O  O29  1  0.900469  0.415625  0.661443  1
  O  O30  1  0.600410  0.413563  0.161403  1
  O  O31  1  0.099630  0.588273  0.336850  1
  O  O32  1  0.758000  0.692208  0.649135  1
  O  O33  1  0.254916  0.296383  0.860194  1
  O  O34  1  0.243068  0.308591  0.353758  1
  O  O35  1  0.746533  0.683863  0.135065  1
  O  O36  1  0.606224  0.709126  0.447907  1
  O  O37  1  0.100350  0.312981  0.043665  1
  O  O38  1  0.395608  0.289184  0.550987  1
  O  O39  1  0.904775  0.708446  0.955370  1
  F  F40  1  0.327820  0.981373  0.418477  1
  F  F41  1  0.828488  0.012489  0.079220  1
  F  F42  1  0.672241  0.017574  0.582227  1
  F  F43  1  0.158529  0.985202  0.931040  1
  F  F44  1  0.301267  0.709477  0.108575  1
  F  F45  1  0.800438  0.289695  0.393728  1
  F  F46  1  0.698549  0.291594  0.889714  1
  F  F47  1  0.198111  0.714241  0.608401  1
