# generated using pymatgen
data_LaY3Lu4(CdNi)2
_symmetry_space_group_name_H-M   'P 1'
_cell_length_a   9.50538529
_cell_length_b   9.50538492
_cell_length_c   9.51314200
_cell_angle_alpha   59.97300087
_cell_angle_beta   59.97300218
_cell_angle_gamma   60.46253039
_symmetry_Int_Tables_number   1
_chemical_formula_structural   LaY3Lu4(CdNi)2
_chemical_formula_sum   'La2 Y6 Lu8 Cd4 Ni4'
_cell_volume   609.62807539
_cell_formula_units_Z   2
loop_
 _symmetry_equiv_pos_site_id
 _symmetry_equiv_pos_as_xyz
  1  'x, y, z'
loop_
 _atom_site_type_symbol
 _atom_site_label
 _atom_site_symmetry_multiplicity
 _atom_site_fract_x
 _atom_site_fract_y
 _atom_site_fract_z
 _atom_site_occupancy
  La  La0  1  0.594645  0.594645  0.603649  1
  La  La1  1  0.594645  0.594645  0.207061  1
  Y  Y2  1  0.188064  0.815053  0.812942  1
  Y  Y3  1  0.815053  0.188064  0.183941  1
  Y  Y4  1  0.815053  0.188064  0.812942  1
  Y  Y5  1  0.188064  0.815053  0.183941  1
  Y  Y6  1  0.814073  0.814073  0.185927  1
  Y  Y7  1  0.191569  0.191569  0.808431  1
  Lu  Lu8  1  0.602309  0.195635  0.601029  1
  Lu  Lu9  1  0.195635  0.602309  0.601029  1
  Lu  Lu10  1  0.066821  0.437289  0.432484  1
  Lu  Lu11  1  0.437289  0.066821  0.063405  1
  Lu  Lu12  1  0.437289  0.066821  0.432484  1
  Lu  Lu13  1  0.066821  0.437289  0.063405  1
  Lu  Lu14  1  0.433537  0.433537  0.066463  1
  Lu  Lu15  1  0.065130  0.065130  0.434870  1
  Cd  Cd16  1  0.833491  0.833491  0.826751  1
  Cd  Cd17  1  0.833491  0.833491  0.506265  1
  Cd  Cd18  1  0.834636  0.505724  0.829819  1
  Cd  Cd19  1  0.505724  0.834636  0.829819  1
  Ni  Ni20  1  0.386413  0.386413  0.403741  1
  Ni  Ni21  1  0.386413  0.386413  0.823433  1
  Ni  Ni22  1  0.384739  0.829095  0.393083  1
  Ni  Ni23  1  0.829095  0.384739  0.393083  1
