# generated using pymatgen
data_Sr6ScMn2O12
_symmetry_space_group_name_H-M   'P 1'
_cell_length_a   8.79158319
_cell_length_b   8.79158414
_cell_length_c   6.90810669
_cell_angle_alpha   67.62330592
_cell_angle_beta   67.62330416
_cell_angle_gamma   36.84092977
_symmetry_Int_Tables_number   1
_chemical_formula_structural   Sr6ScMn2O12
_chemical_formula_sum   'Sr6 Sc1 Mn2 O12'
_cell_volume   293.24559965
_cell_formula_units_Z   1
loop_
 _symmetry_equiv_pos_site_id
 _symmetry_equiv_pos_as_xyz
  1  'x, y, z'
loop_
 _atom_site_type_symbol
 _atom_site_label
 _atom_site_symmetry_multiplicity
 _atom_site_fract_x
 _atom_site_fract_y
 _atom_site_fract_z
 _atom_site_occupancy
  Sr  Sr0  1  0.878674  0.878674  0.716876  1
  Sr  Sr1  1  0.216497  0.216497  0.712731  1
  Sr  Sr2  1  0.548168  0.548168  0.709077  1
  Sr  Sr3  1  0.451832  0.451832  0.290923  1
  Sr  Sr4  1  0.783503  0.783503  0.287269  1
  Sr  Sr5  1  0.121326  0.121326  0.283124  1
  Sc  Sc6  1  0.000000  0.000000  0.000000  1
  Mn  Mn7  1  0.667239  0.667239  0.999359  1
  Mn  Mn8  1  0.332761  0.332761  0.000641  1
  O  O9  1  0.943879  0.943879  0.332716  1
  O  O10  1  0.280767  0.280767  0.313784  1
  O  O11  1  0.615464  0.615464  0.312423  1
  O  O12  1  0.384536  0.384536  0.687577  1
  O  O13  1  0.719233  0.719233  0.686216  1
  O  O14  1  0.056121  0.056121  0.667284  1
  O  O15  1  0.500000  0.000000  0.000000  1
  O  O16  1  0.826549  0.349019  0.999320  1
  O  O17  1  0.173451  0.650981  0.000680  1
  O  O18  1  0.000000  0.500000  0.000000  1
  O  O19  1  0.349019  0.826549  0.999320  1
  O  O20  1  0.650981  0.173451  0.000680  1
