# generated using pymatgen
data_La5Nd7(Si2Ni)4
_symmetry_space_group_name_H-M   'P 1'
_cell_length_a   4.31098500
_cell_length_b   11.86314178
_cell_length_c   11.79847914
_cell_angle_alpha   89.97079556
_cell_angle_beta   90.00000000
_cell_angle_gamma   90.00000000
_symmetry_Int_Tables_number   1
_chemical_formula_structural   La5Nd7(Si2Ni)4
_chemical_formula_sum   'La5 Nd7 Si8 Ni4'
_cell_volume   603.39569203
_cell_formula_units_Z   1
loop_
 _symmetry_equiv_pos_site_id
 _symmetry_equiv_pos_as_xyz
  1  'x, y, z'
loop_
 _atom_site_type_symbol
 _atom_site_label
 _atom_site_symmetry_multiplicity
 _atom_site_fract_x
 _atom_site_fract_y
 _atom_site_fract_z
 _atom_site_occupancy
  La  La0  1  0.250000  0.057573  0.885497  1
  La  La1  1  0.250000  0.443662  0.385779  1
  La  La2  1  0.750000  0.941068  0.113774  1
  La  La3  1  0.750000  0.559454  0.614831  1
  La  La4  1  0.250000  0.121409  0.561737  1
  Nd  Nd5  1  0.250000  0.377952  0.062690  1
  Nd  Nd6  1  0.750000  0.877451  0.436361  1
  Nd  Nd7  1  0.750000  0.621404  0.938980  1
  Nd  Nd8  1  0.250000  0.802204  0.710858  1
  Nd  Nd9  1  0.250000  0.693690  0.209325  1
  Nd  Nd10  1  0.750000  0.195303  0.288180  1
  Nd  Nd11  1  0.750000  0.308939  0.791074  1
  Si  Si12  1  0.250000  0.808099  0.967608  1
  Si  Si13  1  0.250000  0.691985  0.466610  1
  Si  Si14  1  0.750000  0.190954  0.031995  1
  Si  Si15  1  0.750000  0.312151  0.533914  1
  Si  Si16  1  0.250000  0.487530  0.802982  1
  Si  Si17  1  0.250000  0.014672  0.300255  1
  Si  Si18  1  0.750000  0.513571  0.197897  1
  Si  Si19  1  0.750000  0.980114  0.699525  1
  Ni  Ni20  1  0.250000  0.363500  0.630635  1
  Ni  Ni21  1  0.250000  0.138239  0.129001  1
  Ni  Ni22  1  0.750000  0.639741  0.369038  1
  Ni  Ni23  1  0.750000  0.859334  0.871452  1
