# generated using pymatgen
data_TlPdRu3Pb3O13
_symmetry_space_group_name_H-M   'P 1'
_cell_length_a   7.36343588
_cell_length_b   7.33564925
_cell_length_c   7.40122000
_cell_angle_alpha   59.70387798
_cell_angle_beta   59.83012076
_cell_angle_gamma   59.50334711
_symmetry_Int_Tables_number   1
_chemical_formula_structural   TlPdRu3Pb3O13
_chemical_formula_sum   'Tl1 Pd1 Ru3 Pb3 O13'
_cell_volume   280.62258282
_cell_formula_units_Z   1
loop_
 _symmetry_equiv_pos_site_id
 _symmetry_equiv_pos_as_xyz
  1  'x, y, z'
loop_
 _atom_site_type_symbol
 _atom_site_label
 _atom_site_symmetry_multiplicity
 _atom_site_fract_x
 _atom_site_fract_y
 _atom_site_fract_z
 _atom_site_occupancy
  Tl  Tl0  1  0.886825  0.370260  0.371457  1
  Pd  Pd1  1  0.874105  0.375607  0.875144  1
  Ru  Ru2  1  0.872011  0.876940  0.374347  1
  Ru  Ru3  1  0.872011  0.876940  0.876701  1
  Ru  Ru4  1  0.373659  0.877062  0.874639  1
  Pb  Pb5  1  0.371627  0.377693  0.373680  1
  Pb  Pb6  1  0.371627  0.377693  0.877000  1
  Pb  Pb7  1  0.368432  0.879626  0.375972  1
  O  O8  1  0.199983  0.806250  0.794725  1
  O  O9  1  0.199983  0.806250  0.199042  1
  O  O10  1  0.556787  0.935246  0.949736  1
  O  O11  1  0.556787  0.935246  0.558231  1
  O  O12  1  0.954702  0.937651  0.553823  1
  O  O13  1  0.799720  0.811929  0.194176  1
  O  O14  1  0.538422  0.553550  0.954014  1
  O  O15  1  0.797593  0.195030  0.798224  1
  O  O16  1  0.797593  0.195030  0.209152  1
  O  O17  1  0.954581  0.556251  0.948544  1
  O  O18  1  0.954581  0.556251  0.540624  1
  O  O19  1  0.210065  0.196674  0.796630  1
  O  O20  1  0.488906  0.502816  0.504139  1
