# generated using pymatgen
data_Tc5MoP2
_symmetry_space_group_name_H-M   'P 1'
_cell_length_a   7.19074469
_cell_length_b   7.20770669
_cell_length_c   7.20770638
_cell_angle_alpha   96.70584061
_cell_angle_beta   96.57799306
_cell_angle_gamma   140.42182046
_symmetry_Int_Tables_number   1
_chemical_formula_structural   Tc5MoP2
_chemical_formula_sum   'Tc10 Mo2 P4'
_cell_volume   223.68998580
_cell_formula_units_Z   2
loop_
 _symmetry_equiv_pos_site_id
 _symmetry_equiv_pos_as_xyz
  1  'x, y, z'
loop_
 _atom_site_type_symbol
 _atom_site_label
 _atom_site_symmetry_multiplicity
 _atom_site_fract_x
 _atom_site_fract_y
 _atom_site_fract_z
 _atom_site_occupancy
  Tc  Tc0  1  0.908343  0.907262  0.410994  1
  Tc  Tc1  1  0.091657  0.502651  0.998919  1
  Tc  Tc2  1  0.497033  0.088796  0.999640  1
  Tc  Tc3  1  0.502967  0.502607  0.591763  1
  Tc  Tc4  1  0.000000  0.349426  0.349426  1
  Tc  Tc5  1  0.647329  0.998954  0.652449  1
  Tc  Tc6  1  0.352671  0.005120  0.351625  1
  Tc  Tc7  1  0.000000  0.650475  0.650475  1
  Tc  Tc8  1  0.104708  0.103342  0.805559  1
  Tc  Tc9  1  0.895292  0.700852  0.998634  1
  Mo  Mo10  1  0.698291  0.890749  0.998038  1
  Mo  Mo11  1  0.301709  0.299747  0.192458  1
  P  P12  1  0.500000  0.209899  0.709899  1
  P  P13  1  0.799188  0.504578  0.290134  1
  P  P14  1  0.200812  0.490946  0.705390  1
  P  P15  1  0.500000  0.794596  0.294596  1
