# generated using pymatgen
data_Tb3YV4F28
_symmetry_space_group_name_H-M   'P 1'
_cell_length_a   5.53194101
_cell_length_b   8.84716159
_cell_length_c   11.82744937
_cell_angle_alpha   63.33212466
_cell_angle_beta   89.99483869
_cell_angle_gamma   89.99522224
_symmetry_Int_Tables_number   1
_chemical_formula_structural   Tb3YV4F28
_chemical_formula_sum   'Tb3 Y1 V4 F28'
_cell_volume   517.28158410
_cell_formula_units_Z   1
loop_
 _symmetry_equiv_pos_site_id
 _symmetry_equiv_pos_as_xyz
  1  'x, y, z'
loop_
 _atom_site_type_symbol
 _atom_site_label
 _atom_site_symmetry_multiplicity
 _atom_site_fract_x
 _atom_site_fract_y
 _atom_site_fract_z
 _atom_site_occupancy
  Tb  Tb0  1  0.258273  0.807324  0.270320  1
  Tb  Tb1  1  0.741748  0.192513  0.729673  1
  Tb  Tb2  1  0.758266  0.192699  0.229647  1
  Y  Y3  1  0.241674  0.807482  0.770322  1
  V  V4  1  0.754338  0.726455  0.045168  1
  V  V5  1  0.245643  0.273664  0.954726  1
  V  V6  1  0.254339  0.273493  0.454745  1
  V  V7  1  0.745631  0.726513  0.545353  1
  F  F8  1  0.950580  0.705295  0.425042  1
  F  F9  1  0.049372  0.294714  0.574986  1
  F  F10  1  0.450586  0.294673  0.074984  1
  F  F11  1  0.549308  0.705276  0.924973  1
  F  F12  1  0.481490  0.731498  0.140915  1
  F  F13  1  0.518538  0.268505  0.859078  1
  F  F14  1  0.981482  0.268500  0.359089  1
  F  F15  1  0.018687  0.731530  0.641050  1
  F  F16  1  0.957756  0.747365  0.168426  1
  F  F17  1  0.042195  0.252650  0.831548  1
  F  F18  1  0.457789  0.252633  0.331552  1
  F  F19  1  0.541808  0.747438  0.668605  1
  F  F20  1  0.766837  0.494283  0.138146  1
  F  F21  1  0.233158  0.505856  0.861774  1
  F  F22  1  0.266842  0.505758  0.361828  1
  F  F23  1  0.733151  0.494290  0.638167  1
  F  F24  1  0.964260  0.285484  0.044673  1
  F  F25  1  0.035906  0.714570  0.955186  1
  F  F26  1  0.464297  0.714487  0.455343  1
  F  F27  1  0.535782  0.285502  0.544683  1
  F  F28  1  0.742979  0.956065  0.454857  1
  F  F29  1  0.257051  0.044031  0.545017  1
  F  F30  1  0.242978  0.043941  0.045160  1
  F  F31  1  0.757037  0.956126  0.954864  1
  F  F32  1  0.578100  0.973174  0.231183  1
  F  F33  1  0.421656  0.026449  0.768849  1
  F  F34  1  0.078112  0.026803  0.268828  1
  F  F35  1  0.922349  0.972962  0.731239  1
