# generated using pymatgen
data_La5AsSe4
_symmetry_space_group_name_H-M   'P 1'
_cell_length_a   7.49674139
_cell_length_b   7.49673051
_cell_length_c   7.49673655
_cell_angle_alpha   99.63752596
_cell_angle_beta   99.63699395
_cell_angle_gamma   131.69622159
_symmetry_Int_Tables_number   1
_chemical_formula_structural   La5AsSe4
_chemical_formula_sum   'La5 As1 Se4'
_cell_volume   287.05682939
_cell_formula_units_Z   1
loop_
 _symmetry_equiv_pos_site_id
 _symmetry_equiv_pos_as_xyz
  1  'x, y, z'
loop_
 _atom_site_type_symbol
 _atom_site_label
 _atom_site_symmetry_multiplicity
 _atom_site_fract_x
 _atom_site_fract_y
 _atom_site_fract_z
 _atom_site_occupancy
  La  La0  1  0.401268  0.796749  0.198018  1
  La  La1  1  0.000000  0.000000  0.000000  1
  La  La2  1  0.598732  0.203251  0.801982  1
  La  La3  1  0.203181  0.401266  0.604447  1
  La  La4  1  0.796819  0.598734  0.395553  1
  As  As5  1  0.500000  0.500000  0.000000  1
  Se  Se6  1  0.100319  0.699903  0.800221  1
  Se  Se7  1  0.699900  0.899680  0.599579  1
  Se  Se8  1  0.300100  0.100320  0.400421  1
  Se  Se9  1  0.899681  0.300097  0.199779  1
