# generated using pymatgen
data_Dy4Ti4Mn9Fe7P12
_symmetry_space_group_name_H-M   'P 1'
_cell_length_a   3.63888900
_cell_length_b   10.65284678
_cell_length_c   12.35554247
_cell_angle_alpha   89.91568578
_cell_angle_beta   90.00000000
_cell_angle_gamma   90.00000000
_symmetry_Int_Tables_number   1
_chemical_formula_structural   Dy4Ti4Mn9Fe7P12
_chemical_formula_sum   'Dy4 Ti4 Mn9 Fe7 P12'
_cell_volume   478.95624055
_cell_formula_units_Z   1
loop_
 _symmetry_equiv_pos_site_id
 _symmetry_equiv_pos_as_xyz
  1  'x, y, z'
loop_
 _atom_site_type_symbol
 _atom_site_label
 _atom_site_symmetry_multiplicity
 _atom_site_fract_x
 _atom_site_fract_y
 _atom_site_fract_z
 _atom_site_occupancy
  Dy  Dy0  1  0.250000  0.580554  0.711424  1
  Dy  Dy1  1  0.250000  0.917851  0.211319  1
  Dy  Dy2  1  0.750000  0.417723  0.288737  1
  Dy  Dy3  1  0.750000  0.084039  0.790639  1
  Ti  Ti4  1  0.250000  0.700124  0.988475  1
  Ti  Ti5  1  0.250000  0.797924  0.487638  1
  Ti  Ti6  1  0.750000  0.299852  0.010387  1
  Ti  Ti7  1  0.750000  0.200776  0.510235  1
  Mn  Mn8  1  0.250000  0.407788  0.492475  1
  Mn  Mn9  1  0.250000  0.092018  0.993174  1
  Mn  Mn10  1  0.750000  0.590085  0.506224  1
  Mn  Mn11  1  0.750000  0.908328  0.008149  1
  Mn  Mn12  1  0.250000  0.216954  0.175885  1
  Mn  Mn13  1  0.250000  0.284595  0.676162  1
  Mn  Mn14  1  0.750000  0.781861  0.825268  1
  Mn  Mn15  1  0.750000  0.717046  0.324200  1
  Mn  Mn16  1  0.250000  0.877039  0.699570  1
  Fe  Fe17  1  0.250000  0.625655  0.200988  1
  Fe  Fe18  1  0.750000  0.125716  0.298979  1
  Fe  Fe19  1  0.750000  0.374433  0.799105  1
  Fe  Fe20  1  0.250000  0.462574  0.932563  1
  Fe  Fe21  1  0.250000  0.037449  0.432906  1
  Fe  Fe22  1  0.750000  0.537693  0.067746  1
  Fe  Fe23  1  0.750000  0.962299  0.568875  1
  P  P24  1  0.250000  0.430231  0.111842  1
  P  P25  1  0.250000  0.073582  0.611919  1
  P  P26  1  0.750000  0.570024  0.888057  1
  P  P27  1  0.750000  0.930428  0.388232  1
  P  P28  1  0.250000  0.267984  0.866389  1
  P  P29  1  0.250000  0.232437  0.365820  1
  P  P30  1  0.750000  0.732486  0.133877  1
  P  P31  1  0.750000  0.763282  0.632422  1
  P  P32  1  0.250000  0.590327  0.384565  1
  P  P33  1  0.250000  0.908599  0.886015  1
  P  P34  1  0.750000  0.408415  0.614652  1
  P  P35  1  0.750000  0.091829  0.115086  1
