# generated using pymatgen
data_Pr3Cd3Sn2Hg
_symmetry_space_group_name_H-M   'P 1'
_cell_length_a   7.75109200
_cell_length_b   7.75109100
_cell_length_c   4.69308900
_cell_angle_alpha   90.00000000
_cell_angle_beta   90.00000000
_cell_angle_gamma   119.99999574
_symmetry_Int_Tables_number   1
_chemical_formula_structural   Pr3Cd3Sn2Hg
_chemical_formula_sum   'Pr3 Cd3 Sn2 Hg1'
_cell_volume   244.18285537
_cell_formula_units_Z   1
loop_
 _symmetry_equiv_pos_site_id
 _symmetry_equiv_pos_as_xyz
  1  'x, y, z'
loop_
 _atom_site_type_symbol
 _atom_site_label
 _atom_site_symmetry_multiplicity
 _atom_site_fract_x
 _atom_site_fract_y
 _atom_site_fract_z
 _atom_site_occupancy
  Pr  Pr0  1  0.587587  0.000000  0.000000  1
  Pr  Pr1  1  0.000000  0.587587  0.000000  1
  Pr  Pr2  1  0.412413  0.412413  0.000000  1
  Cd  Cd3  1  0.244885  0.000000  0.500000  1
  Cd  Cd4  1  0.000000  0.244885  0.500000  1
  Cd  Cd5  1  0.755115  0.755115  0.500000  1
  Sn  Sn6  1  0.333333  0.666667  0.500000  1
  Sn  Sn7  1  0.666667  0.333333  0.500000  1
  Hg  Hg8  1  0.000000  0.000000  0.000000  1
