# generated using pymatgen
data_Y18Er2Cd6RuRh
_symmetry_space_group_name_H-M   'P 1'
_cell_length_a   9.67282900
_cell_length_b   9.67282820
_cell_length_c   9.85967300
_cell_angle_alpha   90.00000000
_cell_angle_beta   90.00000000
_cell_angle_gamma   119.99999933
_symmetry_Int_Tables_number   1
_chemical_formula_structural   Y18Er2Cd6RuRh
_chemical_formula_sum   'Y18 Er2 Cd6 Ru1 Rh1'
_cell_volume   798.91418183
_cell_formula_units_Z   1
loop_
 _symmetry_equiv_pos_site_id
 _symmetry_equiv_pos_as_xyz
  1  'x, y, z'
loop_
 _atom_site_type_symbol
 _atom_site_label
 _atom_site_symmetry_multiplicity
 _atom_site_fract_x
 _atom_site_fract_y
 _atom_site_fract_z
 _atom_site_occupancy
  Y  Y0  1  0.208954  0.791046  0.440445  1
  Y  Y1  1  0.208954  0.417909  0.440445  1
  Y  Y2  1  0.582091  0.791046  0.440445  1
  Y  Y3  1  0.790677  0.209323  0.560107  1
  Y  Y4  1  0.790677  0.581352  0.560107  1
  Y  Y5  1  0.418648  0.209323  0.560107  1
  Y  Y6  1  0.790677  0.209323  0.939893  1
  Y  Y7  1  0.790677  0.581352  0.939893  1
  Y  Y8  1  0.418648  0.209323  0.939893  1
  Y  Y9  1  0.208954  0.791046  0.059555  1
  Y  Y10  1  0.208954  0.417909  0.059555  1
  Y  Y11  1  0.582091  0.791046  0.059555  1
  Y  Y12  1  0.542145  0.457855  0.250000  1
  Y  Y13  1  0.542145  0.084290  0.250000  1
  Y  Y14  1  0.915710  0.457855  0.250000  1
  Y  Y15  1  0.458655  0.541345  0.750000  1
  Y  Y16  1  0.458655  0.917312  0.750000  1
  Y  Y17  1  0.082688  0.541345  0.750000  1
  Er  Er18  1  0.000000  0.000000  0.499541  1
  Er  Er19  1  0.000000  0.000000  0.000459  1
  Cd  Cd20  1  0.885523  0.114477  0.250000  1
  Cd  Cd21  1  0.885523  0.771048  0.250000  1
  Cd  Cd22  1  0.228952  0.114477  0.250000  1
  Cd  Cd23  1  0.114509  0.885491  0.750000  1
  Cd  Cd24  1  0.114509  0.229016  0.750000  1
  Cd  Cd25  1  0.770984  0.885491  0.750000  1
  Ru  Ru26  1  0.666667  0.333333  0.750000  1
  Rh  Rh27  1  0.333333  0.666667  0.250000  1
