# generated using pymatgen
data_Na7Pa4AgI24
_symmetry_space_group_name_H-M   'P 1'
_cell_length_a   8.01617400
_cell_length_b   8.01617495
_cell_length_c   29.97940100
_cell_angle_alpha   90.00000000
_cell_angle_beta   90.00000000
_cell_angle_gamma   119.99998782
_symmetry_Int_Tables_number   1
_chemical_formula_structural   Na7Pa4AgI24
_chemical_formula_sum   'Na7 Pa4 Ag1 I24'
_cell_volume   1668.35304618
_cell_formula_units_Z   1
loop_
 _symmetry_equiv_pos_site_id
 _symmetry_equiv_pos_as_xyz
  1  'x, y, z'
loop_
 _atom_site_type_symbol
 _atom_site_label
 _atom_site_symmetry_multiplicity
 _atom_site_fract_x
 _atom_site_fract_y
 _atom_site_fract_z
 _atom_site_occupancy
  Na  Na0  1  0.000000  0.000000  0.249942  1
  Na  Na1  1  0.000000  0.000000  0.749978  1
  Na  Na2  1  0.333333  0.666667  0.000715  1
  Na  Na3  1  0.333333  0.666667  0.499269  1
  Na  Na4  1  0.333333  0.666667  0.249920  1
  Na  Na5  1  0.666667  0.333333  0.749876  1
  Na  Na6  1  0.666667  0.333333  0.999116  1
  Pa  Pa7  1  0.000000  0.000000  0.000177  1
  Pa  Pa8  1  0.000000  0.000000  0.500098  1
  Pa  Pa9  1  0.333333  0.666667  0.749889  1
  Pa  Pa10  1  0.666667  0.333333  0.250041  1
  Ag  Ag11  1  0.666667  0.333333  0.501039  1
  I  I12  1  0.355116  0.020588  0.308546  1
  I  I13  1  0.333996  0.979163  0.808538  1
  I  I14  1  0.998223  0.311978  0.058720  1
  I  I15  1  0.986313  0.311349  0.557091  1
  I  I16  1  0.979412  0.334529  0.308546  1
  I  I17  1  0.020837  0.354832  0.808538  1
  I  I18  1  0.354768  0.333193  0.191414  1
  I  I19  1  0.333538  0.354640  0.691246  1
  I  I20  1  0.325190  0.310288  0.443010  1
  I  I21  1  0.311262  0.312996  0.941414  1
  I  I22  1  0.689712  0.014902  0.443010  1
  I  I23  1  0.313754  0.001777  0.058720  1
  I  I24  1  0.325034  0.013687  0.557091  1
  I  I25  1  0.688022  0.686246  0.058720  1
  I  I26  1  0.688651  0.674966  0.557091  1
  I  I27  1  0.665471  0.644884  0.308546  1
  I  I28  1  0.645168  0.666004  0.808538  1
  I  I29  1  0.978424  0.645232  0.191414  1
  I  I30  1  0.021103  0.666462  0.691246  1
  I  I31  1  0.985098  0.674810  0.443010  1
  I  I32  1  0.001735  0.688738  0.941414  1
  I  I33  1  0.687004  0.998265  0.941414  1
  I  I34  1  0.666807  0.021576  0.191414  1
  I  I35  1  0.645360  0.978897  0.691246  1
