# generated using pymatgen
data_Tb7Np(Si3Pt)4
_symmetry_space_group_name_H-M   'P 1'
_cell_length_a   8.11387000
_cell_length_b   8.11386990
_cell_length_c   8.13021900
_cell_angle_alpha   90.00000000
_cell_angle_beta   90.00000000
_cell_angle_gamma   119.99999227
_symmetry_Int_Tables_number   1
_chemical_formula_structural   Tb7Np(Si3Pt)4
_chemical_formula_sum   'Tb7 Np1 Si12 Pt4'
_cell_volume   463.54189775
_cell_formula_units_Z   1
loop_
 _symmetry_equiv_pos_site_id
 _symmetry_equiv_pos_as_xyz
  1  'x, y, z'
loop_
 _atom_site_type_symbol
 _atom_site_label
 _atom_site_symmetry_multiplicity
 _atom_site_fract_x
 _atom_site_fract_y
 _atom_site_fract_z
 _atom_site_occupancy
  Tb  Tb0  1  0.000000  0.000000  0.750000  1
  Tb  Tb1  1  0.001900  0.500950  0.250000  1
  Tb  Tb2  1  0.499050  0.500950  0.250000  1
  Tb  Tb3  1  0.500922  0.001844  0.750000  1
  Tb  Tb4  1  0.499050  0.998100  0.250000  1
  Tb  Tb5  1  0.500922  0.499078  0.750000  1
  Tb  Tb6  1  0.998156  0.499078  0.750000  1
  Np  Np7  1  0.000000  0.000000  0.250000  1
  Si  Si8  1  0.164859  0.329719  0.001445  1
  Si  Si9  1  0.670281  0.835141  0.001445  1
  Si  Si10  1  0.164859  0.329719  0.498555  1
  Si  Si11  1  0.329646  0.164823  0.003118  1
  Si  Si12  1  0.164859  0.835141  0.001445  1
  Si  Si13  1  0.670281  0.835141  0.498555  1
  Si  Si14  1  0.835177  0.670354  0.003118  1
  Si  Si15  1  0.329646  0.164823  0.496882  1
  Si  Si16  1  0.164859  0.835141  0.498555  1
  Si  Si17  1  0.835177  0.670354  0.496882  1
  Si  Si18  1  0.835177  0.164823  0.003118  1
  Si  Si19  1  0.835177  0.164823  0.496882  1
  Pt  Pt20  1  0.333333  0.666667  0.997012  1
  Pt  Pt21  1  0.333333  0.666667  0.502988  1
  Pt  Pt22  1  0.666667  0.333333  0.001209  1
  Pt  Pt23  1  0.666667  0.333333  0.498791  1
