# generated using pymatgen
data_Ba4CdSeO8
_symmetry_space_group_name_H-M   'P 1'
_cell_length_a   7.17690500
_cell_length_b   7.17690575
_cell_length_c   5.93682600
_cell_angle_alpha   90.00000000
_cell_angle_beta   90.00000000
_cell_angle_gamma   131.61323022
_symmetry_Int_Tables_number   1
_chemical_formula_structural   Ba4CdSeO8
_chemical_formula_sum   'Ba4 Cd1 Se1 O8'
_cell_volume   228.62517807
_cell_formula_units_Z   1
loop_
 _symmetry_equiv_pos_site_id
 _symmetry_equiv_pos_as_xyz
  1  'x, y, z'
loop_
 _atom_site_type_symbol
 _atom_site_label
 _atom_site_symmetry_multiplicity
 _atom_site_fract_x
 _atom_site_fract_y
 _atom_site_fract_z
 _atom_site_occupancy
  Ba  Ba0  1  0.356956  0.643044  0.000000  1
  Ba  Ba1  1  0.854873  0.145127  0.500000  1
  Ba  Ba2  1  0.145127  0.854873  0.500000  1
  Ba  Ba3  1  0.643044  0.356956  0.000000  1
  Cd  Cd4  1  0.000000  0.000000  0.000000  1
  Se  Se5  1  0.500000  0.500000  0.500000  1
  O  O6  1  0.279037  0.279037  0.715527  1
  O  O7  1  0.720963  0.720963  0.284473  1
  O  O8  1  0.720963  0.720963  0.715527  1
  O  O9  1  0.279037  0.279037  0.284473  1
  O  O10  1  0.163962  0.836038  0.000000  1
  O  O11  1  0.646162  0.353838  0.500000  1
  O  O12  1  0.353838  0.646162  0.500000  1
  O  O13  1  0.836038  0.163962  0.000000  1
