# generated using pymatgen
data_Tb4ErOsRu
_symmetry_space_group_name_H-M   'P 1'
_cell_length_a   6.38980849
_cell_length_b   7.31353967
_cell_length_c   8.49577582
_cell_angle_alpha   96.71230600
_cell_angle_beta   112.08971489
_cell_angle_gamma   90.00000181
_symmetry_Int_Tables_number   1
_chemical_formula_structural   Tb4ErOsRu
_chemical_formula_sum   'Tb8 Er2 Os2 Ru2'
_cell_volume   364.94374897
_cell_formula_units_Z   2
loop_
 _symmetry_equiv_pos_site_id
 _symmetry_equiv_pos_as_xyz
  1  'x, y, z'
loop_
 _atom_site_type_symbol
 _atom_site_label
 _atom_site_symmetry_multiplicity
 _atom_site_fract_x
 _atom_site_fract_y
 _atom_site_fract_z
 _atom_site_occupancy
  Tb  Tb0  1  0.793139  0.583722  0.816090  1
  Tb  Tb1  1  0.977049  0.916278  0.183910  1
  Tb  Tb2  1  0.207829  0.415529  0.185302  1
  Tb  Tb3  1  0.022527  0.084471  0.814698  1
  Tb  Tb4  1  0.206005  0.685018  0.566491  1
  Tb  Tb5  1  0.639513  0.814982  0.433509  1
  Tb  Tb6  1  0.793590  0.314809  0.433154  1
  Tb  Tb7  1  0.360437  0.185191  0.566846  1
  Er  Er8  1  0.424027  0.750000  0.000000  1
  Er  Er9  1  0.577727  0.250000  0.000000  1
  Os  Os10  1  0.602717  0.924904  0.782035  1
  Os  Os11  1  0.820681  0.575096  0.217965  1
  Ru  Ru12  1  0.396600  0.075488  0.218443  1
  Ru  Ru13  1  0.178158  0.424512  0.781557  1
