# generated using pymatgen
data_Tm6Al24ZnRu7
_symmetry_space_group_name_H-M   'P 1'
_cell_length_a   8.78502265
_cell_length_b   8.78502278
_cell_length_c   9.52286007
_cell_angle_alpha   90.01217227
_cell_angle_beta   89.98782724
_cell_angle_gamma   119.82195900
_symmetry_Int_Tables_number   1
_chemical_formula_structural   Tm6Al24ZnRu7
_chemical_formula_sum   'Tm6 Al24 Zn1 Ru7'
_cell_volume   637.61739572
_cell_formula_units_Z   1
loop_
 _symmetry_equiv_pos_site_id
 _symmetry_equiv_pos_as_xyz
  1  'x, y, z'
loop_
 _atom_site_type_symbol
 _atom_site_label
 _atom_site_symmetry_multiplicity
 _atom_site_fract_x
 _atom_site_fract_y
 _atom_site_fract_z
 _atom_site_occupancy
  Tm  Tm0  1  0.804165  0.195835  0.746374  1
  Tm  Tm1  1  0.195835  0.804165  0.253626  1
  Tm  Tm2  1  0.387132  0.191670  0.752391  1
  Tm  Tm3  1  0.612868  0.808330  0.247609  1
  Tm  Tm4  1  0.808330  0.612868  0.752391  1
  Tm  Tm5  1  0.191670  0.387132  0.247609  1
  Al  Al6  1  0.670871  0.329129  0.976885  1
  Al  Al7  1  0.329129  0.670871  0.023115  1
  Al  Al8  1  0.333769  0.666231  0.478970  1
  Al  Al9  1  0.666231  0.333769  0.521030  1
  Al  Al10  1  0.836983  0.163017  0.421289  1
  Al  Al11  1  0.163017  0.836983  0.578711  1
  Al  Al12  1  0.324854  0.162930  0.423968  1
  Al  Al13  1  0.163219  0.836781  0.920206  1
  Al  Al14  1  0.675146  0.837070  0.576032  1
  Al  Al15  1  0.836781  0.163219  0.079794  1
  Al  Al16  1  0.837070  0.675146  0.423968  1
  Al  Al17  1  0.677319  0.848760  0.918741  1
  Al  Al18  1  0.162930  0.324854  0.576032  1
  Al  Al19  1  0.322681  0.151240  0.081259  1
  Al  Al20  1  0.151240  0.322681  0.918741  1
  Al  Al21  1  0.848760  0.677319  0.081259  1
  Al  Al22  1  0.436726  0.563274  0.745191  1
  Al  Al23  1  0.563274  0.436726  0.254809  1
  Al  Al24  1  0.121603  0.561576  0.750975  1
  Al  Al25  1  0.878397  0.438424  0.249025  1
  Al  Al26  1  0.438424  0.878397  0.750975  1
  Al  Al27  1  0.561576  0.121603  0.249025  1
  Al  Al28  1  0.000990  0.999010  0.749588  1
  Al  Al29  1  0.999010  0.000990  0.250412  1
  Zn  Zn30  1  0.500000  0.500000  0.000000  1
  Ru  Ru31  1  0.000000  0.500000  0.000000  1
  Ru  Ru32  1  0.500000  0.500000  0.500000  1
  Ru  Ru33  1  0.500000  0.000000  0.000000  1
  Ru  Ru34  1  0.000000  0.500000  0.500000  1
  Ru  Ru35  1  0.500000  0.000000  0.500000  1
  Ru  Ru36  1  0.000000  0.000000  0.000000  1
  Ru  Ru37  1  0.000000  0.000000  0.500000  1
