# generated using pymatgen
data_LiTbNdAgSn2
_symmetry_space_group_name_H-M   'P 1'
_cell_length_a   4.76132400
_cell_length_b   4.76132267
_cell_length_c   7.47517900
_cell_angle_alpha   90.00000000
_cell_angle_beta   90.00000000
_cell_angle_gamma   120.00000926
_symmetry_Int_Tables_number   1
_chemical_formula_structural   LiTbNdAgSn2
_chemical_formula_sum   'Li1 Tb1 Nd1 Ag1 Sn2'
_cell_volume   146.75994394
_cell_formula_units_Z   1
loop_
 _symmetry_equiv_pos_site_id
 _symmetry_equiv_pos_as_xyz
  1  'x, y, z'
loop_
 _atom_site_type_symbol
 _atom_site_label
 _atom_site_symmetry_multiplicity
 _atom_site_fract_x
 _atom_site_fract_y
 _atom_site_fract_z
 _atom_site_occupancy
  Li  Li0  1  0.666667  0.333333  0.505765  1
  Tb  Tb1  1  0.000000  0.000000  0.231240  1
  Nd  Nd2  1  0.000000  0.000000  0.732236  1
  Ag  Ag3  1  0.333333  0.666667  0.049734  1
  Sn  Sn4  1  0.333333  0.666667  0.458192  1
  Sn  Sn5  1  0.666667  0.333333  0.956834  1
