# generated using pymatgen
data_Ca3Hg(PO3)8
_symmetry_space_group_name_H-M   'P 1'
_cell_length_a   7.78692949
_cell_length_b   7.79806919
_cell_length_c   10.81468606
_cell_angle_alpha   65.90360159
_cell_angle_beta   66.19152346
_cell_angle_gamma   69.73419994
_symmetry_Int_Tables_number   1
_chemical_formula_structural   Ca3Hg(PO3)8
_chemical_formula_sum   'Ca3 Hg1 P8 O24'
_cell_volume   535.34273936
_cell_formula_units_Z   1
loop_
 _symmetry_equiv_pos_site_id
 _symmetry_equiv_pos_as_xyz
  1  'x, y, z'
loop_
 _atom_site_type_symbol
 _atom_site_label
 _atom_site_symmetry_multiplicity
 _atom_site_fract_x
 _atom_site_fract_y
 _atom_site_fract_z
 _atom_site_occupancy
  Ca  Ca0  1  0.966410  0.033739  0.248777  1
  Ca  Ca1  1  0.033590  0.966261  0.751223  1
  Ca  Ca2  1  0.500000  0.000000  0.500000  1
  Hg  Hg3  1  0.000000  0.500000  0.000000  1
  P  P4  1  0.281703  0.734622  0.022355  1
  P  P5  1  0.264529  0.720615  0.477981  1
  P  P6  1  0.718297  0.265378  0.977645  1
  P  P7  1  0.735471  0.279385  0.522019  1
  P  P8  1  0.318513  0.309051  0.186369  1
  P  P9  1  0.690023  0.682986  0.312787  1
  P  P10  1  0.681487  0.690949  0.813631  1
  P  P11  1  0.309977  0.317014  0.687213  1
  O  O12  1  0.186592  0.896350  0.082821  1
  O  O13  1  0.102839  0.815327  0.416401  1
  O  O14  1  0.813408  0.103650  0.917179  1
  O  O15  1  0.897161  0.184673  0.583599  1
  O  O16  1  0.203489  0.721450  0.918985  1
  O  O17  1  0.282225  0.804232  0.575713  1
  O  O18  1  0.796511  0.278550  0.081015  1
  O  O19  1  0.717775  0.195768  0.424287  1
  O  O20  1  0.492757  0.264151  0.050729  1
  O  O21  1  0.741125  0.503571  0.444997  1
  O  O22  1  0.507243  0.735849  0.949271  1
  O  O23  1  0.258875  0.496429  0.555003  1
  O  O24  1  0.286352  0.536930  0.153920  1
  O  O25  1  0.461832  0.710259  0.347084  1
  O  O26  1  0.713648  0.463070  0.846080  1
  O  O27  1  0.538168  0.289741  0.652916  1
  O  O28  1  0.367636  0.205895  0.321184  1
  O  O29  1  0.788226  0.643153  0.174814  1
  O  O30  1  0.632364  0.794105  0.678816  1
  O  O31  1  0.211774  0.356847  0.825186  1
  O  O32  1  0.144913  0.272322  0.177129  1
  O  O33  1  0.722884  0.853354  0.327943  1
  O  O34  1  0.855087  0.727678  0.822871  1
  O  O35  1  0.277116  0.146646  0.672057  1
