# generated using pymatgen
data_VZnCo20B6W
_symmetry_space_group_name_H-M   'P 1'
_cell_length_a   7.39761207
_cell_length_b   7.39761137
_cell_length_c   7.39761100
_cell_angle_alpha   59.99999716
_cell_angle_beta   60.00000031
_cell_angle_gamma   59.99999447
_symmetry_Int_Tables_number   1
_chemical_formula_structural   VZnCo20B6W
_chemical_formula_sum   'V1 Zn1 Co20 B6 W1'
_cell_volume   286.25925138
_cell_formula_units_Z   1
loop_
 _symmetry_equiv_pos_site_id
 _symmetry_equiv_pos_as_xyz
  1  'x, y, z'
loop_
 _atom_site_type_symbol
 _atom_site_label
 _atom_site_symmetry_multiplicity
 _atom_site_fract_x
 _atom_site_fract_y
 _atom_site_fract_z
 _atom_site_occupancy
  V  V0  1  0.750000  0.750000  0.750000  1
  Zn  Zn1  1  0.000000  0.000000  0.000000  1
  Co  Co2  1  0.850809  0.383064  0.383064  1
  Co  Co3  1  0.383064  0.850809  0.383064  1
  Co  Co4  1  0.383064  0.383064  0.850809  1
  Co  Co5  1  0.383064  0.383064  0.383064  1
  Co  Co6  1  0.137746  0.620751  0.620751  1
  Co  Co7  1  0.620751  0.137746  0.620751  1
  Co  Co8  1  0.620751  0.620751  0.137746  1
  Co  Co9  1  0.620751  0.620751  0.620751  1
  Co  Co10  1  0.657675  0.000059  0.000059  1
  Co  Co11  1  0.657675  0.000059  0.342207  1
  Co  Co12  1  0.657675  0.342207  0.000059  1
  Co  Co13  1  0.000059  0.657675  0.342207  1
  Co  Co14  1  0.000059  0.657675  0.000059  1
  Co  Co15  1  0.342207  0.657675  0.000059  1
  Co  Co16  1  0.000059  0.342207  0.657675  1
  Co  Co17  1  0.342207  0.000059  0.657675  1
  Co  Co18  1  0.000059  0.000059  0.657675  1
  Co  Co19  1  0.342207  0.000059  0.000059  1
  Co  Co20  1  0.000059  0.342207  0.000059  1
  Co  Co21  1  0.000059  0.000059  0.342207  1
  B  B22  1  0.724086  0.275914  0.275914  1
  B  B23  1  0.724086  0.275914  0.724086  1
  B  B24  1  0.724086  0.724086  0.275914  1
  B  B25  1  0.275914  0.724086  0.724086  1
  B  B26  1  0.275914  0.724086  0.275914  1
  B  B27  1  0.275914  0.275914  0.724086  1
  W  W28  1  0.250000  0.250000  0.250000  1
