# generated using pymatgen
data_Mg4ScP12Ir4Ru15
_symmetry_space_group_name_H-M   'P 1'
_cell_length_a   12.41184700
_cell_length_b   12.41184741
_cell_length_c   3.95980700
_cell_angle_alpha   90.00000000
_cell_angle_beta   90.00000000
_cell_angle_gamma   120.00000156
_symmetry_Int_Tables_number   1
_chemical_formula_structural   Mg4ScP12Ir4Ru15
_chemical_formula_sum   'Mg4 Sc1 P12 Ir4 Ru15'
_cell_volume   528.29619808
_cell_formula_units_Z   1
loop_
 _symmetry_equiv_pos_site_id
 _symmetry_equiv_pos_as_xyz
  1  'x, y, z'
loop_
 _atom_site_type_symbol
 _atom_site_label
 _atom_site_symmetry_multiplicity
 _atom_site_fract_x
 _atom_site_fract_y
 _atom_site_fract_z
 _atom_site_occupancy
  Mg  Mg0  1  0.333333  0.666667  0.000000  1
  Mg  Mg1  1  0.818528  0.001003  0.500000  1
  Mg  Mg2  1  0.998997  0.817524  0.500000  1
  Mg  Mg3  1  0.182476  0.181472  0.500000  1
  Sc  Sc4  1  0.666667  0.333333  0.000000  1
  P  P5  1  0.179666  0.996111  0.000000  1
  P  P6  1  0.003889  0.183555  0.000000  1
  P  P7  1  0.816445  0.820334  0.000000  1
  P  P8  1  0.167437  0.474821  0.500000  1
  P  P9  1  0.525179  0.692616  0.500000  1
  P  P10  1  0.307384  0.832563  0.500000  1
  P  P11  1  0.689056  0.520620  0.500000  1
  P  P12  1  0.831563  0.310944  0.500000  1
  P  P13  1  0.479380  0.168437  0.500000  1
  P  P14  1  0.623830  0.994484  0.000000  1
  P  P15  1  0.005516  0.629345  0.000000  1
  P  P16  1  0.370655  0.376170  0.000000  1
  Ir  Ir17  1  0.817984  0.629459  0.000000  1
  Ir  Ir18  1  0.811475  0.182016  0.000000  1
  Ir  Ir19  1  0.370541  0.188525  0.000000  1
  Ir  Ir20  1  0.000000  0.000000  0.000000  1
  Ru  Ru21  1  0.449743  0.008884  0.000000  1
  Ru  Ru22  1  0.991116  0.440859  0.000000  1
  Ru  Ru23  1  0.559141  0.550257  0.000000  1
  Ru  Ru24  1  0.366122  0.493779  0.500000  1
  Ru  Ru25  1  0.506221  0.872343  0.500000  1
  Ru  Ru26  1  0.127657  0.633878  0.500000  1
  Ru  Ru27  1  0.868319  0.507157  0.500000  1
  Ru  Ru28  1  0.638837  0.131681  0.500000  1
  Ru  Ru29  1  0.492843  0.361163  0.500000  1
  Ru  Ru30  1  0.184749  0.378100  0.000000  1
  Ru  Ru31  1  0.621900  0.806650  0.000000  1
  Ru  Ru32  1  0.193350  0.815251  0.000000  1
  Ru  Ru33  1  0.278452  0.002628  0.500000  1
  Ru  Ru34  1  0.997372  0.275825  0.500000  1
  Ru  Ru35  1  0.724175  0.721548  0.500000  1
