# generated using pymatgen
data_CsK3MoO5
_symmetry_space_group_name_H-M   'P 1'
_cell_length_a   6.35291317
_cell_length_b   6.35291359
_cell_length_c   10.07437000
_cell_angle_alpha   79.42312145
_cell_angle_beta   79.42312074
_cell_angle_gamma   78.20459559
_symmetry_Int_Tables_number   1
_chemical_formula_structural   CsK3MoO5
_chemical_formula_sum   'Cs2 K6 Mo2 O10'
_cell_volume   386.71665848
_cell_formula_units_Z   2
loop_
 _symmetry_equiv_pos_site_id
 _symmetry_equiv_pos_as_xyz
  1  'x, y, z'
loop_
 _atom_site_type_symbol
 _atom_site_label
 _atom_site_symmetry_multiplicity
 _atom_site_fract_x
 _atom_site_fract_y
 _atom_site_fract_z
 _atom_site_occupancy
  Cs  Cs0  1  0.251990  0.748010  0.500000  1
  Cs  Cs1  1  0.748010  0.251990  0.500000  1
  K  K2  1  0.356328  0.839463  0.109343  1
  K  K3  1  0.160537  0.643672  0.890657  1
  K  K4  1  0.643672  0.160537  0.890657  1
  K  K5  1  0.809361  0.809361  0.288915  1
  K  K6  1  0.839463  0.356328  0.109343  1
  K  K7  1  0.190639  0.190639  0.711085  1
  Mo  Mo8  1  0.306191  0.306191  0.263938  1
  Mo  Mo9  1  0.693809  0.693809  0.736062  1
  O  O10  1  0.743552  0.743552  0.548250  1
  O  O11  1  0.256448  0.256448  0.451750  1
  O  O12  1  0.536718  0.126599  0.170435  1
  O  O13  1  0.888421  0.888421  0.744824  1
  O  O14  1  0.502595  0.502595  0.266189  1
  O  O15  1  0.126599  0.536718  0.170435  1
  O  O16  1  0.873401  0.463282  0.829565  1
  O  O17  1  0.497405  0.497405  0.733811  1
  O  O18  1  0.111579  0.111579  0.255176  1
  O  O19  1  0.463282  0.873401  0.829565  1
