# generated using pymatgen
data_Y2Ga3Tc14C3
_symmetry_space_group_name_H-M   'P 1'
_cell_length_a   6.94907970
_cell_length_b   6.94907850
_cell_length_c   6.94907891
_cell_angle_alpha   82.34411430
_cell_angle_beta   82.34411315
_cell_angle_gamma   82.34410868
_symmetry_Int_Tables_number   1
_chemical_formula_structural   Y2Ga3Tc14C3
_chemical_formula_sum   'Y2 Ga3 Tc14 C3'
_cell_volume   327.32746051
_cell_formula_units_Z   1
loop_
 _symmetry_equiv_pos_site_id
 _symmetry_equiv_pos_as_xyz
  1  'x, y, z'
loop_
 _atom_site_type_symbol
 _atom_site_label
 _atom_site_symmetry_multiplicity
 _atom_site_fract_x
 _atom_site_fract_y
 _atom_site_fract_z
 _atom_site_occupancy
  Y  Y0  1  0.657343  0.657343  0.657343  1
  Y  Y1  1  0.342657  0.342657  0.342657  1
  Ga  Ga2  1  0.000000  0.000000  0.500000  1
  Ga  Ga3  1  0.500000  0.000000  0.000000  1
  Ga  Ga4  1  0.000000  0.500000  0.000000  1
  Tc  Tc5  1  0.723134  0.276866  0.000000  1
  Tc  Tc6  1  0.000000  0.723134  0.276866  1
  Tc  Tc7  1  0.276866  0.000000  0.723134  1
  Tc  Tc8  1  0.000000  0.276866  0.723134  1
  Tc  Tc9  1  0.723134  0.000000  0.276866  1
  Tc  Tc10  1  0.276866  0.723134  0.000000  1
  Tc  Tc11  1  0.351977  0.351977  0.848715  1
  Tc  Tc12  1  0.848715  0.351977  0.351977  1
  Tc  Tc13  1  0.351977  0.848715  0.351977  1
  Tc  Tc14  1  0.648023  0.648023  0.151285  1
  Tc  Tc15  1  0.151285  0.648023  0.648023  1
  Tc  Tc16  1  0.648023  0.151285  0.648023  1
  Tc  Tc17  1  0.904434  0.904434  0.904434  1
  Tc  Tc18  1  0.095566  0.095566  0.095566  1
  C  C19  1  0.500000  0.500000  0.000000  1
  C  C20  1  0.000000  0.500000  0.500000  1
  C  C21  1  0.500000  0.000000  0.500000  1
