# generated using pymatgen
data_NdHo4In4NiAu
_symmetry_space_group_name_H-M   'P 1'
_cell_length_a   8.15591220
_cell_length_b   18.33459974
_cell_length_c   3.62499500
_cell_angle_alpha   90.00000000
_cell_angle_beta   90.00000000
_cell_angle_gamma   89.73416259
_symmetry_Int_Tables_number   1
_chemical_formula_structural   NdHo4In4NiAu
_chemical_formula_sum   'Nd2 Ho8 In8 Ni2 Au2'
_cell_volume   542.05919088
_cell_formula_units_Z   2
loop_
 _symmetry_equiv_pos_site_id
 _symmetry_equiv_pos_as_xyz
  1  'x, y, z'
loop_
 _atom_site_type_symbol
 _atom_site_label
 _atom_site_symmetry_multiplicity
 _atom_site_fract_x
 _atom_site_fract_y
 _atom_site_fract_z
 _atom_site_occupancy
  Nd  Nd0  1  0.500000  0.500000  0.000000  1
  Nd  Nd1  1  0.000000  0.000000  0.000000  1
  Ho  Ho2  1  0.764150  0.285641  0.000000  1
  Ho  Ho3  1  0.235850  0.714359  0.000000  1
  Ho  Ho4  1  0.770983  0.776696  0.000000  1
  Ho  Ho5  1  0.229017  0.223304  0.000000  1
  Ho  Ho6  1  0.626285  0.081258  0.000000  1
  Ho  Ho7  1  0.373715  0.918742  0.000000  1
  Ho  Ho8  1  0.878715  0.587392  0.000000  1
  Ho  Ho9  1  0.121285  0.412608  0.000000  1
  In  In10  1  0.701345  0.930566  0.500000  1
  In  In11  1  0.298655  0.069434  0.500000  1
  In  In12  1  0.805906  0.433260  0.500000  1
  In  In13  1  0.194094  0.566740  0.500000  1
  In  In14  1  0.578327  0.651068  0.500000  1
  In  In15  1  0.421673  0.348932  0.500000  1
  In  In16  1  0.926779  0.154673  0.500000  1
  In  In17  1  0.073221  0.845327  0.500000  1
  Ni  Ni18  1  0.969610  0.694912  0.500000  1
  Ni  Ni19  1  0.030390  0.305088  0.500000  1
  Au  Au20  1  0.534703  0.198789  0.500000  1
  Au  Au21  1  0.465297  0.801211  0.500000  1
