# generated using pymatgen
data_HoEr7CdInPd2
_symmetry_space_group_name_H-M   'P 1'
_cell_length_a   9.63114234
_cell_length_b   9.63114187
_cell_length_c   9.63730400
_cell_angle_alpha   59.97883978
_cell_angle_beta   59.97884138
_cell_angle_gamma   60.01835521
_symmetry_Int_Tables_number   1
_chemical_formula_structural   HoEr7CdInPd2
_chemical_formula_sum   'Ho2 Er14 Cd2 In2 Pd4'
_cell_volume   632.00038169
_cell_formula_units_Z   2
loop_
 _symmetry_equiv_pos_site_id
 _symmetry_equiv_pos_as_xyz
  1  'x, y, z'
loop_
 _atom_site_type_symbol
 _atom_site_label
 _atom_site_symmetry_multiplicity
 _atom_site_fract_x
 _atom_site_fract_y
 _atom_site_fract_z
 _atom_site_occupancy
  Ho  Ho0  1  0.353137  0.353137  0.353423  1
  Ho  Ho1  1  0.353137  0.353137  0.940302  1
  Er  Er2  1  0.353848  0.939191  0.353480  1
  Er  Er3  1  0.939191  0.353848  0.353480  1
  Er  Er4  1  0.810406  0.189846  0.189447  1
  Er  Er5  1  0.189846  0.810406  0.810301  1
  Er  Er6  1  0.189846  0.810406  0.189447  1
  Er  Er7  1  0.810406  0.189846  0.810301  1
  Er  Er8  1  0.188749  0.188749  0.811251  1
  Er  Er9  1  0.809703  0.809703  0.190297  1
  Er  Er10  1  0.935746  0.565794  0.565542  1
  Er  Er11  1  0.565794  0.935746  0.932919  1
  Er  Er12  1  0.565794  0.935746  0.565542  1
  Er  Er13  1  0.935746  0.565794  0.932919  1
  Er  Er14  1  0.566121  0.566121  0.933879  1
  Er  Er15  1  0.935117  0.935117  0.564883  1
  Cd  Cd16  1  0.582480  0.250801  0.583359  1
  Cd  Cd17  1  0.250801  0.582480  0.583359  1
  In  In18  1  0.582464  0.582464  0.583495  1
  In  In19  1  0.582464  0.582464  0.251576  1
  Pd  Pd20  1  0.144006  0.144006  0.144783  1
  Pd  Pd21  1  0.144006  0.144006  0.567205  1
  Pd  Pd22  1  0.143374  0.567816  0.144405  1
  Pd  Pd23  1  0.567816  0.143374  0.144405  1
