# generated using pymatgen
data_La2Sb4Ir2Pd
_symmetry_space_group_name_H-M   'P 1'
_cell_length_a   4.62322300
_cell_length_b   11.37276400
_cell_length_c   16.25367800
_cell_angle_alpha   90.00000000
_cell_angle_beta   90.00000000
_cell_angle_gamma   90.00000000
_symmetry_Int_Tables_number   1
_chemical_formula_structural   La2Sb4Ir2Pd
_chemical_formula_sum   'La8 Sb16 Ir8 Pd4'
_cell_volume   854.59927651
_cell_formula_units_Z   4
loop_
 _symmetry_equiv_pos_site_id
 _symmetry_equiv_pos_as_xyz
  1  'x, y, z'
loop_
 _atom_site_type_symbol
 _atom_site_label
 _atom_site_symmetry_multiplicity
 _atom_site_fract_x
 _atom_site_fract_y
 _atom_site_fract_z
 _atom_site_occupancy
  La  La0  1  0.250000  0.753493  0.506236  1
  La  La1  1  0.250000  0.746507  0.006236  1
  La  La2  1  0.750000  0.246507  0.493764  1
  La  La3  1  0.750000  0.253493  0.993764  1
  La  La4  1  0.250000  0.591801  0.751401  1
  La  La5  1  0.250000  0.908199  0.251401  1
  La  La6  1  0.750000  0.408199  0.248599  1
  La  La7  1  0.750000  0.091801  0.748599  1
  Sb  Sb8  1  0.250000  0.270579  0.650145  1
  Sb  Sb9  1  0.250000  0.229421  0.150145  1
  Sb  Sb10  1  0.750000  0.729421  0.349855  1
  Sb  Sb11  1  0.750000  0.770579  0.849855  1
  Sb  Sb12  1  0.250000  0.889417  0.712055  1
  Sb  Sb13  1  0.250000  0.610583  0.212055  1
  Sb  Sb14  1  0.750000  0.110583  0.287945  1
  Sb  Sb15  1  0.750000  0.389417  0.787945  1
  Sb  Sb16  1  0.250000  0.075381  0.895377  1
  Sb  Sb17  1  0.250000  0.424619  0.395377  1
  Sb  Sb18  1  0.750000  0.924619  0.104623  1
  Sb  Sb19  1  0.750000  0.575381  0.604623  1
  Sb  Sb20  1  0.250000  0.448231  0.931678  1
  Sb  Sb21  1  0.250000  0.051769  0.431678  1
  Sb  Sb22  1  0.750000  0.551769  0.068322  1
  Sb  Sb23  1  0.750000  0.948231  0.568322  1
  Ir  Ir24  1  0.250000  0.054159  0.593678  1
  Ir  Ir25  1  0.250000  0.445841  0.093678  1
  Ir  Ir26  1  0.750000  0.945841  0.406322  1
  Ir  Ir27  1  0.750000  0.554159  0.906322  1
  Ir  Ir28  1  0.250000  0.281492  0.817323  1
  Ir  Ir29  1  0.250000  0.218508  0.317323  1
  Ir  Ir30  1  0.750000  0.718508  0.182677  1
  Ir  Ir31  1  0.750000  0.781492  0.682677  1
  Pd  Pd32  1  0.250000  0.466889  0.558793  1
  Pd  Pd33  1  0.250000  0.033111  0.058793  1
  Pd  Pd34  1  0.750000  0.533111  0.441207  1
  Pd  Pd35  1  0.750000  0.966889  0.941207  1
