# generated using pymatgen
data_Tb2ErHf(Al3Rh)6
_symmetry_space_group_name_H-M   'P 1'
_cell_length_a   7.54182855
_cell_length_b   7.52601442
_cell_length_c   9.41364100
_cell_angle_alpha   90.00000000
_cell_angle_beta   90.00000000
_cell_angle_gamma   119.47774137
_symmetry_Int_Tables_number   1
_chemical_formula_structural   Tb2ErHf(Al3Rh)6
_chemical_formula_sum   'Tb2 Er1 Hf1 Al18 Rh6'
_cell_volume   465.14838929
_cell_formula_units_Z   1
loop_
 _symmetry_equiv_pos_site_id
 _symmetry_equiv_pos_as_xyz
  1  'x, y, z'
loop_
 _atom_site_type_symbol
 _atom_site_label
 _atom_site_symmetry_multiplicity
 _atom_site_fract_x
 _atom_site_fract_y
 _atom_site_fract_z
 _atom_site_occupancy
  Tb  Tb0  1  0.006247  0.327938  0.750000  1
  Tb  Tb1  1  0.328489  0.006185  0.750000  1
  Er  Er2  1  0.672327  0.995577  0.250000  1
  Hf  Hf3  1  0.996150  0.672641  0.250000  1
  Al  Al4  1  0.124708  0.122149  0.250000  1
  Al  Al5  1  0.871046  0.869734  0.750000  1
  Al  Al6  1  0.999767  0.338828  0.080783  1
  Al  Al7  1  0.999375  0.664756  0.928870  1
  Al  Al8  1  0.999375  0.664756  0.571130  1
  Al  Al9  1  0.332403  0.997192  0.419248  1
  Al  Al10  1  0.999767  0.338828  0.419217  1
  Al  Al11  1  0.664437  0.998357  0.574700  1
  Al  Al12  1  0.664437  0.998357  0.925300  1
  Al  Al13  1  0.332403  0.997192  0.080752  1
  Al  Al14  1  0.333560  0.333504  0.547382  1
  Al  Al15  1  0.669632  0.667333  0.443938  1
  Al  Al16  1  0.669632  0.667333  0.056062  1
  Al  Al17  1  0.333560  0.333504  0.952618  1
  Al  Al18  1  0.336119  0.551656  0.250000  1
  Al  Al19  1  0.660854  0.451295  0.750000  1
  Al  Al20  1  0.557043  0.345201  0.250000  1
  Al  Al21  1  0.449944  0.659021  0.750000  1
  Rh  Rh22  1  0.672954  0.328494  0.001762  1
  Rh  Rh23  1  0.327568  0.672523  0.002271  1
  Rh  Rh24  1  0.327568  0.672523  0.497729  1
  Rh  Rh25  1  0.672954  0.328494  0.498238  1
  Rh  Rh26  1  0.998842  0.998317  0.002088  1
  Rh  Rh27  1  0.998842  0.998317  0.497912  1
