# generated using pymatgen
data_Ca6TbHoSb6
_symmetry_space_group_name_H-M   'P 1'
_cell_length_a   8.13331500
_cell_length_b   8.19959969
_cell_length_c   8.13056821
_cell_angle_alpha   109.45507320
_cell_angle_beta   109.03522288
_cell_angle_gamma   109.48341276
_symmetry_Int_Tables_number   1
_chemical_formula_structural   Ca6TbHoSb6
_chemical_formula_sum   'Ca6 Tb1 Ho1 Sb6'
_cell_volume   419.65155152
_cell_formula_units_Z   1
loop_
 _symmetry_equiv_pos_site_id
 _symmetry_equiv_pos_as_xyz
  1  'x, y, z'
loop_
 _atom_site_type_symbol
 _atom_site_label
 _atom_site_symmetry_multiplicity
 _atom_site_fract_x
 _atom_site_fract_y
 _atom_site_fract_z
 _atom_site_occupancy
  Ca  Ca0  1  0.141160  0.497257  0.999652  1
  Ca  Ca1  1  0.499573  0.997014  0.640970  1
  Ca  Ca2  1  0.354192  0.357129  0.356517  1
  Ca  Ca3  1  0.002195  0.145783  0.502660  1
  Ca  Ca4  1  0.856580  0.857357  0.854058  1
  Ca  Ca5  1  0.002998  0.645872  0.502591  1
  Tb  Tb6  1  0.643342  0.499543  0.999723  1
  Ho  Ho7  1  0.499773  0.999613  0.142991  1
  Sb  Sb8  1  0.865399  0.249407  0.125634  1
  Sb  Sb9  1  0.123355  0.871367  0.243779  1
  Sb  Sb10  1  0.381699  0.629868  0.760926  1
  Sb  Sb11  1  0.260605  0.128206  0.882265  1
  Sb  Sb12  1  0.743628  0.370675  0.621880  1
  Sb  Sb13  1  0.625501  0.750909  0.366354  1
