# generated using pymatgen
data_La4Ga10NiPd5
_symmetry_space_group_name_H-M   'P 1'
_cell_length_a   8.81289792
_cell_length_b   8.81289880
_cell_length_c   8.81289800
_cell_angle_alpha   140.87952710
_cell_angle_beta   107.62011527
_cell_angle_gamma   85.49618233
_symmetry_Int_Tables_number   1
_chemical_formula_structural   La4Ga10NiPd5
_chemical_formula_sum   'La4 Ga10 Ni1 Pd5'
_cell_volume   397.45902486
_cell_formula_units_Z   1
loop_
 _symmetry_equiv_pos_site_id
 _symmetry_equiv_pos_as_xyz
  1  'x, y, z'
loop_
 _atom_site_type_symbol
 _atom_site_label
 _atom_site_symmetry_multiplicity
 _atom_site_fract_x
 _atom_site_fract_y
 _atom_site_fract_z
 _atom_site_occupancy
  La  La0  1  0.362118  0.135516  0.222799  1
  La  La1  1  0.637882  0.860681  0.773398  1
  La  La2  1  0.087284  0.364484  0.726602  1
  La  La3  1  0.912716  0.639319  0.277201  1
  Ga  Ga4  1  0.000000  0.250000  0.250000  1
  Ga  Ga5  1  0.000000  0.750000  0.750000  1
  Ga  Ga6  1  0.710264  0.960264  0.250000  1
  Ga  Ga7  1  0.289736  0.539736  0.250000  1
  Ga  Ga8  1  0.292209  0.042209  0.750000  1
  Ga  Ga9  1  0.707791  0.457791  0.750000  1
  Ga  Ga10  1  0.565082  0.397135  0.149860  1
  Ga  Ga11  1  0.247275  0.915222  0.350140  1
  Ga  Ga12  1  0.752725  0.102865  0.667946  1
  Ga  Ga13  1  0.434918  0.584778  0.832054  1
  Ni  Ni14  1  0.500000  0.250000  0.750000  1
  Pd  Pd15  1  0.955631  0.854979  0.098691  1
  Pd  Pd16  1  0.500000  0.750000  0.250000  1
  Pd  Pd17  1  0.756289  0.356941  0.401309  1
  Pd  Pd18  1  0.243711  0.645021  0.600651  1
  Pd  Pd19  1  0.044369  0.143059  0.899349  1
