# generated using pymatgen
data_Tm8HfSi16Tc11
_symmetry_space_group_name_H-M   'P 1'
_cell_length_a   6.75576647
_cell_length_b   6.75576668
_cell_length_c   12.60644500
_cell_angle_alpha   89.92710563
_cell_angle_beta   89.92710563
_cell_angle_gamma   90.03423840
_symmetry_Int_Tables_number   1
_chemical_formula_structural   Tm8HfSi16Tc11
_chemical_formula_sum   'Tm8 Hf1 Si16 Tc11'
_cell_volume   575.36193089
_cell_formula_units_Z   1
loop_
 _symmetry_equiv_pos_site_id
 _symmetry_equiv_pos_as_xyz
  1  'x, y, z'
loop_
 _atom_site_type_symbol
 _atom_site_label
 _atom_site_symmetry_multiplicity
 _atom_site_fract_x
 _atom_site_fract_y
 _atom_site_fract_z
 _atom_site_occupancy
  Tm  Tm0  1  0.006385  0.657976  0.033188  1
  Tm  Tm1  1  0.000906  0.341197  0.526267  1
  Tm  Tm2  1  0.342024  0.993615  0.466812  1
  Tm  Tm3  1  0.168566  0.493489  0.782332  1
  Tm  Tm4  1  0.837692  0.510579  0.281850  1
  Tm  Tm5  1  0.489421  0.162308  0.218150  1
  Tm  Tm6  1  0.506511  0.831434  0.717668  1
  Tm  Tm7  1  0.658803  0.999094  0.973733  1
  Hf  Hf8  1  0.836818  0.163182  0.750000  1
  Si  Si9  1  0.017000  0.741791  0.438491  1
  Si  Si10  1  0.614551  0.308538  0.434902  1
  Si  Si11  1  0.384191  0.690346  0.934878  1
  Si  Si12  1  0.212171  0.124191  0.680365  1
  Si  Si13  1  0.309654  0.615809  0.565122  1
  Si  Si14  1  0.691462  0.385449  0.065098  1
  Si  Si15  1  0.803417  0.884946  0.181981  1
  Si  Si16  1  0.115054  0.196583  0.318019  1
  Si  Si17  1  0.983765  0.267978  0.947227  1
  Si  Si18  1  0.732022  0.016235  0.552773  1
  Si  Si19  1  0.222623  0.480760  0.190924  1
  Si  Si20  1  0.794033  0.538740  0.680385  1
  Si  Si21  1  0.461260  0.205967  0.819615  1
  Si  Si22  1  0.519240  0.777377  0.309076  1
  Si  Si23  1  0.258209  0.983000  0.061509  1
  Si  Si24  1  0.875809  0.787829  0.819635  1
  Tc  Tc25  1  0.668834  0.665216  0.499870  1
  Tc  Tc26  1  0.162954  0.837046  0.250000  1
  Tc  Tc27  1  0.334784  0.331166  0.000130  1
  Tc  Tc28  1  0.020988  0.825371  0.633168  1
  Tc  Tc29  1  0.972665  0.195133  0.137543  1
  Tc  Tc30  1  0.804867  0.027335  0.362457  1
  Tc  Tc31  1  0.317557  0.487219  0.381018  1
  Tc  Tc32  1  0.681657  0.493302  0.873741  1
  Tc  Tc33  1  0.506698  0.318343  0.626259  1
  Tc  Tc34  1  0.512781  0.682443  0.118982  1
  Tc  Tc35  1  0.174629  0.979012  0.866832  1
