# generated using pymatgen
data_Sm2YEr3NiBr10
_symmetry_space_group_name_H-M   'P 1'
_cell_length_a   7.33326122
_cell_length_b   9.15311977
_cell_length_c   9.28143338
_cell_angle_alpha   107.59977738
_cell_angle_beta   96.69790377
_cell_angle_gamma   105.20443757
_symmetry_Int_Tables_number   1
_chemical_formula_structural   Sm2YEr3NiBr10
_chemical_formula_sum   'Sm2 Y1 Er3 Ni1 Br10'
_cell_volume   559.89148620
_cell_formula_units_Z   1
loop_
 _symmetry_equiv_pos_site_id
 _symmetry_equiv_pos_as_xyz
  1  'x, y, z'
loop_
 _atom_site_type_symbol
 _atom_site_label
 _atom_site_symmetry_multiplicity
 _atom_site_fract_x
 _atom_site_fract_y
 _atom_site_fract_z
 _atom_site_occupancy
  Sm  Sm0  1  0.873941  0.951819  0.244129  1
  Sm  Sm1  1  0.124520  0.046997  0.755304  1
  Y  Y2  1  0.353528  0.131328  0.173708  1
  Er  Er3  1  0.031188  0.709056  0.909667  1
  Er  Er4  1  0.968079  0.290528  0.089632  1
  Er  Er5  1  0.650420  0.870162  0.828308  1
  Ni  Ni6  1  0.999581  0.999594  0.000154  1
  Br  Br7  1  0.655931  0.552178  0.728712  1
  Br  Br8  1  0.342168  0.450869  0.270175  1
  Br  Br9  1  0.740761  0.914504  0.545768  1
  Br  Br10  1  0.256030  0.084626  0.455802  1
  Br  Br11  1  0.915859  0.622545  0.168348  1
  Br  Br12  1  0.082655  0.376523  0.830557  1
  Br  Br13  1  0.550865  0.179232  0.915225  1
  Br  Br14  1  0.449630  0.818424  0.081866  1
  Br  Br15  1  0.226082  0.742452  0.660855  1
  Br  Br16  1  0.778761  0.259165  0.341790  1
