# generated using pymatgen
data_Y4TcCl4
_symmetry_space_group_name_H-M   'P 1'
_cell_length_a   8.60956813
_cell_length_b   8.60956936
_cell_length_c   6.56886020
_cell_angle_alpha   89.77101825
_cell_angle_beta   89.77101789
_cell_angle_gamma   89.50758860
_symmetry_Int_Tables_number   1
_chemical_formula_structural   Y4TcCl4
_chemical_formula_sum   'Y8 Tc2 Cl8'
_cell_volume   486.88892830
_cell_formula_units_Z   2
loop_
 _symmetry_equiv_pos_site_id
 _symmetry_equiv_pos_as_xyz
  1  'x, y, z'
loop_
 _atom_site_type_symbol
 _atom_site_label
 _atom_site_symmetry_multiplicity
 _atom_site_fract_x
 _atom_site_fract_y
 _atom_site_fract_z
 _atom_site_occupancy
  Y  Y0  1  0.105471  0.741287  0.987257  1
  Y  Y1  1  0.258713  0.894529  0.512743  1
  Y  Y2  1  0.894529  0.258713  0.012743  1
  Y  Y3  1  0.741287  0.105471  0.487257  1
  Y  Y4  1  0.742477  0.895685  0.007613  1
  Y  Y5  1  0.104315  0.257523  0.492387  1
  Y  Y6  1  0.257523  0.104315  0.992387  1
  Y  Y7  1  0.895685  0.742477  0.507613  1
  Tc  Tc8  1  0.007566  0.992434  0.250000  1
  Tc  Tc9  1  0.992434  0.007566  0.750000  1
  Cl  Cl10  1  0.421396  0.820291  0.900232  1
  Cl  Cl11  1  0.179709  0.578604  0.599768  1
  Cl  Cl12  1  0.578604  0.179709  0.099768  1
  Cl  Cl13  1  0.820291  0.421396  0.400232  1
  Cl  Cl14  1  0.812403  0.581263  0.900717  1
  Cl  Cl15  1  0.418737  0.187597  0.599283  1
  Cl  Cl16  1  0.187597  0.418737  0.099283  1
  Cl  Cl17  1  0.581263  0.812403  0.400717  1
