# generated using pymatgen
data_Tm2Lu3InSb2
_symmetry_space_group_name_H-M   'P 1'
_cell_length_a   8.81553100
_cell_length_b   8.81005785
_cell_length_c   6.34108900
_cell_angle_alpha   90.00000000
_cell_angle_beta   90.00000000
_cell_angle_gamma   120.02055630
_symmetry_Int_Tables_number   1
_chemical_formula_structural   Tm2Lu3InSb2
_chemical_formula_sum   'Tm4 Lu6 In2 Sb4'
_cell_volume   426.41426114
_cell_formula_units_Z   2
loop_
 _symmetry_equiv_pos_site_id
 _symmetry_equiv_pos_as_xyz
  1  'x, y, z'
loop_
 _atom_site_type_symbol
 _atom_site_label
 _atom_site_symmetry_multiplicity
 _atom_site_fract_x
 _atom_site_fract_y
 _atom_site_fract_z
 _atom_site_occupancy
  Tm  Tm0  1  0.992892  0.237129  0.250000  1
  Tm  Tm1  1  0.755763  0.762871  0.250000  1
  Tm  Tm2  1  0.244237  0.237129  0.750000  1
  Tm  Tm3  1  0.007108  0.762871  0.750000  1
  Lu  Lu4  1  0.335083  0.670168  0.000000  1
  Lu  Lu5  1  0.664917  0.329832  0.500000  1
  Lu  Lu6  1  0.664917  0.329832  0.000000  1
  Lu  Lu7  1  0.335083  0.670168  0.500000  1
  Lu  Lu8  1  0.237088  0.000000  0.250000  1
  Lu  Lu9  1  0.762912  0.000000  0.750000  1
  In  In10  1  0.599533  0.000000  0.250000  1
  In  In11  1  0.400467  0.000000  0.750000  1
  Sb  Sb12  1  0.997911  0.608072  0.250000  1
  Sb  Sb13  1  0.389840  0.391928  0.250000  1
  Sb  Sb14  1  0.610160  0.608072  0.750000  1
  Sb  Sb15  1  0.002089  0.391928  0.750000  1
