# generated using pymatgen
data_La2Lu3Co2
_symmetry_space_group_name_H-M   'P 1'
_cell_length_a   8.70248120
_cell_length_b   8.70248198
_cell_length_c   6.85895664
_cell_angle_alpha   84.45734461
_cell_angle_beta   84.45734195
_cell_angle_gamma   42.73165190
_symmetry_Int_Tables_number   1
_chemical_formula_structural   La2Lu3Co2
_chemical_formula_sum   'La4 Lu6 Co4'
_cell_volume   350.58040705
_cell_formula_units_Z   2
loop_
 _symmetry_equiv_pos_site_id
 _symmetry_equiv_pos_as_xyz
  1  'x, y, z'
loop_
 _atom_site_type_symbol
 _atom_site_label
 _atom_site_symmetry_multiplicity
 _atom_site_fract_x
 _atom_site_fract_y
 _atom_site_fract_z
 _atom_site_occupancy
  La  La0  1  0.017471  0.787177  0.902829  1
  La  La1  1  0.212823  0.982529  0.597171  1
  La  La2  1  0.982529  0.212823  0.097171  1
  La  La3  1  0.787177  0.017471  0.402829  1
  Lu  Lu4  1  0.358771  0.214772  0.822015  1
  Lu  Lu5  1  0.785228  0.641229  0.677985  1
  Lu  Lu6  1  0.641229  0.785228  0.177985  1
  Lu  Lu7  1  0.214772  0.358771  0.322015  1
  Lu  Lu8  1  0.571397  0.428603  0.750000  1
  Lu  Lu9  1  0.428603  0.571397  0.250000  1
  Co  Co10  1  0.175620  0.598589  0.582356  1
  Co  Co11  1  0.401411  0.824380  0.917644  1
  Co  Co12  1  0.824380  0.401411  0.417644  1
  Co  Co13  1  0.598589  0.175620  0.082356  1
