# generated using pymatgen
data_Dy3Al12CuTc3
_symmetry_space_group_name_H-M   'P 1'
_cell_length_a   8.83270491
_cell_length_b   8.83270503
_cell_length_c   9.61565000
_cell_angle_alpha   90.00000000
_cell_angle_beta   90.00000000
_cell_angle_gamma   119.07073066
_symmetry_Int_Tables_number   1
_chemical_formula_structural   Dy3Al12CuTc3
_chemical_formula_sum   'Dy6 Al24 Cu2 Tc6'
_cell_volume   655.67366461
_cell_formula_units_Z   2
loop_
 _symmetry_equiv_pos_site_id
 _symmetry_equiv_pos_as_xyz
  1  'x, y, z'
loop_
 _atom_site_type_symbol
 _atom_site_label
 _atom_site_symmetry_multiplicity
 _atom_site_fract_x
 _atom_site_fract_y
 _atom_site_fract_z
 _atom_site_occupancy
  Dy  Dy0  1  0.196851  0.803149  0.250000  1
  Dy  Dy1  1  0.184341  0.383307  0.250000  1
  Dy  Dy2  1  0.616693  0.815659  0.250000  1
  Dy  Dy3  1  0.803149  0.196851  0.750000  1
  Dy  Dy4  1  0.815659  0.616693  0.750000  1
  Dy  Dy5  1  0.383307  0.184341  0.750000  1
  Al  Al6  1  0.558296  0.441704  0.250000  1
  Al  Al7  1  0.558714  0.125282  0.250000  1
  Al  Al8  1  0.874718  0.441286  0.250000  1
  Al  Al9  1  0.441704  0.558296  0.750000  1
  Al  Al10  1  0.441286  0.874718  0.750000  1
  Al  Al11  1  0.125282  0.558714  0.750000  1
  Al  Al12  1  0.322882  0.160217  0.421020  1
  Al  Al13  1  0.835952  0.164048  0.424992  1
  Al  Al14  1  0.839783  0.677118  0.421020  1
  Al  Al15  1  0.677118  0.839783  0.578980  1
  Al  Al16  1  0.164048  0.835952  0.575008  1
  Al  Al17  1  0.160217  0.322882  0.578980  1
  Al  Al18  1  0.677118  0.839783  0.921020  1
  Al  Al19  1  0.164048  0.835952  0.924992  1
  Al  Al20  1  0.160217  0.322882  0.921020  1
  Al  Al21  1  0.322882  0.160217  0.078980  1
  Al  Al22  1  0.835952  0.164048  0.075008  1
  Al  Al23  1  0.839783  0.677118  0.078980  1
  Al  Al24  1  0.667022  0.332978  0.515962  1
  Al  Al25  1  0.332978  0.667022  0.484038  1
  Al  Al26  1  0.332978  0.667022  0.015962  1
  Al  Al27  1  0.667022  0.332978  0.984038  1
  Al  Al28  1  0.999260  0.000740  0.250000  1
  Al  Al29  1  0.000740  0.999260  0.750000  1
  Cu  Cu30  1  0.500000  0.500000  0.500000  1
  Cu  Cu31  1  0.500000  0.500000  0.000000  1
  Tc  Tc32  1  0.000000  0.000000  0.500000  1
  Tc  Tc33  1  0.000000  0.000000  0.000000  1
  Tc  Tc34  1  0.500000  0.000000  0.500000  1
  Tc  Tc35  1  0.000000  0.500000  0.500000  1
  Tc  Tc36  1  0.500000  0.000000  0.000000  1
  Tc  Tc37  1  0.000000  0.500000  0.000000  1
