# generated using pymatgen
data_Hf2Zr(GaPd)3
_symmetry_space_group_name_H-M   'P 1'
_cell_length_a   7.22277337
_cell_length_b   7.23796339
_cell_length_c   6.98019700
_cell_angle_alpha   90.00000000
_cell_angle_beta   90.00000000
_cell_angle_gamma   120.09411942
_symmetry_Int_Tables_number   1
_chemical_formula_structural   Hf2Zr(GaPd)3
_chemical_formula_sum   'Hf4 Zr2 Ga6 Pd6'
_cell_volume   315.72284751
_cell_formula_units_Z   2
loop_
 _symmetry_equiv_pos_site_id
 _symmetry_equiv_pos_as_xyz
  1  'x, y, z'
loop_
 _atom_site_type_symbol
 _atom_site_label
 _atom_site_symmetry_multiplicity
 _atom_site_fract_x
 _atom_site_fract_y
 _atom_site_fract_z
 _atom_site_occupancy
  Hf  Hf0  1  0.021690  0.407833  0.750000  1
  Hf  Hf1  1  0.977218  0.388100  0.250000  1
  Hf  Hf2  1  0.387437  0.978949  0.750000  1
  Hf  Hf3  1  0.592604  0.612575  0.750000  1
  Zr  Zr4  1  0.612092  0.589974  0.250000  1
  Zr  Zr5  1  0.410592  0.022389  0.250000  1
  Ga  Ga6  1  0.270713  0.269115  0.501119  1
  Ga  Ga7  1  0.730290  0.999993  0.500813  1
  Ga  Ga8  1  0.998857  0.731012  0.499733  1
  Ga  Ga9  1  0.730290  0.999993  0.999187  1
  Ga  Ga10  1  0.270713  0.269115  0.998881  1
  Ga  Ga11  1  0.998857  0.731012  0.000267  1
  Pd  Pd12  1  0.330424  0.664442  0.474806  1
  Pd  Pd13  1  0.000205  0.000251  0.750000  1
  Pd  Pd14  1  0.000425  0.004016  0.250000  1
  Pd  Pd15  1  0.330424  0.664442  0.025194  1
  Pd  Pd16  1  0.668584  0.333395  0.535743  1
  Pd  Pd17  1  0.668584  0.333395  0.964257  1
