# generated using pymatgen
data_Yb4Ga17GeIr6
_symmetry_space_group_name_H-M   'P 1'
_cell_length_a   7.55783202
_cell_length_b   7.54030509
_cell_length_c   9.63502439
_cell_angle_alpha   90.05637837
_cell_angle_beta   89.95071295
_cell_angle_gamma   119.63951355
_symmetry_Int_Tables_number   1
_chemical_formula_structural   Yb4Ga17GeIr6
_chemical_formula_sum   'Yb4 Ga17 Ge1 Ir6'
_cell_volume   477.23852427
_cell_formula_units_Z   1
loop_
 _symmetry_equiv_pos_site_id
 _symmetry_equiv_pos_as_xyz
  1  'x, y, z'
loop_
 _atom_site_type_symbol
 _atom_site_label
 _atom_site_symmetry_multiplicity
 _atom_site_fract_x
 _atom_site_fract_y
 _atom_site_fract_z
 _atom_site_occupancy
  Yb  Yb0  1  0.997312  0.667086  0.249780  1
  Yb  Yb1  1  0.002449  0.330399  0.751234  1
  Yb  Yb2  1  0.671584  0.000107  0.249655  1
  Yb  Yb3  1  0.330479  0.002026  0.749192  1
  Ga  Ga4  1  0.129644  0.125337  0.251250  1
  Ga  Ga5  1  0.872640  0.873758  0.749543  1
  Ga  Ga6  1  0.999404  0.669792  0.922308  1
  Ga  Ga7  1  0.999734  0.665796  0.575838  1
  Ga  Ga8  1  0.334234  0.999526  0.424183  1
  Ga  Ga9  1  0.999875  0.334764  0.425020  1
  Ga  Ga10  1  0.664996  0.999300  0.575846  1
  Ga  Ga11  1  0.660574  0.994830  0.922227  1
  Ga  Ga12  1  0.334303  0.999089  0.076567  1
  Ga  Ga13  1  0.333386  0.333111  0.562622  1
  Ga  Ga14  1  0.667756  0.667748  0.437181  1
  Ga  Ga15  1  0.667702  0.668272  0.063311  1
  Ga  Ga16  1  0.337139  0.333269  0.936609  1
  Ga  Ga17  1  0.340120  0.547539  0.251401  1
  Ga  Ga18  1  0.665055  0.454766  0.749551  1
  Ga  Ga19  1  0.544905  0.336347  0.249929  1
  Ga  Ga20  1  0.453150  0.661800  0.749503  1
  Ge  Ge21  1  0.998621  0.334837  0.078111  1
  Ir  Ir22  1  0.674102  0.328648  0.000309  1
  Ir  Ir23  1  0.322338  0.665162  0.000260  1
  Ir  Ir24  1  0.327877  0.671068  0.499638  1
  Ir  Ir25  1  0.670875  0.328191  0.499430  1
  Ir  Ir26  1  0.000248  0.006516  0.999996  1
  Ir  Ir27  1  0.999497  0.000916  0.499504  1
