# generated using pymatgen
data_Ce6HfVAs10
_symmetry_space_group_name_H-M   'P 1'
_cell_length_a   8.77715200
_cell_length_b   8.77715184
_cell_length_c   5.87334200
_cell_angle_alpha   90.00000000
_cell_angle_beta   90.00000000
_cell_angle_gamma   119.99999306
_symmetry_Int_Tables_number   1
_chemical_formula_structural   Ce6HfVAs10
_chemical_formula_sum   'Ce6 Hf1 V1 As10'
_cell_volume   391.85300652
_cell_formula_units_Z   1
loop_
 _symmetry_equiv_pos_site_id
 _symmetry_equiv_pos_as_xyz
  1  'x, y, z'
loop_
 _atom_site_type_symbol
 _atom_site_label
 _atom_site_symmetry_multiplicity
 _atom_site_fract_x
 _atom_site_fract_y
 _atom_site_fract_z
 _atom_site_occupancy
  Ce  Ce0  1  0.618190  0.000000  0.248189  1
  Ce  Ce1  1  0.381810  0.000000  0.751811  1
  Ce  Ce2  1  0.000000  0.618190  0.248189  1
  Ce  Ce3  1  0.000000  0.381810  0.751811  1
  Ce  Ce4  1  0.381810  0.381810  0.248189  1
  Ce  Ce5  1  0.618190  0.618190  0.751811  1
  Hf  Hf6  1  0.000000  0.000000  0.500000  1
  V  V7  1  0.000000  0.000000  0.000000  1
  As  As8  1  0.256692  0.000000  0.242095  1
  As  As9  1  0.743308  0.000000  0.757905  1
  As  As10  1  0.000000  0.256692  0.242095  1
  As  As11  1  0.000000  0.743308  0.757905  1
  As  As12  1  0.743308  0.743308  0.242095  1
  As  As13  1  0.256692  0.256692  0.757905  1
  As  As14  1  0.333333  0.666667  0.000000  1
  As  As15  1  0.666667  0.333333  0.000000  1
  As  As16  1  0.666667  0.333333  0.500000  1
  As  As17  1  0.333333  0.666667  0.500000  1
