# generated using pymatgen
data_DyEr(B4Ir)2
_symmetry_space_group_name_H-M   'P 1'
_cell_length_a   3.56804700
_cell_length_b   5.96692727
_cell_length_c   11.57336499
_cell_angle_alpha   90.05091759
_cell_angle_beta   90.00000000
_cell_angle_gamma   90.00000000
_symmetry_Int_Tables_number   1
_chemical_formula_structural   DyEr(B4Ir)2
_chemical_formula_sum   'Dy2 Er2 B16 Ir4'
_cell_volume   246.40004863
_cell_formula_units_Z   2
loop_
 _symmetry_equiv_pos_site_id
 _symmetry_equiv_pos_as_xyz
  1  'x, y, z'
loop_
 _atom_site_type_symbol
 _atom_site_label
 _atom_site_symmetry_multiplicity
 _atom_site_fract_x
 _atom_site_fract_y
 _atom_site_fract_z
 _atom_site_occupancy
  Dy  Dy0  1  0.500000  0.631397  0.148723  1
  Dy  Dy1  1  0.500000  0.368603  0.851277  1
  Er  Er2  1  0.500000  0.131212  0.351848  1
  Er  Er3  1  0.500000  0.868788  0.648152  1
  B  B4  1  0.000000  0.976209  0.193169  1
  B  B5  1  0.000000  0.023791  0.806831  1
  B  B6  1  0.000000  0.474726  0.308051  1
  B  B7  1  0.000000  0.525274  0.691949  1
  B  B8  1  0.000000  0.792037  0.312721  1
  B  B9  1  0.000000  0.207963  0.687279  1
  B  B10  1  0.000000  0.290370  0.188408  1
  B  B11  1  0.000000  0.709630  0.811592  1
  B  B12  1  0.000000  0.864553  0.469624  1
  B  B13  1  0.000000  0.135447  0.530376  1
  B  B14  1  0.000000  0.363503  0.030233  1
  B  B15  1  0.000000  0.636497  0.969767  1
  B  B16  1  0.000000  0.887796  0.046658  1
  B  B17  1  0.000000  0.112204  0.953342  1
  B  B18  1  0.000000  0.386886  0.453545  1
  B  B19  1  0.000000  0.613114  0.546455  1
  Ir  Ir20  1  0.500000  0.644100  0.403604  1
  Ir  Ir21  1  0.500000  0.355900  0.596396  1
  Ir  Ir22  1  0.500000  0.143236  0.097241  1
  Ir  Ir23  1  0.500000  0.856764  0.902759  1
