# generated using pymatgen
data_LiTbMnPt3
_symmetry_space_group_name_H-M   'P 1'
_cell_length_a   5.15395810
_cell_length_b   5.15395910
_cell_length_c   5.15395835
_cell_angle_alpha   64.47554805
_cell_angle_beta   64.47553809
_cell_angle_gamma   64.47553867
_symmetry_Int_Tables_number   1
_chemical_formula_structural   LiTbMnPt3
_chemical_formula_sum   'Li1 Tb1 Mn1 Pt3'
_cell_volume   106.31138761
_cell_formula_units_Z   1
loop_
 _symmetry_equiv_pos_site_id
 _symmetry_equiv_pos_as_xyz
  1  'x, y, z'
loop_
 _atom_site_type_symbol
 _atom_site_label
 _atom_site_symmetry_multiplicity
 _atom_site_fract_x
 _atom_site_fract_y
 _atom_site_fract_z
 _atom_site_occupancy
  Li  Li0  1  0.258339  0.258339  0.258339  1
  Tb  Tb1  1  0.005173  0.005173  0.005173  1
  Mn  Mn2  1  0.621323  0.621323  0.621323  1
  Pt  Pt3  1  0.620936  0.620936  0.123292  1
  Pt  Pt4  1  0.620936  0.123292  0.620936  1
  Pt  Pt5  1  0.123292  0.620936  0.620936  1
