# generated using pymatgen
data_Y12Fe2Br17
_symmetry_space_group_name_H-M   'P 1'
_cell_length_a   9.20617969
_cell_length_b   11.07657078
_cell_length_c   11.12270208
_cell_angle_alpha   93.55192967
_cell_angle_beta   104.58978754
_cell_angle_gamma   113.98176760
_symmetry_Int_Tables_number   1
_chemical_formula_structural   Y12Fe2Br17
_chemical_formula_sum   'Y12 Fe2 Br17'
_cell_volume   985.41326762
_cell_formula_units_Z   1
loop_
 _symmetry_equiv_pos_site_id
 _symmetry_equiv_pos_as_xyz
  1  'x, y, z'
loop_
 _atom_site_type_symbol
 _atom_site_label
 _atom_site_symmetry_multiplicity
 _atom_site_fract_x
 _atom_site_fract_y
 _atom_site_fract_z
 _atom_site_occupancy
  Y  Y0  1  0.058785  0.513033  0.321505  1
  Y  Y1  1  0.984281  0.810483  0.578282  1
  Y  Y2  1  0.644384  0.239078  0.285974  1
  Y  Y3  1  0.015719  0.189517  0.421718  1
  Y  Y4  1  0.227283  0.670630  0.992652  1
  Y  Y5  1  0.258033  0.988665  0.890622  1
  Y  Y6  1  0.355616  0.760922  0.714026  1
  Y  Y7  1  0.941215  0.486967  0.678495  1
  Y  Y8  1  0.741967  0.011335  0.109378  1
  Y  Y9  1  0.153088  0.288174  0.150552  1
  Y  Y10  1  0.772717  0.329370  0.007348  1
  Y  Y11  1  0.846912  0.711826  0.849448  1
  Fe  Fe12  1  0.104093  0.738417  0.785853  1
  Fe  Fe13  1  0.895907  0.261583  0.214147  1
  Br  Br14  1  0.788775  0.526462  0.420186  1
  Br  Br15  1  0.645233  0.421022  0.762131  1
  Br  Br16  1  0.847527  0.899308  0.329177  1
  Br  Br17  1  0.327333  0.214078  0.365232  1
  Br  Br18  1  0.152473  0.100692  0.670823  1
  Br  Br19  1  0.584596  0.051643  0.847526  1
  Br  Br20  1  0.760737  0.188909  0.538167  1
  Br  Br21  1  0.551029  0.710803  0.952296  1
  Br  Br22  1  0.354767  0.578978  0.237869  1
  Br  Br23  1  0.211225  0.473538  0.579814  1
  Br  Br24  1  0.056057  0.371256  0.900136  1
  Br  Br25  1  0.448971  0.289197  0.047704  1
  Br  Br26  1  0.000000  0.000000  0.000000  1
  Br  Br27  1  0.239263  0.811091  0.461833  1
  Br  Br28  1  0.415404  0.948357  0.152474  1
  Br  Br29  1  0.672667  0.785922  0.634768  1
  Br  Br30  1  0.943943  0.628744  0.099864  1
