# generated using pymatgen
data_Tb2Er2Sb6Ru2Rh5
_symmetry_space_group_name_H-M   'P 1'
_cell_length_a   7.59326456
_cell_length_b   7.59326617
_cell_length_c   7.58030096
_cell_angle_alpha   109.27359932
_cell_angle_beta   109.56782972
_cell_angle_gamma   109.64147437
_symmetry_Int_Tables_number   1
_chemical_formula_structural   Tb2Er2Sb6Ru2Rh5
_chemical_formula_sum   'Tb2 Er2 Sb6 Ru2 Rh5'
_cell_volume   336.16019221
_cell_formula_units_Z   1
loop_
 _symmetry_equiv_pos_site_id
 _symmetry_equiv_pos_as_xyz
  1  'x, y, z'
loop_
 _atom_site_type_symbol
 _atom_site_label
 _atom_site_symmetry_multiplicity
 _atom_site_fract_x
 _atom_site_fract_y
 _atom_site_fract_z
 _atom_site_occupancy
  Tb  Tb0  1  0.998296  0.999144  0.499157  1
  Tb  Tb1  1  0.500013  0.500862  0.499157  1
  Er  Er2  1  0.500012  0.999058  0.000952  1
  Er  Er3  1  0.001893  0.500940  0.000952  1
  Sb  Sb4  1  0.999323  0.314851  0.314174  1
  Sb  Sb5  1  0.684618  0.999619  0.684237  1
  Sb  Sb6  1  0.684596  0.685696  0.001034  1
  Sb  Sb7  1  0.000665  0.685149  0.685814  1
  Sb  Sb8  1  0.315362  0.998250  0.313611  1
  Sb  Sb9  1  0.315338  0.316438  0.001034  1
  Ru  Ru10  1  0.999980  0.999992  0.999972  1
  Ru  Ru11  1  0.499168  0.749992  0.249160  1
  Rh  Rh12  1  0.750640  0.499176  0.249815  1
  Rh  Rh13  1  0.249345  0.749434  0.500081  1
  Rh  Rh14  1  0.249358  0.500661  0.750019  1
  Rh  Rh15  1  0.500746  0.250005  0.750751  1
  Rh  Rh16  1  0.750648  0.250736  0.500081  1
