# generated using pymatgen
data_Sc12InFe3Au
_symmetry_space_group_name_H-M   'P 1'
_cell_length_a   7.72779219
_cell_length_b   7.72779146
_cell_length_c   7.72779265
_cell_angle_alpha   110.76535213
_cell_angle_beta   106.72180502
_cell_angle_gamma   110.96105767
_symmetry_Int_Tables_number   1
_chemical_formula_structural   Sc12InFe3Au
_chemical_formula_sum   'Sc12 In1 Fe3 Au1'
_cell_volume   354.64754183
_cell_formula_units_Z   1
loop_
 _symmetry_equiv_pos_site_id
 _symmetry_equiv_pos_as_xyz
  1  'x, y, z'
loop_
 _atom_site_type_symbol
 _atom_site_label
 _atom_site_symmetry_multiplicity
 _atom_site_fract_x
 _atom_site_fract_y
 _atom_site_fract_z
 _atom_site_occupancy
  Sc  Sc0  1  0.304344  0.309049  0.613393  1
  Sc  Sc1  1  0.695656  0.690951  0.386607  1
  Sc  Sc2  1  0.695656  0.309049  0.004705  1
  Sc  Sc3  1  0.304344  0.690951  0.995295  1
  Sc  Sc4  1  0.195808  0.448186  0.252378  1
  Sc  Sc5  1  0.804192  0.551814  0.747622  1
  Sc  Sc6  1  0.195808  0.943429  0.747622  1
  Sc  Sc7  1  0.962170  0.189405  0.772767  1
  Sc  Sc8  1  0.804192  0.056571  0.252378  1
  Sc  Sc9  1  0.037830  0.810595  0.227233  1
  Sc  Sc10  1  0.416638  0.189405  0.227233  1
  Sc  Sc11  1  0.583362  0.810595  0.772767  1
  In  In12  1  0.500000  0.000000  0.500000  1
  Fe  Fe13  1  0.377343  0.377343  0.000000  1
  Fe  Fe14  1  0.622657  0.622657  0.000000  1
  Fe  Fe15  1  0.000000  0.000000  0.000000  1
  Au  Au16  1  0.000000  0.500000  0.500000  1
