# generated using pymatgen
data_Dy8In3Fe
_symmetry_space_group_name_H-M   'P 1'
_cell_length_a   10.38037900
_cell_length_b   10.38037882
_cell_length_c   7.02959700
_cell_angle_alpha   90.00000000
_cell_angle_beta   90.00000000
_cell_angle_gamma   119.99999738
_symmetry_Int_Tables_number   1
_chemical_formula_structural   Dy8In3Fe
_chemical_formula_sum   'Dy16 In6 Fe2'
_cell_volume   655.97529676
_cell_formula_units_Z   2
loop_
 _symmetry_equiv_pos_site_id
 _symmetry_equiv_pos_as_xyz
  1  'x, y, z'
loop_
 _atom_site_type_symbol
 _atom_site_label
 _atom_site_symmetry_multiplicity
 _atom_site_fract_x
 _atom_site_fract_y
 _atom_site_fract_z
 _atom_site_occupancy
  Dy  Dy0  1  0.535044  0.070088  0.792006  1
  Dy  Dy1  1  0.929912  0.464956  0.792006  1
  Dy  Dy2  1  0.535044  0.464956  0.792006  1
  Dy  Dy3  1  0.464956  0.929912  0.292006  1
  Dy  Dy4  1  0.070088  0.535044  0.292006  1
  Dy  Dy5  1  0.464956  0.535044  0.292006  1
  Dy  Dy6  1  0.821517  0.643035  0.499728  1
  Dy  Dy7  1  0.356965  0.178483  0.499728  1
  Dy  Dy8  1  0.821517  0.178483  0.499728  1
  Dy  Dy9  1  0.178483  0.356965  0.999728  1
  Dy  Dy10  1  0.643035  0.821517  0.999728  1
  Dy  Dy11  1  0.178483  0.821517  0.999728  1
  Dy  Dy12  1  0.666667  0.333333  0.178504  1
  Dy  Dy13  1  0.333333  0.666667  0.678504  1
  Dy  Dy14  1  0.000000  0.000000  0.780603  1
  Dy  Dy15  1  0.000000  0.000000  0.280603  1
  In  In16  1  0.837018  0.674036  0.038582  1
  In  In17  1  0.325964  0.162982  0.038582  1
  In  In18  1  0.837018  0.162982  0.038582  1
  In  In19  1  0.162982  0.325964  0.538582  1
  In  In20  1  0.674036  0.837018  0.538582  1
  In  In21  1  0.162982  0.837018  0.538582  1
  Fe  Fe22  1  0.666667  0.333333  0.567893  1
  Fe  Fe23  1  0.333333  0.666667  0.067893  1
