# generated using pymatgen
data_Ca8SnGe5Rh8
_symmetry_space_group_name_H-M   'P 1'
_cell_length_a   10.96508786
_cell_length_b   10.96508790
_cell_length_c   7.85374864
_cell_angle_alpha   72.02955183
_cell_angle_beta   72.02955217
_cell_angle_gamma   30.56625754
_symmetry_Int_Tables_number   1
_chemical_formula_structural   Ca8SnGe5Rh8
_chemical_formula_sum   'Ca8 Sn1 Ge5 Rh8'
_cell_volume   454.97566428
_cell_formula_units_Z   1
loop_
 _symmetry_equiv_pos_site_id
 _symmetry_equiv_pos_as_xyz
  1  'x, y, z'
loop_
 _atom_site_type_symbol
 _atom_site_label
 _atom_site_symmetry_multiplicity
 _atom_site_fract_x
 _atom_site_fract_y
 _atom_site_fract_z
 _atom_site_occupancy
  Ca  Ca0  1  0.207534  0.446949  0.406244  1
  Ca  Ca1  1  0.553051  0.792466  0.093756  1
  Ca  Ca2  1  0.445949  0.208435  0.906743  1
  Ca  Ca3  1  0.924007  0.213379  0.332134  1
  Ca  Ca4  1  0.786621  0.075993  0.167866  1
  Ca  Ca5  1  0.078309  0.784354  0.665256  1
  Ca  Ca6  1  0.215646  0.921691  0.834744  1
  Ca  Ca7  1  0.791565  0.554051  0.593257  1
  Sn  Sn8  1  0.631272  0.368728  0.750000  1
  Ge  Ge9  1  0.384362  0.615638  0.250000  1
  Ge  Ge10  1  0.303655  0.039836  0.440064  1
  Ge  Ge11  1  0.960164  0.696345  0.059936  1
  Ge  Ge12  1  0.695181  0.958951  0.559919  1
  Ge  Ge13  1  0.041049  0.304819  0.940081  1
  Rh  Rh14  1  0.288839  0.585314  0.033778  1
  Rh  Rh15  1  0.575347  0.295213  0.509672  1
  Rh  Rh16  1  0.704787  0.424653  0.990328  1
  Rh  Rh17  1  0.083402  0.362489  0.186764  1
  Rh  Rh18  1  0.637511  0.916598  0.313236  1
  Rh  Rh19  1  0.414686  0.711161  0.466222  1
  Rh  Rh20  1  0.916406  0.639346  0.814038  1
  Rh  Rh21  1  0.360654  0.083594  0.685962  1
