# generated using pymatgen
data_V3GaC2
_symmetry_space_group_name_H-M   'P 1'
_cell_length_a   2.93250000
_cell_length_b   2.93249994
_cell_length_c   17.72445900
_cell_angle_alpha   90.00000000
_cell_angle_beta   90.00000000
_cell_angle_gamma   119.99997816
_symmetry_Int_Tables_number   1
_chemical_formula_structural   V3GaC2
_chemical_formula_sum   'V6 Ga2 C4'
_cell_volume   132.00176783
_cell_formula_units_Z   2
loop_
 _symmetry_equiv_pos_site_id
 _symmetry_equiv_pos_as_xyz
  1  'x, y, z'
loop_
 _atom_site_type_symbol
 _atom_site_label
 _atom_site_symmetry_multiplicity
 _atom_site_fract_x
 _atom_site_fract_y
 _atom_site_fract_z
 _atom_site_occupancy
  V  V0  1  0.333333  0.666667  0.130395  1
  V  V1  1  0.666667  0.333333  0.630395  1
  V  V2  1  0.333333  0.666667  0.369605  1
  V  V3  1  0.666667  0.333333  0.869605  1
  V  V4  1  0.000000  0.000000  0.500000  1
  V  V5  1  0.000000  0.000000  0.000000  1
  Ga  Ga6  1  0.000000  0.000000  0.250000  1
  Ga  Ga7  1  0.000000  0.000000  0.750000  1
  C  C8  1  0.666667  0.333333  0.430193  1
  C  C9  1  0.666667  0.333333  0.069807  1
  C  C10  1  0.333333  0.666667  0.569807  1
  C  C11  1  0.333333  0.666667  0.930193  1
