# generated using pymatgen
data_UCoAsN
_symmetry_space_group_name_H-M   'P 1'
_cell_length_a   3.85577205
_cell_length_b   3.85577205
_cell_length_c   7.80946211
_cell_angle_alpha   90.00032476
_cell_angle_beta   90.00032330
_cell_angle_gamma   90.00013285
_symmetry_Int_Tables_number   1
_chemical_formula_structural   UCoAsN
_chemical_formula_sum   'U2 Co2 As2 N2'
_cell_volume   116.10310228
_cell_formula_units_Z   2
loop_
 _symmetry_equiv_pos_site_id
 _symmetry_equiv_pos_as_xyz
  1  'x, y, z'
loop_
 _atom_site_type_symbol
 _atom_site_label
 _atom_site_symmetry_multiplicity
 _atom_site_fract_x
 _atom_site_fract_y
 _atom_site_fract_z
 _atom_site_occupancy
  U  U0  1  0.750042  0.750042  0.149456  1
  U  U1  1  0.250026  0.250026  0.849810  1
  Co  Co2  1  0.749976  0.249941  0.500442  1
  Co  Co3  1  0.249941  0.749976  0.500442  1
  As  As4  1  0.249988  0.249988  0.334546  1
  As  As5  1  0.749958  0.749958  0.665972  1
  N  N6  1  0.750037  0.250034  0.999667  1
  N  N7  1  0.250034  0.750037  0.999667  1
