# generated using pymatgen
data_Lu8CoBi4Ru
_symmetry_space_group_name_H-M   'P 1'
_cell_length_a   8.62334416
_cell_length_b   8.62334427
_cell_length_c   8.62334411
_cell_angle_alpha   96.45798488
_cell_angle_beta   96.45798223
_cell_angle_gamma   140.80963670
_symmetry_Int_Tables_number   1
_chemical_formula_structural   Lu8CoBi4Ru
_chemical_formula_sum   'Lu8 Co1 Bi4 Ru1'
_cell_volume   381.73783737
_cell_formula_units_Z   1
loop_
 _symmetry_equiv_pos_site_id
 _symmetry_equiv_pos_as_xyz
  1  'x, y, z'
loop_
 _atom_site_type_symbol
 _atom_site_label
 _atom_site_symmetry_multiplicity
 _atom_site_fract_x
 _atom_site_fract_y
 _atom_site_fract_z
 _atom_site_occupancy
  Lu  Lu0  1  0.696458  0.582444  0.274774  1
  Lu  Lu1  1  0.582444  0.307670  0.885986  1
  Lu  Lu2  1  0.078315  0.192330  0.274774  1
  Lu  Lu3  1  0.917556  0.803542  0.725226  1
  Lu  Lu4  1  0.192330  0.917556  0.114014  1
  Lu  Lu5  1  0.803542  0.078315  0.885986  1
  Lu  Lu6  1  0.307670  0.421685  0.725226  1
  Lu  Lu7  1  0.421685  0.696458  0.114014  1
  Co  Co8  1  0.750000  0.750000  0.000000  1
  Bi  Bi9  1  0.139863  0.639863  0.779728  1
  Bi  Bi10  1  0.360137  0.139863  0.500000  1
  Bi  Bi11  1  0.639863  0.860137  0.500000  1
  Bi  Bi12  1  0.860137  0.360137  0.220272  1
  Ru  Ru13  1  0.250000  0.250000  0.000000  1
