# generated using pymatgen
data_Tb5Y2PI12
_symmetry_space_group_name_H-M   'P 1'
_cell_length_a   9.69058918
_cell_length_b   9.68607396
_cell_length_c   9.69003809
_cell_angle_alpha   107.91542747
_cell_angle_beta   107.93735367
_cell_angle_gamma   107.93480945
_symmetry_Int_Tables_number   1
_chemical_formula_structural   Tb5Y2PI12
_chemical_formula_sum   'Tb5 Y2 P1 I12'
_cell_volume   737.43432964
_cell_formula_units_Z   1
loop_
 _symmetry_equiv_pos_site_id
 _symmetry_equiv_pos_as_xyz
  1  'x, y, z'
loop_
 _atom_site_type_symbol
 _atom_site_label
 _atom_site_symmetry_multiplicity
 _atom_site_fract_x
 _atom_site_fract_y
 _atom_site_fract_z
 _atom_site_occupancy
  Tb  Tb0  1  0.698007  0.969241  0.899935  1
  Tb  Tb1  1  0.969259  0.900040  0.698011  1
  Tb  Tb2  1  0.099518  0.301674  0.030078  1
  Tb  Tb3  1  0.301833  0.030252  0.099548  1
  Tb  Tb4  1  0.900033  0.698020  0.969170  1
  Y  Y5  1  0.501159  0.501155  0.501157  1
  Y  Y6  1  0.030140  0.099302  0.301335  1
  P  P7  1  0.000100  0.000072  0.000162  1
  I  I8  1  0.076069  0.228270  0.685927  1
  I  I9  1  0.386287  0.154329  0.467047  1
  I  I10  1  0.613202  0.846355  0.532783  1
  I  I11  1  0.228535  0.686458  0.076370  1
  I  I12  1  0.771382  0.313531  0.923826  1
  I  I13  1  0.686660  0.076384  0.228720  1
  I  I14  1  0.533031  0.613526  0.846692  1
  I  I15  1  0.846472  0.532911  0.613147  1
  I  I16  1  0.924056  0.772061  0.313851  1
  I  I17  1  0.313563  0.923683  0.771299  1
  I  I18  1  0.466806  0.386555  0.154089  1
  I  I19  1  0.153886  0.466181  0.386853  1
