# generated using pymatgen
data_LuMg3Ge6Ir7
_symmetry_space_group_name_H-M   'P 1'
_cell_length_a   6.99294644
_cell_length_b   7.13734153
_cell_length_c   7.13734197
_cell_angle_alpha   109.87740761
_cell_angle_beta   109.06191820
_cell_angle_gamma   109.06191073
_symmetry_Int_Tables_number   1
_chemical_formula_structural   LuMg3Ge6Ir7
_chemical_formula_sum   'Lu1 Mg3 Ge6 Ir7'
_cell_volume   275.60062029
_cell_formula_units_Z   1
loop_
 _symmetry_equiv_pos_site_id
 _symmetry_equiv_pos_as_xyz
  1  'x, y, z'
loop_
 _atom_site_type_symbol
 _atom_site_label
 _atom_site_symmetry_multiplicity
 _atom_site_fract_x
 _atom_site_fract_y
 _atom_site_fract_z
 _atom_site_occupancy
  Lu  Lu0  1  0.500000  0.000000  0.000000  1
  Mg  Mg1  1  0.500000  0.500000  0.500000  1
  Mg  Mg2  1  0.000000  0.000000  0.500000  1
  Mg  Mg3  1  0.000000  0.500000  0.000000  1
  Ge  Ge4  1  0.006365  0.313658  0.313658  1
  Ge  Ge5  1  0.993635  0.686342  0.686342  1
  Ge  Ge6  1  0.307294  0.000000  0.313658  1
  Ge  Ge7  1  0.692706  0.000000  0.686342  1
  Ge  Ge8  1  0.307294  0.313658  0.000000  1
  Ge  Ge9  1  0.692706  0.686342  0.000000  1
  Ir  Ir10  1  0.500000  0.747653  0.252347  1
  Ir  Ir11  1  0.500000  0.252347  0.747653  1
  Ir  Ir12  1  0.247653  0.495306  0.747653  1
  Ir  Ir13  1  0.752347  0.504694  0.252347  1
  Ir  Ir14  1  0.752347  0.252347  0.504694  1
  Ir  Ir15  1  0.247653  0.747653  0.495306  1
  Ir  Ir16  1  0.000000  0.000000  0.000000  1
