# generated using pymatgen
data_PmHoZnSi3
_symmetry_space_group_name_H-M   'P 1'
_cell_length_a   4.12255000
_cell_length_b   4.12255134
_cell_length_c   8.01008900
_cell_angle_alpha   90.00000000
_cell_angle_beta   90.00000000
_cell_angle_gamma   120.00000528
_symmetry_Int_Tables_number   1
_chemical_formula_structural   PmHoZnSi3
_chemical_formula_sum   'Pm1 Ho1 Zn1 Si3'
_cell_volume   117.89624004
_cell_formula_units_Z   1
loop_
 _symmetry_equiv_pos_site_id
 _symmetry_equiv_pos_as_xyz
  1  'x, y, z'
loop_
 _atom_site_type_symbol
 _atom_site_label
 _atom_site_symmetry_multiplicity
 _atom_site_fract_x
 _atom_site_fract_y
 _atom_site_fract_z
 _atom_site_occupancy
  Pm  Pm0  1  0.000000  0.000000  0.991286  1
  Ho  Ho1  1  0.000000  0.000000  0.507098  1
  Zn  Zn2  1  0.666667  0.333333  0.258752  1
  Si  Si3  1  0.333333  0.666665  0.257776  1
  Si  Si4  1  0.666667  0.333333  0.742101  1
  Si  Si5  1  0.333333  0.666665  0.742987  1
