# generated using pymatgen
data_PrHo7(CdPt)2
_symmetry_space_group_name_H-M   'P 1'
_cell_length_a   9.70779411
_cell_length_b   9.70779480
_cell_length_c   9.68022200
_cell_angle_alpha   60.09390430
_cell_angle_beta   60.09390199
_cell_angle_gamma   59.81218301
_symmetry_Int_Tables_number   1
_chemical_formula_structural   PrHo7(CdPt)2
_chemical_formula_sum   'Pr2 Ho14 Cd4 Pt4'
_cell_volume   645.06643164
_cell_formula_units_Z   2
loop_
 _symmetry_equiv_pos_site_id
 _symmetry_equiv_pos_as_xyz
  1  'x, y, z'
loop_
 _atom_site_type_symbol
 _atom_site_label
 _atom_site_symmetry_multiplicity
 _atom_site_fract_x
 _atom_site_fract_y
 _atom_site_fract_z
 _atom_site_occupancy
  Pr  Pr0  1  0.568685  0.568685  0.931315  1
  Pr  Pr1  1  0.931315  0.931315  0.568685  1
  Ho  Ho2  1  0.351633  0.351633  0.351325  1
  Ho  Ho3  1  0.351633  0.351633  0.945409  1
  Ho  Ho4  1  0.351325  0.945409  0.351633  1
  Ho  Ho5  1  0.945409  0.351325  0.351633  1
  Ho  Ho6  1  0.810446  0.189554  0.189554  1
  Ho  Ho7  1  0.189554  0.810446  0.810446  1
  Ho  Ho8  1  0.189554  0.810446  0.189554  1
  Ho  Ho9  1  0.810446  0.189554  0.810446  1
  Ho  Ho10  1  0.189502  0.189502  0.810498  1
  Ho  Ho11  1  0.810498  0.810498  0.189502  1
  Ho  Ho12  1  0.938781  0.561219  0.561219  1
  Ho  Ho13  1  0.561219  0.938781  0.938781  1
  Ho  Ho14  1  0.561219  0.938781  0.561219  1
  Ho  Ho15  1  0.938781  0.561219  0.938781  1
  Cd  Cd16  1  0.582702  0.582702  0.577648  1
  Cd  Cd17  1  0.582702  0.582702  0.256946  1
  Cd  Cd18  1  0.577648  0.256946  0.582702  1
  Cd  Cd19  1  0.256946  0.577648  0.582702  1
  Pt  Pt20  1  0.144363  0.144363  0.140044  1
  Pt  Pt21  1  0.144363  0.144363  0.571229  1
  Pt  Pt22  1  0.140044  0.571229  0.144363  1
  Pt  Pt23  1  0.571229  0.140044  0.144363  1
