# generated using pymatgen
data_La2Tb5NdSb20
_symmetry_space_group_name_H-M   'P 1'
_cell_length_a   4.22346600
_cell_length_b   13.48156385
_cell_length_c   14.94018700
_cell_angle_alpha   78.70991354
_cell_angle_beta   90.00000000
_cell_angle_gamma   90.00000000
_symmetry_Int_Tables_number   1
_chemical_formula_structural   La2Tb5NdSb20
_chemical_formula_sum   'La2 Tb5 Nd1 Sb20'
_cell_volume   834.21635074
_cell_formula_units_Z   1
loop_
 _symmetry_equiv_pos_site_id
 _symmetry_equiv_pos_as_xyz
  1  'x, y, z'
loop_
 _atom_site_type_symbol
 _atom_site_label
 _atom_site_symmetry_multiplicity
 _atom_site_fract_x
 _atom_site_fract_y
 _atom_site_fract_z
 _atom_site_occupancy
  La  La0  1  0.250000  0.952219  0.362374  1
  La  La1  1  0.750000  0.046240  0.639088  1
  Tb  Tb2  1  0.250000  0.662461  0.857321  1
  Tb  Tb3  1  0.250000  0.665238  0.577414  1
  Tb  Tb4  1  0.750000  0.336183  0.423339  1
  Tb  Tb5  1  0.250000  0.398085  0.771411  1
  Tb  Tb6  1  0.750000  0.603913  0.227195  1
  Nd  Nd7  1  0.750000  0.335997  0.142144  1
  Sb  Sb8  1  0.750000  0.845563  0.827364  1
  Sb  Sb9  1  0.250000  0.853213  0.679562  1
  Sb  Sb10  1  0.250000  0.153026  0.477003  1
  Sb  Sb11  1  0.750000  0.285284  0.932685  1
  Sb  Sb12  1  0.250000  0.146894  0.782365  1
  Sb  Sb13  1  0.750000  0.573780  0.443673  1
  Sb  Sb14  1  0.750000  0.144284  0.324111  1
  Sb  Sb15  1  0.250000  0.706699  0.351015  1
  Sb  Sb16  1  0.750000  0.293690  0.648486  1
  Sb  Sb17  1  0.750000  0.853187  0.217005  1
  Sb  Sb18  1  0.250000  0.422389  0.972637  1
  Sb  Sb19  1  0.250000  0.427514  0.556071  1
  Sb  Sb20  1  0.750000  0.576704  0.735217  1
  Sb  Sb21  1  0.250000  0.426200  0.267237  1
  Sb  Sb22  1  0.750000  0.847702  0.524841  1
  Sb  Sb23  1  0.750000  0.030841  0.895199  1
  Sb  Sb24  1  0.250000  0.716942  0.063073  1
  Sb  Sb25  1  0.250000  0.967204  0.102796  1
  Sb  Sb26  1  0.250000  0.148434  0.175637  1
  Sb  Sb27  1  0.750000  0.580118  0.023737  1
