# generated using pymatgen
data_TbTmSi3(AsRh3)4
_symmetry_space_group_name_H-M   'P 1'
_cell_length_a   9.88489100
_cell_length_b   9.88489149
_cell_length_c   3.88081600
_cell_angle_alpha   90.00000000
_cell_angle_beta   90.00000000
_cell_angle_gamma   120.00000170
_symmetry_Int_Tables_number   1
_chemical_formula_structural   TbTmSi3(AsRh3)4
_chemical_formula_sum   'Tb1 Tm1 Si3 As4 Rh12'
_cell_volume   328.39570431
_cell_formula_units_Z   1
loop_
 _symmetry_equiv_pos_site_id
 _symmetry_equiv_pos_as_xyz
  1  'x, y, z'
loop_
 _atom_site_type_symbol
 _atom_site_label
 _atom_site_symmetry_multiplicity
 _atom_site_fract_x
 _atom_site_fract_y
 _atom_site_fract_z
 _atom_site_occupancy
  Tb  Tb0  1  0.333333  0.666667  0.244408  1
  Tm  Tm1  1  0.666667  0.333333  0.743419  1
  Si  Si2  1  0.404662  0.113563  0.242271  1
  Si  Si3  1  0.708900  0.595338  0.242271  1
  Si  Si4  1  0.886437  0.291100  0.242271  1
  As  As5  1  0.000000  0.000000  0.636375  1
  As  As6  1  0.596139  0.882717  0.745258  1
  As  As7  1  0.286579  0.403861  0.745258  1
  As  As8  1  0.117283  0.713421  0.745258  1
  Rh  Rh9  1  0.450782  0.378682  0.241864  1
  Rh  Rh10  1  0.927900  0.549218  0.241864  1
  Rh  Rh11  1  0.621318  0.072100  0.241864  1
  Rh  Rh12  1  0.558373  0.614758  0.744057  1
  Rh  Rh13  1  0.056386  0.441627  0.744057  1
  Rh  Rh14  1  0.385242  0.943614  0.744057  1
  Rh  Rh15  1  0.146450  0.888612  0.244457  1
  Rh  Rh16  1  0.742164  0.853550  0.244457  1
  Rh  Rh17  1  0.111388  0.257836  0.244457  1
  Rh  Rh18  1  0.848089  0.125028  0.740693  1
  Rh  Rh19  1  0.276938  0.151911  0.740693  1
  Rh  Rh20  1  0.874972  0.723062  0.740693  1
