# generated using pymatgen
data_Tb5Dy5Rh4
_symmetry_space_group_name_H-M   'P 1'
_cell_length_a   6.41304691
_cell_length_b   7.15647186
_cell_length_c   8.74559796
_cell_angle_alpha   96.84453656
_cell_angle_beta   111.73945454
_cell_angle_gamma   89.95648462
_symmetry_Int_Tables_number   1
_chemical_formula_structural   Tb5Dy5Rh4
_chemical_formula_sum   'Tb5 Dy5 Rh4'
_cell_volume   369.76366066
_cell_formula_units_Z   1
loop_
 _symmetry_equiv_pos_site_id
 _symmetry_equiv_pos_as_xyz
  1  'x, y, z'
loop_
 _atom_site_type_symbol
 _atom_site_label
 _atom_site_symmetry_multiplicity
 _atom_site_fract_x
 _atom_site_fract_y
 _atom_site_fract_z
 _atom_site_occupancy
  Tb  Tb0  1  0.790706  0.083507  0.810219  1
  Tb  Tb1  1  0.982219  0.417153  0.190913  1
  Tb  Tb2  1  0.209673  0.915839  0.190000  1
  Tb  Tb3  1  0.017159  0.583328  0.808646  1
  Tb  Tb4  1  0.211474  0.186035  0.562442  1
  Dy  Dy5  1  0.646364  0.312434  0.434595  1
  Dy  Dy6  1  0.788176  0.813840  0.436853  1
  Dy  Dy7  1  0.353405  0.687350  0.565331  1
  Dy  Dy8  1  0.426864  0.250336  0.999863  1
  Dy  Dy9  1  0.573040  0.750179  0.000413  1
  Rh  Rh10  1  0.594172  0.428162  0.779167  1
  Rh  Rh11  1  0.818109  0.071346  0.224407  1
  Rh  Rh12  1  0.407120  0.572244  0.221943  1
  Rh  Rh13  1  0.181521  0.928247  0.775207  1
