# generated using pymatgen
data_HoEr9(Ga2Ru3)2
_symmetry_space_group_name_H-M   'P 1'
_cell_length_a   8.28971326
_cell_length_b   8.28971274
_cell_length_c   8.28851500
_cell_angle_alpha   109.05499088
_cell_angle_beta   109.50084212
_cell_angle_gamma   109.86465288
_symmetry_Int_Tables_number   1
_chemical_formula_structural   HoEr9(Ga2Ru3)2
_chemical_formula_sum   'Ho1 Er9 Ga4 Ru6'
_cell_volume   438.41048856
_cell_formula_units_Z   1
loop_
 _symmetry_equiv_pos_site_id
 _symmetry_equiv_pos_as_xyz
  1  'x, y, z'
loop_
 _atom_site_type_symbol
 _atom_site_label
 _atom_site_symmetry_multiplicity
 _atom_site_fract_x
 _atom_site_fract_y
 _atom_site_fract_z
 _atom_site_occupancy
  Ho  Ho0  1  0.183093  0.933093  0.250000  1
  Er  Er1  1  0.784221  0.784889  0.784039  1
  Er  Er2  1  0.317471  0.567471  0.750000  1
  Er  Er3  1  0.750650  0.320203  0.570157  1
  Er  Er4  1  0.568561  0.749617  0.318417  1
  Er  Er5  1  0.715455  0.499665  0.999912  1
  Er  Er6  1  0.999753  0.715543  0.500088  1
  Er  Er7  1  0.500848  0.000181  0.715961  1
  Er  Er8  1  0.250047  0.180493  0.929843  1
  Er  Er9  1  0.931200  0.250143  0.181583  1
  Ga  Ga10  1  0.412635  0.412914  0.412647  1
  Ga  Ga11  1  0.088731  0.499988  0.002106  1
  Ga  Ga12  1  0.997882  0.086627  0.497894  1
  Ga  Ga13  1  0.500267  0.999988  0.087353  1
  Ru  Ru14  1  0.875671  0.125671  0.750000  1
  Ru  Ru15  1  0.748896  0.872720  0.122266  1
  Ru  Ru16  1  0.124128  0.749664  0.874174  1
  Ru  Ru17  1  0.250454  0.626631  0.377734  1
  Ru  Ru18  1  0.375490  0.249954  0.625826  1
  Ru  Ru19  1  0.624545  0.374545  0.250000  1
