# generated using pymatgen
data_Sm5YSi10
_symmetry_space_group_name_H-M   'P 1'
_cell_length_a   6.78488857
_cell_length_b   6.78488829
_cell_length_c   8.43286970
_cell_angle_alpha   90.04051558
_cell_angle_beta   89.95948691
_cell_angle_gamma   120.12660017
_symmetry_Int_Tables_number   1
_chemical_formula_structural   Sm5YSi10
_chemical_formula_sum   'Sm5 Y1 Si10'
_cell_volume   335.76532989
_cell_formula_units_Z   1
loop_
 _symmetry_equiv_pos_site_id
 _symmetry_equiv_pos_as_xyz
  1  'x, y, z'
loop_
 _atom_site_type_symbol
 _atom_site_label
 _atom_site_symmetry_multiplicity
 _atom_site_fract_x
 _atom_site_fract_y
 _atom_site_fract_z
 _atom_site_occupancy
  Sm  Sm0  1  0.331598  0.000166  0.000282  1
  Sm  Sm1  1  0.331790  0.999743  0.499662  1
  Sm  Sm2  1  0.999743  0.331790  0.500338  1
  Sm  Sm3  1  0.000166  0.331598  0.999718  1
  Sm  Sm4  1  0.668609  0.668609  0.000000  1
  Y  Y5  1  0.669147  0.669147  0.500000  1
  Si  Si6  1  0.372217  0.332398  0.251952  1
  Si  Si7  1  0.670022  0.039113  0.250776  1
  Si  Si8  1  0.958065  0.629004  0.252410  1
  Si  Si9  1  0.629004  0.958065  0.747590  1
  Si  Si10  1  0.999711  0.999392  0.251904  1
  Si  Si11  1  0.666083  0.332941  0.748480  1
  Si  Si12  1  0.039113  0.670022  0.749224  1
  Si  Si13  1  0.332398  0.372217  0.748048  1
  Si  Si14  1  0.332941  0.666083  0.251520  1
  Si  Si15  1  0.999392  0.999711  0.748096  1
