# generated using pymatgen
data_Tm4VCo17(ReP6)2
_symmetry_space_group_name_H-M   'P 1'
_cell_length_a   3.67041800
_cell_length_b   10.30269712
_cell_length_c   11.74688767
_cell_angle_alpha   90.01171548
_cell_angle_beta   90.00000000
_cell_angle_gamma   90.00000000
_symmetry_Int_Tables_number   1
_chemical_formula_structural   Tm4VCo17(ReP6)2
_chemical_formula_sum   'Tm4 V1 Co17 Re2 P12'
_cell_volume   444.21095573
_cell_formula_units_Z   1
loop_
 _symmetry_equiv_pos_site_id
 _symmetry_equiv_pos_as_xyz
  1  'x, y, z'
loop_
 _atom_site_type_symbol
 _atom_site_label
 _atom_site_symmetry_multiplicity
 _atom_site_fract_x
 _atom_site_fract_y
 _atom_site_fract_z
 _atom_site_occupancy
  Tm  Tm0  1  0.250000  0.581902  0.702435  1
  Tm  Tm1  1  0.250000  0.914992  0.205597  1
  Tm  Tm2  1  0.750000  0.415018  0.296381  1
  Tm  Tm3  1  0.750000  0.080805  0.795393  1
  V  V4  1  0.250000  0.707626  0.987029  1
  Co  Co5  1  0.750000  0.216642  0.509824  1
  Co  Co6  1  0.250000  0.406162  0.488511  1
  Co  Co7  1  0.250000  0.094095  0.988465  1
  Co  Co8  1  0.750000  0.592855  0.511752  1
  Co  Co9  1  0.750000  0.905992  0.012806  1
  Co  Co10  1  0.250000  0.221045  0.177360  1
  Co  Co11  1  0.250000  0.278309  0.677773  1
  Co  Co12  1  0.750000  0.778899  0.821770  1
  Co  Co13  1  0.750000  0.721226  0.322898  1
  Co  Co14  1  0.250000  0.887510  0.700288  1
  Co  Co15  1  0.250000  0.614332  0.199899  1
  Co  Co16  1  0.750000  0.115895  0.300610  1
  Co  Co17  1  0.750000  0.387974  0.799616  1
  Co  Co18  1  0.250000  0.465460  0.933948  1
  Co  Co19  1  0.250000  0.035366  0.431765  1
  Co  Co20  1  0.750000  0.533978  0.066834  1
  Co  Co21  1  0.750000  0.966998  0.567660  1
  Re  Re22  1  0.250000  0.789016  0.488660  1
  Re  Re23  1  0.750000  0.290663  0.011480  1
  P  P24  1  0.250000  0.419844  0.116401  1
  P  P25  1  0.250000  0.082977  0.612565  1
  P  P26  1  0.750000  0.582695  0.884662  1
  P  P27  1  0.750000  0.920843  0.385598  1
  P  P28  1  0.250000  0.267454  0.865345  1
  P  P29  1  0.250000  0.231431  0.369671  1
  P  P30  1  0.750000  0.731882  0.132832  1
  P  P31  1  0.750000  0.769932  0.633528  1
  P  P32  1  0.250000  0.593806  0.390213  1
  P  P33  1  0.250000  0.901338  0.891615  1
  P  P34  1  0.750000  0.399475  0.608061  1
  P  P35  1  0.750000  0.095562  0.110758  1
