# generated using pymatgen
data_NdGd2RuO7
_symmetry_space_group_name_H-M   'P 1'
_cell_length_a   6.51182933
_cell_length_b   6.51182971
_cell_length_c   7.54621600
_cell_angle_alpha   90.00000000
_cell_angle_beta   90.00000000
_cell_angle_gamma   110.84386699
_symmetry_Int_Tables_number   1
_chemical_formula_structural   NdGd2RuO7
_chemical_formula_sum   'Nd2 Gd4 Ru2 O14'
_cell_volume   299.04700398
_cell_formula_units_Z   2
loop_
 _symmetry_equiv_pos_site_id
 _symmetry_equiv_pos_as_xyz
  1  'x, y, z'
loop_
 _atom_site_type_symbol
 _atom_site_label
 _atom_site_symmetry_multiplicity
 _atom_site_fract_x
 _atom_site_fract_y
 _atom_site_fract_z
 _atom_site_occupancy
  Nd  Nd0  1  0.000000  0.000000  0.500000  1
  Nd  Nd1  1  0.000000  0.000000  0.000000  1
  Gd  Gd2  1  0.478335  0.926153  0.750000  1
  Gd  Gd3  1  0.521665  0.073847  0.250000  1
  Gd  Gd4  1  0.926153  0.478335  0.750000  1
  Gd  Gd5  1  0.073847  0.521665  0.250000  1
  Ru  Ru6  1  0.500000  0.500000  0.500000  1
  Ru  Ru7  1  0.500000  0.500000  0.000000  1
  O  O8  1  0.586708  0.586708  0.750000  1
  O  O9  1  0.413292  0.413292  0.250000  1
  O  O10  1  0.839070  0.111495  0.750000  1
  O  O11  1  0.160930  0.888505  0.250000  1
  O  O12  1  0.111495  0.839070  0.750000  1
  O  O13  1  0.888505  0.160930  0.250000  1
  O  O14  1  0.439147  0.183581  0.961787  1
  O  O15  1  0.560853  0.816419  0.461787  1
  O  O16  1  0.183581  0.439147  0.961787  1
  O  O17  1  0.816419  0.560853  0.461787  1
  O  O18  1  0.439147  0.183581  0.538213  1
  O  O19  1  0.560853  0.816419  0.038213  1
  O  O20  1  0.816419  0.560853  0.038213  1
  O  O21  1  0.183581  0.439147  0.538213  1
