# generated using pymatgen
data_Hf16Ni4Mo2IrRh
_symmetry_space_group_name_H-M   'P 1'
_cell_length_a   8.65134457
_cell_length_b   8.65134331
_cell_length_c   8.61073530
_cell_angle_alpha   60.17996577
_cell_angle_beta   60.17996941
_cell_angle_gamma   60.23874119
_symmetry_Int_Tables_number   1
_chemical_formula_structural   Hf16Ni4Mo2IrRh
_chemical_formula_sum   'Hf16 Ni4 Mo2 Ir1 Rh1'
_cell_volume   457.77297561
_cell_formula_units_Z   1
loop_
 _symmetry_equiv_pos_site_id
 _symmetry_equiv_pos_as_xyz
  1  'x, y, z'
loop_
 _atom_site_type_symbol
 _atom_site_label
 _atom_site_symmetry_multiplicity
 _atom_site_fract_x
 _atom_site_fract_y
 _atom_site_fract_z
 _atom_site_occupancy
  Hf  Hf0  1  0.678969  0.108962  0.105662  1
  Hf  Hf1  1  0.108962  0.678969  0.105662  1
  Hf  Hf2  1  0.103769  0.103769  0.688224  1
  Hf  Hf3  1  0.104192  0.104192  0.103852  1
  Hf  Hf4  1  0.316063  0.316063  0.684629  1
  Hf  Hf5  1  0.685176  0.685176  0.314843  1
  Hf  Hf6  1  0.316354  0.689276  0.315519  1
  Hf  Hf7  1  0.688647  0.316142  0.680065  1
  Hf  Hf8  1  0.689276  0.316354  0.315519  1
  Hf  Hf9  1  0.316142  0.688647  0.680065  1
  Hf  Hf10  1  0.952114  0.952114  0.547978  1
  Hf  Hf11  1  0.550401  0.550401  0.949052  1
  Hf  Hf12  1  0.948118  0.550794  0.949538  1
  Hf  Hf13  1  0.551446  0.946380  0.552547  1
  Hf  Hf14  1  0.550794  0.948118  0.949538  1
  Hf  Hf15  1  0.946380  0.551446  0.552547  1
  Ni  Ni16  1  0.321567  0.889395  0.894367  1
  Ni  Ni17  1  0.889395  0.321567  0.894367  1
  Ni  Ni18  1  0.891973  0.891973  0.318956  1
  Ni  Ni19  1  0.892107  0.892107  0.897026  1
  Mo  Mo20  1  0.998839  0.333108  0.333714  1
  Mo  Mo21  1  0.333108  0.998839  0.333714  1
  Ir  Ir22  1  0.333193  0.333193  0.995289  1
  Rh  Rh23  1  0.333012  0.333012  0.337325  1
