# generated using pymatgen
data_CaPr8Dy11Si16
_symmetry_space_group_name_H-M   'P 1'
_cell_length_a   7.54320800
_cell_length_b   7.81898212
_cell_length_c   14.86762600
_cell_angle_alpha   90.00000000
_cell_angle_beta   90.00000000
_cell_angle_gamma   90.01012699
_symmetry_Int_Tables_number   1
_chemical_formula_structural   CaPr8Dy11Si16
_chemical_formula_sum   'Ca1 Pr8 Dy11 Si16'
_cell_volume   876.89566762
_cell_formula_units_Z   1
loop_
 _symmetry_equiv_pos_site_id
 _symmetry_equiv_pos_as_xyz
  1  'x, y, z'
loop_
 _atom_site_type_symbol
 _atom_site_label
 _atom_site_symmetry_multiplicity
 _atom_site_fract_x
 _atom_site_fract_y
 _atom_site_fract_z
 _atom_site_occupancy
  Ca  Ca0  1  0.649260  0.989335  0.250000  1
  Pr  Pr1  1  0.972425  0.821022  0.098222  1
  Pr  Pr2  1  0.474013  0.680057  0.401226  1
  Pr  Pr3  1  0.525942  0.320418  0.901424  1
  Pr  Pr4  1  0.025750  0.179698  0.598715  1
  Pr  Pr5  1  0.025750  0.179698  0.901285  1
  Pr  Pr6  1  0.525942  0.320418  0.598576  1
  Pr  Pr7  1  0.474013  0.680057  0.098774  1
  Pr  Pr8  1  0.972425  0.821022  0.401778  1
  Dy  Dy9  1  0.148766  0.510307  0.250000  1
  Dy  Dy10  1  0.851591  0.489495  0.750000  1
  Dy  Dy11  1  0.349999  0.011234  0.750000  1
  Dy  Dy12  1  0.681775  0.820464  0.876418  1
  Dy  Dy13  1  0.181274  0.678763  0.623081  1
  Dy  Dy14  1  0.817964  0.320384  0.122111  1
  Dy  Dy15  1  0.320180  0.179052  0.377664  1
  Dy  Dy16  1  0.320180  0.179052  0.122336  1
  Dy  Dy17  1  0.817964  0.320384  0.377889  1
  Dy  Dy18  1  0.181274  0.678763  0.876919  1
  Dy  Dy19  1  0.681775  0.820464  0.623582  1
  Si  Si20  1  0.768220  0.610723  0.250000  1
  Si  Si21  1  0.259111  0.880278  0.250000  1
  Si  Si22  1  0.731415  0.120482  0.750000  1
  Si  Si23  1  0.232924  0.379845  0.750000  1
  Si  Si24  1  0.030466  0.114577  0.250000  1
  Si  Si25  1  0.523276  0.394172  0.250000  1
  Si  Si26  1  0.476668  0.611382  0.750000  1
  Si  Si27  1  0.976693  0.887106  0.750000  1
  Si  Si28  1  0.856881  0.530483  0.960057  1
  Si  Si29  1  0.356949  0.968273  0.539882  1
  Si  Si30  1  0.644193  0.032249  0.036177  1
  Si  Si31  1  0.143460  0.469669  0.459550  1
  Si  Si32  1  0.143460  0.469669  0.040450  1
  Si  Si33  1  0.644193  0.032249  0.463823  1
  Si  Si34  1  0.356949  0.968273  0.960118  1
  Si  Si35  1  0.856881  0.530483  0.539943  1
