# generated using pymatgen
data_Na2SmIO6
_symmetry_space_group_name_H-M   'P 1'
_cell_length_a   5.61990301
_cell_length_b   5.75503200
_cell_length_c   8.03074300
_cell_angle_alpha   90.00000000
_cell_angle_beta   90.00383338
_cell_angle_gamma   90.00000000
_symmetry_Int_Tables_number   1
_chemical_formula_structural   Na2SmIO6
_chemical_formula_sum   'Na4 Sm2 I2 O12'
_cell_volume   259.73608511
_cell_formula_units_Z   2
loop_
 _symmetry_equiv_pos_site_id
 _symmetry_equiv_pos_as_xyz
  1  'x, y, z'
loop_
 _atom_site_type_symbol
 _atom_site_label
 _atom_site_symmetry_multiplicity
 _atom_site_fract_x
 _atom_site_fract_y
 _atom_site_fract_z
 _atom_site_occupancy
  Na  Na0  1  0.490340  0.961842  0.753003  1
  Na  Na1  1  0.009660  0.461842  0.746997  1
  Na  Na2  1  0.509660  0.038158  0.246997  1
  Na  Na3  1  0.990340  0.538158  0.253003  1
  Sm  Sm4  1  0.500000  0.500000  0.000000  1
  Sm  Sm5  1  0.000000  0.000000  0.500000  1
  I  I6  1  0.500000  0.500000  0.500000  1
  I  I7  1  0.000000  0.000000  0.000000  1
  O  O8  1  0.327191  0.229050  0.557540  1
  O  O9  1  0.172809  0.729050  0.942460  1
  O  O10  1  0.672809  0.770950  0.442460  1
  O  O11  1  0.827191  0.270950  0.057540  1
  O  O12  1  0.599634  0.538113  0.723767  1
  O  O13  1  0.900366  0.038113  0.776233  1
  O  O14  1  0.400366  0.461887  0.276233  1
  O  O15  1  0.099634  0.961887  0.223767  1
  O  O16  1  0.228058  0.681685  0.546950  1
  O  O17  1  0.271942  0.181685  0.953050  1
  O  O18  1  0.771942  0.318315  0.453050  1
  O  O19  1  0.728058  0.818315  0.046950  1
