# generated using pymatgen
data_Er8Re11Si16Tc
_symmetry_space_group_name_H-M   'P 1'
_cell_length_a   6.76348500
_cell_length_b   6.76183660
_cell_length_c   12.68094418
_cell_angle_alpha   89.89952723
_cell_angle_beta   90.35852177
_cell_angle_gamma   90.00702765
_symmetry_Int_Tables_number   1
_chemical_formula_structural   Er8Re11Si16Tc
_chemical_formula_sum   'Er8 Re11 Si16 Tc1'
_cell_volume   579.93273100
_cell_formula_units_Z   1
loop_
 _symmetry_equiv_pos_site_id
 _symmetry_equiv_pos_as_xyz
  1  'x, y, z'
loop_
 _atom_site_type_symbol
 _atom_site_label
 _atom_site_symmetry_multiplicity
 _atom_site_fract_x
 _atom_site_fract_y
 _atom_site_fract_z
 _atom_site_occupancy
  Er  Er0  1  0.007291  0.660935  0.030614  1
  Er  Er1  1  0.993955  0.336162  0.530803  1
  Er  Er2  1  0.338751  0.992765  0.468245  1
  Er  Er3  1  0.161062  0.492307  0.781490  1
  Er  Er4  1  0.837444  0.506433  0.280271  1
  Er  Er5  1  0.492657  0.160739  0.219023  1
  Er  Er6  1  0.506576  0.836351  0.719469  1
  Er  Er7  1  0.662337  0.006633  0.969781  1
  Re  Re8  1  0.664502  0.664123  0.499993  1
  Re  Re9  1  0.164818  0.833779  0.250390  1
  Re  Re10  1  0.335117  0.334460  0.999604  1
  Re  Re11  1  0.978381  0.190846  0.131645  1
  Re  Re12  1  0.817510  0.017404  0.372683  1
  Re  Re13  1  0.311828  0.476667  0.383034  1
  Re  Re14  1  0.684459  0.517212  0.877657  1
  Re  Re15  1  0.478391  0.318361  0.620050  1
  Re  Re16  1  0.521153  0.690149  0.119542  1
  Re  Re17  1  0.189387  0.976764  0.867157  1
  Re  Re18  1  0.834125  0.165089  0.749912  1
  Si  Si19  1  0.022288  0.721041  0.437644  1
  Si  Si20  1  0.616292  0.304174  0.434923  1
  Si  Si21  1  0.386598  0.695047  0.934157  1
  Si  Si22  1  0.195811  0.115870  0.684326  1
  Si  Si23  1  0.303028  0.618676  0.565633  1
  Si  Si24  1  0.694378  0.387904  0.065321  1
  Si  Si25  1  0.805943  0.887452  0.184826  1
  Si  Si26  1  0.114660  0.195358  0.315971  1
  Si  Si27  1  0.980555  0.270478  0.937907  1
  Si  Si28  1  0.721204  0.023465  0.564591  1
  Si  Si29  1  0.228566  0.481133  0.189008  1
  Si  Si30  1  0.778131  0.523063  0.685321  1
  Si  Si31  1  0.477481  0.222165  0.812174  1
  Si  Si32  1  0.520080  0.771208  0.312731  1
  Si  Si33  1  0.270424  0.981343  0.061122  1
  Si  Si34  1  0.884968  0.805651  0.814585  1
  Tc  Tc35  1  0.019851  0.818792  0.628397  1
