# generated using pymatgen
data_Tb2Ho8In8IrPd3
_symmetry_space_group_name_H-M   'P 1'
_cell_length_a   3.62461600
_cell_length_b   8.12628943
_cell_length_c   18.26550347
_cell_angle_alpha   90.06951105
_cell_angle_beta   90.00000000
_cell_angle_gamma   90.00000000
_symmetry_Int_Tables_number   1
_chemical_formula_structural   Tb2Ho8In8IrPd3
_chemical_formula_sum   'Tb2 Ho8 In8 Ir1 Pd3'
_cell_volume   538.00414001
_cell_formula_units_Z   1
loop_
 _symmetry_equiv_pos_site_id
 _symmetry_equiv_pos_as_xyz
  1  'x, y, z'
loop_
 _atom_site_type_symbol
 _atom_site_label
 _atom_site_symmetry_multiplicity
 _atom_site_fract_x
 _atom_site_fract_y
 _atom_site_fract_z
 _atom_site_occupancy
  Tb  Tb0  1  0.000000  0.500356  0.499673  1
  Tb  Tb1  1  0.000000  0.000062  0.000533  1
  Ho  Ho2  1  0.000000  0.730061  0.277278  1
  Ho  Ho3  1  0.000000  0.260442  0.719869  1
  Ho  Ho4  1  0.000000  0.760020  0.779857  1
  Ho  Ho5  1  0.000000  0.253122  0.219750  1
  Ho  Ho6  1  0.000000  0.612816  0.086718  1
  Ho  Ho7  1  0.000000  0.384435  0.916786  1
  Ho  Ho8  1  0.000000  0.884308  0.583206  1
  Ho  Ho9  1  0.000000  0.115964  0.415975  1
  In  In10  1  0.500000  0.710093  0.931635  1
  In  In11  1  0.500000  0.290419  0.068569  1
  In  In12  1  0.500000  0.790673  0.431472  1
  In  In13  1  0.500000  0.209337  0.568368  1
  In  In14  1  0.500000  0.580891  0.649701  1
  In  In15  1  0.500000  0.420176  0.350654  1
  In  In16  1  0.500000  0.920375  0.150039  1
  In  In17  1  0.500000  0.080874  0.850182  1
  Ir  Ir18  1  0.500000  0.520630  0.195692  1
  Pd  Pd19  1  0.500000  0.476129  0.803991  1
  Pd  Pd20  1  0.500000  0.976285  0.696044  1
  Pd  Pd21  1  0.500000  0.022535  0.304009  1
