# generated using pymatgen
data_Al12Fe3Si8Ru
_symmetry_space_group_name_H-M   'P 1'
_cell_length_a   6.11822762
_cell_length_b   6.12071700
_cell_length_c   9.51430197
_cell_angle_alpha   90.00000000
_cell_angle_beta   90.19437545
_cell_angle_gamma   90.00000000
_symmetry_Int_Tables_number   1
_chemical_formula_structural   Al12Fe3Si8Ru
_chemical_formula_sum   'Al12 Fe3 Si8 Ru1'
_cell_volume   356.28895729
_cell_formula_units_Z   1
loop_
 _symmetry_equiv_pos_site_id
 _symmetry_equiv_pos_as_xyz
  1  'x, y, z'
loop_
 _atom_site_type_symbol
 _atom_site_label
 _atom_site_symmetry_multiplicity
 _atom_site_fract_x
 _atom_site_fract_y
 _atom_site_fract_z
 _atom_site_occupancy
  Al  Al0  1  0.998144  0.000272  0.995066  1
  Al  Al1  1  0.499979  0.500601  0.998837  1
  Al  Al2  1  0.001856  0.000272  0.504934  1
  Al  Al3  1  0.500021  0.500601  0.501163  1
  Al  Al4  1  0.141220  0.632447  0.863450  1
  Al  Al5  1  0.635928  0.864250  0.134482  1
  Al  Al6  1  0.858780  0.632447  0.636550  1
  Al  Al7  1  0.364072  0.864250  0.365518  1
  Al  Al8  1  0.858657  0.373106  0.135295  1
  Al  Al9  1  0.361575  0.133553  0.863853  1
  Al  Al10  1  0.141343  0.373106  0.364705  1
  Al  Al11  1  0.638425  0.133553  0.636147  1
  Fe  Fe12  1  0.500000  0.488769  0.750000  1
  Fe  Fe13  1  0.000000  0.988339  0.750000  1
  Fe  Fe14  1  0.500000  0.511133  0.250000  1
  Si  Si15  1  0.167778  0.664106  0.151019  1
  Si  Si16  1  0.662209  0.827520  0.844585  1
  Si  Si17  1  0.832222  0.664106  0.348981  1
  Si  Si18  1  0.337791  0.827520  0.655415  1
  Si  Si19  1  0.835941  0.329940  0.844435  1
  Si  Si20  1  0.346098  0.174390  0.153126  1
  Si  Si21  1  0.164059  0.329940  0.655565  1
  Si  Si22  1  0.653902  0.174390  0.346874  1
  Ru  Ru23  1  0.000000  0.011389  0.250000  1
