# generated using pymatgen
data_Tb7Y2Lu3Ga20
_symmetry_space_group_name_H-M   'P 1'
_cell_length_a   6.10050337
_cell_length_b   9.62798905
_cell_length_c   11.53350345
_cell_angle_alpha   90.00288019
_cell_angle_beta   90.00325584
_cell_angle_gamma   89.98871436
_symmetry_Int_Tables_number   1
_chemical_formula_structural   Tb7Y2Lu3Ga20
_chemical_formula_sum   'Tb7 Y2 Lu3 Ga20'
_cell_volume   677.42699622
_cell_formula_units_Z   1
loop_
 _symmetry_equiv_pos_site_id
 _symmetry_equiv_pos_as_xyz
  1  'x, y, z'
loop_
 _atom_site_type_symbol
 _atom_site_label
 _atom_site_symmetry_multiplicity
 _atom_site_fract_x
 _atom_site_fract_y
 _atom_site_fract_z
 _atom_site_occupancy
  Tb  Tb0  1  0.891188  0.509014  0.351389  1
  Tb  Tb1  1  0.608736  0.991151  0.850444  1
  Tb  Tb2  1  0.109278  0.010115  0.648587  1
  Tb  Tb3  1  0.389903  0.490574  0.148647  1
  Tb  Tb4  1  0.109271  0.489884  0.648619  1
  Tb  Tb5  1  0.389919  0.009435  0.148696  1
  Tb  Tb6  1  0.891194  0.991044  0.351394  1
  Y  Y7  1  0.849283  0.749972  0.075465  1
  Y  Y8  1  0.608768  0.508810  0.850358  1
  Lu  Lu9  1  0.651750  0.749992  0.574633  1
  Lu  Lu10  1  0.151083  0.249984  0.924844  1
  Lu  Lu11  1  0.348926  0.249992  0.424986  1
  Ga  Ga12  1  0.875188  0.055484  0.089354  1
  Ga  Ga13  1  0.624169  0.446628  0.589033  1
  Ga  Ga14  1  0.123949  0.552172  0.909915  1
  Ga  Ga15  1  0.375957  0.947478  0.411333  1
  Ga  Ga16  1  0.123806  0.947770  0.909930  1
  Ga  Ga17  1  0.375940  0.552519  0.411352  1
  Ga  Ga18  1  0.875185  0.444542  0.089389  1
  Ga  Ga19  1  0.624184  0.053404  0.588964  1
  Ga  Ga20  1  0.174427  0.750003  0.253498  1
  Ga  Ga21  1  0.329855  0.749973  0.750832  1
  Ga  Ga22  1  0.829745  0.250051  0.748019  1
  Ga  Ga23  1  0.670287  0.250013  0.248239  1
  Ga  Ga24  1  0.372691  0.749979  0.002318  1
  Ga  Ga25  1  0.124927  0.749998  0.504452  1
  Ga  Ga26  1  0.622137  0.250058  0.996051  1
  Ga  Ga27  1  0.875912  0.250003  0.496385  1
  Ga  Ga28  1  0.601341  0.750011  0.301853  1
  Ga  Ga29  1  0.899468  0.749953  0.797719  1
  Ga  Ga30  1  0.399506  0.250006  0.701420  1
  Ga  Ga31  1  0.102030  0.249987  0.201881  1
