# generated using pymatgen
data_Tm4Mn3Fe(Co4P3)4
_symmetry_space_group_name_H-M   'P 1'
_cell_length_a   3.63196100
_cell_length_b   10.25456043
_cell_length_c   11.74297365
_cell_angle_alpha   90.06062830
_cell_angle_beta   90.00000000
_cell_angle_gamma   90.00000000
_symmetry_Int_Tables_number   1
_chemical_formula_structural   Tm4Mn3Fe(Co4P3)4
_chemical_formula_sum   'Tm4 Mn3 Fe1 Co16 P12'
_cell_volume   437.35698636
_cell_formula_units_Z   1
loop_
 _symmetry_equiv_pos_site_id
 _symmetry_equiv_pos_as_xyz
  1  'x, y, z'
loop_
 _atom_site_type_symbol
 _atom_site_label
 _atom_site_symmetry_multiplicity
 _atom_site_fract_x
 _atom_site_fract_y
 _atom_site_fract_z
 _atom_site_occupancy
  Tm  Tm0  1  0.250000  0.580365  0.704090  1
  Tm  Tm1  1  0.250000  0.918415  0.203680  1
  Tm  Tm2  1  0.750000  0.417733  0.295145  1
  Tm  Tm3  1  0.750000  0.081839  0.795820  1
  Mn  Mn4  1  0.250000  0.712179  0.988889  1
  Mn  Mn5  1  0.250000  0.791900  0.489056  1
  Mn  Mn6  1  0.750000  0.287998  0.011594  1
  Fe  Fe7  1  0.750000  0.210154  0.512146  1
  Co  Co8  1  0.250000  0.406087  0.486939  1
  Co  Co9  1  0.250000  0.093390  0.987686  1
  Co  Co10  1  0.750000  0.593248  0.512767  1
  Co  Co11  1  0.750000  0.907152  0.012845  1
  Co  Co12  1  0.250000  0.221208  0.176726  1
  Co  Co13  1  0.250000  0.278098  0.677173  1
  Co  Co14  1  0.750000  0.779152  0.824167  1
  Co  Co15  1  0.750000  0.721881  0.322536  1
  Co  Co16  1  0.250000  0.883473  0.699332  1
  Co  Co17  1  0.250000  0.615896  0.199178  1
  Co  Co18  1  0.750000  0.117809  0.301346  1
  Co  Co19  1  0.750000  0.383200  0.800610  1
  Co  Co20  1  0.250000  0.465993  0.931819  1
  Co  Co21  1  0.250000  0.035293  0.432407  1
  Co  Co22  1  0.750000  0.533826  0.067794  1
  Co  Co23  1  0.750000  0.965728  0.567196  1
  P  P24  1  0.250000  0.418277  0.112461  1
  P  P25  1  0.250000  0.081245  0.613376  1
  P  P26  1  0.750000  0.581205  0.886898  1
  P  P27  1  0.750000  0.920321  0.385360  1
  P  P28  1  0.250000  0.268215  0.868484  1
  P  P29  1  0.250000  0.232339  0.368630  1
  P  P30  1  0.750000  0.731470  0.131339  1
  P  P31  1  0.750000  0.768293  0.633594  1
  P  P32  1  0.250000  0.597742  0.390255  1
  P  P33  1  0.250000  0.900122  0.891403  1
  P  P34  1  0.750000  0.397959  0.607959  1
  P  P35  1  0.750000  0.100796  0.109298  1
