# generated using pymatgen
data_Ta6VRe4Si6Tc
_symmetry_space_group_name_H-M   'P 1'
_cell_length_a   7.55100205
_cell_length_b   7.54379184
_cell_length_c   7.54379077
_cell_angle_alpha   127.10920494
_cell_angle_beta   124.84162751
_cell_angle_gamma   79.91988848
_symmetry_Int_Tables_number   1
_chemical_formula_structural   Ta6VRe4Si6Tc
_chemical_formula_sum   'Ta6 V1 Re4 Si6 Tc1'
_cell_volume   271.64729622
_cell_formula_units_Z   1
loop_
 _symmetry_equiv_pos_site_id
 _symmetry_equiv_pos_as_xyz
  1  'x, y, z'
loop_
 _atom_site_type_symbol
 _atom_site_label
 _atom_site_symmetry_multiplicity
 _atom_site_fract_x
 _atom_site_fract_y
 _atom_site_fract_z
 _atom_site_occupancy
  Ta  Ta0  1  0.558335  0.100173  0.045065  1
  Ta  Ta1  1  0.441665  0.486731  0.541839  1
  Ta  Ta2  1  0.963981  0.494491  0.031903  1
  Ta  Ta3  1  0.036019  0.067922  0.530510  1
  Ta  Ta4  1  0.756992  0.914149  0.663557  1
  Ta  Ta5  1  0.243008  0.906565  0.157157  1
  V  V6  1  0.000000  0.244671  0.244671  1
  Re  Re7  1  0.161313  0.752177  0.658721  1
  Re  Re8  1  0.838687  0.497408  0.590864  1
  Re  Re9  1  0.595355  0.750392  0.092661  1
  Re  Re10  1  0.404645  0.497306  0.155037  1
  Si  Si11  1  0.775541  0.527550  0.254502  1
  Si  Si12  1  0.224459  0.478960  0.752009  1
  Si  Si13  1  0.337923  0.826818  0.499324  1
  Si  Si14  1  0.662077  0.161401  0.488894  1
  Si  Si15  1  0.827061  0.828107  0.989881  1
  Si  Si16  1  0.172939  0.162820  0.001047  1
  Tc  Tc17  1  0.500000  0.244555  0.744555  1
