# generated using pymatgen
data_HfZr2Be2Ir5
_symmetry_space_group_name_H-M   'P 1'
_cell_length_a   9.48075400
_cell_length_b   9.48075400
_cell_length_c   3.37226200
_cell_angle_alpha   90.00000000
_cell_angle_beta   90.00000000
_cell_angle_gamma   90.00000000
_symmetry_Int_Tables_number   1
_chemical_formula_structural   HfZr2Be2Ir5
_chemical_formula_sum   'Hf2 Zr4 Be4 Ir10'
_cell_volume   303.11474608
_cell_formula_units_Z   2
loop_
 _symmetry_equiv_pos_site_id
 _symmetry_equiv_pos_as_xyz
  1  'x, y, z'
loop_
 _atom_site_type_symbol
 _atom_site_label
 _atom_site_symmetry_multiplicity
 _atom_site_fract_x
 _atom_site_fract_y
 _atom_site_fract_z
 _atom_site_occupancy
  Hf  Hf0  1  0.500000  0.500000  0.000000  1
  Hf  Hf1  1  0.000000  0.000000  0.000000  1
  Zr  Zr2  1  0.175541  0.675541  0.000000  1
  Zr  Zr3  1  0.324459  0.175541  0.000000  1
  Zr  Zr4  1  0.824459  0.324459  0.000000  1
  Zr  Zr5  1  0.675541  0.824459  0.000000  1
  Be  Be6  1  0.380764  0.880764  0.000000  1
  Be  Be7  1  0.119236  0.380764  0.000000  1
  Be  Be8  1  0.880764  0.619236  0.000000  1
  Be  Be9  1  0.619236  0.119236  0.000000  1
  Ir  Ir10  1  0.216196  0.927581  0.500000  1
  Ir  Ir11  1  0.927581  0.783804  0.500000  1
  Ir  Ir12  1  0.427581  0.716196  0.500000  1
  Ir  Ir13  1  0.572419  0.283804  0.500000  1
  Ir  Ir14  1  0.716196  0.572419  0.500000  1
  Ir  Ir15  1  0.283804  0.427581  0.500000  1
  Ir  Ir16  1  0.072419  0.216196  0.500000  1
  Ir  Ir17  1  0.000000  0.500000  0.500000  1
  Ir  Ir18  1  0.500000  0.000000  0.500000  1
  Ir  Ir19  1  0.783804  0.072419  0.500000  1
