# generated using pymatgen
data_Li8AcTh7Sn8
_symmetry_space_group_name_H-M   'P 1'
_cell_length_a   9.69953500
_cell_length_b   9.69953550
_cell_length_c   7.45996400
_cell_angle_alpha   90.00000000
_cell_angle_beta   90.00000000
_cell_angle_gamma   120.00000172
_symmetry_Int_Tables_number   1
_chemical_formula_structural   Li8AcTh7Sn8
_chemical_formula_sum   'Li8 Ac1 Th7 Sn8'
_cell_volume   607.81191186
_cell_formula_units_Z   1
loop_
 _symmetry_equiv_pos_site_id
 _symmetry_equiv_pos_as_xyz
  1  'x, y, z'
loop_
 _atom_site_type_symbol
 _atom_site_label
 _atom_site_symmetry_multiplicity
 _atom_site_fract_x
 _atom_site_fract_y
 _atom_site_fract_z
 _atom_site_occupancy
  Li  Li0  1  0.832381  0.167619  0.723825  1
  Li  Li1  1  0.832381  0.664762  0.723825  1
  Li  Li2  1  0.335238  0.167619  0.723825  1
  Li  Li3  1  0.167622  0.832378  0.230180  1
  Li  Li4  1  0.167622  0.335243  0.230180  1
  Li  Li5  1  0.664757  0.832378  0.230180  1
  Li  Li6  1  0.666667  0.333333  0.311847  1
  Li  Li7  1  0.333333  0.666667  0.808919  1
  Ac  Ac8  1  0.000000  0.000000  0.000226  1
  Th  Th9  1  0.491838  0.508162  0.504122  1
  Th  Th10  1  0.491838  0.983676  0.504122  1
  Th  Th11  1  0.016324  0.508162  0.504122  1
  Th  Th12  1  0.508088  0.491912  0.004780  1
  Th  Th13  1  0.508088  0.016177  0.004780  1
  Th  Th14  1  0.983823  0.491912  0.004780  1
  Th  Th15  1  0.000000  0.000000  0.500062  1
  Sn  Sn16  1  0.830868  0.169132  0.268688  1
  Sn  Sn17  1  0.830868  0.661736  0.268688  1
  Sn  Sn18  1  0.338264  0.169132  0.268688  1
  Sn  Sn19  1  0.169565  0.830435  0.755698  1
  Sn  Sn20  1  0.169565  0.339129  0.755698  1
  Sn  Sn21  1  0.660871  0.830435  0.755698  1
  Sn  Sn22  1  0.666667  0.333333  0.739549  1
  Sn  Sn23  1  0.333333  0.666667  0.235519  1
