# generated using pymatgen
data_Zr5Co16Mo2P12W
_symmetry_space_group_name_H-M   'P 1'
_cell_length_a   11.89900917
_cell_length_b   11.89900997
_cell_length_c   3.66499200
_cell_angle_alpha   90.00000000
_cell_angle_beta   90.00000000
_cell_angle_gamma   119.98040963
_symmetry_Int_Tables_number   1
_chemical_formula_structural   Zr5Co16Mo2P12W
_chemical_formula_sum   'Zr5 Co16 Mo2 P12 W1'
_cell_volume   449.48063826
_cell_formula_units_Z   1
loop_
 _symmetry_equiv_pos_site_id
 _symmetry_equiv_pos_as_xyz
  1  'x, y, z'
loop_
 _atom_site_type_symbol
 _atom_site_label
 _atom_site_symmetry_multiplicity
 _atom_site_fract_x
 _atom_site_fract_y
 _atom_site_fract_z
 _atom_site_occupancy
  Zr  Zr0  1  0.666845  0.333440  0.000000  1
  Zr  Zr1  1  0.333440  0.666845  0.000000  1
  Zr  Zr2  1  0.820282  0.820282  0.500000  1
  Zr  Zr3  1  0.179954  0.000089  0.500000  1
  Zr  Zr4  1  0.000089  0.179954  0.500000  1
  Co  Co5  1  0.195126  0.374295  0.000000  1
  Co  Co6  1  0.179452  0.805073  0.000000  1
  Co  Co7  1  0.820661  0.625662  0.000000  1
  Co  Co8  1  0.805073  0.179452  0.000000  1
  Co  Co9  1  0.374295  0.195126  0.000000  1
  Co  Co10  1  0.128550  0.483971  0.500000  1
  Co  Co11  1  0.355520  0.871609  0.500000  1
  Co  Co12  1  0.515410  0.643654  0.500000  1
  Co  Co13  1  0.643654  0.515410  0.500000  1
  Co  Co14  1  0.871609  0.355520  0.500000  1
  Co  Co15  1  0.483971  0.128550  0.500000  1
  Co  Co16  1  0.999791  0.999791  0.000000  1
  Co  Co17  1  0.720175  0.000034  0.500000  1
  Co  Co18  1  0.000034  0.720175  0.500000  1
  Co  Co19  1  0.625662  0.820661  0.000000  1
  Co  Co20  1  0.280132  0.280132  0.500000  1
  Mo  Mo21  1  0.552031  0.000074  0.000000  1
  Mo  Mo22  1  0.000074  0.552031  0.000000  1
  P  P23  1  0.644089  0.644089  0.000000  1
  P  P24  1  0.356658  0.999853  0.000000  1
  P  P25  1  0.999853  0.356658  0.000000  1
  P  P26  1  0.480789  0.313121  0.500000  1
  P  P27  1  0.686678  0.167336  0.500000  1
  P  P28  1  0.832746  0.519355  0.500000  1
  P  P29  1  0.519355  0.832746  0.500000  1
  P  P30  1  0.167336  0.686678  0.500000  1
  P  P31  1  0.823532  0.000042  0.000000  1
  P  P32  1  0.000042  0.823532  0.000000  1
  P  P33  1  0.313121  0.480789  0.500000  1
  P  P34  1  0.175988  0.175988  0.000000  1
  W  W35  1  0.447985  0.447985  0.000000  1
