# generated using pymatgen
data_Ho20Cd3Co2Au3
_symmetry_space_group_name_H-M   'P 1'
_cell_length_a   9.51491600
_cell_length_b   9.51490514
_cell_length_c   9.51041800
_cell_angle_alpha   90.00000000
_cell_angle_beta   90.00000000
_cell_angle_gamma   120.00020551
_symmetry_Int_Tables_number   1
_chemical_formula_structural   Ho20Cd3Co2Au3
_chemical_formula_sum   'Ho20 Cd3 Co2 Au3'
_cell_volume   745.65641637
_cell_formula_units_Z   1
loop_
 _symmetry_equiv_pos_site_id
 _symmetry_equiv_pos_as_xyz
  1  'x, y, z'
loop_
 _atom_site_type_symbol
 _atom_site_label
 _atom_site_symmetry_multiplicity
 _atom_site_fract_x
 _atom_site_fract_y
 _atom_site_fract_z
 _atom_site_occupancy
  Ho  Ho0  1  0.000016  0.999987  0.460149  1
  Ho  Ho1  1  0.000016  0.999987  0.039851  1
  Ho  Ho2  1  0.540720  0.459216  0.250000  1
  Ho  Ho3  1  0.540778  0.081504  0.250000  1
  Ho  Ho4  1  0.918483  0.459279  0.250000  1
  Ho  Ho5  1  0.457472  0.542505  0.750000  1
  Ho  Ho6  1  0.457520  0.915001  0.750000  1
  Ho  Ho7  1  0.085001  0.542507  0.750000  1
  Ho  Ho8  1  0.211543  0.788491  0.436170  1
  Ho  Ho9  1  0.211492  0.423033  0.436159  1
  Ho  Ho10  1  0.576968  0.788462  0.436158  1
  Ho  Ho11  1  0.789558  0.210450  0.561962  1
  Ho  Ho12  1  0.789542  0.579109  0.561970  1
  Ho  Ho13  1  0.420899  0.210459  0.561966  1
  Ho  Ho14  1  0.789558  0.210450  0.938038  1
  Ho  Ho15  1  0.789542  0.579109  0.938030  1
  Ho  Ho16  1  0.420899  0.210459  0.938034  1
  Ho  Ho17  1  0.211543  0.788491  0.063830  1
  Ho  Ho18  1  0.211492  0.423033  0.063841  1
  Ho  Ho19  1  0.576968  0.788462  0.063842  1
  Cd  Cd20  1  0.109761  0.890258  0.750000  1
  Cd  Cd21  1  0.109746  0.219486  0.750000  1
  Cd  Cd22  1  0.780520  0.890244  0.750000  1
  Co  Co23  1  0.333313  0.666674  0.250000  1
  Co  Co24  1  0.666669  0.333325  0.750000  1
  Au  Au25  1  0.869980  0.130048  0.250000  1
  Au  Au26  1  0.869909  0.739916  0.250000  1
  Au  Au27  1  0.260094  0.130056  0.250000  1
