# generated using pymatgen
data_Ho7Tm(AlRu)8
_symmetry_space_group_name_H-M   'P 1'
_cell_length_a   4.06780100
_cell_length_b   6.96912056
_cell_length_c   15.90516810
_cell_angle_alpha   90.18617656
_cell_angle_beta   90.00000000
_cell_angle_gamma   90.00000000
_symmetry_Int_Tables_number   1
_chemical_formula_structural   Ho7Tm(AlRu)8
_chemical_formula_sum   'Ho7 Tm1 Al8 Ru8'
_cell_volume   450.89316002
_cell_formula_units_Z   1
loop_
 _symmetry_equiv_pos_site_id
 _symmetry_equiv_pos_as_xyz
  1  'x, y, z'
loop_
 _atom_site_type_symbol
 _atom_site_label
 _atom_site_symmetry_multiplicity
 _atom_site_fract_x
 _atom_site_fract_y
 _atom_site_fract_z
 _atom_site_occupancy
  Ho  Ho0  1  0.750000  0.963898  0.219481  1
  Ho  Ho1  1  0.250000  0.161147  0.563046  1
  Ho  Ho2  1  0.750000  0.842327  0.436998  1
  Ho  Ho3  1  0.750000  0.463967  0.280913  1
  Ho  Ho4  1  0.750000  0.339897  0.063199  1
  Ho  Ho5  1  0.250000  0.657068  0.936500  1
  Ho  Ho6  1  0.250000  0.036493  0.780334  1
  Tm  Tm7  1  0.250000  0.537343  0.718464  1
  Al  Al8  1  0.750000  0.503805  0.565729  1
  Al  Al9  1  0.750000  0.363967  0.849116  1
  Al  Al10  1  0.750000  0.996972  0.933920  1
  Al  Al11  1  0.750000  0.868850  0.651227  1
  Al  Al12  1  0.250000  0.500995  0.434352  1
  Al  Al13  1  0.250000  0.997053  0.065938  1
  Al  Al14  1  0.250000  0.633211  0.151197  1
  Al  Al15  1  0.250000  0.134806  0.348873  1
  Ru  Ru16  1  0.750000  0.741187  0.811266  1
  Ru  Ru17  1  0.250000  0.232197  0.937293  1
  Ru  Ru18  1  0.750000  0.265265  0.436704  1
  Ru  Ru19  1  0.250000  0.753491  0.312132  1
  Ru  Ru20  1  0.750000  0.762757  0.063708  1
  Ru  Ru21  1  0.750000  0.252347  0.687989  1
  Ru  Ru22  1  0.250000  0.252973  0.187582  1
  Ru  Ru23  1  0.250000  0.737985  0.564041  1
