# generated using pymatgen
data_Ho20IrRu10Pt
_symmetry_space_group_name_H-M   'P 1'
_cell_length_a   10.78099188
_cell_length_b   10.78099178
_cell_length_c   6.36738429
_cell_angle_alpha   89.99275703
_cell_angle_beta   89.99275851
_cell_angle_gamma   89.72660895
_symmetry_Int_Tables_number   1
_chemical_formula_structural   Ho20IrRu10Pt
_chemical_formula_sum   'Ho20 Ir1 Ru10 Pt1'
_cell_volume   740.07126906
_cell_formula_units_Z   1
loop_
 _symmetry_equiv_pos_site_id
 _symmetry_equiv_pos_as_xyz
  1  'x, y, z'
loop_
 _atom_site_type_symbol
 _atom_site_label
 _atom_site_symmetry_multiplicity
 _atom_site_fract_x
 _atom_site_fract_y
 _atom_site_fract_z
 _atom_site_occupancy
  Ho  Ho0  1  0.290460  0.086087  0.376293  1
  Ho  Ho1  1  0.293344  0.914425  0.875446  1
  Ho  Ho2  1  0.705294  0.084330  0.871967  1
  Ho  Ho3  1  0.705810  0.910172  0.377537  1
  Ho  Ho4  1  0.586308  0.791785  0.877434  1
  Ho  Ho5  1  0.581681  0.207592  0.375194  1
  Ho  Ho6  1  0.413420  0.792121  0.376420  1
  Ho  Ho7  1  0.413356  0.208312  0.876743  1
  Ho  Ho8  1  0.208215  0.413692  0.622566  1
  Ho  Ho9  1  0.207879  0.586580  0.123580  1
  Ho  Ho10  1  0.792408  0.418319  0.124806  1
  Ho  Ho11  1  0.791688  0.586644  0.623257  1
  Ho  Ho12  1  0.913913  0.709540  0.123707  1
  Ho  Ho13  1  0.915670  0.294706  0.628033  1
  Ho  Ho14  1  0.085575  0.706656  0.624554  1
  Ho  Ho15  1  0.089828  0.294190  0.122463  1
  Ho  Ho16  1  0.001509  0.996769  0.502008  1
  Ho  Ho17  1  0.003231  0.998491  0.997992  1
  Ho  Ho18  1  0.501253  0.499169  0.000424  1
  Ho  Ho19  1  0.500831  0.498747  0.499576  1
  Ir  Ir20  1  0.346742  0.653258  0.750000  1
  Ru  Ru21  1  0.847128  0.849266  0.750565  1
  Ru  Ru22  1  0.150734  0.152872  0.749435  1
  Ru  Ru23  1  0.153859  0.846141  0.250000  1
  Ru  Ru24  1  0.655070  0.344930  0.750000  1
  Ru  Ru25  1  0.651946  0.652830  0.250430  1
  Ru  Ru26  1  0.347170  0.348054  0.249570  1
  Ru  Ru27  1  0.499799  0.999759  0.124757  1
  Ru  Ru28  1  0.500400  0.999933  0.623698  1
  Ru  Ru29  1  0.000067  0.499600  0.876302  1
  Ru  Ru30  1  0.000241  0.500201  0.375243  1
  Pt  Pt31  1  0.845172  0.154828  0.250000  1
