# generated using pymatgen
data_Dy7Y(LuBi)12
_symmetry_space_group_name_H-M   'P 1'
_cell_length_a   8.16702906
_cell_length_b   9.38760600
_cell_length_c   11.96311309
_cell_angle_alpha   90.00000000
_cell_angle_beta   89.98561548
_cell_angle_gamma   90.00000000
_symmetry_Int_Tables_number   1
_chemical_formula_structural   Dy7Y(LuBi)12
_chemical_formula_sum   'Dy7 Y1 Lu12 Bi12'
_cell_volume   917.19810697
_cell_formula_units_Z   1
loop_
 _symmetry_equiv_pos_site_id
 _symmetry_equiv_pos_as_xyz
  1  'x, y, z'
loop_
 _atom_site_type_symbol
 _atom_site_label
 _atom_site_symmetry_multiplicity
 _atom_site_fract_x
 _atom_site_fract_y
 _atom_site_fract_z
 _atom_site_occupancy
  Dy  Dy0  1  0.186291  0.750000  0.718702  1
  Dy  Dy1  1  0.686255  0.750000  0.781305  1
  Dy  Dy2  1  0.813750  0.250000  0.281270  1
  Dy  Dy3  1  0.313716  0.250000  0.218698  1
  Dy  Dy4  1  0.353236  0.750000  0.216574  1
  Dy  Dy5  1  0.853232  0.750000  0.283391  1
  Dy  Dy6  1  0.646798  0.250000  0.783433  1
  Y  Y7  1  0.146785  0.250000  0.716504  1
  Lu  Lu8  1  0.023764  0.750000  0.989586  1
  Lu  Lu9  1  0.523782  0.750000  0.510436  1
  Lu  Lu10  1  0.976168  0.250000  0.010489  1
  Lu  Lu11  1  0.476190  0.250000  0.489541  1
  Lu  Lu12  1  0.307271  0.433667  0.940967  1
  Lu  Lu13  1  0.807121  0.066361  0.559106  1
  Lu  Lu14  1  0.692813  0.933594  0.059133  1
  Lu  Lu15  1  0.192791  0.566426  0.440843  1
  Lu  Lu16  1  0.692813  0.566406  0.059133  1
  Lu  Lu17  1  0.192791  0.933574  0.440843  1
  Lu  Lu18  1  0.307271  0.066333  0.940967  1
  Lu  Lu19  1  0.807121  0.433639  0.559106  1
  Bi  Bi20  1  0.433902  0.003817  0.671715  1
  Bi  Bi21  1  0.933752  0.496184  0.828316  1
  Bi  Bi22  1  0.566186  0.503882  0.328263  1
  Bi  Bi23  1  0.066169  0.996131  0.171722  1
  Bi  Bi24  1  0.566186  0.996118  0.328263  1
  Bi  Bi25  1  0.066169  0.503869  0.171722  1
  Bi  Bi26  1  0.433902  0.496183  0.671715  1
  Bi  Bi27  1  0.933752  0.003816  0.828316  1
  Bi  Bi28  1  0.404714  0.750000  0.957425  1
  Bi  Bi29  1  0.904697  0.750000  0.542566  1
  Bi  Bi30  1  0.595341  0.250000  0.042569  1
  Bi  Bi31  1  0.095274  0.250000  0.457381  1
