# generated using pymatgen
data_Mn3Nb8Fe4Si14Ni
_symmetry_space_group_name_H-M   'P 1'
_cell_length_a   9.32112708
_cell_length_b   9.32142435
_cell_length_c   9.34016559
_cell_angle_alpha   94.16318904
_cell_angle_beta   94.16847214
_cell_angle_gamma   148.91734030
_symmetry_Int_Tables_number   1
_chemical_formula_structural   Mn3Nb8Fe4Si14Ni
_chemical_formula_sum   'Mn3 Nb8 Fe4 Si14 Ni1'
_cell_volume   403.27968390
_cell_formula_units_Z   1
loop_
 _symmetry_equiv_pos_site_id
 _symmetry_equiv_pos_as_xyz
  1  'x, y, z'
loop_
 _atom_site_type_symbol
 _atom_site_label
 _atom_site_symmetry_multiplicity
 _atom_site_fract_x
 _atom_site_fract_y
 _atom_site_fract_z
 _atom_site_occupancy
  Mn  Mn0  1  0.394675  0.894629  0.792587  1
  Mn  Mn1  1  0.105500  0.605443  0.207512  1
  Mn  Mn2  1  0.103848  0.896184  0.500067  1
  Nb  Nb3  1  0.133401  0.133308  0.267947  1
  Nb  Nb4  1  0.866710  0.866671  0.732012  1
  Nb  Nb5  1  0.864581  0.135361  0.999920  1
  Nb  Nb6  1  0.134453  0.865592  0.000048  1
  Nb  Nb7  1  0.500712  0.691918  0.191320  1
  Nb  Nb8  1  0.495846  0.305925  0.809429  1
  Nb  Nb9  1  0.308058  0.499303  0.808628  1
  Nb  Nb10  1  0.694013  0.504125  0.190578  1
  Fe  Fe11  1  0.598721  0.401443  0.500003  1
  Fe  Fe12  1  0.900871  0.098834  0.499994  1
  Fe  Fe13  1  0.898011  0.398241  0.801926  1
  Fe  Fe14  1  0.601855  0.102118  0.198072  1
  Si  Si15  1  0.288171  0.288868  0.584970  1
  Si  Si16  1  0.711133  0.711840  0.415002  1
  Si  Si17  1  0.707133  0.293119  0.000003  1
  Si  Si18  1  0.292416  0.707432  0.000004  1
  Si  Si19  1  0.992933  0.285651  0.295667  1
  Si  Si20  1  0.986773  0.694976  0.708447  1
  Si  Si21  1  0.714150  0.006940  0.704190  1
  Si  Si22  1  0.305009  0.013212  0.291687  1
  Si  Si23  1  0.526518  0.931102  0.405303  1
  Si  Si24  1  0.520746  0.112322  0.591404  1
  Si  Si25  1  0.069017  0.473638  0.594726  1
  Si  Si26  1  0.887876  0.479433  0.408660  1
  Si  Si27  1  0.750346  0.751445  0.999773  1
  Si  Si28  1  0.248529  0.249624  0.000174  1
  Ni  Ni29  1  0.397996  0.601302  0.499947  1
