# generated using pymatgen
data_La6AlGe3Ir4
_symmetry_space_group_name_H-M   'P 1'
_cell_length_a   5.84188600
_cell_length_b   8.28635000
_cell_length_c   13.63333400
_cell_angle_alpha   90.00000000
_cell_angle_beta   90.00000000
_cell_angle_gamma   90.00000000
_symmetry_Int_Tables_number   1
_chemical_formula_structural   La6AlGe3Ir4
_chemical_formula_sum   'La12 Al2 Ge6 Ir8'
_cell_volume   659.96123330
_cell_formula_units_Z   2
loop_
 _symmetry_equiv_pos_site_id
 _symmetry_equiv_pos_as_xyz
  1  'x, y, z'
loop_
 _atom_site_type_symbol
 _atom_site_label
 _atom_site_symmetry_multiplicity
 _atom_site_fract_x
 _atom_site_fract_y
 _atom_site_fract_z
 _atom_site_occupancy
  La  La0  1  0.149729  0.893352  0.598434  1
  La  La1  1  0.850271  0.106648  0.098434  1
  La  La2  1  0.149729  0.606648  0.401566  1
  La  La3  1  0.850271  0.393352  0.901566  1
  La  La4  1  0.848780  0.103162  0.400498  1
  La  La5  1  0.151220  0.896838  0.900498  1
  La  La6  1  0.848780  0.396838  0.599502  1
  La  La7  1  0.151220  0.603162  0.099502  1
  La  La8  1  0.364673  0.251463  0.749457  1
  La  La9  1  0.635327  0.748537  0.249457  1
  La  La10  1  0.364673  0.248537  0.250543  1
  La  La11  1  0.635327  0.751463  0.750543  1
  Al  Al12  1  0.380041  0.250000  0.500000  1
  Al  Al13  1  0.619959  0.750000  0.000000  1
  Ge  Ge14  1  0.855811  0.102638  0.749546  1
  Ge  Ge15  1  0.144189  0.897362  0.249546  1
  Ge  Ge16  1  0.855811  0.397362  0.250454  1
  Ge  Ge17  1  0.144189  0.602638  0.750454  1
  Ge  Ge18  1  0.631556  0.750000  0.500000  1
  Ge  Ge19  1  0.368444  0.250000  0.000000  1
  Ir  Ir20  1  0.625918  0.034363  0.592105  1
  Ir  Ir21  1  0.374082  0.965637  0.092105  1
  Ir  Ir22  1  0.625918  0.465637  0.407895  1
  Ir  Ir23  1  0.374082  0.534363  0.907895  1
  Ir  Ir24  1  0.368992  0.968503  0.410229  1
  Ir  Ir25  1  0.631008  0.031497  0.910229  1
  Ir  Ir26  1  0.368992  0.531497  0.589771  1
  Ir  Ir27  1  0.631008  0.468503  0.089771  1
