# generated using pymatgen
data_SmScCrB6
_symmetry_space_group_name_H-M   'P 1'
_cell_length_a   3.51049600
_cell_length_b   9.06120500
_cell_length_c   11.46575500
_cell_angle_alpha   90.00000000
_cell_angle_beta   90.00000000
_cell_angle_gamma   90.00000000
_symmetry_Int_Tables_number   1
_chemical_formula_structural   SmScCrB6
_chemical_formula_sum   'Sm4 Sc4 Cr4 B24'
_cell_volume   364.71791464
_cell_formula_units_Z   4
loop_
 _symmetry_equiv_pos_site_id
 _symmetry_equiv_pos_as_xyz
  1  'x, y, z'
loop_
 _atom_site_type_symbol
 _atom_site_label
 _atom_site_symmetry_multiplicity
 _atom_site_fract_x
 _atom_site_fract_y
 _atom_site_fract_z
 _atom_site_occupancy
  Sm  Sm0  1  0.000000  0.822711  0.085136  1
  Sm  Sm1  1  0.000000  0.177289  0.914864  1
  Sm  Sm2  1  0.000000  0.322711  0.414864  1
  Sm  Sm3  1  0.000000  0.677289  0.585136  1
  Sc  Sc4  1  0.000000  0.443251  0.131194  1
  Sc  Sc5  1  0.000000  0.556749  0.868806  1
  Sc  Sc6  1  0.000000  0.943251  0.368806  1
  Sc  Sc7  1  0.000000  0.056749  0.631194  1
  Cr  Cr8  1  0.000000  0.142024  0.182683  1
  Cr  Cr9  1  0.000000  0.857976  0.817317  1
  Cr  Cr10  1  0.000000  0.642024  0.317317  1
  Cr  Cr11  1  0.000000  0.357976  0.682683  1
  B  B12  1  0.500000  0.055749  0.069316  1
  B  B13  1  0.500000  0.944251  0.930684  1
  B  B14  1  0.500000  0.555749  0.430684  1
  B  B15  1  0.500000  0.444251  0.569316  1
  B  B16  1  0.500000  0.253683  0.083990  1
  B  B17  1  0.500000  0.746317  0.916010  1
  B  B18  1  0.500000  0.753683  0.416010  1
  B  B19  1  0.500000  0.246317  0.583990  1
  B  B20  1  0.500000  0.294597  0.234789  1
  B  B21  1  0.500000  0.705403  0.765211  1
  B  B22  1  0.500000  0.794597  0.265211  1
  B  B23  1  0.500000  0.205403  0.734789  1
  B  B24  1  0.500000  0.128868  0.316022  1
  B  B25  1  0.500000  0.871132  0.683978  1
  B  B26  1  0.500000  0.628868  0.183978  1
  B  B27  1  0.500000  0.371132  0.816022  1
  B  B28  1  0.500000  0.483298  0.285636  1
  B  B29  1  0.500000  0.516702  0.714364  1
  B  B30  1  0.500000  0.983298  0.214364  1
  B  B31  1  0.500000  0.016702  0.785636  1
  B  B32  1  0.500000  0.094461  0.474428  1
  B  B33  1  0.500000  0.905539  0.525572  1
  B  B34  1  0.500000  0.594461  0.025572  1
  B  B35  1  0.500000  0.405539  0.974428  1
