# generated using pymatgen
data_Na3Li2SnP3
_symmetry_space_group_name_H-M   'P 1'
_cell_length_a   9.56982985
_cell_length_b   9.56982969
_cell_length_c   13.91773600
_cell_angle_alpha   90.00000000
_cell_angle_beta   90.00000000
_cell_angle_gamma   143.81243405
_symmetry_Int_Tables_number   1
_chemical_formula_structural   Na3Li2SnP3
_chemical_formula_sum   'Na12 Li8 Sn4 P12'
_cell_volume   752.56813523
_cell_formula_units_Z   4
loop_
 _symmetry_equiv_pos_site_id
 _symmetry_equiv_pos_as_xyz
  1  'x, y, z'
loop_
 _atom_site_type_symbol
 _atom_site_label
 _atom_site_symmetry_multiplicity
 _atom_site_fract_x
 _atom_site_fract_y
 _atom_site_fract_z
 _atom_site_occupancy
  Na  Na0  1  0.101341  0.440074  0.679121  1
  Na  Na1  1  0.736413  0.736413  0.681215  1
  Na  Na2  1  0.236413  0.236413  0.818785  1
  Na  Na3  1  0.763587  0.763587  0.181215  1
  Na  Na4  1  0.940074  0.601341  0.820879  1
  Na  Na5  1  0.559926  0.898659  0.320879  1
  Na  Na6  1  0.398659  0.059926  0.179121  1
  Na  Na7  1  0.059926  0.398659  0.179121  1
  Na  Na8  1  0.898659  0.559926  0.320879  1
  Na  Na9  1  0.440074  0.101341  0.679121  1
  Na  Na10  1  0.601341  0.940075  0.820879  1
  Na  Na11  1  0.263587  0.263587  0.318785  1
  Li  Li12  1  0.917546  0.082454  0.000000  1
  Li  Li13  1  0.582454  0.417546  0.500000  1
  Li  Li14  1  0.082454  0.917546  0.000000  1
  Li  Li15  1  0.417546  0.582454  0.500000  1
  Li  Li16  1  0.755732  0.244268  0.000000  1
  Li  Li17  1  0.744268  0.255732  0.500000  1
  Li  Li18  1  0.244268  0.755732  0.000000  1
  Li  Li19  1  0.255732  0.744268  0.500000  1
  Sn  Sn20  1  0.092221  0.907779  0.500000  1
  Sn  Sn21  1  0.407779  0.592221  0.000000  1
  Sn  Sn22  1  0.907779  0.092221  0.500000  1
  Sn  Sn23  1  0.592221  0.407779  0.000000  1
  P  P24  1  0.911891  0.580348  0.110812  1
  P  P25  1  0.419652  0.088109  0.889188  1
  P  P26  1  0.588109  0.919652  0.610812  1
  P  P27  1  0.919652  0.588109  0.610812  1
  P  P28  1  0.088109  0.419652  0.889188  1
  P  P29  1  0.580348  0.911891  0.110812  1
  P  P30  1  0.411891  0.080348  0.389188  1
  P  P31  1  0.235433  0.235433  0.603237  1
  P  P32  1  0.735433  0.735433  0.896763  1
  P  P33  1  0.264567  0.264567  0.103237  1
  P  P34  1  0.080348  0.411891  0.389188  1
  P  P35  1  0.764567  0.764567  0.396763  1
