# generated using pymatgen
data_CdFe(PO3)4
_symmetry_space_group_name_H-M   'P 1'
_cell_length_a   7.56316666
_cell_length_b   7.56316703
_cell_length_c   10.13245015
_cell_angle_alpha   67.10156134
_cell_angle_beta   67.10156281
_cell_angle_gamma   70.29330218
_symmetry_Int_Tables_number   1
_chemical_formula_structural   CdFe(PO3)4
_chemical_formula_sum   'Cd2 Fe2 P8 O24'
_cell_volume   479.90756721
_cell_formula_units_Z   2
loop_
 _symmetry_equiv_pos_site_id
 _symmetry_equiv_pos_as_xyz
  1  'x, y, z'
loop_
 _atom_site_type_symbol
 _atom_site_label
 _atom_site_symmetry_multiplicity
 _atom_site_fract_x
 _atom_site_fract_y
 _atom_site_fract_z
 _atom_site_occupancy
  Cd  Cd0  1  0.955282  0.044718  0.250000  1
  Cd  Cd1  1  0.044718  0.955282  0.750000  1
  Fe  Fe2  1  0.000000  0.500000  0.000000  1
  Fe  Fe3  1  0.500000  0.000000  0.500000  1
  P  P4  1  0.279554  0.733191  0.025709  1
  P  P5  1  0.266809  0.720446  0.474291  1
  P  P6  1  0.720446  0.266809  0.974291  1
  P  P7  1  0.733191  0.279554  0.525709  1
  P  P8  1  0.311884  0.310035  0.196247  1
  P  P9  1  0.689965  0.688116  0.303753  1
  P  P10  1  0.688116  0.689965  0.803753  1
  P  P11  1  0.310035  0.311884  0.696247  1
  O  O12  1  0.184480  0.910473  0.077576  1
  O  O13  1  0.089527  0.815520  0.422424  1
  O  O14  1  0.815520  0.089527  0.922424  1
  O  O15  1  0.910473  0.184480  0.577576  1
  O  O16  1  0.196112  0.698049  0.925704  1
  O  O17  1  0.301951  0.803888  0.574296  1
  O  O18  1  0.803888  0.301951  0.074296  1
  O  O19  1  0.698049  0.196112  0.425704  1
  O  O20  1  0.491648  0.262128  0.054995  1
  O  O21  1  0.737872  0.508352  0.445005  1
  O  O22  1  0.508352  0.737872  0.945005  1
  O  O23  1  0.262128  0.491648  0.554995  1
  O  O24  1  0.290538  0.540264  0.169825  1
  O  O25  1  0.459736  0.709462  0.330175  1
  O  O26  1  0.709462  0.459736  0.830175  1
  O  O27  1  0.540264  0.290538  0.669825  1
  O  O28  1  0.356836  0.196050  0.340529  1
  O  O29  1  0.803950  0.643164  0.159471  1
  O  O30  1  0.643164  0.803950  0.659471  1
  O  O31  1  0.196050  0.356836  0.840529  1
  O  O32  1  0.132335  0.289793  0.175076  1
  O  O33  1  0.710207  0.867665  0.324924  1
  O  O34  1  0.867665  0.710207  0.824924  1
  O  O35  1  0.289793  0.132335  0.675076  1
