# generated using pymatgen
data_SmGd(ReO4)6
_symmetry_space_group_name_H-M   'P 1'
_cell_length_a   10.28192000
_cell_length_b   10.28193728
_cell_length_c   6.30072500
_cell_angle_alpha   90.00000000
_cell_angle_beta   90.00000000
_cell_angle_gamma   120.00053363
_symmetry_Int_Tables_number   1
_chemical_formula_structural   SmGd(ReO4)6
_chemical_formula_sum   'Sm1 Gd1 Re6 O24'
_cell_volume   576.85676737
_cell_formula_units_Z   1
loop_
 _symmetry_equiv_pos_site_id
 _symmetry_equiv_pos_as_xyz
  1  'x, y, z'
loop_
 _atom_site_type_symbol
 _atom_site_label
 _atom_site_symmetry_multiplicity
 _atom_site_fract_x
 _atom_site_fract_y
 _atom_site_fract_z
 _atom_site_occupancy
  Sm  Sm0  1  0.333336  0.666667  0.250000  1
  Gd  Gd1  1  0.666662  0.333332  0.750000  1
  Re  Re2  1  0.089025  0.394111  0.750000  1
  Re  Re3  1  0.395151  0.304878  0.250000  1
  Re  Re4  1  0.605887  0.694908  0.750000  1
  Re  Re5  1  0.909726  0.604848  0.250000  1
  Re  Re6  1  0.305090  0.910977  0.750000  1
  Re  Re7  1  0.695121  0.090275  0.250000  1
  O  O8  1  0.490600  0.648262  0.523449  1
  O  O9  1  0.351735  0.842335  0.523447  1
  O  O10  1  0.847345  0.732653  0.250000  1
  O  O11  1  0.114767  0.847906  0.750000  1
  O  O12  1  0.267344  0.114686  0.250000  1
  O  O13  1  0.152099  0.266862  0.750000  1
  O  O14  1  0.510219  0.351402  0.022904  1
  O  O15  1  0.885311  0.152657  0.250000  1
  O  O16  1  0.106942  0.699757  0.250000  1
  O  O17  1  0.157665  0.509398  0.976552  1
  O  O18  1  0.157665  0.509398  0.523448  1
  O  O19  1  0.891852  0.299930  0.750000  1
  O  O20  1  0.300243  0.407186  0.250000  1
  O  O21  1  0.700072  0.591922  0.750000  1
  O  O22  1  0.841181  0.489783  0.477094  1
  O  O23  1  0.408075  0.108150  0.750000  1
  O  O24  1  0.648598  0.158820  0.022900  1
  O  O25  1  0.490600  0.648262  0.976551  1
  O  O26  1  0.351735  0.842335  0.976553  1
  O  O27  1  0.648598  0.158820  0.477100  1
  O  O28  1  0.510219  0.351402  0.477096  1
  O  O29  1  0.841181  0.489783  0.022906  1
  O  O30  1  0.733143  0.885233  0.750000  1
  O  O31  1  0.592814  0.893061  0.250000  1
