# generated using pymatgen
data_ErThSc3Si7Pt9
_symmetry_space_group_name_H-M   'P 1'
_cell_length_a   10.07460800
_cell_length_b   10.07460847
_cell_length_c   4.01626100
_cell_angle_alpha   90.00000000
_cell_angle_beta   90.00000000
_cell_angle_gamma   119.99999847
_symmetry_Int_Tables_number   1
_chemical_formula_structural   ErThSc3Si7Pt9
_chemical_formula_sum   'Er1 Th1 Sc3 Si7 Pt9'
_cell_volume   353.02779515
_cell_formula_units_Z   1
loop_
 _symmetry_equiv_pos_site_id
 _symmetry_equiv_pos_as_xyz
  1  'x, y, z'
loop_
 _atom_site_type_symbol
 _atom_site_label
 _atom_site_symmetry_multiplicity
 _atom_site_fract_x
 _atom_site_fract_y
 _atom_site_fract_z
 _atom_site_occupancy
  Er  Er0  1  0.000000  0.000000  0.000000  1
  Th  Th1  1  0.333333  0.666667  0.500000  1
  Sc  Sc2  1  0.891187  0.454133  0.500000  1
  Sc  Sc3  1  0.562947  0.108813  0.500000  1
  Sc  Sc4  1  0.545867  0.437053  0.500000  1
  Si  Si5  1  0.242833  0.192112  0.500000  1
  Si  Si6  1  0.807888  0.050722  0.500000  1
  Si  Si7  1  0.949278  0.757167  0.500000  1
  Si  Si8  1  0.563606  0.646277  0.000000  1
  Si  Si9  1  0.353723  0.917327  0.000000  1
  Si  Si10  1  0.082673  0.436394  0.000000  1
  Si  Si11  1  0.666667  0.333333  0.000000  1
  Pt  Pt12  1  0.217513  0.935537  0.500000  1
  Pt  Pt13  1  0.064463  0.281978  0.500000  1
  Pt  Pt14  1  0.718022  0.782487  0.500000  1
  Pt  Pt15  1  0.314517  0.415322  0.000000  1
  Pt  Pt16  1  0.584678  0.899196  0.000000  1
  Pt  Pt17  1  0.100804  0.685483  0.000000  1
  Pt  Pt18  1  0.382070  0.174048  0.000000  1
  Pt  Pt19  1  0.825952  0.208022  0.000000  1
  Pt  Pt20  1  0.791978  0.617930  0.000000  1
