# generated using pymatgen
data_KAg3(BiO3)4
_symmetry_space_group_name_H-M   'P 1'
_cell_length_a   7.29047956
_cell_length_b   7.29047990
_cell_length_c   7.29048000
_cell_angle_alpha   109.47122092
_cell_angle_beta   109.47122184
_cell_angle_gamma   109.47121850
_symmetry_Int_Tables_number   1
_chemical_formula_structural   KAg3(BiO3)4
_chemical_formula_sum   'K1 Ag3 Bi4 O12'
_cell_volume   298.29532657
_cell_formula_units_Z   1
loop_
 _symmetry_equiv_pos_site_id
 _symmetry_equiv_pos_as_xyz
  1  'x, y, z'
loop_
 _atom_site_type_symbol
 _atom_site_label
 _atom_site_symmetry_multiplicity
 _atom_site_fract_x
 _atom_site_fract_y
 _atom_site_fract_z
 _atom_site_occupancy
  K  K0  1  0.000000  0.000000  0.000000  1
  Ag  Ag1  1  0.500000  0.500000  0.000000  1
  Ag  Ag2  1  0.500000  0.000000  0.500000  1
  Ag  Ag3  1  0.000000  0.500000  0.500000  1
  Bi  Bi4  1  0.500000  0.500000  0.500000  1
  Bi  Bi5  1  0.000000  0.500000  0.000000  1
  Bi  Bi6  1  0.000000  0.000000  0.500000  1
  Bi  Bi7  1  0.500000  0.000000  0.000000  1
  O  O8  1  0.317004  0.830237  0.147241  1
  O  O9  1  0.682996  0.169763  0.852759  1
  O  O10  1  0.682996  0.830237  0.513233  1
  O  O11  1  0.852759  0.682996  0.169763  1
  O  O12  1  0.830237  0.147241  0.317004  1
  O  O13  1  0.169763  0.486767  0.317004  1
  O  O14  1  0.486767  0.317004  0.169763  1
  O  O15  1  0.169763  0.852759  0.682996  1
  O  O16  1  0.317004  0.169763  0.486767  1
  O  O17  1  0.147241  0.317004  0.830237  1
  O  O18  1  0.830237  0.513233  0.682996  1
  O  O19  1  0.513233  0.682996  0.830237  1
