# generated using pymatgen
data_Sc2Al2SiPt
_symmetry_space_group_name_H-M   'P 1'
_cell_length_a   6.67691500
_cell_length_b   6.67691697
_cell_length_c   8.15435900
_cell_angle_alpha   90.00000000
_cell_angle_beta   90.00000000
_cell_angle_gamma   119.99999517
_symmetry_Int_Tables_number   1
_chemical_formula_structural   Sc2Al2SiPt
_chemical_formula_sum   'Sc6 Al6 Si3 Pt3'
_cell_volume   314.82724130
_cell_formula_units_Z   3
loop_
 _symmetry_equiv_pos_site_id
 _symmetry_equiv_pos_as_xyz
  1  'x, y, z'
loop_
 _atom_site_type_symbol
 _atom_site_label
 _atom_site_symmetry_multiplicity
 _atom_site_fract_x
 _atom_site_fract_y
 _atom_site_fract_z
 _atom_site_occupancy
  Sc  Sc0  1  0.577633  0.998356  0.752822  1
  Sc  Sc1  1  0.001644  0.579275  0.752822  1
  Sc  Sc2  1  0.420725  0.422367  0.752822  1
  Sc  Sc3  1  0.001159  0.579091  0.247136  1
  Sc  Sc4  1  0.577932  0.998841  0.247136  1
  Sc  Sc5  1  0.420909  0.422068  0.247136  1
  Al  Al6  1  0.750503  0.759677  0.999995  1
  Al  Al7  1  0.240323  0.990826  0.999995  1
  Al  Al8  1  0.009174  0.249497  0.999995  1
  Al  Al9  1  0.756718  0.756330  0.499956  1
  Al  Al10  1  0.243670  0.000388  0.499956  1
  Al  Al11  1  0.999612  0.243282  0.499956  1
  Si  Si12  1  0.666667  0.333333  0.999838  1
  Si  Si13  1  0.666667  0.333333  0.500181  1
  Si  Si14  1  0.333333  0.666667  0.499922  1
  Pt  Pt15  1  0.000000  0.000000  0.748132  1
  Pt  Pt16  1  0.000000  0.000000  0.251764  1
  Pt  Pt17  1  0.333333  0.666667  0.000435  1
