# generated using pymatgen
data_LiDy2Lu4Co17P12
_symmetry_space_group_name_H-M   'P 1'
_cell_length_a   3.68006900
_cell_length_b   10.49668000
_cell_length_c   12.11627700
_cell_angle_alpha   90.00000000
_cell_angle_beta   90.00000000
_cell_angle_gamma   90.00000000
_symmetry_Int_Tables_number   1
_chemical_formula_structural   LiDy2Lu4Co17P12
_chemical_formula_sum   'Li1 Dy2 Lu4 Co17 P12'
_cell_volume   468.03368692
_cell_formula_units_Z   1
loop_
 _symmetry_equiv_pos_site_id
 _symmetry_equiv_pos_as_xyz
  1  'x, y, z'
loop_
 _atom_site_type_symbol
 _atom_site_label
 _atom_site_symmetry_multiplicity
 _atom_site_fract_x
 _atom_site_fract_y
 _atom_site_fract_z
 _atom_site_occupancy
  Li  Li0  1  0.500000  0.500000  0.152547  1
  Dy  Dy1  1  0.000000  0.500000  0.523068  1
  Dy  Dy2  1  0.500000  0.000000  0.477448  1
  Lu  Lu3  1  0.500000  0.820028  0.206131  1
  Lu  Lu4  1  0.500000  0.179972  0.206131  1
  Lu  Lu5  1  0.000000  0.681396  0.794673  1
  Lu  Lu6  1  0.000000  0.318604  0.794673  1
  Co  Co7  1  0.000000  0.000000  0.840444  1
  Co  Co8  1  0.500000  0.500000  0.705889  1
  Co  Co9  1  0.000000  0.000000  0.295148  1
  Co  Co10  1  0.000000  0.500000  0.986182  1
  Co  Co11  1  0.500000  0.000000  0.012054  1
  Co  Co12  1  0.500000  0.330810  0.995132  1
  Co  Co13  1  0.500000  0.669190  0.995132  1
  Co  Co14  1  0.000000  0.165197  0.003288  1
  Co  Co15  1  0.000000  0.834803  0.003288  1
  Co  Co16  1  0.500000  0.296120  0.431607  1
  Co  Co17  1  0.500000  0.703880  0.431607  1
  Co  Co18  1  0.000000  0.202792  0.570732  1
  Co  Co19  1  0.000000  0.797208  0.570732  1
  Co  Co20  1  0.500000  0.878639  0.709805  1
  Co  Co21  1  0.500000  0.121361  0.709805  1
  Co  Co22  1  0.000000  0.623196  0.291699  1
  Co  Co23  1  0.000000  0.376804  0.291699  1
  P  P24  1  0.500000  0.500000  0.884155  1
  P  P25  1  0.000000  0.000000  0.117024  1
  P  P26  1  0.500000  0.500000  0.345402  1
  P  P27  1  0.000000  0.000000  0.655558  1
  P  P28  1  0.500000  0.310767  0.618301  1
  P  P29  1  0.500000  0.689233  0.618301  1
  P  P30  1  0.000000  0.189144  0.383513  1
  P  P31  1  0.000000  0.810856  0.383513  1
  P  P32  1  0.500000  0.846454  0.890890  1
  P  P33  1  0.500000  0.153546  0.890890  1
  P  P34  1  0.000000  0.658295  0.106769  1
  P  P35  1  0.000000  0.341705  0.106769  1
