# generated using pymatgen
data_La4CoH12Ru
_symmetry_space_group_name_H-M   'P 1'
_cell_length_a   7.40947802
_cell_length_b   7.40947681
_cell_length_c   5.30804204
_cell_angle_alpha   90.03589197
_cell_angle_beta   90.03589353
_cell_angle_gamma   138.22404123
_symmetry_Int_Tables_number   1
_chemical_formula_structural   La4CoH12Ru
_chemical_formula_sum   'La4 Co1 H12 Ru1'
_cell_volume   194.14501923
_cell_formula_units_Z   1
loop_
 _symmetry_equiv_pos_site_id
 _symmetry_equiv_pos_as_xyz
  1  'x, y, z'
loop_
 _atom_site_type_symbol
 _atom_site_label
 _atom_site_symmetry_multiplicity
 _atom_site_fract_x
 _atom_site_fract_y
 _atom_site_fract_z
 _atom_site_occupancy
  La  La0  1  0.136449  0.863551  0.500000  1
  La  La1  1  0.636185  0.363815  0.000000  1
  La  La2  1  0.863551  0.136449  0.500000  1
  La  La3  1  0.363815  0.636185  0.000000  1
  Co  Co4  1  0.000000  0.000000  0.000000  1
  H  H5  1  0.999953  0.500094  0.751267  1
  H  H6  1  0.499906  0.000047  0.248733  1
  H  H7  1  0.000047  0.499906  0.248733  1
  H  H8  1  0.500094  0.999953  0.751267  1
  H  H9  1  0.373547  0.626453  0.500000  1
  H  H10  1  0.882989  0.117011  0.000000  1
  H  H11  1  0.626453  0.373547  0.500000  1
  H  H12  1  0.117011  0.882989  0.000000  1
  H  H13  1  0.248024  0.248024  0.752054  1
  H  H14  1  0.751976  0.751976  0.247946  1
  H  H15  1  0.244716  0.244716  0.244941  1
  H  H16  1  0.755284  0.755284  0.755059  1
  Ru  Ru17  1  0.500000  0.500000  0.500000  1
