# generated using pymatgen
data_CoNiSnO4
_symmetry_space_group_name_H-M   'P 1'
_cell_length_a   6.29509700
_cell_length_b   6.30358630
_cell_length_c   8.69947000
_cell_angle_alpha   90.00000000
_cell_angle_beta   90.00000000
_cell_angle_gamma   90.01756980
_symmetry_Int_Tables_number   1
_chemical_formula_structural   CoNiSnO4
_chemical_formula_sum   'Co4 Ni4 Sn4 O16'
_cell_volume   345.20963097
_cell_formula_units_Z   4
loop_
 _symmetry_equiv_pos_site_id
 _symmetry_equiv_pos_as_xyz
  1  'x, y, z'
loop_
 _atom_site_type_symbol
 _atom_site_label
 _atom_site_symmetry_multiplicity
 _atom_site_fract_x
 _atom_site_fract_y
 _atom_site_fract_z
 _atom_site_occupancy
  Co  Co0  1  0.250104  0.250160  0.624862  1
  Co  Co1  1  0.250433  0.750147  0.875063  1
  Co  Co2  1  0.749567  0.249853  0.375063  1
  Co  Co3  1  0.749896  0.749840  0.124862  1
  Ni  Ni4  1  0.999817  0.233492  0.000011  1
  Ni  Ni5  1  0.000183  0.766508  0.500011  1
  Ni  Ni6  1  0.233611  0.000308  0.250008  1
  Ni  Ni7  1  0.766389  0.999692  0.750008  1
  Sn  Sn8  1  0.232576  0.500406  0.250011  1
  Sn  Sn9  1  0.499926  0.233090  0.000023  1
  Sn  Sn10  1  0.500074  0.766910  0.500023  1
  Sn  Sn11  1  0.767424  0.499594  0.750011  1
  O  O12  1  0.015187  0.252441  0.243660  1
  O  O13  1  0.015282  0.748181  0.256389  1
  O  O14  1  0.252032  0.015648  0.006401  1
  O  O15  1  0.252628  0.984874  0.493459  1
  O  O16  1  0.255178  0.474225  0.007814  1
  O  O17  1  0.254118  0.526592  0.492271  1
  O  O18  1  0.473661  0.255175  0.242236  1
  O  O19  1  0.473949  0.745023  0.257795  1
  O  O20  1  0.526051  0.254977  0.757795  1
  O  O21  1  0.526339  0.744825  0.742236  1
  O  O22  1  0.744822  0.525775  0.507814  1
  O  O23  1  0.745882  0.473408  0.992271  1
  O  O24  1  0.747372  0.015126  0.993459  1
  O  O25  1  0.747968  0.984352  0.506401  1
  O  O26  1  0.984718  0.251819  0.756389  1
  O  O27  1  0.984813  0.747559  0.743660  1
