# generated using pymatgen
data_KBaCoO3
_symmetry_space_group_name_H-M   'P 1'
_cell_length_a   6.48560398
_cell_length_b   6.48560321
_cell_length_c   13.02865600
_cell_angle_alpha   90.00000000
_cell_angle_beta   90.00000000
_cell_angle_gamma   126.99295217
_symmetry_Int_Tables_number   1
_chemical_formula_structural   KBaCoO3
_chemical_formula_sum   'K4 Ba4 Co4 O12'
_cell_volume   437.71284017
_cell_formula_units_Z   4
loop_
 _symmetry_equiv_pos_site_id
 _symmetry_equiv_pos_as_xyz
  1  'x, y, z'
loop_
 _atom_site_type_symbol
 _atom_site_label
 _atom_site_symmetry_multiplicity
 _atom_site_fract_x
 _atom_site_fract_y
 _atom_site_fract_z
 _atom_site_occupancy
  K  K0  1  0.453749  0.546251  0.641360  1
  K  K1  1  0.546251  0.453749  0.358640  1
  K  K2  1  0.046251  0.953749  0.141360  1
  K  K3  1  0.953749  0.046251  0.858640  1
  Ba  Ba4  1  0.645949  0.354051  0.919772  1
  Ba  Ba5  1  0.854051  0.145949  0.419772  1
  Ba  Ba6  1  0.145949  0.854051  0.580228  1
  Ba  Ba7  1  0.354051  0.645949  0.080228  1
  Co  Co8  1  0.229164  0.770836  0.333933  1
  Co  Co9  1  0.729164  0.270836  0.166067  1
  Co  Co10  1  0.770836  0.229164  0.666067  1
  Co  Co11  1  0.270836  0.729164  0.833933  1
  O  O12  1  0.973880  0.526120  0.750000  1
  O  O13  1  0.526120  0.973880  0.250000  1
  O  O14  1  0.026120  0.473880  0.250000  1
  O  O15  1  0.473880  0.026120  0.750000  1
  O  O16  1  0.421057  0.578943  0.878336  1
  O  O17  1  0.578943  0.421057  0.121664  1
  O  O18  1  0.078943  0.921057  0.378336  1
  O  O19  1  0.674134  0.325866  0.549046  1
  O  O20  1  0.174134  0.825866  0.950954  1
  O  O21  1  0.825866  0.174134  0.049046  1
  O  O22  1  0.325866  0.674134  0.450954  1
  O  O23  1  0.921057  0.078943  0.621664  1
