# generated using pymatgen
data_Ce8Co(Si4Ni)3
_symmetry_space_group_name_H-M   'P 1'
_cell_length_a   8.05761100
_cell_length_b   8.05761177
_cell_length_c   8.38933200
_cell_angle_alpha   90.00000000
_cell_angle_beta   90.00000000
_cell_angle_gamma   119.99999272
_symmetry_Int_Tables_number   1
_chemical_formula_structural   Ce8Co(Si4Ni)3
_chemical_formula_sum   'Ce8 Co1 Si12 Ni3'
_cell_volume   471.70521822
_cell_formula_units_Z   1
loop_
 _symmetry_equiv_pos_site_id
 _symmetry_equiv_pos_as_xyz
  1  'x, y, z'
loop_
 _atom_site_type_symbol
 _atom_site_label
 _atom_site_symmetry_multiplicity
 _atom_site_fract_x
 _atom_site_fract_y
 _atom_site_fract_z
 _atom_site_occupancy
  Ce  Ce0  1  0.000000  0.000000  0.250069  1
  Ce  Ce1  1  0.000000  0.000000  0.749892  1
  Ce  Ce2  1  0.498104  0.501896  0.247362  1
  Ce  Ce3  1  0.498104  0.996208  0.247362  1
  Ce  Ce4  1  0.003792  0.501896  0.247362  1
  Ce  Ce5  1  0.497881  0.502119  0.752489  1
  Ce  Ce6  1  0.497881  0.995760  0.752489  1
  Ce  Ce7  1  0.004240  0.502119  0.752489  1
  Co  Co8  1  0.333333  0.666667  0.001134  1
  Si  Si9  1  0.169893  0.830107  0.499966  1
  Si  Si10  1  0.169893  0.339787  0.499966  1
  Si  Si11  1  0.660213  0.830107  0.499966  1
  Si  Si12  1  0.829380  0.170620  0.500240  1
  Si  Si13  1  0.829380  0.658758  0.500240  1
  Si  Si14  1  0.341242  0.170620  0.500240  1
  Si  Si15  1  0.830411  0.169589  0.999510  1
  Si  Si16  1  0.830411  0.660821  0.999510  1
  Si  Si17  1  0.339179  0.169589  0.999510  1
  Si  Si18  1  0.170513  0.829487  0.000224  1
  Si  Si19  1  0.170513  0.341027  0.000224  1
  Si  Si20  1  0.658973  0.829487  0.000224  1
  Ni  Ni21  1  0.333333  0.666667  0.499075  1
  Ni  Ni22  1  0.666667  0.333333  0.501545  1
  Ni  Ni23  1  0.666667  0.333333  0.998917  1
