# generated using pymatgen
data_Ca4TaNbN6
_symmetry_space_group_name_H-M   'P 1'
_cell_length_a   6.13846660
_cell_length_b   6.13846801
_cell_length_c   12.12302402
_cell_angle_alpha   88.12565483
_cell_angle_beta   88.12566850
_cell_angle_gamma   121.89784898
_symmetry_Int_Tables_number   1
_chemical_formula_structural   Ca4TaNbN6
_chemical_formula_sum   'Ca8 Ta2 Nb2 N12'
_cell_volume   386.94282785
_cell_formula_units_Z   2
loop_
 _symmetry_equiv_pos_site_id
 _symmetry_equiv_pos_as_xyz
  1  'x, y, z'
loop_
 _atom_site_type_symbol
 _atom_site_label
 _atom_site_symmetry_multiplicity
 _atom_site_fract_x
 _atom_site_fract_y
 _atom_site_fract_z
 _atom_site_occupancy
  Ca  Ca0  1  0.595283  0.832369  0.077610  1
  Ca  Ca1  1  0.462954  0.057617  0.364624  1
  Ca  Ca2  1  0.056042  0.461691  0.865197  1
  Ca  Ca3  1  0.538309  0.943958  0.634803  1
  Ca  Ca4  1  0.407101  0.167755  0.923414  1
  Ca  Ca5  1  0.832245  0.592899  0.576586  1
  Ca  Ca6  1  0.167631  0.404717  0.422390  1
  Ca  Ca7  1  0.942383  0.537046  0.135376  1
  Ta  Ta8  1  0.767980  0.771878  0.837581  1
  Ta  Ta9  1  0.228122  0.232020  0.662419  1
  Nb  Nb10  1  0.230529  0.227148  0.161805  1
  Nb  Nb11  1  0.772852  0.769471  0.338195  1
  N  N12  1  0.101582  0.898418  0.750000  1
  N  N13  1  0.894486  0.105514  0.250000  1
  N  N14  1  0.484298  0.515702  0.750000  1
  N  N15  1  0.516291  0.483709  0.250000  1
  N  N16  1  0.307015  0.976211  0.115322  1
  N  N17  1  0.023789  0.692985  0.384678  1
  N  N18  1  0.693760  0.023062  0.884819  1
  N  N19  1  0.976938  0.306240  0.615181  1
  N  N20  1  0.789538  0.594106  0.963933  1
  N  N21  1  0.593035  0.788057  0.464754  1
  N  N22  1  0.211943  0.406965  0.035246  1
  N  N23  1  0.405894  0.210462  0.536067  1
