# generated using pymatgen
data_La5CoTc
_symmetry_space_group_name_H-M   'P 1'
_cell_length_a   9.10449231
_cell_length_b   9.10449225
_cell_length_c   7.30728476
_cell_angle_alpha   86.27598015
_cell_angle_beta   86.27598176
_cell_angle_gamma   43.14982900
_symmetry_Int_Tables_number   1
_chemical_formula_structural   La5CoTc
_chemical_formula_sum   'La10 Co2 Tc2'
_cell_volume   413.24121769
_cell_formula_units_Z   2
loop_
 _symmetry_equiv_pos_site_id
 _symmetry_equiv_pos_as_xyz
  1  'x, y, z'
loop_
 _atom_site_type_symbol
 _atom_site_label
 _atom_site_symmetry_multiplicity
 _atom_site_fract_x
 _atom_site_fract_y
 _atom_site_fract_z
 _atom_site_occupancy
  La  La0  1  0.014329  0.802166  0.404468  1
  La  La1  1  0.197834  0.985671  0.095532  1
  La  La2  1  0.983925  0.205706  0.603384  1
  La  La3  1  0.794294  0.016075  0.896616  1
  La  La4  1  0.361264  0.209194  0.329497  1
  La  La5  1  0.790806  0.638736  0.170503  1
  La  La6  1  0.641213  0.780962  0.674560  1
  La  La7  1  0.219038  0.358787  0.825440  1
  La  La8  1  0.577603  0.422397  0.250000  1
  La  La9  1  0.430058  0.569942  0.750000  1
  Co  Co10  1  0.827654  0.394847  0.912114  1
  Co  Co11  1  0.605153  0.172346  0.587886  1
  Tc  Tc12  1  0.169103  0.612275  0.073528  1
  Tc  Tc13  1  0.387725  0.830897  0.426472  1
