# generated using pymatgen
data_La2Ni3PPt5
_symmetry_space_group_name_H-M   'P 1'
_cell_length_a   9.18673669
_cell_length_b   9.18673587
_cell_length_c   4.01884900
_cell_angle_alpha   90.00000000
_cell_angle_beta   90.00000000
_cell_angle_gamma   145.83782071
_symmetry_Int_Tables_number   1
_chemical_formula_structural   La2Ni3PPt5
_chemical_formula_sum   'La2 Ni3 P1 Pt5'
_cell_volume   190.45956993
_cell_formula_units_Z   1
loop_
 _symmetry_equiv_pos_site_id
 _symmetry_equiv_pos_as_xyz
  1  'x, y, z'
loop_
 _atom_site_type_symbol
 _atom_site_label
 _atom_site_symmetry_multiplicity
 _atom_site_fract_x
 _atom_site_fract_y
 _atom_site_fract_z
 _atom_site_occupancy
  La  La0  1  0.618081  0.367395  0.500000  1
  La  La1  1  0.367395  0.618081  0.500000  1
  Ni  Ni2  1  0.194025  0.789681  0.500000  1
  Ni  Ni3  1  0.789681  0.194025  0.500000  1
  Ni  Ni4  1  0.008002  0.008002  0.500000  1
  P  P5  1  0.219417  0.219417  0.000000  1
  Pt  Pt6  1  0.112194  0.887159  0.000000  1
  Pt  Pt7  1  0.887159  0.112194  0.000000  1
  Pt  Pt8  1  0.490313  0.986700  0.000000  1
  Pt  Pt9  1  0.986700  0.490313  0.000000  1
  Pt  Pt10  1  0.640632  0.640632  0.000000  1
