# generated using pymatgen
data_Dy7YHo2(CoBi2)2
_symmetry_space_group_name_H-M   'P 1'
_cell_length_a   7.99597142
_cell_length_b   8.87637510
_cell_length_c   12.40891316
_cell_angle_alpha   90.01741954
_cell_angle_beta   89.96255061
_cell_angle_gamma   90.00044035
_symmetry_Int_Tables_number   1
_chemical_formula_structural   Dy7YHo2(CoBi2)2
_chemical_formula_sum   'Dy14 Y2 Ho4 Co4 Bi8'
_cell_volume   880.72538177
_cell_formula_units_Z   2
loop_
 _symmetry_equiv_pos_site_id
 _symmetry_equiv_pos_as_xyz
  1  'x, y, z'
loop_
 _atom_site_type_symbol
 _atom_site_label
 _atom_site_symmetry_multiplicity
 _atom_site_fract_x
 _atom_site_fract_y
 _atom_site_fract_z
 _atom_site_occupancy
  Dy  Dy0  1  0.846791  0.249893  0.800355  1
  Dy  Dy1  1  0.153069  0.750051  0.199631  1
  Dy  Dy2  1  0.884353  0.750078  0.810718  1
  Dy  Dy3  1  0.115327  0.249833  0.189267  1
  Dy  Dy4  1  0.384624  0.249914  0.689810  1
  Dy  Dy5  1  0.615657  0.750161  0.310233  1
  Dy  Dy6  1  0.676283  0.537811  0.562910  1
  Dy  Dy7  1  0.323697  0.462403  0.437149  1
  Dy  Dy8  1  0.175971  0.462229  0.936919  1
  Dy  Dy9  1  0.323893  0.037597  0.437167  1
  Dy  Dy10  1  0.051413  0.750095  0.497985  1
  Dy  Dy11  1  0.948156  0.249858  0.502009  1
  Dy  Dy12  1  0.552211  0.249902  0.001975  1
  Dy  Dy13  1  0.448252  0.750138  0.998029  1
  Y  Y14  1  0.346313  0.750104  0.700821  1
  Y  Y15  1  0.653865  0.249949  0.299108  1
  Ho  Ho16  1  0.824572  0.537962  0.063105  1
  Ho  Ho17  1  0.675569  0.962143  0.562859  1
  Ho  Ho18  1  0.824729  0.962021  0.063095  1
  Ho  Ho19  1  0.175256  0.037878  0.936962  1
  Co  Co20  1  0.065467  0.750187  0.991739  1
  Co  Co21  1  0.933916  0.249766  0.008365  1
  Co  Co22  1  0.565730  0.249804  0.509149  1
  Co  Co23  1  0.434874  0.750229  0.490932  1
  Bi  Bi24  1  0.572297  0.509566  0.826646  1
  Bi  Bi25  1  0.427936  0.490505  0.173315  1
  Bi  Bi26  1  0.072040  0.490440  0.673463  1
  Bi  Bi27  1  0.427974  0.009499  0.173281  1
  Bi  Bi28  1  0.927933  0.509582  0.326424  1
  Bi  Bi29  1  0.572055  0.990470  0.826620  1
  Bi  Bi30  1  0.927984  0.990408  0.326460  1
  Bi  Bi31  1  0.071795  0.009524  0.673499  1
