# generated using pymatgen
data_MnCrAgF6
_symmetry_space_group_name_H-M   'P 1'
_cell_length_a   9.31339200
_cell_length_b   9.31339331
_cell_length_c   5.23516100
_cell_angle_alpha   90.00000000
_cell_angle_beta   90.00000000
_cell_angle_gamma   120.00000246
_symmetry_Int_Tables_number   1
_chemical_formula_structural   MnCrAgF6
_chemical_formula_sum   'Mn3 Cr3 Ag3 F18'
_cell_volume   393.25702530
_cell_formula_units_Z   3
loop_
 _symmetry_equiv_pos_site_id
 _symmetry_equiv_pos_as_xyz
  1  'x, y, z'
loop_
 _atom_site_type_symbol
 _atom_site_label
 _atom_site_symmetry_multiplicity
 _atom_site_fract_x
 _atom_site_fract_y
 _atom_site_fract_z
 _atom_site_occupancy
  Mn  Mn0  1  0.702554  0.000000  0.500000  1
  Mn  Mn1  1  0.297446  0.297446  0.500000  1
  Mn  Mn2  1  0.000000  0.702554  0.500000  1
  Cr  Cr3  1  0.333333  0.666667  0.496904  1
  Cr  Cr4  1  0.666667  0.333333  0.503096  1
  Cr  Cr5  1  0.000000  0.000000  0.000000  1
  Ag  Ag6  1  0.372125  0.000000  0.000000  1
  Ag  Ag7  1  0.000000  0.372125  0.000000  1
  Ag  Ag8  1  0.627875  0.627875  0.000000  1
  F  F9  1  0.769503  0.230192  0.302883  1
  F  F10  1  0.769808  0.539311  0.302883  1
  F  F11  1  0.460689  0.230497  0.302883  1
  F  F12  1  0.539311  0.769808  0.697117  1
  F  F13  1  0.230497  0.460689  0.697117  1
  F  F14  1  0.230192  0.769503  0.697117  1
  F  F15  1  0.401846  0.535222  0.294582  1
  F  F16  1  0.464778  0.866625  0.294582  1
  F  F17  1  0.133375  0.598154  0.294582  1
  F  F18  1  0.897505  0.092291  0.775708  1
  F  F19  1  0.907709  0.805213  0.775708  1
  F  F20  1  0.194787  0.102495  0.775708  1
  F  F21  1  0.805213  0.907709  0.224292  1
  F  F22  1  0.102495  0.194787  0.224292  1
  F  F23  1  0.092291  0.897505  0.224292  1
  F  F24  1  0.535222  0.401846  0.705418  1
  F  F25  1  0.598154  0.133375  0.705418  1
  F  F26  1  0.866625  0.464778  0.705418  1
