# generated using pymatgen
data_Tb7Er(TmPb3)2
_symmetry_space_group_name_H-M   'P 1'
_cell_length_a   9.07134200
_cell_length_b   9.07134233
_cell_length_c   6.64348200
_cell_angle_alpha   90.00000000
_cell_angle_beta   90.00000000
_cell_angle_gamma   119.99999879
_symmetry_Int_Tables_number   1
_chemical_formula_structural   Tb7Er(TmPb3)2
_chemical_formula_sum   'Tb7 Er1 Tm2 Pb6'
_cell_volume   473.44495898
_cell_formula_units_Z   1
loop_
 _symmetry_equiv_pos_site_id
 _symmetry_equiv_pos_as_xyz
  1  'x, y, z'
loop_
 _atom_site_type_symbol
 _atom_site_label
 _atom_site_symmetry_multiplicity
 _atom_site_fract_x
 _atom_site_fract_y
 _atom_site_fract_z
 _atom_site_occupancy
  Tb  Tb0  1  0.666667  0.333333  0.500000  1
  Tb  Tb1  1  0.761270  0.761376  0.750495  1
  Tb  Tb2  1  0.238624  0.999894  0.750495  1
  Tb  Tb3  1  0.000106  0.238730  0.750495  1
  Tb  Tb4  1  0.238624  0.238730  0.249505  1
  Tb  Tb5  1  0.761270  0.999894  0.249505  1
  Tb  Tb6  1  0.000106  0.761376  0.249505  1
  Er  Er7  1  0.333333  0.666667  0.500000  1
  Tm  Tm8  1  0.666667  0.333333  0.000000  1
  Tm  Tm9  1  0.333333  0.666667  0.000000  1
  Pb  Pb10  1  0.395114  0.395595  0.751607  1
  Pb  Pb11  1  0.604405  0.999519  0.751607  1
  Pb  Pb12  1  0.000481  0.604886  0.751607  1
  Pb  Pb13  1  0.604405  0.604886  0.248393  1
  Pb  Pb14  1  0.395114  0.999519  0.248393  1
  Pb  Pb15  1  0.000481  0.395595  0.248393  1
