# generated using pymatgen
data_Th4Pd8Pt3Rh
_symmetry_space_group_name_H-M   'P 1'
_cell_length_a   5.97079684
_cell_length_b   5.93446128
_cell_length_c   9.78585553
_cell_angle_alpha   90.00000013
_cell_angle_beta   89.31090772
_cell_angle_gamma   119.79889079
_symmetry_Int_Tables_number   1
_chemical_formula_structural   Th4Pd8Pt3Rh
_chemical_formula_sum   'Th4 Pd8 Pt3 Rh1'
_cell_volume   300.86928469
_cell_formula_units_Z   1
loop_
 _symmetry_equiv_pos_site_id
 _symmetry_equiv_pos_as_xyz
  1  'x, y, z'
loop_
 _atom_site_type_symbol
 _atom_site_label
 _atom_site_symmetry_multiplicity
 _atom_site_fract_x
 _atom_site_fract_y
 _atom_site_fract_z
 _atom_site_occupancy
  Th  Th0  1  0.000000  0.000000  0.500000  1
  Th  Th1  1  0.000000  0.000000  0.000000  1
  Th  Th2  1  0.324584  0.662292  0.255298  1
  Th  Th3  1  0.675416  0.337708  0.744702  1
  Pd  Pd4  1  0.500000  0.500000  0.000000  1
  Pd  Pd5  1  0.500000  0.000000  0.000000  1
  Pd  Pd6  1  0.821724  0.649441  0.248215  1
  Pd  Pd7  1  0.349342  0.174671  0.248382  1
  Pd  Pd8  1  0.821724  0.172284  0.248215  1
  Pd  Pd9  1  0.178276  0.350559  0.751785  1
  Pd  Pd10  1  0.650658  0.825329  0.751618  1
  Pd  Pd11  1  0.178276  0.827716  0.751785  1
  Pt  Pt12  1  0.500000  0.500000  0.500000  1
  Pt  Pt13  1  0.500000  0.000000  0.500000  1
  Pt  Pt14  1  0.000000  0.500000  0.000000  1
  Rh  Rh15  1  0.000000  0.500000  0.500000  1
