# generated using pymatgen
data_Hf6Ta5TiSn10
_symmetry_space_group_name_H-M   'P 1'
_cell_length_a   9.57787496
_cell_length_b   9.57787504
_cell_length_c   5.78245770
_cell_angle_alpha   90.25191885
_cell_angle_beta   89.74808000
_cell_angle_gamma   119.81983319
_symmetry_Int_Tables_number   1
_chemical_formula_structural   Hf6Ta5TiSn10
_chemical_formula_sum   'Hf6 Ta5 Ti1 Sn10'
_cell_volume   460.21568075
_cell_formula_units_Z   1
loop_
 _symmetry_equiv_pos_site_id
 _symmetry_equiv_pos_as_xyz
  1  'x, y, z'
loop_
 _atom_site_type_symbol
 _atom_site_label
 _atom_site_symmetry_multiplicity
 _atom_site_fract_x
 _atom_site_fract_y
 _atom_site_fract_z
 _atom_site_occupancy
  Hf  Hf0  1  0.846640  0.691796  0.753416  1
  Hf  Hf1  1  0.154490  0.845510  0.249316  1
  Hf  Hf2  1  0.691796  0.846640  0.246584  1
  Hf  Hf3  1  0.308204  0.153360  0.753416  1
  Hf  Hf4  1  0.845510  0.154490  0.750684  1
  Hf  Hf5  1  0.153360  0.308204  0.246584  1
  Ta  Ta6  1  0.500000  0.000000  0.500000  1
  Ta  Ta7  1  0.500000  0.500000  0.000000  1
  Ta  Ta8  1  0.000000  0.500000  0.000000  1
  Ta  Ta9  1  0.000000  0.500000  0.500000  1
  Ta  Ta10  1  0.500000  0.000000  0.000000  1
  Ti  Ti11  1  0.500000  0.500000  0.500000  1
  Sn  Sn12  1  0.212262  0.419916  0.746220  1
  Sn  Sn13  1  0.790013  0.209987  0.250289  1
  Sn  Sn14  1  0.419916  0.212262  0.253780  1
  Sn  Sn15  1  0.580084  0.787738  0.746220  1
  Sn  Sn16  1  0.209987  0.790013  0.749711  1
  Sn  Sn17  1  0.787738  0.580084  0.253780  1
  Sn  Sn18  1  0.666109  0.333891  0.752242  1
  Sn  Sn19  1  0.333891  0.666109  0.247758  1
  Sn  Sn20  1  0.000000  0.000000  0.500000  1
  Sn  Sn21  1  0.000000  0.000000  0.000000  1
