# generated using pymatgen
data_DyTm3(LuIn)6
_symmetry_space_group_name_H-M   'P 1'
_cell_length_a   9.00481989
_cell_length_b   9.00481933
_cell_length_c   9.01135018
_cell_angle_alpha   96.49934985
_cell_angle_beta   96.46948702
_cell_angle_gamma   140.71176594
_symmetry_Int_Tables_number   1
_chemical_formula_structural   DyTm3(LuIn)6
_chemical_formula_sum   'Dy1 Tm3 Lu6 In6'
_cell_volume   435.80687511
_cell_formula_units_Z   1
loop_
 _symmetry_equiv_pos_site_id
 _symmetry_equiv_pos_as_xyz
  1  'x, y, z'
loop_
 _atom_site_type_symbol
 _atom_site_label
 _atom_site_symmetry_multiplicity
 _atom_site_fract_x
 _atom_site_fract_y
 _atom_site_fract_z
 _atom_site_occupancy
  Dy  Dy0  1  0.081703  0.781324  0.863027  1
  Tm  Tm1  1  0.718082  0.419241  0.137323  1
  Tm  Tm2  1  0.282655  0.580567  0.863222  1
  Tm  Tm3  1  0.581464  0.717982  0.299445  1
  Lu  Lu4  1  0.217470  0.081598  0.299066  1
  Lu  Lu5  1  0.918169  0.217759  0.135928  1
  Lu  Lu6  1  0.749860  0.249545  0.499652  1
  Lu  Lu7  1  0.250107  0.749792  0.499652  1
  Lu  Lu8  1  0.782226  0.919275  0.701502  1
  Lu  Lu9  1  0.417839  0.282575  0.700415  1
  In  In10  1  0.837802  0.661476  0.499278  1
  In  In11  1  0.339338  0.838633  0.177971  1
  In  In12  1  0.749781  0.750376  0.000222  1
  In  In13  1  0.661886  0.161414  0.823300  1
  In  In14  1  0.161771  0.338002  0.499774  1
  In  In15  1  0.249847  0.250442  0.000222  1
