# generated using pymatgen
data_CaMg2(CoH6)2
_symmetry_space_group_name_H-M   'P 1'
_cell_length_a   4.52399100
_cell_length_b   4.52399237
_cell_length_c   7.85353300
_cell_angle_alpha   90.00000000
_cell_angle_beta   90.00000000
_cell_angle_gamma   119.99998269
_symmetry_Int_Tables_number   1
_chemical_formula_structural   CaMg2(CoH6)2
_chemical_formula_sum   'Ca1 Mg2 Co2 H12'
_cell_volume   139.20004517
_cell_formula_units_Z   1
loop_
 _symmetry_equiv_pos_site_id
 _symmetry_equiv_pos_as_xyz
  1  'x, y, z'
loop_
 _atom_site_type_symbol
 _atom_site_label
 _atom_site_symmetry_multiplicity
 _atom_site_fract_x
 _atom_site_fract_y
 _atom_site_fract_z
 _atom_site_occupancy
  Ca  Ca0  1  0.000000  0.000000  0.000000  1
  Mg  Mg1  1  0.666667  0.333333  0.366937  1
  Mg  Mg2  1  0.333333  0.666667  0.633063  1
  Co  Co3  1  0.666667  0.333333  0.729437  1
  Co  Co4  1  0.333333  0.666667  0.270563  1
  H  H5  1  0.173703  0.826297  0.380615  1
  H  H6  1  0.652592  0.826297  0.380615  1
  H  H7  1  0.173703  0.347408  0.380615  1
  H  H8  1  0.826297  0.173703  0.619385  1
  H  H9  1  0.347408  0.173703  0.619385  1
  H  H10  1  0.826297  0.652592  0.619385  1
  H  H11  1  0.509639  0.019278  0.846052  1
  H  H12  1  0.509639  0.490361  0.846052  1
  H  H13  1  0.980722  0.490361  0.846052  1
  H  H14  1  0.490361  0.980722  0.153948  1
  H  H15  1  0.490361  0.509639  0.153948  1
  H  H16  1  0.019278  0.509639  0.153948  1
