# generated using pymatgen
data_Hf10ZnCu(Sn2Sb)2
_symmetry_space_group_name_H-M   'P 1'
_cell_length_a   8.59172984
_cell_length_b   8.59173059
_cell_length_c   5.80470666
_cell_angle_alpha   90.02732601
_cell_angle_beta   90.02733628
_cell_angle_gamma   119.96689399
_symmetry_Int_Tables_number   1
_chemical_formula_structural   Hf10ZnCu(Sn2Sb)2
_chemical_formula_sum   'Hf10 Zn1 Cu1 Sn4 Sb2'
_cell_volume   371.20751329
_cell_formula_units_Z   1
loop_
 _symmetry_equiv_pos_site_id
 _symmetry_equiv_pos_as_xyz
  1  'x, y, z'
loop_
 _atom_site_type_symbol
 _atom_site_label
 _atom_site_symmetry_multiplicity
 _atom_site_fract_x
 _atom_site_fract_y
 _atom_site_fract_z
 _atom_site_occupancy
  Hf  Hf0  1  0.666828  0.332845  0.999153  1
  Hf  Hf1  1  0.332845  0.666828  0.999153  1
  Hf  Hf2  1  0.332673  0.666820  0.500757  1
  Hf  Hf3  1  0.666820  0.332673  0.500757  1
  Hf  Hf4  1  0.734424  0.734424  0.752425  1
  Hf  Hf5  1  0.266104  0.999998  0.752016  1
  Hf  Hf6  1  0.999998  0.266104  0.752016  1
  Hf  Hf7  1  0.263754  0.263754  0.247626  1
  Hf  Hf8  1  0.735569  0.000882  0.247756  1
  Hf  Hf9  1  0.000882  0.735569  0.247756  1
  Zn  Zn10  1  0.999117  0.999117  0.502436  1
  Cu  Cu11  1  0.999082  0.999082  0.997371  1
  Sn  Sn12  1  0.386484  0.386484  0.749504  1
  Sn  Sn13  1  0.614704  0.999653  0.749468  1
  Sn  Sn14  1  0.999653  0.614704  0.749468  1
  Sn  Sn15  1  0.613704  0.613704  0.250615  1
  Sb  Sb16  1  0.387066  0.000292  0.250860  1
  Sb  Sb17  1  0.000292  0.387066  0.250860  1
