# generated using pymatgen
data_Ti4AlMo2Os
_symmetry_space_group_name_H-M   'P 1'
_cell_length_a   6.33458205
_cell_length_b   4.43594900
_cell_length_c   8.90287306
_cell_angle_alpha   90.00030947
_cell_angle_beta   89.98627694
_cell_angle_gamma   90.00033074
_symmetry_Int_Tables_number   1
_chemical_formula_structural   Ti4AlMo2Os
_chemical_formula_sum   'Ti8 Al2 Mo4 Os2'
_cell_volume   250.16968330
_cell_formula_units_Z   2
loop_
 _symmetry_equiv_pos_site_id
 _symmetry_equiv_pos_as_xyz
  1  'x, y, z'
loop_
 _atom_site_type_symbol
 _atom_site_label
 _atom_site_symmetry_multiplicity
 _atom_site_fract_x
 _atom_site_fract_y
 _atom_site_fract_z
 _atom_site_occupancy
  Ti  Ti0  1  0.992115  0.750000  0.130905  1
  Ti  Ti1  1  0.507908  0.749998  0.131019  1
  Ti  Ti2  1  0.007884  0.249999  0.369095  1
  Ti  Ti3  1  0.492094  0.250001  0.368982  1
  Ti  Ti4  1  0.489034  0.750001  0.614563  1
  Ti  Ti5  1  0.010932  0.750004  0.614628  1
  Ti  Ti6  1  0.510958  0.250002  0.885437  1
  Ti  Ti7  1  0.989077  0.249999  0.885372  1
  Al  Al8  1  0.750175  0.250001  0.622621  1
  Al  Al9  1  0.249824  0.750001  0.877386  1
  Mo  Mo10  1  0.249700  0.249999  0.117373  1
  Mo  Mo11  1  0.750299  0.750001  0.382619  1
  Mo  Mo12  1  0.249616  0.250001  0.631369  1
  Mo  Mo13  1  0.750385  0.750000  0.868639  1
  Os  Os14  1  0.750148  0.250000  0.127681  1
  Os  Os15  1  0.249851  0.750001  0.372314  1
