# generated using pymatgen
data_Zr5Co16Si7P5W3
_symmetry_space_group_name_H-M   'P 1'
_cell_length_a   12.04553377
_cell_length_b   12.04553340
_cell_length_c   3.64853900
_cell_angle_alpha   90.00000000
_cell_angle_beta   90.00000000
_cell_angle_gamma   119.90934071
_symmetry_Int_Tables_number   1
_chemical_formula_structural   Zr5Co16Si7P5W3
_chemical_formula_sum   'Zr5 Co16 Si7 P5 W3'
_cell_volume   458.87852366
_cell_formula_units_Z   1
loop_
 _symmetry_equiv_pos_site_id
 _symmetry_equiv_pos_as_xyz
  1  'x, y, z'
loop_
 _atom_site_type_symbol
 _atom_site_label
 _atom_site_symmetry_multiplicity
 _atom_site_fract_x
 _atom_site_fract_y
 _atom_site_fract_z
 _atom_site_occupancy
  Zr  Zr0  1  0.666906  0.334190  0.000000  1
  Zr  Zr1  1  0.334190  0.666906  0.000000  1
  Zr  Zr2  1  0.820363  0.820363  0.500000  1
  Zr  Zr3  1  0.181674  0.999538  0.500000  1
  Zr  Zr4  1  0.999538  0.181674  0.500000  1
  Co  Co5  1  0.192019  0.368164  0.000000  1
  Co  Co6  1  0.176526  0.807172  0.000000  1
  Co  Co7  1  0.827316  0.630237  0.000000  1
  Co  Co8  1  0.807172  0.176526  0.000000  1
  Co  Co9  1  0.368164  0.192019  0.000000  1
  Co  Co10  1  0.123015  0.476552  0.500000  1
  Co  Co11  1  0.353793  0.877100  0.500000  1
  Co  Co12  1  0.520951  0.645408  0.500000  1
  Co  Co13  1  0.645408  0.520951  0.500000  1
  Co  Co14  1  0.877100  0.353793  0.500000  1
  Co  Co15  1  0.476552  0.123015  0.500000  1
  Co  Co16  1  0.000228  0.000228  0.000000  1
  Co  Co17  1  0.724037  0.001689  0.500000  1
  Co  Co18  1  0.001689  0.724037  0.500000  1
  Co  Co19  1  0.630237  0.827316  0.000000  1
  Co  Co20  1  0.275946  0.275946  0.500000  1
  Si  Si21  1  0.646439  0.646439  0.000000  1
  Si  Si22  1  0.482209  0.312956  0.500000  1
  Si  Si23  1  0.686053  0.169108  0.500000  1
  Si  Si24  1  0.831900  0.518073  0.500000  1
  Si  Si25  1  0.518073  0.831900  0.500000  1
  Si  Si26  1  0.169108  0.686053  0.500000  1
  Si  Si27  1  0.312956  0.482209  0.500000  1
  P  P28  1  0.355068  0.999447  0.000000  1
  P  P29  1  0.999447  0.355068  0.000000  1
  P  P30  1  0.824197  0.999947  0.000000  1
  P  P31  1  0.999947  0.824197  0.000000  1
  P  P32  1  0.174944  0.174944  0.000000  1
  W  W33  1  0.441508  0.441508  0.000000  1
  W  W34  1  0.554363  0.000964  0.000000  1
  W  W35  1  0.000964  0.554363  0.000000  1
