# generated using pymatgen
data_Dy5Ta3P12Ir3Rh13
_symmetry_space_group_name_H-M   'P 1'
_cell_length_a   12.79191877
_cell_length_b   12.79958408
_cell_length_c   3.93200500
_cell_angle_alpha   90.00000000
_cell_angle_beta   90.00000000
_cell_angle_gamma   120.01982410
_symmetry_Int_Tables_number   1
_chemical_formula_structural   Dy5Ta3P12Ir3Rh13
_chemical_formula_sum   'Dy5 Ta3 P12 Ir3 Rh13'
_cell_volume   557.42886523
_cell_formula_units_Z   1
loop_
 _symmetry_equiv_pos_site_id
 _symmetry_equiv_pos_as_xyz
  1  'x, y, z'
loop_
 _atom_site_type_symbol
 _atom_site_label
 _atom_site_symmetry_multiplicity
 _atom_site_fract_x
 _atom_site_fract_y
 _atom_site_fract_z
 _atom_site_occupancy
  Dy  Dy0  1  0.333232  0.666552  0.500000  1
  Dy  Dy1  1  0.666768  0.333319  0.500000  1
  Dy  Dy2  1  0.000000  0.813471  0.000000  1
  Dy  Dy3  1  0.186688  0.186570  0.000000  1
  Dy  Dy4  1  0.813312  0.999882  0.000000  1
  Ta  Ta5  1  0.000000  0.450031  0.500000  1
  Ta  Ta6  1  0.549553  0.549584  0.500000  1
  Ta  Ta7  1  0.450447  0.000031  0.500000  1
  P  P8  1  0.000000  0.641841  0.500000  1
  P  P9  1  0.357866  0.358092  0.500000  1
  P  P10  1  0.642134  0.000226  0.500000  1
  P  P11  1  0.516929  0.682794  0.000000  1
  P  P12  1  0.317049  0.834104  0.000000  1
  P  P13  1  0.165336  0.482628  0.000000  1
  P  P14  1  0.483071  0.165865  0.000000  1
  P  P15  1  0.682951  0.517055  0.000000  1
  P  P16  1  0.834664  0.317292  0.000000  1
  P  P17  1  0.000000  0.176706  0.500000  1
  P  P18  1  0.823759  0.823730  0.500000  1
  P  P19  1  0.176241  0.999971  0.500000  1
  Ir  Ir20  1  0.718553  0.718579  0.000000  1
  Ir  Ir21  1  0.281447  0.000026  0.000000  1
  Ir  Ir22  1  0.000000  0.000055  0.500000  1
  Rh  Rh23  1  0.511504  0.866883  0.000000  1
  Rh  Rh24  1  0.132934  0.644797  0.000000  1
  Rh  Rh25  1  0.355106  0.488142  0.000000  1
  Rh  Rh26  1  0.488496  0.355377  0.000000  1
  Rh  Rh27  1  0.867066  0.511860  0.000000  1
  Rh  Rh28  1  0.644894  0.133034  0.000000  1
  Rh  Rh29  1  0.000000  0.281158  0.000000  1
  Rh  Rh30  1  0.625116  0.802753  0.500000  1
  Rh  Rh31  1  0.197228  0.822293  0.500000  1
  Rh  Rh32  1  0.176878  0.374738  0.500000  1
  Rh  Rh33  1  0.374884  0.177637  0.500000  1
  Rh  Rh34  1  0.802772  0.625064  0.500000  1
  Rh  Rh35  1  0.823122  0.197860  0.500000  1
