# generated using pymatgen
data_Y2Ga9TcRu4
_symmetry_space_group_name_H-M   'P 1'
_cell_length_a   8.03715363
_cell_length_b   8.03715309
_cell_length_c   8.03715395
_cell_angle_alpha   134.49168668
_cell_angle_beta   134.49168099
_cell_angle_gamma   66.32104197
_symmetry_Int_Tables_number   1
_chemical_formula_structural   Y2Ga9TcRu4
_chemical_formula_sum   'Y2 Ga9 Tc1 Ru4'
_cell_volume   260.06917825
_cell_formula_units_Z   1
loop_
 _symmetry_equiv_pos_site_id
 _symmetry_equiv_pos_as_xyz
  1  'x, y, z'
loop_
 _atom_site_type_symbol
 _atom_site_label
 _atom_site_symmetry_multiplicity
 _atom_site_fract_x
 _atom_site_fract_y
 _atom_site_fract_z
 _atom_site_occupancy
  Y  Y0  1  0.000232  0.500232  0.500000  1
  Y  Y1  1  0.500232  0.000232  0.500000  1
  Ga  Ga2  1  0.438309  0.858027  0.000000  1
  Ga  Ga3  1  0.141805  0.141805  0.581657  1
  Ga  Ga4  1  0.858027  0.438309  0.000000  1
  Ga  Ga5  1  0.858027  0.858027  0.419717  1
  Ga  Ga6  1  0.560147  0.141805  0.000000  1
  Ga  Ga7  1  0.141805  0.560147  0.000000  1
  Ga  Ga8  1  0.560147  0.560147  0.418343  1
  Ga  Ga9  1  0.000463  0.000463  0.000000  1
  Ga  Ga10  1  0.438309  0.438309  0.580283  1
  Tc  Tc11  1  0.181994  0.181994  0.000000  1
  Ru  Ru12  1  0.819284  0.819284  0.000000  1
  Ru  Ru13  1  0.250430  0.750430  0.500000  1
  Ru  Ru14  1  0.750430  0.250430  0.500000  1
  Ru  Ru15  1  0.500360  0.500360  0.000000  1
