# generated using pymatgen
data_RbGdTe3O8
_symmetry_space_group_name_H-M   'P 1'
_cell_length_a   6.14383082
_cell_length_b   7.84485398
_cell_length_c   11.67087700
_cell_angle_alpha   101.15378325
_cell_angle_beta   89.30238561
_cell_angle_gamma   108.79485259
_symmetry_Int_Tables_number   1
_chemical_formula_structural   RbGdTe3O8
_chemical_formula_sum   'Rb2 Gd2 Te6 O16'
_cell_volume   521.69227070
_cell_formula_units_Z   2
loop_
 _symmetry_equiv_pos_site_id
 _symmetry_equiv_pos_as_xyz
  1  'x, y, z'
loop_
 _atom_site_type_symbol
 _atom_site_label
 _atom_site_symmetry_multiplicity
 _atom_site_fract_x
 _atom_site_fract_y
 _atom_site_fract_z
 _atom_site_occupancy
  Rb  Rb0  1  0.842334  0.121265  0.169544  1
  Rb  Rb1  1  0.157666  0.878735  0.830456  1
  Gd  Gd2  1  0.500000  0.500000  0.000000  1
  Gd  Gd3  1  0.000000  0.500000  0.500000  1
  Te  Te4  1  0.214104  0.995097  0.419913  1
  Te  Te5  1  0.785896  0.004903  0.580087  1
  Te  Te6  1  0.073783  0.689081  0.152211  1
  Te  Te7  1  0.926217  0.310919  0.847789  1
  Te  Te8  1  0.511976  0.521251  0.335974  1
  Te  Te9  1  0.488024  0.478749  0.664026  1
  O  O10  1  0.185834  0.747829  0.419791  1
  O  O11  1  0.814166  0.252171  0.580209  1
  O  O12  1  0.230668  0.938867  0.235566  1
  O  O13  1  0.769332  0.061133  0.764434  1
  O  O14  1  0.893423  0.968049  0.398419  1
  O  O15  1  0.106577  0.031951  0.601581  1
  O  O16  1  0.266064  0.688927  0.024745  1
  O  O17  1  0.733936  0.311073  0.975255  1
  O  O18  1  0.831035  0.738251  0.082386  1
  O  O19  1  0.168965  0.261749  0.917614  1
  O  O20  1  0.395416  0.434298  0.178736  1
  O  O21  1  0.604584  0.565702  0.821264  1
  O  O22  1  0.260298  0.368321  0.406155  1
  O  O23  1  0.739702  0.631679  0.593845  1
  O  O24  1  0.728588  0.396730  0.340347  1
  O  O25  1  0.271412  0.603270  0.659653  1
