# generated using pymatgen
data_LiTb4Y12Cd3Pt4
_symmetry_space_group_name_H-M   'P 1'
_cell_length_a   9.72210303
_cell_length_b   9.72210298
_cell_length_c   9.72210336
_cell_angle_alpha   59.92502239
_cell_angle_beta   59.92502098
_cell_angle_gamma   59.92501854
_symmetry_Int_Tables_number   1
_chemical_formula_structural   LiTb4Y12Cd3Pt4
_chemical_formula_sum   'Li1 Tb4 Y12 Cd3 Pt4'
_cell_volume   648.67387655
_cell_formula_units_Z   1
loop_
 _symmetry_equiv_pos_site_id
 _symmetry_equiv_pos_as_xyz
  1  'x, y, z'
loop_
 _atom_site_type_symbol
 _atom_site_label
 _atom_site_symmetry_multiplicity
 _atom_site_fract_x
 _atom_site_fract_y
 _atom_site_fract_z
 _atom_site_occupancy
  Li  Li0  1  0.571497  0.571497  0.571497  1
  Tb  Tb1  1  0.351241  0.351241  0.351241  1
  Tb  Tb2  1  0.352506  0.352506  0.943957  1
  Tb  Tb3  1  0.352506  0.943957  0.352506  1
  Tb  Tb4  1  0.943957  0.352506  0.352506  1
  Y  Y5  1  0.809975  0.191920  0.191920  1
  Y  Y6  1  0.188095  0.812471  0.812471  1
  Y  Y7  1  0.191920  0.809975  0.191920  1
  Y  Y8  1  0.812471  0.188095  0.812471  1
  Y  Y9  1  0.191920  0.191920  0.809975  1
  Y  Y10  1  0.812471  0.812471  0.188095  1
  Y  Y11  1  0.936995  0.564688  0.564688  1
  Y  Y12  1  0.563490  0.936510  0.936510  1
  Y  Y13  1  0.564688  0.936995  0.564688  1
  Y  Y14  1  0.936510  0.563490  0.936510  1
  Y  Y15  1  0.564688  0.564688  0.936995  1
  Y  Y16  1  0.936510  0.936510  0.563490  1
  Cd  Cd17  1  0.582293  0.582293  0.253304  1
  Cd  Cd18  1  0.582293  0.253304  0.582293  1
  Cd  Cd19  1  0.253304  0.582293  0.582293  1
  Pt  Pt20  1  0.144351  0.144351  0.144351  1
  Pt  Pt21  1  0.143020  0.143020  0.570278  1
  Pt  Pt22  1  0.143020  0.570278  0.143020  1
  Pt  Pt23  1  0.570278  0.143020  0.143020  1
