# generated using pymatgen
data_SmYSc3Si7Pt9
_symmetry_space_group_name_H-M   'P 1'
_cell_length_a   10.06411800
_cell_length_b   10.06411813
_cell_length_c   3.99348300
_cell_angle_alpha   90.00000000
_cell_angle_beta   90.00000000
_cell_angle_gamma   119.99999959
_symmetry_Int_Tables_number   1
_chemical_formula_structural   SmYSc3Si7Pt9
_chemical_formula_sum   'Sm1 Y1 Sc3 Si7 Pt9'
_cell_volume   350.29498458
_cell_formula_units_Z   1
loop_
 _symmetry_equiv_pos_site_id
 _symmetry_equiv_pos_as_xyz
  1  'x, y, z'
loop_
 _atom_site_type_symbol
 _atom_site_label
 _atom_site_symmetry_multiplicity
 _atom_site_fract_x
 _atom_site_fract_y
 _atom_site_fract_z
 _atom_site_occupancy
  Sm  Sm0  1  0.000000  0.000000  0.000000  1
  Y  Y1  1  0.333333  0.666667  0.500000  1
  Sc  Sc2  1  0.894762  0.455342  0.500000  1
  Sc  Sc3  1  0.560581  0.105238  0.500000  1
  Sc  Sc4  1  0.544658  0.439419  0.500000  1
  Si  Si5  1  0.247369  0.196309  0.500000  1
  Si  Si6  1  0.803691  0.051061  0.500000  1
  Si  Si7  1  0.948939  0.752631  0.500000  1
  Si  Si8  1  0.556937  0.647355  0.000000  1
  Si  Si9  1  0.352645  0.909581  0.000000  1
  Si  Si10  1  0.090419  0.443063  0.000000  1
  Si  Si11  1  0.666667  0.333333  0.000000  1
  Pt  Pt12  1  0.220192  0.935835  0.500000  1
  Pt  Pt13  1  0.064165  0.284358  0.500000  1
  Pt  Pt14  1  0.715642  0.779808  0.500000  1
  Pt  Pt15  1  0.314202  0.412907  0.000000  1
  Pt  Pt16  1  0.587093  0.901295  0.000000  1
  Pt  Pt17  1  0.098705  0.685798  0.000000  1
  Pt  Pt18  1  0.384395  0.171672  0.000000  1
  Pt  Pt19  1  0.828328  0.212723  0.000000  1
  Pt  Pt20  1  0.787277  0.615605  0.000000  1
