# generated using pymatgen
data_MnAl(GaRh2)2
_symmetry_space_group_name_H-M   'P 1'
_cell_length_a   4.30172500
_cell_length_b   6.03317400
_cell_length_c   12.89763101
_cell_angle_alpha   90.00001956
_cell_angle_beta   89.99905745
_cell_angle_gamma   89.99789584
_symmetry_Int_Tables_number   1
_chemical_formula_structural   MnAl(GaRh2)2
_chemical_formula_sum   'Mn3 Al3 Ga6 Rh12'
_cell_volume   334.73293239
_cell_formula_units_Z   3
loop_
 _symmetry_equiv_pos_site_id
 _symmetry_equiv_pos_as_xyz
  1  'x, y, z'
loop_
 _atom_site_type_symbol
 _atom_site_label
 _atom_site_symmetry_multiplicity
 _atom_site_fract_x
 _atom_site_fract_y
 _atom_site_fract_z
 _atom_site_occupancy
  Mn  Mn0  1  0.500031  0.500225  0.499355  1
  Mn  Mn1  1  0.999691  0.000154  0.666682  1
  Mn  Mn2  1  0.500129  0.499905  0.834157  1
  Al  Al3  1  0.999995  0.999993  0.000282  1
  Al  Al4  1  0.500011  0.499988  0.166653  1
  Al  Al5  1  0.000030  0.999969  0.333043  1
  Ga  Ga6  1  0.999938  0.499946  0.997311  1
  Ga  Ga7  1  0.500016  0.999993  0.166672  1
  Ga  Ga8  1  0.000066  0.499910  0.335957  1
  Ga  Ga9  1  0.499904  0.999947  0.503711  1
  Ga  Ga10  1  0.000007  0.499983  0.666635  1
  Ga  Ga11  1  0.500050  0.000080  0.829590  1
  Rh  Rh12  1  0.499976  0.247665  0.003864  1
  Rh  Rh13  1  0.499986  0.752303  0.003864  1
  Rh  Rh14  1  0.999998  0.250944  0.166666  1
  Rh  Rh15  1  0.999992  0.748983  0.166667  1
  Rh  Rh16  1  0.500017  0.247693  0.329486  1
  Rh  Rh17  1  0.500033  0.752251  0.329474  1
  Rh  Rh18  1  0.000062  0.246668  0.495813  1
  Rh  Rh19  1  0.999994  0.753311  0.495812  1
  Rh  Rh20  1  0.499867  0.251904  0.666652  1
  Rh  Rh21  1  0.500066  0.748146  0.666696  1
  Rh  Rh22  1  0.000104  0.246701  0.837478  1
  Rh  Rh23  1  0.000035  0.753335  0.837477  1
