# generated using pymatgen
data_ZrSc3(GaFe3)2
_symmetry_space_group_name_H-M   'P 1'
_cell_length_a   5.01686800
_cell_length_b   5.01686788
_cell_length_c   8.11716700
_cell_angle_alpha   90.00000000
_cell_angle_beta   90.00000000
_cell_angle_gamma   120.00000077
_symmetry_Int_Tables_number   1
_chemical_formula_structural   ZrSc3(GaFe3)2
_chemical_formula_sum   'Zr1 Sc3 Ga2 Fe6'
_cell_volume   176.92958057
_cell_formula_units_Z   1
loop_
 _symmetry_equiv_pos_site_id
 _symmetry_equiv_pos_as_xyz
  1  'x, y, z'
loop_
 _atom_site_type_symbol
 _atom_site_label
 _atom_site_symmetry_multiplicity
 _atom_site_fract_x
 _atom_site_fract_y
 _atom_site_fract_z
 _atom_site_occupancy
  Zr  Zr0  1  0.333333  0.666667  0.067845  1
  Sc  Sc1  1  0.333333  0.666667  0.437173  1
  Sc  Sc2  1  0.666667  0.333333  0.565213  1
  Sc  Sc3  1  0.666667  0.333333  0.932346  1
  Ga  Ga4  1  0.000000  0.000000  0.499515  1
  Ga  Ga5  1  0.000000  0.000000  0.999317  1
  Fe  Fe6  1  0.826248  0.173752  0.248975  1
  Fe  Fe7  1  0.826248  0.652497  0.248975  1
  Fe  Fe8  1  0.347503  0.173752  0.248975  1
  Fe  Fe9  1  0.173898  0.826102  0.750556  1
  Fe  Fe10  1  0.173898  0.347796  0.750556  1
  Fe  Fe11  1  0.652204  0.826102  0.750556  1
