# generated using pymatgen
data_Tb5Th9OsRu5
_symmetry_space_group_name_H-M   'P 1'
_cell_length_a   9.80153809
_cell_length_b   9.94161807
_cell_length_c   6.36855513
_cell_angle_alpha   89.97321414
_cell_angle_beta   90.20331084
_cell_angle_gamma   120.46542016
_symmetry_Int_Tables_number   1
_chemical_formula_structural   Tb5Th9OsRu5
_chemical_formula_sum   'Tb5 Th9 Os1 Ru5'
_cell_volume   534.88897219
_cell_formula_units_Z   1
loop_
 _symmetry_equiv_pos_site_id
 _symmetry_equiv_pos_as_xyz
  1  'x, y, z'
loop_
 _atom_site_type_symbol
 _atom_site_label
 _atom_site_symmetry_multiplicity
 _atom_site_fract_x
 _atom_site_fract_y
 _atom_site_fract_z
 _atom_site_occupancy
  Tb  Tb0  1  0.462044  0.537757  0.297333  1
  Tb  Tb1  1  0.072661  0.535674  0.300447  1
  Tb  Tb2  1  0.923710  0.459682  0.798953  1
  Tb  Tb3  1  0.250627  0.125021  0.508906  1
  Tb  Tb4  1  0.540800  0.077987  0.794358  1
  Th  Th5  1  0.748795  0.877001  0.012266  1
  Th  Th6  1  0.665637  0.332216  0.271590  1
  Th  Th7  1  0.128515  0.873767  0.004737  1
  Th  Th8  1  0.459571  0.922615  0.301709  1
  Th  Th9  1  0.534773  0.460201  0.797024  1
  Th  Th10  1  0.879581  0.131736  0.512810  1
  Th  Th11  1  0.125419  0.250416  0.011651  1
  Th  Th12  1  0.875655  0.747297  0.508036  1
  Th  Th13  1  0.332937  0.666624  0.770939  1
  Os  Os14  1  0.810033  0.628631  0.048029  1
  Ru  Ru15  1  0.819128  0.180423  0.052731  1
  Ru  Ru16  1  0.632981  0.821075  0.542805  1
  Ru  Ru17  1  0.370383  0.189620  0.040467  1
  Ru  Ru18  1  0.182564  0.374237  0.560825  1
  Ru  Ru19  1  0.184187  0.808020  0.548378  1
