# generated using pymatgen
data_DyLu11In2Tc3
_symmetry_space_group_name_H-M   'P 1'
_cell_length_a   8.31664174
_cell_length_b   8.31664173
_cell_length_c   8.32163887
_cell_angle_alpha   108.80622183
_cell_angle_beta   108.80623069
_cell_angle_gamma   110.78581340
_symmetry_Int_Tables_number   1
_chemical_formula_structural   DyLu11In2Tc3
_chemical_formula_sum   'Dy1 Lu11 In2 Tc3'
_cell_volume   443.03201627
_cell_formula_units_Z   1
loop_
 _symmetry_equiv_pos_site_id
 _symmetry_equiv_pos_as_xyz
  1  'x, y, z'
loop_
 _atom_site_type_symbol
 _atom_site_label
 _atom_site_symmetry_multiplicity
 _atom_site_fract_x
 _atom_site_fract_y
 _atom_site_fract_z
 _atom_site_occupancy
  Dy  Dy0  1  0.304569  0.304569  0.609138  1
  Lu  Lu1  1  0.694774  0.694774  0.389546  1
  Lu  Lu2  1  0.695060  0.305200  0.000260  1
  Lu  Lu3  1  0.305200  0.695060  0.000260  1
  Lu  Lu4  1  0.189659  0.428792  0.238653  1
  Lu  Lu5  1  0.810955  0.571554  0.761216  1
  Lu  Lu6  1  0.189662  0.950260  0.761216  1
  Lu  Lu7  1  0.950260  0.189662  0.761216  1
  Lu  Lu8  1  0.809861  0.048994  0.238653  1
  Lu  Lu9  1  0.048994  0.809861  0.238653  1
  Lu  Lu10  1  0.428792  0.189659  0.238653  1
  Lu  Lu11  1  0.571554  0.810955  0.761216  1
  In  In12  1  0.000010  0.499989  0.500000  1
  In  In13  1  0.499989  0.000010  0.500000  1
  Tc  Tc14  1  0.370746  0.370746  0.000591  1
  Tc  Tc15  1  0.629845  0.629845  0.000591  1
  Tc  Tc16  1  0.000070  0.000070  0.000139  1
