# generated using pymatgen
data_Ba6Ga6Si5Ge
_symmetry_space_group_name_H-M   'P 1'
_cell_length_a   4.33926800
_cell_length_b   4.33926736
_cell_length_c   30.69319400
_cell_angle_alpha   90.00000000
_cell_angle_beta   90.00000000
_cell_angle_gamma   120.00002016
_symmetry_Int_Tables_number   1
_chemical_formula_structural   Ba6Ga6Si5Ge
_chemical_formula_sum   'Ba6 Ga6 Si5 Ge1'
_cell_volume   500.50164668
_cell_formula_units_Z   1
loop_
 _symmetry_equiv_pos_site_id
 _symmetry_equiv_pos_as_xyz
  1  'x, y, z'
loop_
 _atom_site_type_symbol
 _atom_site_label
 _atom_site_symmetry_multiplicity
 _atom_site_fract_x
 _atom_site_fract_y
 _atom_site_fract_z
 _atom_site_occupancy
  Ba  Ba0  1  0.000000  0.000000  0.332716  1
  Ba  Ba1  1  0.000000  0.000000  0.833456  1
  Ba  Ba2  1  0.000000  0.000000  0.166880  1
  Ba  Ba3  1  0.000000  0.000000  0.000143  1
  Ba  Ba4  1  0.000000  0.000000  0.667797  1
  Ba  Ba5  1  0.000000  0.000000  0.498937  1
  Ga  Ga6  1  0.333333  0.666667  0.413499  1
  Ga  Ga7  1  0.333333  0.666667  0.250269  1
  Ga  Ga8  1  0.333333  0.666667  0.084535  1
  Ga  Ga9  1  0.666667  0.333333  0.916225  1
  Ga  Ga10  1  0.666667  0.333333  0.748749  1
  Ga  Ga11  1  0.666667  0.333333  0.589677  1
  Si  Si12  1  0.333333  0.666667  0.916793  1
  Si  Si13  1  0.333333  0.666667  0.751884  1
  Si  Si14  1  0.666667  0.333333  0.249468  1
  Si  Si15  1  0.666667  0.333333  0.083223  1
  Si  Si16  1  0.666667  0.333333  0.417270  1
  Ge  Ge17  1  0.333333  0.666667  0.578476  1
