# generated using pymatgen
data_Tb2Pr2P7Ir8
_symmetry_space_group_name_H-M   'P 1'
_cell_length_a   3.94861900
_cell_length_b   12.79571415
_cell_length_c   13.17167800
_cell_angle_alpha   80.86234287
_cell_angle_beta   90.00000000
_cell_angle_gamma   90.00000000
_symmetry_Int_Tables_number   1
_chemical_formula_structural   Tb2Pr2P7Ir8
_chemical_formula_sum   'Tb4 Pr4 P14 Ir16'
_cell_volume   657.05881421
_cell_formula_units_Z   2
loop_
 _symmetry_equiv_pos_site_id
 _symmetry_equiv_pos_as_xyz
  1  'x, y, z'
loop_
 _atom_site_type_symbol
 _atom_site_label
 _atom_site_symmetry_multiplicity
 _atom_site_fract_x
 _atom_site_fract_y
 _atom_site_fract_z
 _atom_site_occupancy
  Tb  Tb0  1  0.750000  0.791505  0.559953  1
  Tb  Tb1  1  0.250000  0.208495  0.440047  1
  Tb  Tb2  1  0.750000  0.479984  0.705614  1
  Tb  Tb3  1  0.250000  0.520016  0.294386  1
  Pr  Pr4  1  0.750000  0.720162  0.898334  1
  Pr  Pr5  1  0.250000  0.105665  0.787008  1
  Pr  Pr6  1  0.750000  0.894335  0.212992  1
  Pr  Pr7  1  0.250000  0.279838  0.101666  1
  P  P8  1  0.250000  0.907446  0.411607  1
  P  P9  1  0.750000  0.472532  0.129705  1
  P  P10  1  0.250000  0.527468  0.870295  1
  P  P11  1  0.750000  0.092554  0.588393  1
  P  P12  1  0.250000  0.742184  0.082993  1
  P  P13  1  0.750000  0.257816  0.917007  1
  P  P14  1  0.750000  0.158312  0.283934  1
  P  P15  1  0.250000  0.841688  0.716066  1
  P  P16  1  0.250000  0.051396  0.100154  1
  P  P17  1  0.750000  0.948604  0.899846  1
  P  P18  1  0.250000  0.316441  0.686865  1
  P  P19  1  0.750000  0.683559  0.313135  1
  P  P20  1  0.250000  0.607634  0.565666  1
  P  P21  1  0.750000  0.392366  0.434334  1
  Ir  Ir22  1  0.250000  0.990007  0.575947  1
  Ir  Ir23  1  0.750000  0.009993  0.424053  1
  Ir  Ir24  1  0.250000  0.660910  0.728031  1
  Ir  Ir25  1  0.750000  0.339090  0.271969  1
  Ir  Ir26  1  0.250000  0.549791  0.049852  1
  Ir  Ir27  1  0.750000  0.450209  0.950148  1
  Ir  Ir28  1  0.250000  0.063948  0.273369  1
  Ir  Ir29  1  0.750000  0.936052  0.726631  1
  Ir  Ir30  1  0.250000  0.422613  0.523718  1
  Ir  Ir31  1  0.750000  0.577387  0.476282  1
  Ir  Ir32  1  0.250000  0.914607  0.997906  1
  Ir  Ir33  1  0.750000  0.085393  0.002094  1
  Ir  Ir34  1  0.250000  0.728672  0.396354  1
  Ir  Ir35  1  0.750000  0.271328  0.603646  1
  Ir  Ir36  1  0.250000  0.343477  0.856020  1
  Ir  Ir37  1  0.750000  0.656523  0.143980  1
