# generated using pymatgen
data_Dy17Tm3Si15Ag
_symmetry_space_group_name_H-M   'P 1'
_cell_length_a   7.43037910
_cell_length_b   7.67236893
_cell_length_c   14.62622612
_cell_angle_alpha   89.82944664
_cell_angle_beta   89.44933336
_cell_angle_gamma   90.16035922
_symmetry_Int_Tables_number   1
_chemical_formula_structural   Dy17Tm3Si15Ag
_chemical_formula_sum   'Dy17 Tm3 Si15 Ag1'
_cell_volume   833.77528087
_cell_formula_units_Z   1
loop_
 _symmetry_equiv_pos_site_id
 _symmetry_equiv_pos_as_xyz
  1  'x, y, z'
loop_
 _atom_site_type_symbol
 _atom_site_label
 _atom_site_symmetry_multiplicity
 _atom_site_fract_x
 _atom_site_fract_y
 _atom_site_fract_z
 _atom_site_occupancy
  Dy  Dy0  1  0.350010  0.011561  0.749973  1
  Dy  Dy1  1  0.975647  0.822637  0.101458  1
  Dy  Dy2  1  0.471468  0.683682  0.401050  1
  Dy  Dy3  1  0.521159  0.315399  0.898828  1
  Dy  Dy4  1  0.029695  0.182510  0.598539  1
  Dy  Dy5  1  0.029596  0.176761  0.899813  1
  Dy  Dy6  1  0.529755  0.316519  0.598381  1
  Dy  Dy7  1  0.473550  0.682656  0.100877  1
  Dy  Dy8  1  0.969513  0.816845  0.399959  1
  Dy  Dy9  1  0.675973  0.824997  0.876175  1
  Dy  Dy10  1  0.181330  0.680023  0.621700  1
  Dy  Dy11  1  0.820463  0.324149  0.124268  1
  Dy  Dy12  1  0.317795  0.178205  0.377108  1
  Dy  Dy13  1  0.322806  0.178704  0.123768  1
  Dy  Dy14  1  0.819406  0.320646  0.377218  1
  Dy  Dy15  1  0.181655  0.675607  0.877807  1
  Dy  Dy16  1  0.681878  0.820909  0.622290  1
  Tm  Tm17  1  0.648608  0.990753  0.249984  1
  Tm  Tm18  1  0.150441  0.511428  0.248280  1
  Tm  Tm19  1  0.848406  0.488456  0.749433  1
  Si  Si20  1  0.766751  0.629598  0.251582  1
  Si  Si21  1  0.267384  0.871887  0.251213  1
  Si  Si22  1  0.734382  0.126977  0.748733  1
  Si  Si23  1  0.230454  0.373726  0.747614  1
  Si  Si24  1  0.020745  0.104402  0.250417  1
  Si  Si25  1  0.522436  0.396388  0.252073  1
  Si  Si26  1  0.476468  0.603677  0.748172  1
  Si  Si27  1  0.977142  0.892848  0.748575  1
  Si  Si28  1  0.354559  0.971553  0.540112  1
  Si  Si29  1  0.650132  0.028531  0.041784  1
  Si  Si30  1  0.146696  0.470598  0.459786  1
  Si  Si31  1  0.158079  0.471319  0.042956  1
  Si  Si32  1  0.645622  0.028428  0.458978  1
  Si  Si33  1  0.351438  0.969305  0.961282  1
  Si  Si34  1  0.855021  0.529447  0.539423  1
  Ag  Ag35  1  0.843535  0.528865  0.960390  1
