# generated using pymatgen
data_Dy2Pa(Co3P2)3
_symmetry_space_group_name_H-M   'P 1'
_cell_length_a   3.71011300
_cell_length_b   10.51748600
_cell_length_c   12.13947400
_cell_angle_alpha   90.00000000
_cell_angle_beta   90.00000000
_cell_angle_gamma   90.00000000
_symmetry_Int_Tables_number   1
_chemical_formula_structural   Dy2Pa(Co3P2)3
_chemical_formula_sum   'Dy4 Pa2 Co18 P12'
_cell_volume   473.69516197
_cell_formula_units_Z   2
loop_
 _symmetry_equiv_pos_site_id
 _symmetry_equiv_pos_as_xyz
  1  'x, y, z'
loop_
 _atom_site_type_symbol
 _atom_site_label
 _atom_site_symmetry_multiplicity
 _atom_site_fract_x
 _atom_site_fract_y
 _atom_site_fract_z
 _atom_site_occupancy
  Dy  Dy0  1  0.500000  0.815251  0.205015  1
  Dy  Dy1  1  0.500000  0.184749  0.205015  1
  Dy  Dy2  1  0.000000  0.684749  0.794985  1
  Dy  Dy3  1  0.000000  0.315251  0.794985  1
  Pa  Pa4  1  0.000000  0.500000  0.529006  1
  Pa  Pa5  1  0.500000  0.000000  0.470994  1
  Co  Co6  1  0.500000  0.500000  0.158647  1
  Co  Co7  1  0.000000  0.000000  0.841353  1
  Co  Co8  1  0.500000  0.500000  0.696499  1
  Co  Co9  1  0.000000  0.000000  0.303501  1
  Co  Co10  1  0.000000  0.500000  0.985046  1
  Co  Co11  1  0.500000  0.000000  0.014954  1
  Co  Co12  1  0.500000  0.334029  0.994001  1
  Co  Co13  1  0.500000  0.665971  0.994001  1
  Co  Co14  1  0.000000  0.165971  0.005999  1
  Co  Co15  1  0.000000  0.834029  0.005999  1
  Co  Co16  1  0.500000  0.301438  0.431641  1
  Co  Co17  1  0.500000  0.698562  0.431641  1
  Co  Co18  1  0.000000  0.198562  0.568359  1
  Co  Co19  1  0.000000  0.801438  0.568359  1
  Co  Co20  1  0.500000  0.880292  0.710409  1
  Co  Co21  1  0.500000  0.119708  0.710409  1
  Co  Co22  1  0.000000  0.619708  0.289591  1
  Co  Co23  1  0.000000  0.380292  0.289591  1
  P  P24  1  0.500000  0.500000  0.879423  1
  P  P25  1  0.000000  0.000000  0.120577  1
  P  P26  1  0.500000  0.500000  0.343602  1
  P  P27  1  0.000000  0.000000  0.656398  1
  P  P28  1  0.500000  0.306787  0.617019  1
  P  P29  1  0.500000  0.693213  0.617019  1
  P  P30  1  0.000000  0.193213  0.382981  1
  P  P31  1  0.000000  0.806787  0.382981  1
  P  P32  1  0.500000  0.847395  0.894537  1
  P  P33  1  0.500000  0.152605  0.894537  1
  P  P34  1  0.000000  0.652605  0.105463  1
  P  P35  1  0.000000  0.347395  0.105463  1
