# generated using pymatgen
data_Hf5ScSi6OsRu5
_symmetry_space_group_name_H-M   'P 1'
_cell_length_a   7.62208221
_cell_length_b   7.61214642
_cell_length_c   7.60775391
_cell_angle_alpha   127.67626843
_cell_angle_beta   122.52521693
_cell_angle_gamma   81.31081783
_symmetry_Int_Tables_number   1
_chemical_formula_structural   Hf5ScSi6OsRu5
_chemical_formula_sum   'Hf5 Sc1 Si6 Os1 Ru5'
_cell_volume   283.94913296
_cell_formula_units_Z   1
loop_
 _symmetry_equiv_pos_site_id
 _symmetry_equiv_pos_as_xyz
  1  'x, y, z'
loop_
 _atom_site_type_symbol
 _atom_site_label
 _atom_site_symmetry_multiplicity
 _atom_site_fract_x
 _atom_site_fract_y
 _atom_site_fract_z
 _atom_site_occupancy
  Hf  Hf0  1  0.532318  0.258192  0.224660  1
  Hf  Hf1  1  0.747080  0.834252  0.586346  1
  Hf  Hf2  1  0.253130  0.838421  0.085930  1
  Hf  Hf3  1  0.053267  0.257317  0.704477  1
  Hf  Hf4  1  0.946320  0.650168  0.203177  1
  Sc  Sc5  1  0.467702  0.692429  0.725589  1
  Si  Si6  1  0.272595  0.269800  0.496641  1
  Si  Si7  1  0.727555  0.222419  0.995978  1
  Si  Si8  1  0.327752  0.588082  0.252290  1
  Si  Si9  1  0.672430  0.922419  0.257995  1
  Si  Si10  1  0.163425  0.922113  0.749184  1
  Si  Si11  1  0.836217  0.587938  0.760123  1
  Os  Os12  1  0.500345  0.500254  0.001957  1
  Ru  Ru13  1  0.998774  0.499463  0.499580  1
  Ru  Ru14  1  0.098088  0.252552  0.103058  1
  Ru  Ru15  1  0.903105  0.006435  0.156281  1
  Ru  Ru16  1  0.350525  0.005705  0.602726  1
  Ru  Ru17  1  0.649374  0.251642  0.653609  1
