# generated using pymatgen
data_Gd3CdIn2Rh3
_symmetry_space_group_name_H-M   'P 1'
_cell_length_a   7.45847900
_cell_length_b   7.45847846
_cell_length_c   3.98812600
_cell_angle_alpha   90.00000000
_cell_angle_beta   90.00000000
_cell_angle_gamma   119.43266478
_symmetry_Int_Tables_number   1
_chemical_formula_structural   Gd3CdIn2Rh3
_chemical_formula_sum   'Gd3 Cd1 In2 Rh3'
_cell_volume   193.22109020
_cell_formula_units_Z   1
loop_
 _symmetry_equiv_pos_site_id
 _symmetry_equiv_pos_as_xyz
  1  'x, y, z'
loop_
 _atom_site_type_symbol
 _atom_site_label
 _atom_site_symmetry_multiplicity
 _atom_site_fract_x
 _atom_site_fract_y
 _atom_site_fract_z
 _atom_site_occupancy
  Gd  Gd0  1  0.999631  0.592339  0.500000  1
  Gd  Gd1  1  0.408162  0.408162  0.500000  1
  Gd  Gd2  1  0.592339  0.999631  0.500000  1
  Cd  Cd3  1  0.746327  0.746327  0.000000  1
  In  In4  1  0.998452  0.254822  0.000000  1
  In  In5  1  0.254822  0.998452  0.000000  1
  Rh  Rh6  1  0.327018  0.662554  0.000000  1
  Rh  Rh7  1  0.010697  0.010697  0.500000  1
  Rh  Rh8  1  0.662554  0.327018  0.000000  1
