# generated using pymatgen
data_Be2V3SiOs6
_symmetry_space_group_name_H-M   'P 1'
_cell_length_a   4.18454301
_cell_length_b   5.90374500
_cell_length_c   12.52486702
_cell_angle_alpha   90.00000000
_cell_angle_beta   89.99437973
_cell_angle_gamma   90.00000000
_symmetry_Int_Tables_number   1
_chemical_formula_structural   Be2V3SiOs6
_chemical_formula_sum   'Be4 V6 Si2 Os12'
_cell_volume   309.42026060
_cell_formula_units_Z   2
loop_
 _symmetry_equiv_pos_site_id
 _symmetry_equiv_pos_as_xyz
  1  'x, y, z'
loop_
 _atom_site_type_symbol
 _atom_site_label
 _atom_site_symmetry_multiplicity
 _atom_site_fract_x
 _atom_site_fract_y
 _atom_site_fract_z
 _atom_site_occupancy
  Be  Be0  1  0.999317  0.000000  0.333232  1
  Be  Be1  1  0.499994  0.500000  0.500131  1
  Be  Be2  1  0.000678  0.000000  0.666532  1
  Be  Be3  1  0.500658  0.500000  0.833442  1
  V  V4  1  0.999960  0.500000  0.993062  1
  V  V5  1  0.499447  0.000000  0.173600  1
  V  V6  1  0.999415  0.500000  0.341415  1
  V  V7  1  0.499990  0.000000  0.502835  1
  V  V8  1  0.000556  0.500000  0.663839  1
  V  V9  1  0.500535  0.000000  0.825249  1
  Si  Si10  1  0.999971  0.000000  0.999059  1
  Si  Si11  1  0.499480  0.500000  0.167608  1
  Os  Os12  1  0.499977  0.249909  0.999750  1
  Os  Os13  1  0.499977  0.750089  0.999750  1
  Os  Os14  1  0.999575  0.250021  0.166921  1
  Os  Os15  1  0.999575  0.749979  0.166921  1
  Os  Os16  1  0.499553  0.248778  0.334552  1
  Os  Os17  1  0.499553  0.751222  0.334552  1
  Os  Os18  1  0.000000  0.248241  0.500068  1
  Os  Os19  1  0.000000  0.751758  0.500068  1
  Os  Os20  1  0.500463  0.251723  0.666599  1
  Os  Os21  1  0.500463  0.748277  0.666599  1
  Os  Os22  1  0.000433  0.251172  0.832107  1
  Os  Os23  1  0.000433  0.748828  0.832107  1
