# generated using pymatgen
data_Dy5HoSi5GeRu4
_symmetry_space_group_name_H-M   'P 1'
_cell_length_a   5.75542307
_cell_length_b   5.75542396
_cell_length_c   13.83083315
_cell_angle_alpha   89.98428246
_cell_angle_beta   90.01571704
_cell_angle_gamma   137.40146514
_symmetry_Int_Tables_number   1
_chemical_formula_structural   Dy5HoSi5GeRu4
_chemical_formula_sum   'Dy5 Ho1 Si5 Ge1 Ru4'
_cell_volume   310.09867834
_cell_formula_units_Z   1
loop_
 _symmetry_equiv_pos_site_id
 _symmetry_equiv_pos_as_xyz
  1  'x, y, z'
loop_
 _atom_site_type_symbol
 _atom_site_label
 _atom_site_symmetry_multiplicity
 _atom_site_fract_x
 _atom_site_fract_y
 _atom_site_fract_z
 _atom_site_occupancy
  Dy  Dy0  1  0.075167  0.924833  0.612488  1
  Dy  Dy1  1  0.924391  0.075609  0.115589  1
  Dy  Dy2  1  0.075179  0.924821  0.887451  1
  Dy  Dy3  1  0.642590  0.357410  0.250052  1
  Dy  Dy4  1  0.355762  0.644238  0.749975  1
  Ho  Ho5  1  0.924102  0.075898  0.384617  1
  Si  Si6  1  0.618873  0.381127  0.460762  1
  Si  Si7  1  0.382951  0.617049  0.537504  1
  Si  Si8  1  0.618939  0.381061  0.039258  1
  Si  Si9  1  0.382918  0.617082  0.962392  1
  Si  Si10  1  0.329523  0.670477  0.250165  1
  Ge  Ge11  1  0.664134  0.335866  0.749980  1
  Ru  Ru12  1  0.788685  0.211315  0.922053  1
  Ru  Ru13  1  0.214064  0.785936  0.081253  1
  Ru  Ru14  1  0.788773  0.211227  0.577784  1
  Ru  Ru15  1  0.213949  0.786051  0.418677  1
