# generated using pymatgen
data_TmTa8TlSe16
_symmetry_space_group_name_H-M   'P 1'
_cell_length_a   7.01125400
_cell_length_b   7.01125567
_cell_length_c   15.01713200
_cell_angle_alpha   90.00000000
_cell_angle_beta   90.00000000
_cell_angle_gamma   119.99999214
_symmetry_Int_Tables_number   1
_chemical_formula_structural   TmTa8TlSe16
_chemical_formula_sum   'Tm1 Ta8 Tl1 Se16'
_cell_volume   639.30657217
_cell_formula_units_Z   1
loop_
 _symmetry_equiv_pos_site_id
 _symmetry_equiv_pos_as_xyz
  1  'x, y, z'
loop_
 _atom_site_type_symbol
 _atom_site_label
 _atom_site_symmetry_multiplicity
 _atom_site_fract_x
 _atom_site_fract_y
 _atom_site_fract_z
 _atom_site_occupancy
  Tm  Tm0  1  0.000000  0.000000  0.000000  1
  Ta  Ta1  1  0.000000  0.000000  0.232978  1
  Ta  Ta2  1  0.000000  0.000000  0.767022  1
  Ta  Ta3  1  0.506227  0.493773  0.234467  1
  Ta  Ta4  1  0.506227  0.012453  0.234467  1
  Ta  Ta5  1  0.987547  0.493773  0.234467  1
  Ta  Ta6  1  0.493773  0.506227  0.765533  1
  Ta  Ta7  1  0.493773  0.987547  0.765533  1
  Ta  Ta8  1  0.012453  0.506227  0.765533  1
  Tl  Tl9  1  0.000000  0.000000  0.500000  1
  Se  Se10  1  0.333333  0.666667  0.879381  1
  Se  Se11  1  0.666667  0.333333  0.120619  1
  Se  Se12  1  0.666667  0.333333  0.347470  1
  Se  Se13  1  0.333333  0.666667  0.652530  1
  Se  Se14  1  0.168020  0.831980  0.341615  1
  Se  Se15  1  0.168020  0.336042  0.341615  1
  Se  Se16  1  0.663958  0.831980  0.341615  1
  Se  Se17  1  0.831980  0.168020  0.658385  1
  Se  Se18  1  0.831980  0.663958  0.658385  1
  Se  Se19  1  0.336042  0.168020  0.658385  1
  Se  Se20  1  0.829720  0.170280  0.876002  1
  Se  Se21  1  0.829720  0.659438  0.876002  1
  Se  Se22  1  0.340562  0.170280  0.876002  1
  Se  Se23  1  0.170280  0.829720  0.123998  1
  Se  Se24  1  0.170280  0.340562  0.123998  1
  Se  Se25  1  0.659438  0.829720  0.123998  1
