# generated using pymatgen
data_Ti4Be2B4Ir9Ru
_symmetry_space_group_name_H-M   'P 1'
_cell_length_a   9.19268310
_cell_length_b   9.19268310
_cell_length_c   2.91044800
_cell_angle_alpha   90.00000000
_cell_angle_beta   90.00000000
_cell_angle_gamma   89.48705468
_symmetry_Int_Tables_number   1
_chemical_formula_structural   Ti4Be2B4Ir9Ru
_chemical_formula_sum   'Ti4 Be2 B4 Ir9 Ru1'
_cell_volume   245.93878183
_cell_formula_units_Z   1
loop_
 _symmetry_equiv_pos_site_id
 _symmetry_equiv_pos_as_xyz
  1  'x, y, z'
loop_
 _atom_site_type_symbol
 _atom_site_label
 _atom_site_symmetry_multiplicity
 _atom_site_fract_x
 _atom_site_fract_y
 _atom_site_fract_z
 _atom_site_occupancy
  Ti  Ti0  1  0.327037  0.172963  0.000000  1
  Ti  Ti1  1  0.822021  0.322021  0.000000  1
  Ti  Ti2  1  0.177979  0.677979  0.000000  1
  Ti  Ti3  1  0.672963  0.827037  0.000000  1
  Be  Be4  1  0.000000  0.000000  0.000000  1
  Be  Be5  1  0.500000  0.500000  0.000000  1
  B  B6  1  0.625917  0.125917  0.000000  1
  B  B7  1  0.130509  0.369491  0.000000  1
  B  B8  1  0.869490  0.630509  0.000000  1
  B  B9  1  0.374083  0.874082  0.000000  1
  Ir  Ir10  1  0.792375  0.067893  0.499999  1
  Ir  Ir11  1  0.068312  0.207355  0.499999  1
  Ir  Ir12  1  0.567892  0.292375  0.499999  1
  Ir  Ir13  1  0.292645  0.431689  0.499999  1
  Ir  Ir14  1  0.000000  0.500000  0.499999  1
  Ir  Ir15  1  0.707354  0.568311  0.499999  1
  Ir  Ir16  1  0.432108  0.707624  0.499999  1
  Ir  Ir17  1  0.931688  0.792645  0.499999  1
  Ir  Ir18  1  0.207625  0.932107  0.499999  1
  Ru  Ru19  1  0.500000  0.000000  0.499999  1
