# generated using pymatgen
data_Er12Ni4SnIr
_symmetry_space_group_name_H-M   'P 1'
_cell_length_a   8.23204184
_cell_length_b   8.23204112
_cell_length_c   8.23204243
_cell_angle_alpha   111.54647093
_cell_angle_beta   110.14148680
_cell_angle_gamma   106.76247563
_symmetry_Int_Tables_number   1
_chemical_formula_structural   Er12Ni4SnIr
_chemical_formula_sum   'Er12 Ni4 Sn1 Ir1'
_cell_volume   428.65491081
_cell_formula_units_Z   1
loop_
 _symmetry_equiv_pos_site_id
 _symmetry_equiv_pos_as_xyz
  1  'x, y, z'
loop_
 _atom_site_type_symbol
 _atom_site_label
 _atom_site_symmetry_multiplicity
 _atom_site_fract_x
 _atom_site_fract_y
 _atom_site_fract_z
 _atom_site_occupancy
  Er  Er0  1  0.321286  0.127347  0.806060  1
  Er  Er1  1  0.678714  0.484775  0.806060  1
  Er  Er2  1  0.410177  0.718089  0.692088  1
  Er  Er3  1  0.589823  0.281911  0.307912  1
  Er  Er4  1  0.973998  0.281911  0.692088  1
  Er  Er5  1  0.026002  0.718089  0.307912  1
  Er  Er6  1  0.321286  0.515225  0.193940  1
  Er  Er7  1  0.678714  0.872653  0.193940  1
  Er  Er8  1  0.180610  0.787416  0.968026  1
  Er  Er9  1  0.819390  0.787416  0.606808  1
  Er  Er10  1  0.180610  0.212584  0.393192  1
  Er  Er11  1  0.819390  0.212584  0.031974  1
  Ni  Ni12  1  0.877022  0.877022  0.000000  1
  Ni  Ni13  1  0.122978  0.122978  0.000000  1
  Ni  Ni14  1  0.639314  0.500000  0.139314  1
  Ni  Ni15  1  0.360686  0.500000  0.860686  1
  Sn  Sn16  1  0.500000  0.000000  0.500000  1
  Ir  Ir17  1  0.000000  0.500000  0.500000  1
