# generated using pymatgen
data_CaPr(TaSe2)8
_symmetry_space_group_name_H-M   'P 1'
_cell_length_a   7.01173000
_cell_length_b   7.01172974
_cell_length_c   14.98937300
_cell_angle_alpha   90.00000000
_cell_angle_beta   90.00000000
_cell_angle_gamma   120.00000124
_symmetry_Int_Tables_number   1
_chemical_formula_structural   CaPr(TaSe2)8
_chemical_formula_sum   'Ca1 Pr1 Ta8 Se16'
_cell_volume   638.21123557
_cell_formula_units_Z   1
loop_
 _symmetry_equiv_pos_site_id
 _symmetry_equiv_pos_as_xyz
  1  'x, y, z'
loop_
 _atom_site_type_symbol
 _atom_site_label
 _atom_site_symmetry_multiplicity
 _atom_site_fract_x
 _atom_site_fract_y
 _atom_site_fract_z
 _atom_site_occupancy
  Ca  Ca0  1  0.000000  0.000000  0.000000  1
  Pr  Pr1  1  0.000000  0.000000  0.500000  1
  Ta  Ta2  1  0.507834  0.492139  0.752650  1
  Ta  Ta3  1  0.015590  0.507754  0.247384  1
  Ta  Ta4  1  0.492226  0.984343  0.247365  1
  Ta  Ta5  1  0.507774  0.015657  0.752635  1
  Ta  Ta6  1  0.984410  0.492246  0.752616  1
  Ta  Ta7  1  0.492166  0.507861  0.247350  1
  Ta  Ta8  1  0.000013  0.999992  0.751146  1
  Ta  Ta9  1  0.999987  0.000008  0.248854  1
  Se  Se10  1  0.829678  0.170413  0.357588  1
  Se  Se11  1  0.829675  0.659275  0.357580  1
  Se  Se12  1  0.340669  0.170343  0.357596  1
  Se  Se13  1  0.662086  0.831023  0.861570  1
  Se  Se14  1  0.170325  0.340725  0.642420  1
  Se  Se15  1  0.168929  0.831020  0.861564  1
  Se  Se16  1  0.168958  0.337927  0.861556  1
  Se  Se17  1  0.831071  0.168980  0.138436  1
  Se  Se18  1  0.337914  0.168977  0.138430  1
  Se  Se19  1  0.659331  0.829657  0.642404  1
  Se  Se20  1  0.333325  0.666642  0.131639  1
  Se  Se21  1  0.666676  0.333360  0.637025  1
  Se  Se22  1  0.666675  0.333358  0.868361  1
  Se  Se23  1  0.333324  0.666640  0.362975  1
  Se  Se24  1  0.831042  0.662073  0.138444  1
  Se  Se25  1  0.170322  0.829587  0.642412  1
