# generated using pymatgen
data_LaHf2Zr(Al3Ir)6
_symmetry_space_group_name_H-M   'P 1'
_cell_length_a   7.52145603
_cell_length_b   7.50659977
_cell_length_c   9.34645300
_cell_angle_alpha   90.00000000
_cell_angle_beta   90.00000000
_cell_angle_gamma   119.74536785
_symmetry_Int_Tables_number   1
_chemical_formula_structural   LaHf2Zr(Al3Ir)6
_chemical_formula_sum   'La1 Hf2 Zr1 Al18 Ir6'
_cell_volume   458.17486741
_cell_formula_units_Z   1
loop_
 _symmetry_equiv_pos_site_id
 _symmetry_equiv_pos_as_xyz
  1  'x, y, z'
loop_
 _atom_site_type_symbol
 _atom_site_label
 _atom_site_symmetry_multiplicity
 _atom_site_fract_x
 _atom_site_fract_y
 _atom_site_fract_z
 _atom_site_occupancy
  La  La0  1  0.329971  0.006090  0.750000  1
  Hf  Hf1  1  0.993718  0.671631  0.250000  1
  Hf  Hf2  1  0.672759  0.994999  0.250000  1
  Zr  Zr3  1  0.005187  0.329845  0.750000  1
  Al  Al4  1  0.122190  0.124823  0.250000  1
  Al  Al5  1  0.867775  0.874953  0.750000  1
  Al  Al6  1  0.997164  0.334694  0.078262  1
  Al  Al7  1  0.997647  0.660853  0.930043  1
  Al  Al8  1  0.997647  0.660853  0.569957  1
  Al  Al9  1  0.335126  0.997763  0.415464  1
  Al  Al10  1  0.997164  0.334694  0.421738  1
  Al  Al11  1  0.670054  0.001647  0.570260  1
  Al  Al12  1  0.670054  0.001647  0.929740  1
  Al  Al13  1  0.335126  0.997763  0.084536  1
  Al  Al14  1  0.331340  0.335478  0.549048  1
  Al  Al15  1  0.668331  0.668402  0.437419  1
  Al  Al16  1  0.668331  0.668402  0.062581  1
  Al  Al17  1  0.331340  0.335478  0.950952  1
  Al  Al18  1  0.337968  0.553002  0.250000  1
  Al  Al19  1  0.671253  0.457245  0.750000  1
  Al  Al20  1  0.554432  0.340695  0.250000  1
  Al  Al21  1  0.446851  0.650966  0.750000  1
  Ir  Ir22  1  0.673367  0.328699  0.003432  1
  Ir  Ir23  1  0.328828  0.673535  0.003555  1
  Ir  Ir24  1  0.328828  0.673535  0.496445  1
  Ir  Ir25  1  0.673367  0.328699  0.496568  1
  Ir  Ir26  1  0.997094  0.996802  0.004157  1
  Ir  Ir27  1  0.997094  0.996802  0.495843  1
