# generated using pymatgen
data_Tm8Lu12Si15Ag
_symmetry_space_group_name_H-M   'P 1'
_cell_length_a   7.27914533
_cell_length_b   7.53842198
_cell_length_c   14.36609564
_cell_angle_alpha   89.72728750
_cell_angle_beta   89.23261900
_cell_angle_gamma   90.00484703
_symmetry_Int_Tables_number   1
_chemical_formula_structural   Tm8Lu12Si15Ag
_chemical_formula_sum   'Tm8 Lu12 Si15 Ag1'
_cell_volume   788.23499252
_cell_formula_units_Z   1
loop_
 _symmetry_equiv_pos_site_id
 _symmetry_equiv_pos_as_xyz
  1  'x, y, z'
loop_
 _atom_site_type_symbol
 _atom_site_label
 _atom_site_symmetry_multiplicity
 _atom_site_fract_x
 _atom_site_fract_y
 _atom_site_fract_z
 _atom_site_occupancy
  Tm  Tm0  1  0.016050  0.178257  0.098349  1
  Tm  Tm1  1  0.984168  0.823387  0.903927  1
  Tm  Tm2  1  0.483698  0.679837  0.903964  1
  Tm  Tm3  1  0.988430  0.830469  0.598169  1
  Tm  Tm4  1  0.515008  0.319872  0.096748  1
  Tm  Tm5  1  0.009355  0.171657  0.398455  1
  Tm  Tm6  1  0.513297  0.317673  0.399974  1
  Tm  Tm7  1  0.491731  0.683126  0.599997  1
  Lu  Lu8  1  0.164523  0.509849  0.751440  1
  Lu  Lu9  1  0.836830  0.491541  0.251438  1
  Lu  Lu10  1  0.335560  0.005735  0.249741  1
  Lu  Lu11  1  0.666504  0.990408  0.750331  1
  Lu  Lu12  1  0.341503  0.175324  0.623987  1
  Lu  Lu13  1  0.662187  0.822199  0.376287  1
  Lu  Lu14  1  0.167224  0.674073  0.373469  1
  Lu  Lu15  1  0.670464  0.822661  0.123409  1
  Lu  Lu16  1  0.830294  0.326334  0.623884  1
  Lu  Lu17  1  0.328877  0.178580  0.877708  1
  Lu  Lu18  1  0.828889  0.321295  0.878005  1
  Lu  Lu19  1  0.169586  0.677503  0.123588  1
  Si  Si20  1  0.038066  0.113152  0.751620  1
  Si  Si21  1  0.963417  0.891062  0.248581  1
  Si  Si22  1  0.466129  0.605420  0.248017  1
  Si  Si23  1  0.535695  0.394558  0.751826  1
  Si  Si24  1  0.283506  0.873552  0.751681  1
  Si  Si25  1  0.714966  0.129440  0.247947  1
  Si  Si26  1  0.217355  0.366389  0.247350  1
  Si  Si27  1  0.785108  0.630893  0.753693  1
  Si  Si28  1  0.833287  0.530825  0.458627  1
  Si  Si29  1  0.327645  0.964836  0.460364  1
  Si  Si30  1  0.842460  0.531769  0.039074  1
  Si  Si31  1  0.669125  0.033752  0.538513  1
  Si  Si32  1  0.155263  0.468636  0.962031  1
  Si  Si33  1  0.657430  0.030042  0.960175  1
  Si  Si34  1  0.342021  0.968464  0.039961  1
  Ag  Ag35  1  0.164347  0.467427  0.537670  1
