# generated using pymatgen
data_Nd6BrClO8
_symmetry_space_group_name_H-M   'P 1'
_cell_length_a   6.49644156
_cell_length_b   6.49644148
_cell_length_c   12.22594483
_cell_angle_alpha   88.64180659
_cell_angle_beta   91.35819255
_cell_angle_gamma   142.16415709
_symmetry_Int_Tables_number   1
_chemical_formula_structural   Nd6BrClO8
_chemical_formula_sum   'Nd6 Br1 Cl1 O8'
_cell_volume   316.40386168
_cell_formula_units_Z   1
loop_
 _symmetry_equiv_pos_site_id
 _symmetry_equiv_pos_as_xyz
  1  'x, y, z'
loop_
 _atom_site_type_symbol
 _atom_site_label
 _atom_site_symmetry_multiplicity
 _atom_site_fract_x
 _atom_site_fract_y
 _atom_site_fract_z
 _atom_site_occupancy
  Nd  Nd0  1  0.824024  0.175976  0.400933  1
  Nd  Nd1  1  0.175976  0.824024  0.599067  1
  Nd  Nd2  1  0.180356  0.819644  0.895994  1
  Nd  Nd3  1  0.819644  0.180356  0.104006  1
  Nd  Nd4  1  0.876137  0.123863  0.750860  1
  Nd  Nd5  1  0.123863  0.876137  0.249140  1
  Br  Br6  1  0.500000  0.500000  0.000000  1
  Cl  Cl7  1  0.500000  0.500000  0.500000  1
  O  O8  1  0.298468  0.701532  0.748630  1
  O  O9  1  0.701532  0.298468  0.251370  1
  O  O10  1  0.060405  0.939595  0.747281  1
  O  O11  1  0.939595  0.060405  0.252719  1
  O  O12  1  0.767546  0.232454  0.909976  1
  O  O13  1  0.232454  0.767546  0.090024  1
  O  O14  1  0.234672  0.765328  0.410834  1
  O  O15  1  0.765328  0.234672  0.589166  1
