# generated using pymatgen
data_Lu3GeSe2
_symmetry_space_group_name_H-M   'P 1'
_cell_length_a   7.00328736
_cell_length_b   7.00328823
_cell_length_c   7.00328817
_cell_angle_alpha   146.28132260
_cell_angle_beta   132.19933481
_cell_angle_gamma   59.76915564
_symmetry_Int_Tables_number   1
_chemical_formula_structural   Lu3GeSe2
_chemical_formula_sum   'Lu3 Ge1 Se2'
_cell_volume   139.97343000
_cell_formula_units_Z   1
loop_
 _symmetry_equiv_pos_site_id
 _symmetry_equiv_pos_as_xyz
  1  'x, y, z'
loop_
 _atom_site_type_symbol
 _atom_site_label
 _atom_site_symmetry_multiplicity
 _atom_site_fract_x
 _atom_site_fract_y
 _atom_site_fract_z
 _atom_site_occupancy
  Lu  Lu0  1  0.343765  0.343765  0.000000  1
  Lu  Lu1  1  0.000000  0.000000  0.000000  1
  Lu  Lu2  1  0.656235  0.656235  0.000000  1
  Ge  Ge3  1  0.500000  0.000000  0.500000  1
  Se  Se4  1  0.169099  0.669099  0.500000  1
  Se  Se5  1  0.830901  0.330901  0.500000  1
