# generated using pymatgen
data_Li2Pr3MgCdSi2
_symmetry_space_group_name_H-M   'P 1'
_cell_length_a   7.48987395
_cell_length_b   7.53953791
_cell_length_c   4.43239700
_cell_angle_alpha   90.00000000
_cell_angle_beta   90.00000000
_cell_angle_gamma   120.21959436
_symmetry_Int_Tables_number   1
_chemical_formula_structural   Li2Pr3MgCdSi2
_chemical_formula_sum   'Li2 Pr3 Mg1 Cd1 Si2'
_cell_volume   216.28343835
_cell_formula_units_Z   1
loop_
 _symmetry_equiv_pos_site_id
 _symmetry_equiv_pos_as_xyz
  1  'x, y, z'
loop_
 _atom_site_type_symbol
 _atom_site_label
 _atom_site_symmetry_multiplicity
 _atom_site_fract_x
 _atom_site_fract_y
 _atom_site_fract_z
 _atom_site_occupancy
  Li  Li0  1  0.746751  0.747967  0.000000  1
  Li  Li1  1  0.253249  0.001215  0.000000  1
  Pr  Pr2  1  0.435201  0.431122  0.500000  1
  Pr  Pr3  1  0.564799  0.995920  0.500000  1
  Pr  Pr4  1  0.000000  0.574772  0.500000  1
  Mg  Mg5  1  0.000000  0.253340  0.000000  1
  Cd  Cd6  1  0.000000  0.997405  0.500000  1
  Si  Si7  1  0.668337  0.333296  0.000000  1
  Si  Si8  1  0.331663  0.664961  0.000000  1
