# generated using pymatgen
data_Dy11Y(TcRh)2
_symmetry_space_group_name_H-M   'P 1'
_cell_length_a   6.31746038
_cell_length_b   7.31735475
_cell_length_c   9.24307100
_cell_angle_alpha   90.00000000
_cell_angle_beta   90.00000000
_cell_angle_gamma   89.90060954
_symmetry_Int_Tables_number   1
_chemical_formula_structural   Dy11Y(TcRh)2
_chemical_formula_sum   'Dy11 Y1 Tc2 Rh2'
_cell_volume   427.27971260
_cell_formula_units_Z   1
loop_
 _symmetry_equiv_pos_site_id
 _symmetry_equiv_pos_as_xyz
  1  'x, y, z'
loop_
 _atom_site_type_symbol
 _atom_site_label
 _atom_site_symmetry_multiplicity
 _atom_site_fract_x
 _atom_site_fract_y
 _atom_site_fract_z
 _atom_site_occupancy
  Dy  Dy0  1  0.327950  0.678359  0.067905  1
  Dy  Dy1  1  0.172229  0.178077  0.432162  1
  Dy  Dy2  1  0.665793  0.322363  0.560234  1
  Dy  Dy3  1  0.834049  0.822658  0.939933  1
  Dy  Dy4  1  0.665793  0.322363  0.939766  1
  Dy  Dy5  1  0.834049  0.822658  0.560067  1
  Dy  Dy6  1  0.327950  0.678359  0.432095  1
  Dy  Dy7  1  0.172229  0.178077  0.067838  1
  Dy  Dy8  1  0.870746  0.537700  0.250000  1
  Dy  Dy9  1  0.629482  0.037762  0.250000  1
  Dy  Dy10  1  0.362040  0.958738  0.750000  1
  Y  Y11  1  0.137000  0.459808  0.750000  1
  Tc  Tc12  1  0.037052  0.886917  0.250000  1
  Tc  Tc13  1  0.462863  0.386879  0.250000  1
  Rh  Rh14  1  0.949722  0.113715  0.750000  1
  Rh  Rh15  1  0.551052  0.615567  0.750000  1
