# generated using pymatgen
data_Mg(OsO3)2
_symmetry_space_group_name_H-M   'P 1'
_cell_length_a   4.63991100
_cell_length_b   4.63991100
_cell_length_c   9.28589800
_cell_angle_alpha   90.00000000
_cell_angle_beta   90.00000000
_cell_angle_gamma   90.00000000
_symmetry_Int_Tables_number   1
_chemical_formula_structural   Mg(OsO3)2
_chemical_formula_sum   'Mg2 Os4 O12'
_cell_volume   199.91400025
_cell_formula_units_Z   2
loop_
 _symmetry_equiv_pos_site_id
 _symmetry_equiv_pos_as_xyz
  1  'x, y, z'
loop_
 _atom_site_type_symbol
 _atom_site_label
 _atom_site_symmetry_multiplicity
 _atom_site_fract_x
 _atom_site_fract_y
 _atom_site_fract_z
 _atom_site_occupancy
  Mg  Mg0  1  0.000000  0.000000  0.000000  1
  Mg  Mg1  1  0.500000  0.500000  0.500000  1
  Os  Os2  1  0.500000  0.500000  0.829916  1
  Os  Os3  1  0.000000  0.000000  0.329916  1
  Os  Os4  1  0.500000  0.500000  0.170084  1
  Os  Os5  1  0.000000  0.000000  0.670084  1
  O  O6  1  0.705479  0.705479  0.676032  1
  O  O7  1  0.294521  0.294521  0.676032  1
  O  O8  1  0.705479  0.705479  0.323968  1
  O  O9  1  0.205479  0.794521  0.176032  1
  O  O10  1  0.794521  0.205479  0.176032  1
  O  O11  1  0.794521  0.205479  0.823968  1
  O  O12  1  0.317768  0.317768  0.000000  1
  O  O13  1  0.182232  0.817768  0.500000  1
  O  O14  1  0.817768  0.182232  0.500000  1
  O  O15  1  0.682232  0.682232  0.000000  1
  O  O16  1  0.294521  0.294521  0.323968  1
  O  O17  1  0.205479  0.794521  0.823968  1
