# generated using pymatgen
data_HoEr2U(VB4)4
_symmetry_space_group_name_H-M   'P 1'
_cell_length_a   3.45984400
_cell_length_b   5.96844038
_cell_length_c   11.56207718
_cell_angle_alpha   89.89980230
_cell_angle_beta   90.00000000
_cell_angle_gamma   90.00000000
_symmetry_Int_Tables_number   1
_chemical_formula_structural   HoEr2U(VB4)4
_chemical_formula_sum   'Ho1 Er2 U1 V4 B16'
_cell_volume   238.75505617
_cell_formula_units_Z   1
loop_
 _symmetry_equiv_pos_site_id
 _symmetry_equiv_pos_as_xyz
  1  'x, y, z'
loop_
 _atom_site_type_symbol
 _atom_site_label
 _atom_site_symmetry_multiplicity
 _atom_site_fract_x
 _atom_site_fract_y
 _atom_site_fract_z
 _atom_site_occupancy
  Ho  Ho0  1  0.500000  0.874512  0.152144  1
  Er  Er1  1  0.500000  0.622754  0.649372  1
  Er  Er2  1  0.500000  0.375171  0.349422  1
  U  U3  1  0.500000  0.126395  0.848587  1
  V  V4  1  0.500000  0.125908  0.585449  1
  V  V5  1  0.500000  0.872119  0.417742  1
  V  V6  1  0.500000  0.628395  0.915177  1
  V  V7  1  0.500000  0.371553  0.081184  1
  B  B8  1  0.000000  0.284120  0.686841  1
  B  B9  1  0.000000  0.713515  0.314081  1
  B  B10  1  0.000000  0.788265  0.814662  1
  B  B11  1  0.000000  0.216104  0.186530  1
  B  B12  1  0.000000  0.365004  0.532754  1
  B  B13  1  0.000000  0.634333  0.467511  1
  B  B14  1  0.000000  0.867062  0.966243  1
  B  B15  1  0.000000  0.136205  0.031600  1
  B  B16  1  0.000000  0.024221  0.307680  1
  B  B17  1  0.000000  0.977234  0.692912  1
  B  B18  1  0.000000  0.523073  0.193000  1
  B  B19  1  0.000000  0.473301  0.807962  1
  B  B20  1  0.000000  0.115043  0.452737  1
  B  B21  1  0.000000  0.884998  0.547112  1
  B  B22  1  0.000000  0.614945  0.047110  1
  B  B23  1  0.000000  0.385770  0.952187  1
