# generated using pymatgen
data_Tc3IrRu3Rh
_symmetry_space_group_name_H-M   'P 1'
_cell_length_a   5.49772900
_cell_length_b   5.49772927
_cell_length_c   4.34822500
_cell_angle_alpha   90.00000000
_cell_angle_beta   90.00000000
_cell_angle_gamma   120.00000439
_symmetry_Int_Tables_number   1
_chemical_formula_structural   Tc3IrRu3Rh
_chemical_formula_sum   'Tc3 Ir1 Ru3 Rh1'
_cell_volume   113.81756735
_cell_formula_units_Z   1
loop_
 _symmetry_equiv_pos_site_id
 _symmetry_equiv_pos_as_xyz
  1  'x, y, z'
loop_
 _atom_site_type_symbol
 _atom_site_label
 _atom_site_symmetry_multiplicity
 _atom_site_fract_x
 _atom_site_fract_y
 _atom_site_fract_z
 _atom_site_occupancy
  Tc  Tc0  1  0.160345  0.320692  0.250000  1
  Tc  Tc1  1  0.679308  0.839655  0.250000  1
  Tc  Tc2  1  0.160345  0.839655  0.250000  1
  Ir  Ir3  1  0.333333  0.666667  0.750000  1
  Ru  Ru4  1  0.833795  0.667590  0.750000  1
  Ru  Ru5  1  0.332410  0.166205  0.750000  1
  Ru  Ru6  1  0.833795  0.166205  0.750000  1
  Rh  Rh7  1  0.666667  0.333333  0.250000  1
