# generated using pymatgen
data_Y5Zn2Ir3
_symmetry_space_group_name_H-M   'P 1'
_cell_length_a   8.35752559
_cell_length_b   8.35752555
_cell_length_c   8.35752500
_cell_angle_alpha   109.47121444
_cell_angle_beta   109.47121435
_cell_angle_gamma   109.47123044
_symmetry_Int_Tables_number   1
_chemical_formula_structural   Y5Zn2Ir3
_chemical_formula_sum   'Y10 Zn4 Ir6'
_cell_volume   449.37740944
_cell_formula_units_Z   2
loop_
 _symmetry_equiv_pos_site_id
 _symmetry_equiv_pos_as_xyz
  1  'x, y, z'
loop_
 _atom_site_type_symbol
 _atom_site_label
 _atom_site_symmetry_multiplicity
 _atom_site_fract_x
 _atom_site_fract_y
 _atom_site_fract_z
 _atom_site_occupancy
  Y  Y0  1  0.250000  0.678716  0.428716  1
  Y  Y1  1  0.750000  0.821284  0.071284  1
  Y  Y2  1  0.428716  0.250000  0.678716  1
  Y  Y3  1  0.678716  0.428716  0.250000  1
  Y  Y4  1  0.071284  0.750000  0.821284  1
  Y  Y5  1  0.821284  0.071284  0.750000  1
  Y  Y6  1  0.222685  0.222685  0.222685  1
  Y  Y7  1  0.500000  0.000000  0.277315  1
  Y  Y8  1  0.277315  0.500000  0.000000  1
  Y  Y9  1  0.000000  0.277315  0.500000  1
  Zn  Zn10  1  0.595075  0.595075  0.595075  1
  Zn  Zn11  1  0.500000  0.000000  0.904925  1
  Zn  Zn12  1  0.904925  0.500000  0.000000  1
  Zn  Zn13  1  0.000000  0.904925  0.500000  1
  Ir  Ir14  1  0.250000  0.131026  0.881026  1
  Ir  Ir15  1  0.750000  0.368974  0.618974  1
  Ir  Ir16  1  0.881025  0.250000  0.131026  1
  Ir  Ir17  1  0.131026  0.881025  0.250000  1
  Ir  Ir18  1  0.618974  0.750000  0.368974  1
  Ir  Ir19  1  0.368974  0.618974  0.750000  1
