# generated using pymatgen
data_Dy2Al5Ga
_symmetry_space_group_name_H-M   'P 1'
_cell_length_a   6.34833800
_cell_length_b   6.36236845
_cell_length_c   4.48115200
_cell_angle_alpha   90.00000000
_cell_angle_beta   90.00000000
_cell_angle_gamma   119.92707853
_symmetry_Int_Tables_number   1
_chemical_formula_structural   Dy2Al5Ga
_chemical_formula_sum   'Dy2 Al5 Ga1'
_cell_volume   156.86202515
_cell_formula_units_Z   1
loop_
 _symmetry_equiv_pos_site_id
 _symmetry_equiv_pos_as_xyz
  1  'x, y, z'
loop_
 _atom_site_type_symbol
 _atom_site_label
 _atom_site_symmetry_multiplicity
 _atom_site_fract_x
 _atom_site_fract_y
 _atom_site_fract_z
 _atom_site_occupancy
  Dy  Dy0  1  0.667234  0.334466  0.250000  1
  Dy  Dy1  1  0.332581  0.665163  0.750000  1
  Al  Al2  1  0.851159  0.144836  0.750000  1
  Al  Al3  1  0.293678  0.144836  0.750000  1
  Al  Al4  1  0.852335  0.704668  0.750000  1
  Al  Al5  1  0.147737  0.854466  0.250000  1
  Al  Al6  1  0.706729  0.854466  0.250000  1
  Ga  Ga7  1  0.148547  0.297096  0.250000  1
