# generated using pymatgen
data_Y6Sc4In5Sb
_symmetry_space_group_name_H-M   'P 1'
_cell_length_a   6.32528004
_cell_length_b   8.86181714
_cell_length_c   8.89110872
_cell_angle_alpha   120.26251183
_cell_angle_beta   89.99285871
_cell_angle_gamma   89.99484733
_symmetry_Int_Tables_number   1
_chemical_formula_structural   Y6Sc4In5Sb
_chemical_formula_sum   'Y6 Sc4 In5 Sb1'
_cell_volume   430.46136791
_cell_formula_units_Z   1
loop_
 _symmetry_equiv_pos_site_id
 _symmetry_equiv_pos_as_xyz
  1  'x, y, z'
loop_
 _atom_site_type_symbol
 _atom_site_label
 _atom_site_symmetry_multiplicity
 _atom_site_fract_x
 _atom_site_fract_y
 _atom_site_fract_z
 _atom_site_occupancy
  Y  Y0  1  0.750046  0.236234  0.000046  1
  Y  Y1  1  0.749974  0.764517  0.766041  1
  Y  Y2  1  0.750013  0.999461  0.240353  1
  Y  Y3  1  0.249965  0.760536  0.996757  1
  Y  Y4  1  0.250043  0.238522  0.234261  1
  Y  Y5  1  0.250060  0.001054  0.763659  1
  Sc  Sc6  1  0.504056  0.331147  0.665458  1
  Sc  Sc7  1  0.503398  0.668619  0.334053  1
  Sc  Sc8  1  0.996569  0.668515  0.334079  1
  Sc  Sc9  1  0.995963  0.331170  0.665430  1
  In  In10  1  0.749985  0.593491  0.001164  1
  In  In11  1  0.750022  0.407031  0.408945  1
  In  In12  1  0.749993  0.999532  0.599792  1
  In  In13  1  0.250005  0.407708  0.000233  1
  In  In14  1  0.249982  0.592317  0.591539  1
  Sb  Sb15  1  0.249930  0.000147  0.398190  1
