# generated using pymatgen
data_Sc(MoC)2
_symmetry_space_group_name_H-M   'P 1'
_cell_length_a   3.12529900
_cell_length_b   3.12529847
_cell_length_c   7.36095800
_cell_angle_alpha   90.00000000
_cell_angle_beta   90.00000000
_cell_angle_gamma   119.99999507
_symmetry_Int_Tables_number   1
_chemical_formula_structural   Sc(MoC)2
_chemical_formula_sum   'Sc1 Mo2 C2'
_cell_volume   62.26558385
_cell_formula_units_Z   1
loop_
 _symmetry_equiv_pos_site_id
 _symmetry_equiv_pos_as_xyz
  1  'x, y, z'
loop_
 _atom_site_type_symbol
 _atom_site_label
 _atom_site_symmetry_multiplicity
 _atom_site_fract_x
 _atom_site_fract_y
 _atom_site_fract_z
 _atom_site_occupancy
  Sc  Sc0  1  0.000000  0.000000  0.500000  1
  Mo  Mo1  1  0.333333  0.666667  0.159614  1
  Mo  Mo2  1  0.666667  0.333333  0.840386  1
  C  C3  1  0.333333  0.666667  0.699029  1
  C  C4  1  0.666667  0.333333  0.300971  1
