# generated using pymatgen
data_Er8InHg2Pt
_symmetry_space_group_name_H-M   'P 1'
_cell_length_a   10.22551500
_cell_length_b   10.24165461
_cell_length_c   7.03367883
_cell_angle_alpha   89.89475054
_cell_angle_beta   90.00000000
_cell_angle_gamma   119.94787434
_symmetry_Int_Tables_number   1
_chemical_formula_structural   Er8InHg2Pt
_chemical_formula_sum   'Er16 In2 Hg4 Pt2'
_cell_volume   638.25669628
_cell_formula_units_Z   2
loop_
 _symmetry_equiv_pos_site_id
 _symmetry_equiv_pos_as_xyz
  1  'x, y, z'
loop_
 _atom_site_type_symbol
 _atom_site_label
 _atom_site_symmetry_multiplicity
 _atom_site_fract_x
 _atom_site_fract_y
 _atom_site_fract_z
 _atom_site_occupancy
  Er  Er0  1  0.531706  0.063413  0.795106  1
  Er  Er1  1  0.933561  0.471340  0.798203  1
  Er  Er2  1  0.537778  0.471340  0.798203  1
  Er  Er3  1  0.468521  0.937042  0.295869  1
  Er  Er4  1  0.069598  0.529777  0.294498  1
  Er  Er5  1  0.460180  0.529777  0.294498  1
  Er  Er6  1  0.824464  0.648928  0.480611  1
  Er  Er7  1  0.345034  0.177905  0.493820  1
  Er  Er8  1  0.832870  0.177905  0.493820  1
  Er  Er9  1  0.169906  0.339811  0.986738  1
  Er  Er10  1  0.658546  0.830444  0.005730  1
  Er  Er11  1  0.171899  0.830444  0.005730  1
  Er  Er12  1  0.665163  0.330325  0.167048  1
  Er  Er13  1  0.331367  0.662735  0.669625  1
  Er  Er14  1  0.996766  0.993531  0.771891  1
  Er  Er15  1  0.000550  0.001100  0.273583  1
  In  In16  1  0.671008  0.835325  0.545073  1
  In  In17  1  0.164318  0.835325  0.545073  1
  Hg  Hg18  1  0.834406  0.668813  0.047706  1
  Hg  Hg19  1  0.332763  0.166532  0.049235  1
  Hg  Hg20  1  0.833768  0.166532  0.049235  1
  Hg  Hg21  1  0.166366  0.332730  0.550739  1
  Pt  Pt22  1  0.665558  0.331115  0.562265  1
  Pt  Pt23  1  0.333904  0.667809  0.061602  1
