# generated using pymatgen
data_Ac2NbGa6
_symmetry_space_group_name_H-M   'P 1'
_cell_length_a   6.60915104
_cell_length_b   6.60914961
_cell_length_c   6.60914900
_cell_angle_alpha   59.99999807
_cell_angle_beta   60.00000521
_cell_angle_gamma   60.00000211
_symmetry_Int_Tables_number   1
_chemical_formula_structural   Ac2NbGa6
_chemical_formula_sum   'Ac2 Nb1 Ga6'
_cell_volume   204.13704473
_cell_formula_units_Z   1
loop_
 _symmetry_equiv_pos_site_id
 _symmetry_equiv_pos_as_xyz
  1  'x, y, z'
loop_
 _atom_site_type_symbol
 _atom_site_label
 _atom_site_symmetry_multiplicity
 _atom_site_fract_x
 _atom_site_fract_y
 _atom_site_fract_z
 _atom_site_occupancy
  Ac  Ac0  1  0.250000  0.250000  0.250000  1
  Ac  Ac1  1  0.750001  0.750001  0.750001  1
  Nb  Nb2  1  0.000000  0.000000  0.000000  1
  Ga  Ga3  1  0.710821  0.289179  0.289179  1
  Ga  Ga4  1  0.289179  0.710821  0.289179  1
  Ga  Ga5  1  0.710820  0.710820  0.289180  1
  Ga  Ga6  1  0.289179  0.289179  0.710821  1
  Ga  Ga7  1  0.710820  0.289180  0.710820  1
  Ga  Ga8  1  0.289180  0.710820  0.710820  1
