# generated using pymatgen
data_Ho5Er2Sn23Os6
_symmetry_space_group_name_H-M   'P 1'
_cell_length_a   9.84795232
_cell_length_b   9.84363664
_cell_length_c   10.10302300
_cell_angle_alpha   90.00000038
_cell_angle_beta   90.00203911
_cell_angle_gamma   119.98551184
_symmetry_Int_Tables_number   1
_chemical_formula_structural   Ho5Er2Sn23Os6
_chemical_formula_sum   'Ho5 Er2 Sn23 Os6'
_cell_volume   848.29492608
_cell_formula_units_Z   1
loop_
 _symmetry_equiv_pos_site_id
 _symmetry_equiv_pos_as_xyz
  1  'x, y, z'
loop_
 _atom_site_type_symbol
 _atom_site_label
 _atom_site_symmetry_multiplicity
 _atom_site_fract_x
 _atom_site_fract_y
 _atom_site_fract_z
 _atom_site_occupancy
  Ho  Ho0  1  0.486743  0.513247  0.301087  1
  Ho  Ho1  1  0.513257  0.486753  0.698913  1
  Ho  Ho2  1  0.486743  0.973498  0.301087  1
  Ho  Ho3  1  0.513257  0.026502  0.698913  1
  Ho  Ho4  1  0.000000  0.000000  0.000000  1
  Er  Er5  1  0.026314  0.513158  0.301046  1
  Er  Er6  1  0.973686  0.486842  0.698954  1
  Sn  Sn7  1  0.117857  0.881992  0.277196  1
  Sn  Sn8  1  0.882143  0.118008  0.722804  1
  Sn  Sn9  1  0.117857  0.235863  0.277196  1
  Sn  Sn10  1  0.882143  0.764137  0.722804  1
  Sn  Sn11  1  0.764203  0.882101  0.277172  1
  Sn  Sn12  1  0.235797  0.117899  0.722828  1
  Sn  Sn13  1  0.779303  0.220986  0.464361  1
  Sn  Sn14  1  0.220697  0.779014  0.535639  1
  Sn  Sn15  1  0.779303  0.558317  0.464361  1
  Sn  Sn16  1  0.220697  0.441683  0.535639  1
  Sn  Sn17  1  0.441677  0.220838  0.464375  1
  Sn  Sn18  1  0.558323  0.779162  0.535625  1
  Sn  Sn19  1  0.349782  0.999975  0.999997  1
  Sn  Sn20  1  0.650218  0.000025  0.000003  1
  Sn  Sn21  1  0.000000  0.349838  0.000000  1
  Sn  Sn22  1  0.000000  0.650162  0.000000  1
  Sn  Sn23  1  0.650218  0.650192  0.000003  1
  Sn  Sn24  1  0.349782  0.349808  0.999997  1
  Sn  Sn25  1  0.333167  0.666584  0.133959  1
  Sn  Sn26  1  0.666833  0.333416  0.866041  1
  Sn  Sn27  1  0.333263  0.666632  0.828137  1
  Sn  Sn28  1  0.666737  0.333368  0.171863  1
  Sn  Sn29  1  0.000000  0.000000  0.500000  1
  Os  Os30  1  0.829588  0.170777  0.202557  1
  Os  Os31  1  0.170412  0.829223  0.797443  1
  Os  Os32  1  0.829588  0.658812  0.202557  1
  Os  Os33  1  0.170412  0.341188  0.797443  1
  Os  Os34  1  0.341096  0.170549  0.202495  1
  Os  Os35  1  0.658904  0.829451  0.797505  1
