# generated using pymatgen
data_Dy3Y2Si12Ir19
_symmetry_space_group_name_H-M   'P 1'
_cell_length_a   12.83037200
_cell_length_b   12.83037279
_cell_length_c   3.98643000
_cell_angle_alpha   90.00000000
_cell_angle_beta   90.00000000
_cell_angle_gamma   119.99999797
_symmetry_Int_Tables_number   1
_chemical_formula_structural   Dy3Y2Si12Ir19
_chemical_formula_sum   'Dy3 Y2 Si12 Ir19'
_cell_volume   568.32047976
_cell_formula_units_Z   1
loop_
 _symmetry_equiv_pos_site_id
 _symmetry_equiv_pos_as_xyz
  1  'x, y, z'
loop_
 _atom_site_type_symbol
 _atom_site_label
 _atom_site_symmetry_multiplicity
 _atom_site_fract_x
 _atom_site_fract_y
 _atom_site_fract_z
 _atom_site_occupancy
  Dy  Dy0  1  0.000000  0.815296  0.000000  1
  Dy  Dy1  1  0.184704  0.184704  0.000000  1
  Dy  Dy2  1  0.815296  0.000000  0.000000  1
  Y  Y3  1  0.333333  0.666667  0.500000  1
  Y  Y4  1  0.666667  0.333333  0.500000  1
  Si  Si5  1  0.000000  0.632451  0.500000  1
  Si  Si6  1  0.367549  0.367549  0.500000  1
  Si  Si7  1  0.632451  0.000000  0.500000  1
  Si  Si8  1  0.518795  0.687507  0.000000  1
  Si  Si9  1  0.312493  0.831288  0.000000  1
  Si  Si10  1  0.168712  0.481205  0.000000  1
  Si  Si11  1  0.481205  0.168712  0.000000  1
  Si  Si12  1  0.687507  0.518795  0.000000  1
  Si  Si13  1  0.831288  0.312493  0.000000  1
  Si  Si14  1  0.000000  0.181669  0.500000  1
  Si  Si15  1  0.818331  0.818331  0.500000  1
  Si  Si16  1  0.181669  0.000000  0.500000  1
  Ir  Ir17  1  0.512558  0.873594  0.000000  1
  Ir  Ir18  1  0.126406  0.638964  0.000000  1
  Ir  Ir19  1  0.361036  0.487442  0.000000  1
  Ir  Ir20  1  0.487442  0.361036  0.000000  1
  Ir  Ir21  1  0.873594  0.512558  0.000000  1
  Ir  Ir22  1  0.638964  0.126406  0.000000  1
  Ir  Ir23  1  0.000000  0.447665  0.500000  1
  Ir  Ir24  1  0.552335  0.552335  0.500000  1
  Ir  Ir25  1  0.447665  0.000000  0.500000  1
  Ir  Ir26  1  0.000000  0.283221  0.000000  1
  Ir  Ir27  1  0.716779  0.716779  0.000000  1
  Ir  Ir28  1  0.283221  0.000000  0.000000  1
  Ir  Ir29  1  0.623101  0.805460  0.500000  1
  Ir  Ir30  1  0.194540  0.817640  0.500000  1
  Ir  Ir31  1  0.182360  0.376899  0.500000  1
  Ir  Ir32  1  0.376899  0.182360  0.500000  1
  Ir  Ir33  1  0.805460  0.623101  0.500000  1
  Ir  Ir34  1  0.817640  0.194540  0.500000  1
  Ir  Ir35  1  0.000000  0.000000  0.500000  1
