# generated using pymatgen
data_Rb6TiSiO7
_symmetry_space_group_name_H-M   'P 1'
_cell_length_a   9.45118000
_cell_length_b   6.89261215
_cell_length_c   11.63290500
_cell_angle_alpha   55.15193402
_cell_angle_beta   90.00000000
_cell_angle_gamma   90.00000000
_symmetry_Int_Tables_number   1
_chemical_formula_structural   Rb6TiSiO7
_chemical_formula_sum   'Rb12 Ti2 Si2 O14'
_cell_volume   621.90878383
_cell_formula_units_Z   2
loop_
 _symmetry_equiv_pos_site_id
 _symmetry_equiv_pos_as_xyz
  1  'x, y, z'
loop_
 _atom_site_type_symbol
 _atom_site_label
 _atom_site_symmetry_multiplicity
 _atom_site_fract_x
 _atom_site_fract_y
 _atom_site_fract_z
 _atom_site_occupancy
  Rb  Rb0  1  0.348249  0.532057  0.583857  1
  Rb  Rb1  1  0.151751  0.532057  0.083857  1
  Rb  Rb2  1  0.644155  0.463043  0.415856  1
  Rb  Rb3  1  0.978975  0.707343  0.548164  1
  Rb  Rb4  1  0.467493  0.294956  0.956949  1
  Rb  Rb5  1  0.032507  0.294956  0.456949  1
  Rb  Rb6  1  0.521025  0.707343  0.048164  1
  Rb  Rb7  1  0.280904  0.899746  0.722275  1
  Rb  Rb8  1  0.788359  0.101280  0.776830  1
  Rb  Rb9  1  0.711641  0.101280  0.276830  1
  Rb  Rb10  1  0.219096  0.899746  0.222275  1
  Rb  Rb11  1  0.855845  0.463043  0.915856  1
  Ti  Ti12  1  0.632394  0.825912  0.624623  1
  Ti  Ti13  1  0.867606  0.825912  0.124623  1
  Si  Si14  1  0.359261  0.178331  0.371151  1
  Si  Si15  1  0.140739  0.178331  0.871151  1
  O  O16  1  0.281033  0.004037  0.930206  1
  O  O17  1  0.010359  0.017387  0.990457  1
  O  O18  1  0.489641  0.017387  0.490457  1
  O  O19  1  0.917160  0.752897  0.295324  1
  O  O20  1  0.792650  0.002839  0.569165  1
  O  O21  1  0.707350  0.002839  0.069165  1
  O  O22  1  0.218967  0.004037  0.430206  1
  O  O23  1  0.661031  0.559706  0.629494  1
  O  O24  1  0.164398  0.419826  0.867739  1
  O  O25  1  0.335602  0.419826  0.367739  1
  O  O26  1  0.838969  0.559706  0.129494  1
  O  O27  1  0.582840  0.752897  0.795324  1
  O  O28  1  0.089443  0.240639  0.717911  1
  O  O29  1  0.410557  0.240639  0.217911  1
