# generated using pymatgen
data_Ta(RuCl6)5
_symmetry_space_group_name_H-M   'P 1'
_cell_length_a   13.41111878
_cell_length_b   13.41003454
_cell_length_c   6.35155517
_cell_angle_alpha   88.69881976
_cell_angle_beta   88.69504776
_cell_angle_gamma   86.59677277
_symmetry_Int_Tables_number   1
_chemical_formula_structural   Ta(RuCl6)5
_chemical_formula_sum   'Ta1 Ru5 Cl30'
_cell_volume   1139.71511315
_cell_formula_units_Z   1
loop_
 _symmetry_equiv_pos_site_id
 _symmetry_equiv_pos_as_xyz
  1  'x, y, z'
loop_
 _atom_site_type_symbol
 _atom_site_label
 _atom_site_symmetry_multiplicity
 _atom_site_fract_x
 _atom_site_fract_y
 _atom_site_fract_z
 _atom_site_occupancy
  Ta  Ta0  1  0.560041  0.773801  0.524089  1
  Ru  Ru1  1  0.769855  0.564022  0.524147  1
  Ru  Ru2  1  0.434688  0.231581  0.475902  1
  Ru  Ru3  1  0.231370  0.434731  0.475865  1
  Ru  Ru4  1  0.101450  0.898385  0.000164  1
  Ru  Ru5  1  0.898323  0.101732  0.000012  1
  Cl  Cl6  1  0.668674  0.474658  0.742034  1
  Cl  Cl7  1  0.524958  0.331970  0.257759  1
  Cl  Cl8  1  0.331895  0.524884  0.257540  1
  Cl  Cl9  1  0.475234  0.665387  0.745237  1
  Cl  Cl10  1  0.798842  0.433632  0.310653  1
  Cl  Cl11  1  0.565216  0.202255  0.689027  1
  Cl  Cl12  1  0.951247  0.951170  0.207892  1
  Cl  Cl13  1  0.048808  0.048828  0.792116  1
  Cl  Cl14  1  0.766773  0.129843  0.220510  1
  Cl  Cl15  1  0.870285  0.233266  0.779507  1
  Cl  Cl16  1  0.233101  0.870372  0.779390  1
  Cl  Cl17  1  0.129597  0.766757  0.220604  1
  Cl  Cl18  1  0.809301  0.002085  0.795510  1
  Cl  Cl19  1  0.997951  0.190801  0.204306  1
  Cl  Cl20  1  0.190792  0.997982  0.204297  1
  Cl  Cl21  1  0.002080  0.809190  0.795738  1
  Cl  Cl22  1  0.716810  0.713564  0.727048  1
  Cl  Cl23  1  0.285252  0.285257  0.274964  1
  Cl  Cl24  1  0.536637  0.903815  0.747769  1
  Cl  Cl25  1  0.100928  0.463445  0.262564  1
  Cl  Cl26  1  0.463409  0.101085  0.262212  1
  Cl  Cl27  1  0.900193  0.535526  0.737843  1
  Cl  Cl28  1  0.668617  0.858476  0.303270  1
  Cl  Cl29  1  0.141343  0.334043  0.693920  1
  Cl  Cl30  1  0.334053  0.141337  0.693894  1
  Cl  Cl31  1  0.859058  0.665314  0.306355  1
  Cl  Cl32  1  0.620243  0.617005  0.321511  1
  Cl  Cl33  1  0.380939  0.380887  0.676525  1
  Cl  Cl34  1  0.429942  0.797675  0.300822  1
  Cl  Cl35  1  0.202093  0.565238  0.689008  1
