# generated using pymatgen
data_Gd3InTc4F28
_symmetry_space_group_name_H-M   'P 1'
_cell_length_a   5.47581989
_cell_length_b   8.73071077
_cell_length_c   11.84797200
_cell_angle_alpha   62.91689384
_cell_angle_beta   90.12433687
_cell_angle_gamma   89.95029518
_symmetry_Int_Tables_number   1
_chemical_formula_structural   Gd3InTc4F28
_chemical_formula_sum   'Gd3 In1 Tc4 F28'
_cell_volume   504.31298540
_cell_formula_units_Z   1
loop_
 _symmetry_equiv_pos_site_id
 _symmetry_equiv_pos_as_xyz
  1  'x, y, z'
loop_
 _atom_site_type_symbol
 _atom_site_label
 _atom_site_symmetry_multiplicity
 _atom_site_fract_x
 _atom_site_fract_y
 _atom_site_fract_z
 _atom_site_occupancy
  Gd  Gd0  1  0.739235  0.186765  0.735233  1
  Gd  Gd1  1  0.759432  0.181976  0.235223  1
  Gd  Gd2  1  0.239930  0.811488  0.764796  1
  In  In3  1  0.262960  0.810617  0.264388  1
  Tc  Tc4  1  0.760247  0.727646  0.048615  1
  Tc  Tc5  1  0.244219  0.269482  0.958895  1
  Tc  Tc6  1  0.257258  0.279215  0.454039  1
  Tc  Tc7  1  0.742511  0.727688  0.538040  1
  F  F8  1  0.939306  0.702514  0.411341  1
  F  F9  1  0.065670  0.300682  0.584014  1
  F  F10  1  0.435093  0.294231  0.088263  1
  F  F11  1  0.564611  0.705099  0.919398  1
  F  F12  1  0.461509  0.722919  0.141235  1
  F  F13  1  0.543370  0.277971  0.867719  1
  F  F14  1  0.960603  0.278647  0.363651  1
  F  F15  1  0.038679  0.722551  0.631232  1
  F  F16  1  0.953692  0.744988  0.182678  1
  F  F17  1  0.060539  0.257637  0.822003  1
  F  F18  1  0.442089  0.261633  0.319963  1
  F  F19  1  0.555853  0.742501  0.673618  1
  F  F20  1  0.777678  0.478721  0.144879  1
  F  F21  1  0.224084  0.518833  0.860628  1
  F  F22  1  0.275565  0.529992  0.354367  1
  F  F23  1  0.719622  0.480044  0.638400  1
  F  F24  1  0.936453  0.277710  0.040472  1
  F  F25  1  0.062158  0.720634  0.962646  1
  F  F26  1  0.432614  0.723031  0.453852  1
  F  F27  1  0.564283  0.284190  0.537212  1
  F  F28  1  0.741381  0.978262  0.448446  1
  F  F29  1  0.258872  0.029137  0.548451  1
  F  F30  1  0.241056  0.019551  0.051308  1
  F  F31  1  0.760616  0.977550  0.953347  1
  F  F32  1  0.589314  0.953949  0.229988  1
  F  F33  1  0.392669  0.039446  0.772757  1
  F  F34  1  0.103726  0.023583  0.271570  1
  F  F35  1  0.893103  0.959115  0.727332  1
