# generated using pymatgen
data_Na2Tm3P12Ir5Rh14
_symmetry_space_group_name_H-M   'P 1'
_cell_length_a   12.69301328
_cell_length_b   12.60628209
_cell_length_c   3.92189500
_cell_angle_alpha   90.00000000
_cell_angle_beta   90.00000000
_cell_angle_gamma   119.76509031
_symmetry_Int_Tables_number   1
_chemical_formula_structural   Na2Tm3P12Ir5Rh14
_chemical_formula_sum   'Na2 Tm3 P12 Ir5 Rh14'
_cell_volume   544.75535895
_cell_formula_units_Z   1
loop_
 _symmetry_equiv_pos_site_id
 _symmetry_equiv_pos_as_xyz
  1  'x, y, z'
loop_
 _atom_site_type_symbol
 _atom_site_label
 _atom_site_symmetry_multiplicity
 _atom_site_fract_x
 _atom_site_fract_y
 _atom_site_fract_z
 _atom_site_occupancy
  Na  Na0  1  0.185567  0.186106  0.000000  1
  Na  Na1  1  0.814212  0.000951  0.000000  1
  Tm  Tm2  1  0.333377  0.667418  0.500000  1
  Tm  Tm3  1  0.666499  0.334680  0.500000  1
  Tm  Tm4  1  0.000099  0.819006  0.000000  1
  P  P5  1  0.313383  0.830772  0.000000  1
  P  P6  1  0.170636  0.480940  0.000000  1
  P  P7  1  0.519004  0.687552  0.000000  1
  P  P8  1  0.829609  0.310936  0.000000  1
  P  P9  1  0.480888  0.167134  0.000000  1
  P  P10  1  0.684407  0.517559  0.000000  1
  P  P11  1  0.366034  0.365599  0.500000  1
  P  P12  1  0.634106  0.999274  0.500000  1
  P  P13  1  0.000379  0.637907  0.500000  1
  P  P14  1  0.820395  0.823222  0.500000  1
  P  P15  1  0.180083  0.001703  0.500000  1
  P  P16  1  0.000284  0.179421  0.500000  1
  Ir  Ir17  1  0.864694  0.506499  0.000000  1
  Ir  Ir18  1  0.720390  0.718772  0.000000  1
  Ir  Ir19  1  0.280737  0.998500  0.000000  1
  Ir  Ir20  1  0.000062  0.283220  0.000000  1
  Ir  Ir21  1  0.000403  0.996953  0.500000  1
  Rh  Rh22  1  0.192802  0.817943  0.500000  1
  Rh  Rh23  1  0.182898  0.378449  0.500000  1
  Rh  Rh24  1  0.620816  0.802337  0.500000  1
  Rh  Rh25  1  0.817171  0.195517  0.500000  1
  Rh  Rh26  1  0.377397  0.181512  0.500000  1
  Rh  Rh27  1  0.809234  0.627932  0.500000  1
  Rh  Rh28  1  0.132871  0.639565  0.000000  1
  Rh  Rh29  1  0.362267  0.492328  0.000000  1
  Rh  Rh30  1  0.507910  0.867777  0.000000  1
  Rh  Rh31  1  0.639259  0.130737  0.000000  1
  Rh  Rh32  1  0.491288  0.357411  0.000000  1
  Rh  Rh33  1  0.550872  0.542599  0.500000  1
  Rh  Rh34  1  0.451465  0.996616  0.500000  1
  Rh  Rh35  1  0.998502  0.455155  0.500000  1
