# generated using pymatgen
data_Na3Tb(Ni7P4)2
_symmetry_space_group_name_H-M   'P 1'
_cell_length_a   3.65659000
_cell_length_b   9.11973445
_cell_length_c   10.28043355
_cell_angle_alpha   89.43253806
_cell_angle_beta   90.00000000
_cell_angle_gamma   90.00000000
_symmetry_Int_Tables_number   1
_chemical_formula_structural   Na3Tb(Ni7P4)2
_chemical_formula_sum   'Na3 Tb1 Ni14 P8'
_cell_volume   342.80613835
_cell_formula_units_Z   1
loop_
 _symmetry_equiv_pos_site_id
 _symmetry_equiv_pos_as_xyz
  1  'x, y, z'
loop_
 _atom_site_type_symbol
 _atom_site_label
 _atom_site_symmetry_multiplicity
 _atom_site_fract_x
 _atom_site_fract_y
 _atom_site_fract_z
 _atom_site_occupancy
  Na  Na0  1  0.500000  0.441822  0.499839  1
  Na  Na1  1  0.500000  0.060562  0.283292  1
  Na  Na2  1  0.000000  0.938115  0.784382  1
  Tb  Tb3  1  0.000000  0.561483  0.001605  1
  Ni  Ni4  1  0.500000  0.306673  0.075164  1
  Ni  Ni5  1  0.500000  0.752385  0.405986  1
  Ni  Ni6  1  0.500000  0.412684  0.812028  1
  Ni  Ni7  1  0.500000  0.059579  0.975581  1
  Ni  Ni8  1  0.500000  0.682400  0.768130  1
  Ni  Ni9  1  0.000000  0.273717  0.665000  1
  Ni  Ni10  1  0.000000  0.247097  0.903273  1
  Ni  Ni11  1  0.000000  0.697020  0.581695  1
  Ni  Ni12  1  0.500000  0.098249  0.576866  1
  Ni  Ni13  1  0.000000  0.314812  0.262137  1
  Ni  Ni14  1  0.000000  0.585966  0.305068  1
  Ni  Ni15  1  0.000000  0.903710  0.078984  1
  Ni  Ni16  1  0.000000  0.941876  0.476352  1
  Ni  Ni17  1  0.500000  0.726808  0.169830  1
  P  P18  1  0.000000  0.823136  0.285302  1
  P  P19  1  0.000000  0.188805  0.460270  1
  P  P20  1  0.500000  0.176938  0.781959  1
  P  P21  1  0.000000  0.153824  0.097147  1
  P  P22  1  0.500000  0.477329  0.221692  1
  P  P23  1  0.500000  0.810388  0.964240  1
  P  P24  1  0.500000  0.844960  0.598159  1
  P  P25  1  0.000000  0.519664  0.721419  1
