# generated using pymatgen
data_CaY2(Al3Pd2)3
_symmetry_space_group_name_H-M   'P 1'
_cell_length_a   4.20679200
_cell_length_b   9.46201905
_cell_length_c   9.46089871
_cell_angle_alpha   120.00399256
_cell_angle_beta   90.00000000
_cell_angle_gamma   90.00000000
_symmetry_Int_Tables_number   1
_chemical_formula_structural   CaY2(Al3Pd2)3
_chemical_formula_sum   'Ca1 Y2 Al9 Pd6'
_cell_volume   326.12223352
_cell_formula_units_Z   1
loop_
 _symmetry_equiv_pos_site_id
 _symmetry_equiv_pos_as_xyz
  1  'x, y, z'
loop_
 _atom_site_type_symbol
 _atom_site_label
 _atom_site_symmetry_multiplicity
 _atom_site_fract_x
 _atom_site_fract_y
 _atom_site_fract_z
 _atom_site_occupancy
  Ca  Ca0  1  0.000000  0.999973  0.000000  1
  Y  Y1  1  0.500000  0.333558  0.667123  1
  Y  Y2  1  0.500000  0.666435  0.332877  1
  Al  Al3  1  0.500000  0.306055  0.000000  1
  Al  Al4  1  0.500000  0.694231  0.694103  1
  Al  Al5  1  0.500000  0.000129  0.305897  1
  Al  Al6  1  0.500000  0.693932  0.000000  1
  Al  Al7  1  0.500000  0.305761  0.305898  1
  Al  Al8  1  0.500000  0.999863  0.694102  1
  Al  Al9  1  0.000000  0.499991  0.000000  1
  Al  Al10  1  0.000000  0.500010  0.500003  1
  Al  Al11  1  0.000000  0.000006  0.499996  1
  Pd  Pd12  1  0.000000  0.185720  0.371425  1
  Pd  Pd13  1  0.000000  0.185682  0.814313  1
  Pd  Pd14  1  0.000000  0.628598  0.814305  1
  Pd  Pd15  1  0.000000  0.814295  0.628576  1
  Pd  Pd16  1  0.000000  0.371369  0.185687  1
  Pd  Pd17  1  0.000000  0.814294  0.185695  1
