# generated using pymatgen
data_Lu5ReBMoC6
_symmetry_space_group_name_H-M   'P 1'
_cell_length_a   8.19039412
_cell_length_b   8.19045957
_cell_length_c   3.35331700
_cell_angle_alpha   90.00000000
_cell_angle_beta   90.00000000
_cell_angle_gamma   121.54450173
_symmetry_Int_Tables_number   1
_chemical_formula_structural   Lu5ReBMoC6
_chemical_formula_sum   'Lu5 Re1 B1 Mo1 C6'
_cell_volume   191.71080019
_cell_formula_units_Z   1
loop_
 _symmetry_equiv_pos_site_id
 _symmetry_equiv_pos_as_xyz
  1  'x, y, z'
loop_
 _atom_site_type_symbol
 _atom_site_label
 _atom_site_symmetry_multiplicity
 _atom_site_fract_x
 _atom_site_fract_y
 _atom_site_fract_z
 _atom_site_occupancy
  Lu  Lu0  1  0.331003  0.082116  0.500000  1
  Lu  Lu1  1  0.670212  0.920038  0.500000  1
  Lu  Lu2  1  0.079957  0.329801  0.500000  1
  Lu  Lu3  1  0.917879  0.668982  0.500000  1
  Lu  Lu4  1  0.501213  0.498792  0.000000  1
  Re  Re5  1  0.713823  0.286165  0.000000  1
  B  B6  1  0.000350  0.999654  0.000000  1
  Mo  Mo7  1  0.286038  0.713978  0.000000  1
  C  C8  1  0.183765  0.184588  0.000000  1
  C  C9  1  0.815417  0.816227  0.000000  1
  C  C10  1  0.376572  0.623435  0.500000  1
  C  C11  1  0.624939  0.375053  0.500000  1
  C  C12  1  0.501143  0.002311  0.000000  1
  C  C13  1  0.997688  0.498860  0.000000  1
