# generated using pymatgen
data_Pu2B10Pt
_symmetry_space_group_name_H-M   'P 1'
_cell_length_a   4.17382400
_cell_length_b   5.71920700
_cell_length_c   11.38615200
_cell_angle_alpha   90.00000000
_cell_angle_beta   90.00000000
_cell_angle_gamma   90.00000000
_symmetry_Int_Tables_number   1
_chemical_formula_structural   Pu2B10Pt
_chemical_formula_sum   'Pu4 B20 Pt2'
_cell_volume   271.79841809
_cell_formula_units_Z   2
loop_
 _symmetry_equiv_pos_site_id
 _symmetry_equiv_pos_as_xyz
  1  'x, y, z'
loop_
 _atom_site_type_symbol
 _atom_site_label
 _atom_site_symmetry_multiplicity
 _atom_site_fract_x
 _atom_site_fract_y
 _atom_site_fract_z
 _atom_site_occupancy
  Pu  Pu0  1  0.500000  0.185598  0.358328  1
  Pu  Pu1  1  0.500000  0.814402  0.641672  1
  Pu  Pu2  1  0.500000  0.314402  0.858328  1
  Pu  Pu3  1  0.500000  0.685598  0.141672  1
  B  B4  1  0.000000  0.384078  0.043763  1
  B  B5  1  0.000000  0.615922  0.956237  1
  B  B6  1  0.000000  0.115922  0.543763  1
  B  B7  1  0.000000  0.884078  0.456237  1
  B  B8  1  0.000000  0.359224  0.197933  1
  B  B9  1  0.000000  0.640776  0.802067  1
  B  B10  1  0.000000  0.140776  0.697933  1
  B  B11  1  0.000000  0.859224  0.302067  1
  B  B12  1  0.000000  0.052029  0.193802  1
  B  B13  1  0.000000  0.947971  0.806198  1
  B  B14  1  0.000000  0.447971  0.693802  1
  B  B15  1  0.000000  0.552029  0.306198  1
  B  B16  1  0.303581  0.217959  0.120250  1
  B  B17  1  0.696419  0.782041  0.879750  1
  B  B18  1  0.303581  0.782041  0.879750  1
  B  B19  1  0.696419  0.282041  0.620250  1
  B  B20  1  0.696419  0.217959  0.120250  1
  B  B21  1  0.303581  0.717959  0.379750  1
  B  B22  1  0.696419  0.717959  0.379750  1
  B  B23  1  0.303581  0.282041  0.620250  1
  Pt  Pt24  1  0.000000  0.000000  0.000000  1
  Pt  Pt25  1  0.000000  0.500000  0.500000  1
