# generated using pymatgen
data_Ho5TmAl24(RuRh3)2
_symmetry_space_group_name_H-M   'P 1'
_cell_length_a   8.80483600
_cell_length_b   8.81210449
_cell_length_c   9.48095600
_cell_angle_alpha   90.00000000
_cell_angle_beta   90.00000000
_cell_angle_gamma   119.97271109
_symmetry_Int_Tables_number   1
_chemical_formula_structural   Ho5TmAl24(RuRh3)2
_chemical_formula_sum   'Ho5 Tm1 Al24 Ru2 Rh6'
_cell_volume   637.24000008
_cell_formula_units_Z   1
loop_
 _symmetry_equiv_pos_site_id
 _symmetry_equiv_pos_as_xyz
  1  'x, y, z'
loop_
 _atom_site_type_symbol
 _atom_site_label
 _atom_site_symmetry_multiplicity
 _atom_site_fract_x
 _atom_site_fract_y
 _atom_site_fract_z
 _atom_site_occupancy
  Ho  Ho0  1  0.808566  0.617131  0.750000  1
  Ho  Ho1  1  0.616475  0.808323  0.250000  1
  Ho  Ho2  1  0.382939  0.191525  0.750000  1
  Ho  Ho3  1  0.191847  0.808323  0.250000  1
  Ho  Ho4  1  0.808588  0.191525  0.750000  1
  Tm  Tm5  1  0.192093  0.384187  0.250000  1
  Al  Al6  1  0.333223  0.666447  0.031821  1
  Al  Al7  1  0.666589  0.333176  0.968315  1
  Al  Al8  1  0.666589  0.333176  0.531685  1
  Al  Al9  1  0.333223  0.666447  0.468179  1
  Al  Al10  1  0.163031  0.326063  0.576074  1
  Al  Al11  1  0.836944  0.673887  0.423830  1
  Al  Al12  1  0.673808  0.836898  0.576282  1
  Al  Al13  1  0.836944  0.673887  0.076170  1
  Al  Al14  1  0.326090  0.163195  0.423800  1
  Al  Al15  1  0.163031  0.326063  0.923926  1
  Al  Al16  1  0.163089  0.836898  0.576282  1
  Al  Al17  1  0.326090  0.163195  0.076200  1
  Al  Al18  1  0.837106  0.163195  0.423800  1
  Al  Al19  1  0.673808  0.836898  0.923718  1
  Al  Al20  1  0.837106  0.163195  0.076200  1
  Al  Al21  1  0.163089  0.836898  0.923718  1
  Al  Al22  1  0.561792  0.123584  0.250000  1
  Al  Al23  1  0.438192  0.876383  0.750000  1
  Al  Al24  1  0.876678  0.438155  0.250000  1
  Al  Al25  1  0.123638  0.561913  0.750000  1
  Al  Al26  1  0.561476  0.438155  0.250000  1
  Al  Al27  1  0.438275  0.561913  0.750000  1
  Al  Al28  1  0.000132  0.000264  0.250000  1
  Al  Al29  1  0.000019  0.000038  0.750000  1
  Ru  Ru30  1  0.999980  0.999961  0.000432  1
  Ru  Ru31  1  0.999980  0.999961  0.499568  1
  Rh  Rh32  1  0.499927  0.999854  0.000156  1
  Rh  Rh33  1  0.000039  0.499859  0.000202  1
  Rh  Rh34  1  0.499927  0.999854  0.499844  1
  Rh  Rh35  1  0.499819  0.499859  0.000202  1
  Rh  Rh36  1  0.000039  0.499859  0.499798  1
  Rh  Rh37  1  0.499819  0.499859  0.499798  1
