# generated using pymatgen
data_Sm4YU5O19
_symmetry_space_group_name_H-M   'P 1'
_cell_length_a   6.77426136
_cell_length_b   7.59122325
_cell_length_c   8.54904900
_cell_angle_alpha   100.38013240
_cell_angle_beta   97.62133809
_cell_angle_gamma   107.27848716
_symmetry_Int_Tables_number   1
_chemical_formula_structural   Sm4YU5O19
_chemical_formula_sum   'Sm4 Y1 U5 O19'
_cell_volume   404.73400259
_cell_formula_units_Z   1
loop_
 _symmetry_equiv_pos_site_id
 _symmetry_equiv_pos_as_xyz
  1  'x, y, z'
loop_
 _atom_site_type_symbol
 _atom_site_label
 _atom_site_symmetry_multiplicity
 _atom_site_fract_x
 _atom_site_fract_y
 _atom_site_fract_z
 _atom_site_occupancy
  Sm  Sm0  1  0.802305  0.102482  0.601515  1
  Sm  Sm1  1  0.386672  0.298395  0.798823  1
  Sm  Sm2  1  0.607121  0.703168  0.203072  1
  Sm  Sm3  1  0.998859  0.501169  0.997835  1
  Y  Y4  1  0.208917  0.914448  0.387255  1
  U  U5  1  0.777514  0.597462  0.600597  1
  U  U6  1  0.606754  0.205437  0.198120  1
  U  U7  1  0.000277  0.002346  0.996635  1
  U  U8  1  0.409245  0.809729  0.814358  1
  U  U9  1  0.199271  0.388092  0.389804  1
  O  O10  1  0.345450  0.063354  0.952353  1
  O  O11  1  0.422268  0.985087  0.644413  1
  O  O12  1  0.041531  0.219077  0.854155  1
  O  O13  1  0.725297  0.380932  0.736997  1
  O  O14  1  0.149333  0.176508  0.534024  1
  O  O15  1  0.357242  0.591363  0.955887  1
  O  O16  1  0.955340  0.270502  0.157788  1
  O  O17  1  0.894800  0.382985  0.463192  1
  O  O18  1  0.747361  0.865407  0.758361  1
  O  O19  1  0.546489  0.460886  0.359315  1
  O  O20  1  0.409669  0.549029  0.635672  1
  O  O21  1  0.256949  0.130980  0.237284  1
  O  O22  1  0.059482  0.716629  0.802764  1
  O  O23  1  0.647298  0.414269  0.057413  1
  O  O24  1  0.873683  0.802917  0.461468  1
  O  O25  1  0.246827  0.626378  0.279564  1
  O  O26  1  0.957821  0.785846  0.132932  1
  O  O27  1  0.569411  0.000182  0.348427  1
  O  O28  1  0.660732  0.942585  0.048213  1
