# generated using pymatgen
data_Ba4DyWO8
_symmetry_space_group_name_H-M   'P 1'
_cell_length_a   7.48779045
_cell_length_b   7.48778983
_cell_length_c   6.05045200
_cell_angle_alpha   90.00000000
_cell_angle_beta   90.00000000
_cell_angle_gamma   133.10102799
_symmetry_Int_Tables_number   1
_chemical_formula_structural   Ba4DyWO8
_chemical_formula_sum   'Ba4 Dy1 W1 O8'
_cell_volume   247.68930129
_cell_formula_units_Z   1
loop_
 _symmetry_equiv_pos_site_id
 _symmetry_equiv_pos_as_xyz
  1  'x, y, z'
loop_
 _atom_site_type_symbol
 _atom_site_label
 _atom_site_symmetry_multiplicity
 _atom_site_fract_x
 _atom_site_fract_y
 _atom_site_fract_z
 _atom_site_occupancy
  Ba  Ba0  1  0.352066  0.647934  0.000000  1
  Ba  Ba1  1  0.851646  0.148354  0.500000  1
  Ba  Ba2  1  0.148354  0.851646  0.500000  1
  Ba  Ba3  1  0.647934  0.352066  0.000000  1
  Dy  Dy4  1  0.000000  0.000000  0.000000  1
  W  W5  1  0.500000  0.500000  0.500000  1
  O  O6  1  0.164976  0.835024  0.000000  1
  O  O7  1  0.652026  0.347974  0.500000  1
  O  O8  1  0.347974  0.652026  0.500000  1
  O  O9  1  0.835024  0.164976  0.000000  1
  O  O10  1  0.265740  0.265740  0.264225  1
  O  O11  1  0.734260  0.734260  0.735775  1
  O  O12  1  0.265740  0.265740  0.735775  1
  O  O13  1  0.734260  0.734260  0.264225  1
