# generated using pymatgen
data_TbNd11(SiI3)4
_symmetry_space_group_name_H-M   'P 1'
_cell_length_a   10.80151400
_cell_length_b   10.80151524
_cell_length_c   10.82225752
_cell_angle_alpha   109.45754520
_cell_angle_beta   109.45753879
_cell_angle_gamma   109.43463683
_symmetry_Int_Tables_number   1
_chemical_formula_structural   TbNd11(SiI3)4
_chemical_formula_sum   'Tb1 Nd11 Si4 I12'
_cell_volume   972.76404126
_cell_formula_units_Z   1
loop_
 _symmetry_equiv_pos_site_id
 _symmetry_equiv_pos_as_xyz
  1  'x, y, z'
loop_
 _atom_site_type_symbol
 _atom_site_label
 _atom_site_symmetry_multiplicity
 _atom_site_fract_x
 _atom_site_fract_y
 _atom_site_fract_z
 _atom_site_occupancy
  Tb  Tb0  1  0.230007  0.269993  0.750000  1
  Nd  Nd1  1  0.465273  0.482132  0.232473  1
  Nd  Nd2  1  0.751641  0.232479  0.268938  1
  Nd  Nd3  1  0.749365  0.017466  0.481963  1
  Nd  Nd4  1  0.232209  0.464421  0.482186  1
  Nd  Nd5  1  0.267521  0.748359  0.231062  1
  Nd  Nd6  1  0.035579  0.267791  0.017814  1
  Nd  Nd7  1  0.017868  0.034727  0.267527  1
  Nd  Nd8  1  0.482534  0.750635  0.018037  1
  Nd  Nd9  1  0.482704  0.232258  0.464997  1
  Nd  Nd10  1  0.018231  0.481769  0.750000  1
  Nd  Nd11  1  0.267742  0.017296  0.035003  1
  Si  Si12  1  0.250105  0.249895  0.250000  1
  Si  Si13  1  0.499993  0.000007  0.250000  1
  Si  Si14  1  0.002270  0.249396  0.501957  1
  Si  Si15  1  0.250604  0.497730  0.998043  1
  I  I16  1  0.249952  0.757285  0.742214  1
  I  I17  1  0.508943  0.500975  0.758069  1
  I  I18  1  0.984574  0.741686  0.991900  1
  I  I19  1  0.742715  0.250048  0.757786  1
  I  I20  1  0.999025  0.991057  0.741931  1
  I  I21  1  0.250361  0.997379  0.511961  1
  I  I22  1  0.758314  0.515426  0.508100  1
  I  I23  1  0.502621  0.249639  0.988039  1
  I  I24  1  0.757794  0.742206  0.250000  1
  I  I25  1  0.742163  0.992208  0.984437  1
  I  I26  1  0.992099  0.507901  0.250000  1
  I  I27  1  0.507792  0.757837  0.515563  1
