# generated using pymatgen
data_HfSc7Fe2(Si8Ru5)2
_symmetry_space_group_name_H-M   'P 1'
_cell_length_a   9.88531156
_cell_length_b   9.89279774
_cell_length_c   13.29051505
_cell_angle_alpha   53.82848445
_cell_angle_beta   53.79441355
_cell_angle_gamma   30.94073553
_symmetry_Int_Tables_number   1
_chemical_formula_structural   HfSc7Fe2(Si8Ru5)2
_chemical_formula_sum   'Hf1 Sc7 Fe2 Si16 Ru10'
_cell_volume   528.16232326
_cell_formula_units_Z   1
loop_
 _symmetry_equiv_pos_site_id
 _symmetry_equiv_pos_as_xyz
  1  'x, y, z'
loop_
 _atom_site_type_symbol
 _atom_site_label
 _atom_site_symmetry_multiplicity
 _atom_site_fract_x
 _atom_site_fract_y
 _atom_site_fract_z
 _atom_site_occupancy
  Hf  Hf0  1  0.292795  0.041027  0.138820  1
  Sc  Sc1  1  0.296608  0.559444  0.643240  1
  Sc  Sc2  1  0.439371  0.705390  0.856310  1
  Sc  Sc3  1  0.705429  0.443442  0.353153  1
  Sc  Sc4  1  0.558749  0.292399  0.146972  1
  Sc  Sc5  1  0.036105  0.293958  0.636213  1
  Sc  Sc6  1  0.707477  0.962062  0.863755  1
  Sc  Sc7  1  0.961333  0.707895  0.359029  1
  Fe  Fe8  1  0.648848  0.832056  0.278071  1
  Fe  Fe9  1  0.167018  0.349321  0.220451  1
  Si  Si10  1  0.872844  0.125977  0.251039  1
  Si  Si11  1  0.128644  0.871968  0.749609  1
  Si  Si12  1  0.383374  0.616382  0.250299  1
  Si  Si13  1  0.616601  0.382367  0.750540  1
  Si  Si14  1  0.974323  0.252413  0.892658  1
  Si  Si15  1  0.748702  0.025331  0.607320  1
  Si  Si16  1  0.022717  0.737302  0.114492  1
  Si  Si17  1  0.260843  0.978580  0.385617  1
  Si  Si18  1  0.567876  0.083275  0.074293  1
  Si  Si19  1  0.918881  0.432885  0.423982  1
  Si  Si20  1  0.424835  0.919782  0.934698  1
  Si  Si21  1  0.077984  0.577328  0.566252  1
  Si  Si22  1  0.389682  0.138398  0.391788  1
  Si  Si23  1  0.856743  0.612988  0.109295  1
  Si  Si24  1  0.611061  0.860079  0.600106  1
  Si  Si25  1  0.143950  0.386358  0.898154  1
  Ru  Ru26  1  0.754479  0.487875  0.071223  1
  Ru  Ru27  1  0.830284  0.648182  0.783229  1
  Ru  Ru28  1  0.898770  0.144373  0.583002  1
  Ru  Ru29  1  0.855444  0.102007  0.916574  1
  Ru  Ru30  1  0.106865  0.858241  0.413534  1
  Ru  Ru31  1  0.142289  0.894015  0.086719  1
  Ru  Ru32  1  0.243772  0.508332  0.937185  1
  Ru  Ru33  1  0.497692  0.748962  0.563176  1
  Ru  Ru34  1  0.505363  0.249605  0.431501  1
  Ru  Ru35  1  0.352247  0.170001  0.717703  1
