# generated using pymatgen
data_Ac12Ir3RuBr12
_symmetry_space_group_name_H-M   'P 1'
_cell_length_a   11.00672052
_cell_length_b   11.00672047
_cell_length_c   11.00671969
_cell_angle_alpha   109.28028779
_cell_angle_beta   109.28029117
_cell_angle_gamma   109.28027756
_symmetry_Int_Tables_number   1
_chemical_formula_structural   Ac12Ir3RuBr12
_chemical_formula_sum   'Ac12 Ir3 Ru1 Br12'
_cell_volume   1033.67602827
_cell_formula_units_Z   1
loop_
 _symmetry_equiv_pos_site_id
 _symmetry_equiv_pos_as_xyz
  1  'x, y, z'
loop_
 _atom_site_type_symbol
 _atom_site_label
 _atom_site_symmetry_multiplicity
 _atom_site_fract_x
 _atom_site_fract_y
 _atom_site_fract_z
 _atom_site_occupancy
  Ac  Ac0  1  0.266118  0.750000  0.233882  1
  Ac  Ac1  1  0.483304  0.750000  0.016696  1
  Ac  Ac2  1  0.234858  0.466971  0.481920  1
  Ac  Ac3  1  0.018080  0.033029  0.265142  1
  Ac  Ac4  1  0.233882  0.266118  0.750000  1
  Ac  Ac5  1  0.016696  0.483304  0.750000  1
  Ac  Ac6  1  0.481920  0.234858  0.466971  1
  Ac  Ac7  1  0.265142  0.018080  0.033029  1
  Ac  Ac8  1  0.750000  0.233882  0.266118  1
  Ac  Ac9  1  0.750000  0.016696  0.483304  1
  Ac  Ac10  1  0.466971  0.481920  0.234858  1
  Ac  Ac11  1  0.033029  0.265142  0.018080  1
  Ir  Ir12  1  0.499932  0.000068  0.250000  1
  Ir  Ir13  1  0.250000  0.499932  0.000068  1
  Ir  Ir14  1  0.000068  0.250000  0.499932  1
  Ru  Ru15  1  0.250000  0.250000  0.250000  1
  Br  Br16  1  0.250000  0.994787  0.505213  1
  Br  Br17  1  0.510478  0.505113  0.754914  1
  Br  Br18  1  0.250000  0.754736  0.745264  1
  Br  Br19  1  0.989522  0.745086  0.994887  1
  Br  Br20  1  0.994787  0.505213  0.250000  1
  Br  Br21  1  0.745086  0.994887  0.989522  1
  Br  Br22  1  0.754736  0.745264  0.250000  1
  Br  Br23  1  0.505113  0.754914  0.510478  1
  Br  Br24  1  0.505213  0.250000  0.994787  1
  Br  Br25  1  0.754914  0.510478  0.505113  1
  Br  Br26  1  0.745264  0.250000  0.754736  1
  Br  Br27  1  0.994887  0.989522  0.745086  1
