# generated using pymatgen
data_Nd7Er(GePt)8
_symmetry_space_group_name_H-M   'P 1'
_cell_length_a   4.47896700
_cell_length_b   7.69625900
_cell_length_c   14.55881400
_cell_angle_alpha   90.00000000
_cell_angle_beta   90.00000000
_cell_angle_gamma   90.00000000
_symmetry_Int_Tables_number   1
_chemical_formula_structural   Nd7Er(GePt)8
_chemical_formula_sum   'Nd7 Er1 Ge8 Pt8'
_cell_volume   501.86110068
_cell_formula_units_Z   1
loop_
 _symmetry_equiv_pos_site_id
 _symmetry_equiv_pos_as_xyz
  1  'x, y, z'
loop_
 _atom_site_type_symbol
 _atom_site_label
 _atom_site_symmetry_multiplicity
 _atom_site_fract_x
 _atom_site_fract_y
 _atom_site_fract_z
 _atom_site_occupancy
  Nd  Nd0  1  0.500000  0.789367  0.747008  1
  Nd  Nd1  1  0.000000  0.211113  0.750904  1
  Nd  Nd2  1  0.500000  0.789367  0.252992  1
  Nd  Nd3  1  0.000000  0.211113  0.249096  1
  Nd  Nd4  1  0.500000  0.709178  0.000000  1
  Nd  Nd5  1  0.500000  0.703279  0.500000  1
  Nd  Nd6  1  0.000000  0.294879  0.000000  1
  Er  Er7  1  0.000000  0.288886  0.500000  1
  Ge  Ge8  1  0.500000  0.410477  0.646379  1
  Ge  Ge9  1  0.000000  0.588167  0.850175  1
  Ge  Ge10  1  0.500000  0.410477  0.353621  1
  Ge  Ge11  1  0.000000  0.588167  0.149825  1
  Ge  Ge12  1  0.500000  0.087393  0.095578  1
  Ge  Ge13  1  0.000000  0.915290  0.405622  1
  Ge  Ge14  1  0.500000  0.087393  0.904422  1
  Ge  Ge15  1  0.000000  0.915290  0.594378  1
  Pt  Pt16  1  0.500000  0.083271  0.605358  1
  Pt  Pt17  1  0.000000  0.920876  0.890735  1
  Pt  Pt18  1  0.500000  0.083271  0.394642  1
  Pt  Pt19  1  0.000000  0.920876  0.109265  1
  Pt  Pt20  1  0.500000  0.419106  0.150779  1
  Pt  Pt21  1  0.000000  0.576828  0.351780  1
  Pt  Pt22  1  0.500000  0.419106  0.849221  1
  Pt  Pt23  1  0.000000  0.576828  0.648220  1
