# generated using pymatgen
data_Dy7LuTc2(B12Ir)2
_symmetry_space_group_name_H-M   'P 1'
_cell_length_a   3.66522400
_cell_length_b   9.14428441
_cell_length_c   11.53306348
_cell_angle_alpha   90.30606157
_cell_angle_beta   90.00000000
_cell_angle_gamma   90.00000000
_symmetry_Int_Tables_number   1
_chemical_formula_structural   Dy7LuTc2(B12Ir)2
_chemical_formula_sum   'Dy7 Lu1 Tc2 B24 Ir2'
_cell_volume   386.53491884
_cell_formula_units_Z   1
loop_
 _symmetry_equiv_pos_site_id
 _symmetry_equiv_pos_as_xyz
  1  'x, y, z'
loop_
 _atom_site_type_symbol
 _atom_site_label
 _atom_site_symmetry_multiplicity
 _atom_site_fract_x
 _atom_site_fract_y
 _atom_site_fract_z
 _atom_site_occupancy
  Dy  Dy0  1  0.000000  0.317939  0.410219  1
  Dy  Dy1  1  0.000000  0.682080  0.590187  1
  Dy  Dy2  1  0.000000  0.825933  0.082273  1
  Dy  Dy3  1  0.000000  0.173770  0.916994  1
  Dy  Dy4  1  0.000000  0.946410  0.371967  1
  Dy  Dy5  1  0.000000  0.053666  0.628597  1
  Dy  Dy6  1  0.000000  0.441293  0.125196  1
  Lu  Lu7  1  0.000000  0.559398  0.873681  1
  Tc  Tc8  1  0.000000  0.138641  0.179718  1
  Tc  Tc9  1  0.000000  0.859858  0.820143  1
  B  B10  1  0.500000  0.554079  0.433848  1
  B  B11  1  0.500000  0.446257  0.566698  1
  B  B12  1  0.500000  0.053193  0.067002  1
  B  B13  1  0.500000  0.945546  0.932700  1
  B  B14  1  0.500000  0.748934  0.420999  1
  B  B15  1  0.500000  0.251471  0.579421  1
  B  B16  1  0.500000  0.247556  0.080366  1
  B  B17  1  0.500000  0.750705  0.919186  1
  B  B18  1  0.500000  0.790562  0.265840  1
  B  B19  1  0.500000  0.210085  0.734459  1
  B  B20  1  0.500000  0.291938  0.233890  1
  B  B21  1  0.500000  0.706637  0.766377  1
  B  B22  1  0.500000  0.631523  0.183673  1
  B  B23  1  0.500000  0.370086  0.816473  1
  B  B24  1  0.500000  0.132272  0.314469  1
  B  B25  1  0.500000  0.867288  0.685846  1
  B  B26  1  0.500000  0.983310  0.212721  1
  B  B27  1  0.500000  0.016190  0.787491  1
  B  B28  1  0.500000  0.482539  0.287070  1
  B  B29  1  0.500000  0.518249  0.713826  1
  B  B30  1  0.500000  0.605768  0.028298  1
  B  B31  1  0.500000  0.395783  0.969066  1
  B  B32  1  0.500000  0.109350  0.470754  1
  B  B33  1  0.500000  0.890704  0.529703  1
  Ir  Ir34  1  0.000000  0.636431  0.321990  1
  Ir  Ir35  1  0.000000  0.364558  0.678854  1
