# generated using pymatgen
data_Dy5Ho3(ErRu2)2
_symmetry_space_group_name_H-M   'P 1'
_cell_length_a   6.33124470
_cell_length_b   7.24948452
_cell_length_c   8.44721910
_cell_angle_alpha   96.71103201
_cell_angle_beta   112.07246246
_cell_angle_gamma   89.90393749
_symmetry_Int_Tables_number   1
_chemical_formula_structural   Dy5Ho3(ErRu2)2
_chemical_formula_sum   'Dy5 Ho3 Er2 Ru4'
_cell_volume   356.45913647
_cell_formula_units_Z   1
loop_
 _symmetry_equiv_pos_site_id
 _symmetry_equiv_pos_as_xyz
  1  'x, y, z'
loop_
 _atom_site_type_symbol
 _atom_site_label
 _atom_site_symmetry_multiplicity
 _atom_site_fract_x
 _atom_site_fract_y
 _atom_site_fract_z
 _atom_site_occupancy
  Dy  Dy0  1  0.791919  0.584025  0.813574  1
  Dy  Dy1  1  0.977581  0.915871  0.186293  1
  Dy  Dy2  1  0.208352  0.415774  0.186419  1
  Dy  Dy3  1  0.022169  0.084337  0.813703  1
  Dy  Dy4  1  0.206326  0.685240  0.566112  1
  Ho  Ho5  1  0.640444  0.815261  0.434029  1
  Ho  Ho6  1  0.793543  0.314832  0.433709  1
  Ho  Ho7  1  0.359740  0.184803  0.565893  1
  Er  Er8  1  0.421114  0.749672  0.000035  1
  Er  Er9  1  0.578966  0.250322  0.000154  1
  Ru  Ru10  1  0.603201  0.924806  0.779902  1
  Ru  Ru11  1  0.822624  0.576086  0.219766  1
  Ru  Ru12  1  0.397120  0.075376  0.220285  1
  Ru  Ru13  1  0.176901  0.423595  0.780125  1
