# generated using pymatgen
data_BaMn4Cr4O16
_symmetry_space_group_name_H-M   'P 1'
_cell_length_a   5.89550560
_cell_length_b   7.15278840
_cell_length_c   7.25194763
_cell_angle_alpha   90.25329861
_cell_angle_beta   78.28121799
_cell_angle_gamma   78.09271921
_symmetry_Int_Tables_number   1
_chemical_formula_structural   BaMn4Cr4O16
_chemical_formula_sum   'Ba1 Mn4 Cr4 O16'
_cell_volume   292.64962490
_cell_formula_units_Z   1
loop_
 _symmetry_equiv_pos_site_id
 _symmetry_equiv_pos_as_xyz
  1  'x, y, z'
loop_
 _atom_site_type_symbol
 _atom_site_label
 _atom_site_symmetry_multiplicity
 _atom_site_fract_x
 _atom_site_fract_y
 _atom_site_fract_z
 _atom_site_occupancy
  Ba  Ba0  1  0.007307  0.999036  0.990836  1
  Mn  Mn1  1  0.339427  0.181180  0.477587  1
  Mn  Mn2  1  0.837645  0.182282  0.482943  1
  Mn  Mn3  1  0.426612  0.489504  0.821436  1
  Mn  Mn4  1  0.925333  0.495189  0.820641  1
  Cr  Cr5  1  0.580481  0.509672  0.187051  1
  Cr  Cr6  1  0.081854  0.504282  0.189067  1
  Cr  Cr7  1  0.171930  0.817209  0.514930  1
  Cr  Cr8  1  0.667698  0.817914  0.524435  1
  O  O9  1  0.833239  0.642513  0.057631  1
  O  O10  1  0.326744  0.641343  0.056753  1
  O  O11  1  0.984040  0.687335  0.384431  1
  O  O12  1  0.486990  0.688290  0.388064  1
  O  O13  1  0.854276  0.968807  0.646607  1
  O  O14  1  0.346321  0.970834  0.644601  1
  O  O15  1  0.344121  0.359867  0.279336  1
  O  O16  1  0.847417  0.351964  0.274861  1
  O  O17  1  0.162587  0.641650  0.729596  1
  O  O18  1  0.662499  0.634618  0.727321  1
  O  O19  1  0.152122  0.041897  0.352306  1
  O  O20  1  0.658229  0.040501  0.356194  1
  O  O21  1  0.026448  0.306753  0.609915  1
  O  O22  1  0.523514  0.311317  0.604657  1
  O  O23  1  0.177015  0.357958  0.939492  1
  O  O24  1  0.683248  0.358085  0.939310  1
