# generated using pymatgen
data_Y2Cu9Ni
_symmetry_space_group_name_H-M   'P 1'
_cell_length_a   4.08827200
_cell_length_b   5.07722400
_cell_length_c   8.79396400
_cell_angle_alpha   90.00000000
_cell_angle_beta   90.00000000
_cell_angle_gamma   90.00000000
_symmetry_Int_Tables_number   1
_chemical_formula_structural   Y2Cu9Ni
_chemical_formula_sum   'Y2 Cu9 Ni1'
_cell_volume   182.53695022
_cell_formula_units_Z   1
loop_
 _symmetry_equiv_pos_site_id
 _symmetry_equiv_pos_as_xyz
  1  'x, y, z'
loop_
 _atom_site_type_symbol
 _atom_site_label
 _atom_site_symmetry_multiplicity
 _atom_site_fract_x
 _atom_site_fract_y
 _atom_site_fract_z
 _atom_site_occupancy
  Y  Y0  1  0.000000  0.000000  0.004964  1
  Y  Y1  1  0.000000  0.500000  0.494754  1
  Cu  Cu2  1  0.000000  0.000000  0.333495  1
  Cu  Cu3  1  0.000000  0.500000  0.833244  1
  Cu  Cu4  1  0.000000  0.000000  0.666949  1
  Cu  Cu5  1  0.500000  0.500000  0.001116  1
  Cu  Cu6  1  0.500000  0.000000  0.500074  1
  Cu  Cu7  1  0.500000  0.252397  0.249967  1
  Cu  Cu8  1  0.500000  0.749320  0.749442  1
  Cu  Cu9  1  0.500000  0.747603  0.249967  1
  Cu  Cu10  1  0.500000  0.250680  0.749442  1
  Ni  Ni11  1  0.000000  0.500000  0.166585  1
