# generated using pymatgen
data_Nd4InSn7Pt4
_symmetry_space_group_name_H-M   'P 1'
_cell_length_a   10.31303334
_cell_length_b   10.28152492
_cell_length_c   10.28152451
_cell_angle_alpha   153.69894420
_cell_angle_beta   124.41119159
_cell_angle_gamma   62.48875899
_symmetry_Int_Tables_number   1
_chemical_formula_structural   Nd4InSn7Pt4
_chemical_formula_sum   'Nd4 In1 Sn7 Pt4'
_cell_volume   395.52588253
_cell_formula_units_Z   1
loop_
 _symmetry_equiv_pos_site_id
 _symmetry_equiv_pos_as_xyz
  1  'x, y, z'
loop_
 _atom_site_type_symbol
 _atom_site_label
 _atom_site_symmetry_multiplicity
 _atom_site_fract_x
 _atom_site_fract_y
 _atom_site_fract_z
 _atom_site_occupancy
  Nd  Nd0  1  0.779503  0.000310  0.779192  1
  Nd  Nd1  1  0.221940  0.999682  0.222258  1
  Nd  Nd2  1  0.203466  0.204309  0.999157  1
  Nd  Nd3  1  0.796037  0.796526  0.999510  1
  In  In4  1  0.459205  0.803227  0.655977  1
  Sn  Sn5  1  0.418033  0.416134  0.001899  1
  Sn  Sn6  1  0.579673  0.579295  0.000379  1
  Sn  Sn7  1  0.922389  0.421773  0.500616  1
  Sn  Sn8  1  0.079552  0.579752  0.499800  1
  Sn  Sn9  1  0.855074  0.199126  0.655948  1
  Sn  Sn10  1  0.145628  0.800727  0.344901  1
  Sn  Sn11  1  0.538734  0.200023  0.338710  1
  Pt  Pt12  1  0.099053  0.351662  0.747393  1
  Pt  Pt13  1  0.898391  0.648080  0.250311  1
  Pt  Pt14  1  0.608087  0.353090  0.254997  1
  Pt  Pt15  1  0.395236  0.646282  0.748954  1
