# generated using pymatgen
data_Zr6Fe2Co21
_symmetry_space_group_name_H-M   'P 1'
_cell_length_a   8.13508792
_cell_length_b   8.14488008
_cell_length_c   8.13508792
_cell_angle_alpha   120.03982800
_cell_angle_beta   89.75197392
_cell_angle_gamma   120.03982800
_symmetry_Int_Tables_number   1
_chemical_formula_structural   Zr6Fe2Co21
_chemical_formula_sum   'Zr6 Fe2 Co21'
_cell_volume   381.50904197
_cell_formula_units_Z   1
loop_
 _symmetry_equiv_pos_site_id
 _symmetry_equiv_pos_as_xyz
  1  'x, y, z'
loop_
 _atom_site_type_symbol
 _atom_site_label
 _atom_site_symmetry_multiplicity
 _atom_site_fract_x
 _atom_site_fract_y
 _atom_site_fract_z
 _atom_site_occupancy
  Zr  Zr0  1  0.289728  0.003226  0.289728  1
  Zr  Zr1  1  0.712498  0.000000  0.287501  1
  Zr  Zr2  1  0.289728  0.576229  0.289728  1
  Zr  Zr3  1  0.287501  0.000000  0.712498  1
  Zr  Zr4  1  0.710271  0.423770  0.710271  1
  Zr  Zr5  1  0.710272  0.996774  0.710272  1
  Fe  Fe6  1  0.000000  0.000000  0.000000  1
  Fe  Fe7  1  0.000000  0.500001  0.000000  1
  Co  Co8  1  0.500001  0.000000  0.000000  1
  Co  Co9  1  0.500001  0.500001  0.000000  1
  Co  Co10  1  0.674328  0.349240  0.024151  1
  Co  Co11  1  0.878679  0.757284  0.121320  1
  Co  Co12  1  0.364836  0.243131  0.121427  1
  Co  Co13  1  0.878679  0.242715  0.121320  1
  Co  Co14  1  0.675069  0.349547  0.324932  1
  Co  Co15  1  0.675069  0.650454  0.324932  1
  Co  Co16  1  0.975850  0.650761  0.325673  1
  Co  Co17  1  0.121427  0.243131  0.364836  1
  Co  Co18  1  0.000000  0.000000  0.500001  1
  Co  Co19  1  0.000000  0.500001  0.500001  1
  Co  Co20  1  0.500001  0.500001  0.500001  1
  Co  Co21  1  0.878572  0.756868  0.635164  1
  Co  Co22  1  0.024151  0.349240  0.674328  1
  Co  Co23  1  0.324932  0.349547  0.675069  1
  Co  Co24  1  0.324932  0.650454  0.675069  1
  Co  Co25  1  0.121320  0.242715  0.878679  1
  Co  Co26  1  0.121320  0.757284  0.878679  1
  Co  Co27  1  0.635164  0.756868  0.878572  1
  Co  Co28  1  0.325673  0.650761  0.975850  1
