# generated using pymatgen
data_Dy3Er2InSb2
_symmetry_space_group_name_H-M   'P 1'
_cell_length_a   8.94601557
_cell_length_b   8.92022536
_cell_length_c   6.45094300
_cell_angle_alpha   90.00000000
_cell_angle_beta   90.00000000
_cell_angle_gamma   119.90467169
_symmetry_Int_Tables_number   1
_chemical_formula_structural   Dy3Er2InSb2
_chemical_formula_sum   'Dy6 Er4 In2 Sb4'
_cell_volume   446.24739224
_cell_formula_units_Z   2
loop_
 _symmetry_equiv_pos_site_id
 _symmetry_equiv_pos_as_xyz
  1  'x, y, z'
loop_
 _atom_site_type_symbol
 _atom_site_label
 _atom_site_symmetry_multiplicity
 _atom_site_fract_x
 _atom_site_fract_y
 _atom_site_fract_z
 _atom_site_occupancy
  Dy  Dy0  1  0.002367  0.760110  0.750000  1
  Dy  Dy1  1  0.002367  0.242258  0.250000  1
  Dy  Dy2  1  0.757559  0.759300  0.250000  1
  Dy  Dy3  1  0.757559  0.998259  0.750000  1
  Dy  Dy4  1  0.241453  0.237673  0.750000  1
  Dy  Dy5  1  0.241453  0.003780  0.250000  1
  Er  Er6  1  0.333904  0.666953  0.500000  1
  Er  Er7  1  0.663031  0.331515  0.000000  1
  Er  Er8  1  0.663031  0.331515  0.500000  1
  Er  Er9  1  0.333904  0.666953  0.000000  1
  In  In10  1  0.395003  0.998306  0.750000  1
  In  In11  1  0.395003  0.396697  0.250000  1
  Sb  Sb12  1  0.999110  0.607492  0.250000  1
  Sb  Sb13  1  0.999110  0.391618  0.750000  1
  Sb  Sb14  1  0.607572  0.607016  0.750000  1
  Sb  Sb15  1  0.607572  0.000556  0.250000  1
