# generated using pymatgen
data_AcLa3(B2Ir5)2
_symmetry_space_group_name_H-M   'P 1'
_cell_length_a   11.20695654
_cell_length_b   11.20695646
_cell_length_c   11.20695739
_cell_angle_alpha   28.89770688
_cell_angle_beta   28.89770722
_cell_angle_gamma   28.89771357
_symmetry_Int_Tables_number   1
_chemical_formula_structural   AcLa3(B2Ir5)2
_chemical_formula_sum   'Ac1 La3 B4 Ir10'
_cell_volume   290.69096053
_cell_formula_units_Z   1
loop_
 _symmetry_equiv_pos_site_id
 _symmetry_equiv_pos_as_xyz
  1  'x, y, z'
loop_
 _atom_site_type_symbol
 _atom_site_label
 _atom_site_symmetry_multiplicity
 _atom_site_fract_x
 _atom_site_fract_y
 _atom_site_fract_z
 _atom_site_occupancy
  Ac  Ac0  1  0.151416  0.151416  0.151416  1
  La  La1  1  0.950069  0.950069  0.950069  1
  La  La2  1  0.848914  0.848914  0.848914  1
  La  La3  1  0.049260  0.049260  0.049260  1
  B  B4  1  0.618663  0.618663  0.618663  1
  B  B5  1  0.716174  0.716174  0.716174  1
  B  B6  1  0.381428  0.381428  0.381428  1
  B  B7  1  0.283792  0.283792  0.283792  1
  Ir  Ir8  1  0.410005  0.898269  0.410005  1
  Ir  Ir9  1  0.898269  0.410005  0.410005  1
  Ir  Ir10  1  0.499969  0.499969  0.000072  1
  Ir  Ir11  1  0.499969  0.000072  0.499969  1
  Ir  Ir12  1  0.000072  0.499969  0.499969  1
  Ir  Ir13  1  0.500069  0.500069  0.500069  1
  Ir  Ir14  1  0.590438  0.101051  0.590438  1
  Ir  Ir15  1  0.590438  0.590438  0.101051  1
  Ir  Ir16  1  0.101051  0.590438  0.590438  1
  Ir  Ir17  1  0.410005  0.410005  0.898269  1
