# generated using pymatgen
data_Eu2Y2ReTc3B16
_symmetry_space_group_name_H-M   'P 1'
_cell_length_a   3.61636800
_cell_length_b   6.01370203
_cell_length_c   11.63789971
_cell_angle_alpha   90.15955415
_cell_angle_beta   90.00000000
_cell_angle_gamma   90.00000000
_symmetry_Int_Tables_number   1
_chemical_formula_structural   Eu2Y2ReTc3B16
_chemical_formula_sum   'Eu2 Y2 Re1 Tc3 B16'
_cell_volume   253.09726340
_cell_formula_units_Z   1
loop_
 _symmetry_equiv_pos_site_id
 _symmetry_equiv_pos_as_xyz
  1  'x, y, z'
loop_
 _atom_site_type_symbol
 _atom_site_label
 _atom_site_symmetry_multiplicity
 _atom_site_fract_x
 _atom_site_fract_y
 _atom_site_fract_z
 _atom_site_occupancy
  Eu  Eu0  1  0.000000  0.126105  0.150880  1
  Eu  Eu1  1  0.000000  0.873202  0.849114  1
  Y  Y2  1  0.000000  0.627347  0.349985  1
  Y  Y3  1  0.000000  0.372979  0.649900  1
  Re  Re4  1  0.000000  0.370306  0.913944  1
  Tc  Tc5  1  0.000000  0.133078  0.414664  1
  Tc  Tc6  1  0.000000  0.867411  0.585189  1
  Tc  Tc7  1  0.000000  0.629207  0.085871  1
  B  B8  1  0.500000  0.477093  0.192443  1
  B  B9  1  0.500000  0.523167  0.807747  1
  B  B10  1  0.500000  0.974764  0.308909  1
  B  B11  1  0.500000  0.024913  0.691021  1
  B  B12  1  0.500000  0.284961  0.315838  1
  B  B13  1  0.500000  0.715199  0.684027  1
  B  B14  1  0.500000  0.783967  0.185180  1
  B  B15  1  0.500000  0.215845  0.814741  1
  B  B16  1  0.500000  0.363703  0.468632  1
  B  B17  1  0.500000  0.636558  0.531280  1
  B  B18  1  0.500000  0.862627  0.032523  1
  B  B19  1  0.500000  0.137173  0.967755  1
  B  B20  1  0.500000  0.387444  0.046874  1
  B  B21  1  0.500000  0.612764  0.953521  1
  B  B22  1  0.500000  0.887107  0.453077  1
  B  B23  1  0.500000  0.113080  0.546887  1
