# generated using pymatgen
data_Y7Er4LuIn20
_symmetry_space_group_name_H-M   'P 1'
_cell_length_a   6.50562046
_cell_length_b   10.42299556
_cell_length_c   12.27864829
_cell_angle_alpha   90.05413366
_cell_angle_beta   89.96156967
_cell_angle_gamma   90.00581685
_symmetry_Int_Tables_number   1
_chemical_formula_structural   Y7Er4LuIn20
_chemical_formula_sum   'Y7 Er4 Lu1 In20'
_cell_volume   832.59067347
_cell_formula_units_Z   1
loop_
 _symmetry_equiv_pos_site_id
 _symmetry_equiv_pos_as_xyz
  1  'x, y, z'
loop_
 _atom_site_type_symbol
 _atom_site_label
 _atom_site_symmetry_multiplicity
 _atom_site_fract_x
 _atom_site_fract_y
 _atom_site_fract_z
 _atom_site_occupancy
  Y  Y0  1  0.609410  0.006275  0.642361  1
  Y  Y1  1  0.109674  0.993076  0.858041  1
  Y  Y2  1  0.390636  0.506505  0.357733  1
  Y  Y3  1  0.109470  0.506839  0.858597  1
  Y  Y4  1  0.390605  0.993543  0.357620  1
  Y  Y5  1  0.890544  0.006659  0.142412  1
  Y  Y6  1  0.609437  0.493614  0.642241  1
  Er  Er7  1  0.150005  0.750008  0.556141  1
  Er  Er8  1  0.650170  0.250292  0.944109  1
  Er  Er9  1  0.849825  0.249768  0.443992  1
  Er  Er10  1  0.891175  0.493319  0.141711  1
  Lu  Lu11  1  0.348546  0.750164  0.055965  1
  In  In12  1  0.615591  0.749838  0.504542  1
  In  In13  1  0.885005  0.749201  0.005836  1
  In  In14  1  0.384353  0.250036  0.495175  1
  In  In15  1  0.115020  0.250114  0.995279  1
  In  In16  1  0.650035  0.749335  0.244596  1
  In  In17  1  0.849822  0.749892  0.745823  1
  In  In18  1  0.349866  0.250110  0.754554  1
  In  In19  1  0.150180  0.250611  0.254274  1
  In  In20  1  0.125952  0.749854  0.284070  1
  In  In21  1  0.374216  0.749859  0.784824  1
  In  In22  1  0.874287  0.250100  0.715374  1
  In  In23  1  0.627036  0.250977  0.215137  1
  In  In24  1  0.875638  0.543357  0.400594  1
  In  In25  1  0.624725  0.956094  0.901736  1
  In  In26  1  0.124429  0.043806  0.598457  1
  In  In27  1  0.375021  0.457066  0.098675  1
  In  In28  1  0.124269  0.456294  0.598489  1
  In  In29  1  0.375470  0.043397  0.098436  1
  In  In30  1  0.875408  0.956199  0.401419  1
  In  In31  1  0.624181  0.543797  0.901788  1
