# generated using pymatgen
data_Dy7Y(ThRh)6
_symmetry_space_group_name_H-M   'P 1'
_cell_length_a   9.79557215
_cell_length_b   9.79557119
_cell_length_c   6.36564742
_cell_angle_alpha   89.98984925
_cell_angle_beta   90.01014534
_cell_angle_gamma   119.38579175
_symmetry_Int_Tables_number   1
_chemical_formula_structural   Dy7Y(ThRh)6
_chemical_formula_sum   'Dy7 Y1 Th6 Rh6'
_cell_volume   532.21555323
_cell_formula_units_Z   1
loop_
 _symmetry_equiv_pos_site_id
 _symmetry_equiv_pos_as_xyz
  1  'x, y, z'
loop_
 _atom_site_type_symbol
 _atom_site_label
 _atom_site_symmetry_multiplicity
 _atom_site_fract_x
 _atom_site_fract_y
 _atom_site_fract_z
 _atom_site_occupancy
  Dy  Dy0  1  0.128211  0.871789  0.257026  1
  Dy  Dy1  1  0.460734  0.922820  0.549459  1
  Dy  Dy2  1  0.077180  0.539266  0.549459  1
  Dy  Dy3  1  0.461446  0.538554  0.550927  1
  Dy  Dy4  1  0.537369  0.077514  0.052253  1
  Dy  Dy5  1  0.922486  0.462631  0.052253  1
  Dy  Dy6  1  0.539137  0.460863  0.051964  1
  Y  Y7  1  0.667372  0.332628  0.530609  1
  Th  Th8  1  0.332743  0.667257  0.025276  1
  Th  Th9  1  0.873177  0.743315  0.753974  1
  Th  Th10  1  0.256685  0.126823  0.753974  1
  Th  Th11  1  0.870629  0.129371  0.755150  1
  Th  Th12  1  0.130097  0.254943  0.257500  1
  Th  Th13  1  0.745057  0.869903  0.257500  1
  Rh  Rh14  1  0.185740  0.369799  0.799506  1
  Rh  Rh15  1  0.630201  0.814260  0.799506  1
  Rh  Rh16  1  0.185015  0.814985  0.795259  1
  Rh  Rh17  1  0.808366  0.629860  0.298966  1
  Rh  Rh18  1  0.370140  0.191634  0.298966  1
  Rh  Rh19  1  0.818216  0.181784  0.291911  1
