# generated using pymatgen
data_La3Tm5(Si3Pt)4
_symmetry_space_group_name_H-M   'P 1'
_cell_length_a   8.20049700
_cell_length_b   8.20049835
_cell_length_c   8.27094200
_cell_angle_alpha   90.00000000
_cell_angle_beta   90.00000000
_cell_angle_gamma   119.99999857
_symmetry_Int_Tables_number   1
_chemical_formula_structural   La3Tm5(Si3Pt)4
_chemical_formula_sum   'La3 Tm5 Si12 Pt4'
_cell_volume   481.68822845
_cell_formula_units_Z   1
loop_
 _symmetry_equiv_pos_site_id
 _symmetry_equiv_pos_as_xyz
  1  'x, y, z'
loop_
 _atom_site_type_symbol
 _atom_site_label
 _atom_site_symmetry_multiplicity
 _atom_site_fract_x
 _atom_site_fract_y
 _atom_site_fract_z
 _atom_site_occupancy
  La  La0  1  0.499623  0.500377  0.750000  1
  La  La1  1  0.499623  0.999243  0.750000  1
  La  La2  1  0.000757  0.500377  0.750000  1
  Tm  Tm3  1  0.000000  0.000000  0.250000  1
  Tm  Tm4  1  0.000000  0.000000  0.750000  1
  Tm  Tm5  1  0.500478  0.499522  0.250000  1
  Tm  Tm6  1  0.500478  0.000957  0.250000  1
  Tm  Tm7  1  0.999043  0.499522  0.250000  1
  Si  Si8  1  0.164468  0.835532  0.491797  1
  Si  Si9  1  0.164468  0.328936  0.491797  1
  Si  Si10  1  0.671064  0.835532  0.491797  1
  Si  Si11  1  0.835576  0.164424  0.491498  1
  Si  Si12  1  0.835576  0.671151  0.491498  1
  Si  Si13  1  0.328849  0.164424  0.491498  1
  Si  Si14  1  0.835576  0.164424  0.008502  1
  Si  Si15  1  0.835576  0.671151  0.008502  1
  Si  Si16  1  0.328849  0.164424  0.008502  1
  Si  Si17  1  0.164468  0.835532  0.008203  1
  Si  Si18  1  0.164468  0.328936  0.008203  1
  Si  Si19  1  0.671064  0.835532  0.008203  1
  Pt  Pt20  1  0.333333  0.666667  0.472948  1
  Pt  Pt21  1  0.666667  0.333333  0.474720  1
  Pt  Pt22  1  0.666667  0.333333  0.025280  1
  Pt  Pt23  1  0.333333  0.666667  0.027052  1
