# generated using pymatgen
data_Tb5Y5(NiTe)4
_symmetry_space_group_name_H-M   'P 1'
_cell_length_a   7.83607794
_cell_length_b   7.83607707
_cell_length_c   14.96095502
_cell_angle_alpha   89.99482426
_cell_angle_beta   90.00517616
_cell_angle_gamma   150.06317200
_symmetry_Int_Tables_number   1
_chemical_formula_structural   Tb5Y5(NiTe)4
_chemical_formula_sum   'Tb5 Y5 Ni4 Te4'
_cell_volume   458.45460614
_cell_formula_units_Z   1
loop_
 _symmetry_equiv_pos_site_id
 _symmetry_equiv_pos_as_xyz
  1  'x, y, z'
loop_
 _atom_site_type_symbol
 _atom_site_label
 _atom_site_symmetry_multiplicity
 _atom_site_fract_x
 _atom_site_fract_y
 _atom_site_fract_z
 _atom_site_occupancy
  Tb  Tb0  1  0.958986  0.041014  0.125363  1
  Tb  Tb1  1  0.041125  0.958875  0.874120  1
  Tb  Tb2  1  0.040649  0.959351  0.625450  1
  Tb  Tb3  1  0.959166  0.040834  0.374461  1
  Tb  Tb4  1  0.740550  0.259450  0.628807  1
  Y  Y5  1  0.258540  0.741460  0.372740  1
  Y  Y6  1  0.258645  0.741355  0.127180  1
  Y  Y7  1  0.741655  0.258345  0.873196  1
  Y  Y8  1  0.605644  0.394356  0.249818  1
  Y  Y9  1  0.394230  0.605770  0.749927  1
  Ni  Ni10  1  0.411191  0.588809  0.249885  1
  Ni  Ni11  1  0.588672  0.411328  0.749576  1
  Ni  Ni12  1  0.815270  0.184730  0.250075  1
  Ni  Ni13  1  0.185401  0.814599  0.750015  1
  Te  Te14  1  0.615172  0.384828  0.040526  1
  Te  Te15  1  0.385037  0.614963  0.959378  1
  Te  Te16  1  0.384925  0.615075  0.540384  1
  Te  Te17  1  0.615140  0.384860  0.459099  1
