# generated using pymatgen
data_Hf2Zr6Co16Si5P7
_symmetry_space_group_name_H-M   'P 1'
_cell_length_a   12.18581813
_cell_length_b   12.18033235
_cell_length_c   3.68001200
_cell_angle_alpha   90.00000000
_cell_angle_beta   90.00000000
_cell_angle_gamma   120.06987766
_symmetry_Int_Tables_number   1
_chemical_formula_structural   Hf2Zr6Co16Si5P7
_chemical_formula_sum   'Hf2 Zr6 Co16 Si5 P7'
_cell_volume   472.70202732
_cell_formula_units_Z   1
loop_
 _symmetry_equiv_pos_site_id
 _symmetry_equiv_pos_as_xyz
  1  'x, y, z'
loop_
 _atom_site_type_symbol
 _atom_site_label
 _atom_site_symmetry_multiplicity
 _atom_site_fract_x
 _atom_site_fract_y
 _atom_site_fract_z
 _atom_site_occupancy
  Hf  Hf0  1  0.441602  0.443291  0.000000  1
  Hf  Hf1  1  0.558536  0.999465  0.000000  1
  Zr  Zr2  1  0.999726  0.557207  0.000000  1
  Zr  Zr3  1  0.668057  0.333492  0.000000  1
  Zr  Zr4  1  0.332986  0.666447  0.000000  1
  Zr  Zr5  1  0.822278  0.821268  0.500000  1
  Zr  Zr6  1  0.180703  0.000826  0.500000  1
  Zr  Zr7  1  0.000472  0.178182  0.500000  1
  Co  Co8  1  0.196515  0.372760  0.000000  1
  Co  Co9  1  0.175870  0.803861  0.000000  1
  Co  Co10  1  0.825907  0.629620  0.000000  1
  Co  Co11  1  0.801506  0.177695  0.000000  1
  Co  Co12  1  0.369385  0.195260  0.000000  1
  Co  Co13  1  0.127748  0.482377  0.500000  1
  Co  Co14  1  0.355731  0.871130  0.500000  1
  Co  Co15  1  0.515747  0.643777  0.500000  1
  Co  Co16  1  0.646329  0.521733  0.500000  1
  Co  Co17  1  0.872654  0.355064  0.500000  1
  Co  Co18  1  0.482215  0.122615  0.500000  1
  Co  Co19  1  0.004306  0.000063  0.000000  1
  Co  Co20  1  0.718649  0.999831  0.500000  1
  Co  Co21  1  0.000699  0.723307  0.500000  1
  Co  Co22  1  0.623937  0.821766  0.000000  1
  Co  Co23  1  0.275770  0.278830  0.500000  1
  Si  Si24  1  0.653000  0.653229  0.000000  1
  Si  Si25  1  0.348937  0.000863  0.000000  1
  Si  Si26  1  0.999475  0.345835  0.000000  1
  Si  Si27  1  0.482494  0.306988  0.500000  1
  Si  Si28  1  0.824074  0.999870  0.000000  1
  P  P29  1  0.691400  0.173383  0.500000  1
  P  P30  1  0.824620  0.518480  0.500000  1
  P  P31  1  0.518241  0.825762  0.500000  1
  P  P32  1  0.174752  0.692807  0.500000  1
  P  P33  1  0.000834  0.824203  0.000000  1
  P  P34  1  0.307860  0.481808  0.500000  1
  P  P35  1  0.176986  0.176907  0.000000  1
