# generated using pymatgen
data_BiBr9
_symmetry_space_group_name_H-M   'P 1'
_cell_length_a   9.62219116
_cell_length_b   9.58519285
_cell_length_c   9.62305453
_cell_angle_alpha   88.13286900
_cell_angle_beta   87.99703298
_cell_angle_gamma   88.29745732
_symmetry_Int_Tables_number   1
_chemical_formula_structural   BiBr9
_chemical_formula_sum   'Bi2 Br18'
_cell_volume   886.16372643
_cell_formula_units_Z   2
loop_
 _symmetry_equiv_pos_site_id
 _symmetry_equiv_pos_as_xyz
  1  'x, y, z'
loop_
 _atom_site_type_symbol
 _atom_site_label
 _atom_site_symmetry_multiplicity
 _atom_site_fract_x
 _atom_site_fract_y
 _atom_site_fract_z
 _atom_site_occupancy
  Bi  Bi0  1  0.500000  0.500000  0.500000  1
  Bi  Bi1  1  0.000000  0.000000  0.000000  1
  Br  Br2  1  0.799253  0.453235  0.511283  1
  Br  Br3  1  0.513407  0.800429  0.453010  1
  Br  Br4  1  0.454654  0.512534  0.799755  1
  Br  Br5  1  0.200747  0.546765  0.488717  1
  Br  Br6  1  0.486593  0.199571  0.546990  1
  Br  Br7  1  0.545346  0.487466  0.200245  1
  Br  Br8  1  0.895572  0.376191  0.747785  1
  Br  Br9  1  0.750219  0.897513  0.375907  1
  Br  Br10  1  0.376245  0.749558  0.895974  1
  Br  Br11  1  0.104428  0.623809  0.252215  1
  Br  Br12  1  0.249781  0.102487  0.624093  1
  Br  Br13  1  0.623755  0.250442  0.104026  1
  Br  Br14  1  0.025513  0.976541  0.698021  1
  Br  Br15  1  0.698014  0.025632  0.979289  1
  Br  Br16  1  0.979368  0.696726  0.028388  1
  Br  Br17  1  0.974487  0.023459  0.301979  1
  Br  Br18  1  0.301986  0.974368  0.020711  1
  Br  Br19  1  0.020632  0.303274  0.971612  1
