# generated using pymatgen
data_Ca2Ho2MgAl17Pd6
_symmetry_space_group_name_H-M   'P 1'
_cell_length_a   7.68326028
_cell_length_b   7.69166528
_cell_length_c   9.49130883
_cell_angle_alpha   90.14487799
_cell_angle_beta   89.88314542
_cell_angle_gamma   119.50959167
_symmetry_Int_Tables_number   1
_chemical_formula_structural   Ca2Ho2MgAl17Pd6
_chemical_formula_sum   'Ca2 Ho2 Mg1 Al17 Pd6'
_cell_volume   488.14190565
_cell_formula_units_Z   1
loop_
 _symmetry_equiv_pos_site_id
 _symmetry_equiv_pos_as_xyz
  1  'x, y, z'
loop_
 _atom_site_type_symbol
 _atom_site_label
 _atom_site_symmetry_multiplicity
 _atom_site_fract_x
 _atom_site_fract_y
 _atom_site_fract_z
 _atom_site_occupancy
  Ca  Ca0  1  0.996364  0.675002  0.251299  1
  Ca  Ca1  1  0.004294  0.329709  0.748268  1
  Ho  Ho2  1  0.667704  0.990297  0.252436  1
  Ho  Ho3  1  0.328574  0.003547  0.749641  1
  Mg  Mg4  1  0.995963  0.335754  0.077905  1
  Al  Al5  1  0.130135  0.131835  0.250410  1
  Al  Al6  1  0.870979  0.868119  0.751516  1
  Al  Al7  1  0.000071  0.663400  0.922958  1
  Al  Al8  1  0.999271  0.664574  0.577734  1
  Al  Al9  1  0.335765  0.001327  0.422098  1
  Al  Al10  1  0.000746  0.334344  0.420429  1
  Al  Al11  1  0.665959  0.000025  0.577703  1
  Al  Al12  1  0.667248  0.002111  0.924306  1
  Al  Al13  1  0.335684  0.001053  0.077329  1
  Al  Al14  1  0.332819  0.333164  0.555261  1
  Al  Al15  1  0.666422  0.666056  0.444460  1
  Al  Al16  1  0.667130  0.666531  0.053700  1
  Al  Al17  1  0.330317  0.332656  0.944038  1
  Al  Al18  1  0.345473  0.548554  0.250210  1
  Al  Al19  1  0.655809  0.451801  0.749138  1
  Al  Al20  1  0.547523  0.336188  0.249145  1
  Al  Al21  1  0.456365  0.665066  0.750971  1
  Pd  Pd22  1  0.659112  0.324543  0.995900  1
  Pd  Pd23  1  0.337384  0.681769  0.999809  1
  Pd  Pd24  1  0.329947  0.674238  0.501530  1
  Pd  Pd25  1  0.670769  0.326423  0.499933  1
  Pd  Pd26  1  0.001502  0.993070  0.000264  1
  Pd  Pd27  1  0.000673  0.998848  0.501605  1
