# generated using pymatgen
data_Pr8MgSc10Si16Ag
_symmetry_space_group_name_H-M   'P 1'
_cell_length_a   7.17661855
_cell_length_b   7.57303681
_cell_length_c   14.29009800
_cell_angle_alpha   90.00000000
_cell_angle_beta   90.00000000
_cell_angle_gamma   90.03023391
_symmetry_Int_Tables_number   1
_chemical_formula_structural   Pr8MgSc10Si16Ag
_chemical_formula_sum   'Pr8 Mg1 Sc10 Si16 Ag1'
_cell_volume   776.64951905
_cell_formula_units_Z   1
loop_
 _symmetry_equiv_pos_site_id
 _symmetry_equiv_pos_as_xyz
  1  'x, y, z'
loop_
 _atom_site_type_symbol
 _atom_site_label
 _atom_site_symmetry_multiplicity
 _atom_site_fract_x
 _atom_site_fract_y
 _atom_site_fract_z
 _atom_site_occupancy
  Pr  Pr0  1  0.009388  0.176846  0.401716  1
  Pr  Pr1  1  0.515315  0.330273  0.400518  1
  Pr  Pr2  1  0.491663  0.681217  0.899679  1
  Pr  Pr3  1  0.491663  0.681217  0.600321  1
  Pr  Pr4  1  0.980985  0.828382  0.602040  1
  Pr  Pr5  1  0.980985  0.828382  0.897960  1
  Pr  Pr6  1  0.515315  0.330273  0.099482  1
  Pr  Pr7  1  0.009388  0.176846  0.098284  1
  Mg  Mg8  1  0.844431  0.501080  0.250000  1
  Sc  Sc9  1  0.335525  0.172471  0.625313  1
  Sc  Sc10  1  0.673045  0.818584  0.374761  1
  Sc  Sc11  1  0.167569  0.675655  0.375735  1
  Sc  Sc12  1  0.825868  0.314386  0.874574  1
  Sc  Sc13  1  0.825868  0.314386  0.625426  1
  Sc  Sc14  1  0.341280  0.997266  0.250000  1
  Sc  Sc15  1  0.335525  0.172471  0.874687  1
  Sc  Sc16  1  0.167569  0.675655  0.124265  1
  Sc  Sc17  1  0.673045  0.818584  0.125239  1
  Sc  Sc18  1  0.158354  0.494156  0.750000  1
  Si  Si19  1  0.279484  0.884193  0.750000  1
  Si  Si20  1  0.458943  0.625461  0.250000  1
  Si  Si21  1  0.042346  0.123825  0.750000  1
  Si  Si22  1  0.530616  0.385575  0.750000  1
  Si  Si23  1  0.153953  0.464868  0.540302  1
  Si  Si24  1  0.968286  0.884238  0.250000  1
  Si  Si25  1  0.708608  0.102090  0.250000  1
  Si  Si26  1  0.849108  0.539285  0.033338  1
  Si  Si27  1  0.347478  0.965028  0.040121  1
  Si  Si28  1  0.153953  0.464868  0.959698  1
  Si  Si29  1  0.652973  0.040707  0.531174  1
  Si  Si30  1  0.347478  0.965028  0.459879  1
  Si  Si31  1  0.849108  0.539285  0.466662  1
  Si  Si32  1  0.791490  0.594748  0.750000  1
  Si  Si33  1  0.219825  0.385217  0.250000  1
  Si  Si34  1  0.652973  0.040707  0.968826  1
  Ag  Ag35  1  0.650597  0.006749  0.750000  1
