# generated using pymatgen
data_Mn3Bi(Pt2O7)2
_symmetry_space_group_name_H-M   'P 1'
_cell_length_a   7.09959198
_cell_length_b   7.18083618
_cell_length_c   7.09959200
_cell_angle_alpha   60.37356456
_cell_angle_beta   59.99999988
_cell_angle_gamma   60.37356194
_symmetry_Int_Tables_number   1
_chemical_formula_structural   Mn3Bi(Pt2O7)2
_chemical_formula_sum   'Mn3 Bi1 Pt4 O14'
_cell_volume   257.36889967
_cell_formula_units_Z   1
loop_
 _symmetry_equiv_pos_site_id
 _symmetry_equiv_pos_as_xyz
  1  'x, y, z'
loop_
 _atom_site_type_symbol
 _atom_site_label
 _atom_site_symmetry_multiplicity
 _atom_site_fract_x
 _atom_site_fract_y
 _atom_site_fract_z
 _atom_site_occupancy
  Mn  Mn0  1  0.125000  0.125000  0.625000  1
  Mn  Mn1  1  0.625000  0.125000  0.125000  1
  Mn  Mn2  1  0.125000  0.125000  0.125000  1
  Bi  Bi3  1  0.125000  0.625000  0.125000  1
  Pt  Pt4  1  0.625000  0.625000  0.125000  1
  Pt  Pt5  1  0.625000  0.125000  0.625000  1
  Pt  Pt6  1  0.125000  0.625000  0.625000  1
  Pt  Pt7  1  0.625000  0.625000  0.625000  1
  O  O8  1  0.256332  0.231004  0.256332  1
  O  O9  1  0.993668  0.018996  0.993668  1
  O  O10  1  0.533530  0.965819  0.533530  1
  O  O11  1  0.284593  0.720546  0.284593  1
  O  O12  1  0.539731  0.529454  0.965407  1
  O  O13  1  0.965407  0.529454  0.539731  1
  O  O14  1  0.533530  0.965819  0.967121  1
  O  O15  1  0.967121  0.965819  0.533530  1
  O  O16  1  0.965407  0.529454  0.965407  1
  O  O17  1  0.716470  0.284181  0.282879  1
  O  O18  1  0.284593  0.720546  0.710269  1
  O  O19  1  0.716470  0.284181  0.716470  1
  O  O20  1  0.282879  0.284181  0.716470  1
  O  O21  1  0.710269  0.720546  0.284593  1
