# generated using pymatgen
data_Np8Nb11Si16Ru
_symmetry_space_group_name_H-M   'P 1'
_cell_length_a   7.11257459
_cell_length_b   7.12230691
_cell_length_c   13.17813800
_cell_angle_alpha   89.74674858
_cell_angle_beta   90.02336113
_cell_angle_gamma   90.11507608
_symmetry_Int_Tables_number   1
_chemical_formula_structural   Np8Nb11Si16Ru
_chemical_formula_sum   'Np8 Nb11 Si16 Ru1'
_cell_volume   667.56939262
_cell_formula_units_Z   1
loop_
 _symmetry_equiv_pos_site_id
 _symmetry_equiv_pos_as_xyz
  1  'x, y, z'
loop_
 _atom_site_type_symbol
 _atom_site_label
 _atom_site_symmetry_multiplicity
 _atom_site_fract_x
 _atom_site_fract_y
 _atom_site_fract_z
 _atom_site_occupancy
  Np  Np0  1  0.998368  0.341520  0.221806  1
  Np  Np1  1  0.006991  0.667391  0.719393  1
  Np  Np2  1  0.159682  0.501143  0.465387  1
  Np  Np3  1  0.505723  0.834757  0.034061  1
  Np  Np4  1  0.834303  0.508442  0.967642  1
  Np  Np5  1  0.499541  0.159029  0.530074  1
  Np  Np6  1  0.333439  0.993697  0.780176  1
  Np  Np7  1  0.664054  0.003541  0.281001  1
  Nb  Nb8  1  0.168578  0.169463  0.001245  1
  Nb  Nb9  1  0.828063  0.830992  0.500326  1
  Nb  Nb10  1  0.327045  0.665690  0.248683  1
  Nb  Nb11  1  0.669897  0.330718  0.749542  1
  Nb  Nb12  1  0.844682  0.004356  0.875225  1
  Nb  Nb13  1  0.498700  0.657360  0.624124  1
  Nb  Nb14  1  0.344353  0.496561  0.874352  1
  Nb  Nb15  1  0.494812  0.339217  0.126587  1
  Nb  Nb16  1  0.656040  0.499610  0.375230  1
  Nb  Nb17  1  0.996450  0.156969  0.626400  1
  Nb  Nb18  1  0.000381  0.842044  0.122012  1
  Si  Si19  1  0.289746  0.038295  0.189376  1
  Si  Si20  1  0.705129  0.957579  0.685550  1
  Si  Si21  1  0.454202  0.792901  0.433108  1
  Si  Si22  1  0.205354  0.540498  0.064282  1
  Si  Si23  1  0.541579  0.204867  0.935584  1
  Si  Si24  1  0.792928  0.458421  0.565045  1
  Si  Si25  1  0.042385  0.296628  0.815049  1
  Si  Si26  1  0.960976  0.720116  0.315064  1
  Si  Si27  1  0.368753  0.289075  0.318334  1
  Si  Si28  1  0.630796  0.704679  0.815096  1
  Si  Si29  1  0.199606  0.869496  0.561272  1
  Si  Si30  1  0.132208  0.796760  0.934379  1
  Si  Si31  1  0.796291  0.134087  0.067357  1
  Si  Si32  1  0.879786  0.197755  0.433240  1
  Si  Si33  1  0.295612  0.368279  0.682487  1
  Si  Si34  1  0.704769  0.627453  0.185232  1
  Ru  Ru35  1  0.168778  0.000614  0.376279  1
