# generated using pymatgen
data_Hf6Mn6Si11P
_symmetry_space_group_name_H-M   'P 1'
_cell_length_a   9.74440873
_cell_length_b   9.74302186
_cell_length_c   9.74302211
_cell_angle_alpha   149.63483331
_cell_angle_beta   132.50344691
_cell_angle_gamma   57.42010176
_symmetry_Int_Tables_number   1
_chemical_formula_structural   Hf6Mn6Si11P
_chemical_formula_sum   'Hf6 Mn6 Si11 P1'
_cell_volume   342.26615703
_cell_formula_units_Z   1
loop_
 _symmetry_equiv_pos_site_id
 _symmetry_equiv_pos_as_xyz
  1  'x, y, z'
loop_
 _atom_site_type_symbol
 _atom_site_label
 _atom_site_symmetry_multiplicity
 _atom_site_fract_x
 _atom_site_fract_y
 _atom_site_fract_z
 _atom_site_occupancy
  Hf  Hf0  1  0.851762  0.594753  0.257011  1
  Hf  Hf1  1  0.145310  0.406001  0.739308  1
  Hf  Hf2  1  0.666885  0.404671  0.262214  1
  Hf  Hf3  1  0.340022  0.595923  0.744099  1
  Hf  Hf4  1  0.140365  0.141653  0.998711  1
  Hf  Hf5  1  0.859678  0.859747  0.999932  1
  Mn  Mn6  1  0.747837  0.001244  0.746594  1
  Mn  Mn7  1  0.998272  0.001478  0.500867  1
  Mn  Mn8  1  0.500073  0.496465  0.500001  1
  Mn  Mn9  1  0.500073  0.000070  0.003608  1
  Mn  Mn10  1  0.256276  0.002235  0.254041  1
  Mn  Mn11  1  0.998272  0.497406  0.996794  1
  Si  Si12  1  0.512773  0.862396  0.650377  1
  Si  Si13  1  0.213170  0.862803  0.350368  1
  Si  Si14  1  0.779946  0.136835  0.643110  1
  Si  Si15  1  0.707463  0.702650  0.004813  1
  Si  Si16  1  0.298786  0.298599  0.000187  1
  Si  Si17  1  0.499089  0.738446  0.242780  1
  Si  Si18  1  0.499089  0.256310  0.760643  1
  Si  Si19  1  0.001207  0.256444  0.255831  1
  Si  Si20  1  0.210446  0.711293  0.499152  1
  Si  Si21  1  0.001207  0.745376  0.744763  1
  Si  Si22  1  0.792072  0.290480  0.501593  1
  P  P23  1  0.479926  0.136721  0.343205  1
