# generated using pymatgen
data_NaPr6CuBr12
_symmetry_space_group_name_H-M   'P 1'
_cell_length_a   9.64368645
_cell_length_b   9.64663607
_cell_length_c   9.63859600
_cell_angle_alpha   107.27530359
_cell_angle_beta   107.16097905
_cell_angle_gamma   107.29997143
_symmetry_Int_Tables_number   1
_chemical_formula_structural   NaPr6CuBr12
_chemical_formula_sum   'Na1 Pr6 Cu1 Br12'
_cell_volume   741.69848306
_cell_formula_units_Z   1
loop_
 _symmetry_equiv_pos_site_id
 _symmetry_equiv_pos_as_xyz
  1  'x, y, z'
loop_
 _atom_site_type_symbol
 _atom_site_label
 _atom_site_symmetry_multiplicity
 _atom_site_fract_x
 _atom_site_fract_y
 _atom_site_fract_z
 _atom_site_occupancy
  Na  Na0  1  0.500000  0.500000  0.500000  1
  Pr  Pr1  1  0.323962  0.115326  0.030759  1
  Pr  Pr2  1  0.030837  0.323951  0.115674  1
  Pr  Pr3  1  0.115036  0.030538  0.323856  1
  Pr  Pr4  1  0.884964  0.969462  0.676145  1
  Pr  Pr5  1  0.969163  0.676050  0.884327  1
  Pr  Pr6  1  0.676039  0.884674  0.969242  1
  Cu  Cu7  1  0.000000  0.000000  0.000000  1
  Br  Br8  1  0.683697  0.215137  0.068026  1
  Br  Br9  1  0.370603  0.453875  0.158559  1
  Br  Br10  1  0.067698  0.683612  0.214697  1
  Br  Br11  1  0.784476  0.932015  0.316324  1
  Br  Br12  1  0.453568  0.158477  0.370602  1
  Br  Br13  1  0.158357  0.370481  0.454264  1
  Br  Br14  1  0.841643  0.629520  0.545736  1
  Br  Br15  1  0.546432  0.841524  0.629398  1
  Br  Br16  1  0.215525  0.067986  0.683676  1
  Br  Br17  1  0.932302  0.316388  0.785304  1
  Br  Br18  1  0.629398  0.546125  0.841441  1
  Br  Br19  1  0.316304  0.784863  0.931974  1
