# generated using pymatgen
data_SmMnTeO6
_symmetry_space_group_name_H-M   'P 1'
_cell_length_a   5.18468561
_cell_length_b   5.18494334
_cell_length_c   5.04372995
_cell_angle_alpha   90.90368060
_cell_angle_beta   90.90197334
_cell_angle_gamma   117.65695794
_symmetry_Int_Tables_number   1
_chemical_formula_structural   SmMnTeO6
_chemical_formula_sum   'Sm1 Mn1 Te1 O6'
_cell_volume   120.03957971
_cell_formula_units_Z   1
loop_
 _symmetry_equiv_pos_site_id
 _symmetry_equiv_pos_as_xyz
  1  'x, y, z'
loop_
 _atom_site_type_symbol
 _atom_site_label
 _atom_site_symmetry_multiplicity
 _atom_site_fract_x
 _atom_site_fract_y
 _atom_site_fract_z
 _atom_site_occupancy
  Sm  Sm0  1  0.521678  0.478352  0.499992  1
  Mn  Mn1  1  0.851570  0.148583  0.000057  1
  Te  Te2  1  0.188882  0.811109  0.999990  1
  O  O3  1  0.153928  0.113748  0.215066  1
  O  O4  1  0.493625  0.829295  0.232802  1
  O  O5  1  0.887567  0.494755  0.203670  1
  O  O6  1  0.505276  0.112434  0.796340  1
  O  O7  1  0.170594  0.506348  0.767124  1
  O  O8  1  0.886209  0.846061  0.784994  1
