# generated using pymatgen
data_CePaBi4
_symmetry_space_group_name_H-M   'P 1'
_cell_length_a   4.52504700
_cell_length_b   4.52504700
_cell_length_c   9.07169300
_cell_angle_alpha   90.00000000
_cell_angle_beta   90.00000000
_cell_angle_gamma   90.00000000
_symmetry_Int_Tables_number   1
_chemical_formula_structural   CePaBi4
_chemical_formula_sum   'Ce1 Pa1 Bi4'
_cell_volume   185.75244265
_cell_formula_units_Z   1
loop_
 _symmetry_equiv_pos_site_id
 _symmetry_equiv_pos_as_xyz
  1  'x, y, z'
loop_
 _atom_site_type_symbol
 _atom_site_label
 _atom_site_symmetry_multiplicity
 _atom_site_fract_x
 _atom_site_fract_y
 _atom_site_fract_z
 _atom_site_occupancy
  Ce  Ce0  1  0.000000  0.500000  0.717153  1
  Pa  Pa1  1  0.500000  0.000000  0.283491  1
  Bi  Bi2  1  0.000000  0.500000  0.352399  1
  Bi  Bi3  1  0.500000  0.000000  0.636839  1
  Bi  Bi4  1  0.000000  0.000000  0.005059  1
  Bi  Bi5  1  0.500000  0.500000  0.005059  1
