# generated using pymatgen
data_TaMn3SiMo
_symmetry_space_group_name_H-M   'P 1'
_cell_length_a   4.82205300
_cell_length_b   4.82205204
_cell_length_c   7.79351500
_cell_angle_alpha   90.00000000
_cell_angle_beta   90.00000000
_cell_angle_gamma   120.00001344
_symmetry_Int_Tables_number   1
_chemical_formula_structural   TaMn3SiMo
_chemical_formula_sum   'Ta2 Mn6 Si2 Mo2'
_cell_volume   156.93789424
_cell_formula_units_Z   2
loop_
 _symmetry_equiv_pos_site_id
 _symmetry_equiv_pos_as_xyz
  1  'x, y, z'
loop_
 _atom_site_type_symbol
 _atom_site_label
 _atom_site_symmetry_multiplicity
 _atom_site_fract_x
 _atom_site_fract_y
 _atom_site_fract_z
 _atom_site_occupancy
  Ta  Ta0  1  0.333333  0.666667  0.931107  1
  Ta  Ta1  1  0.666667  0.333333  0.068893  1
  Mn  Mn2  1  0.656734  0.828367  0.251389  1
  Mn  Mn3  1  0.171633  0.828367  0.251389  1
  Mn  Mn4  1  0.171633  0.343266  0.251389  1
  Mn  Mn5  1  0.343266  0.171633  0.748611  1
  Mn  Mn6  1  0.828367  0.171633  0.748611  1
  Mn  Mn7  1  0.828367  0.656734  0.748611  1
  Si  Si8  1  0.000000  0.000000  0.500000  1
  Si  Si9  1  0.000000  0.000000  0.000000  1
  Mo  Mo10  1  0.666667  0.333333  0.445096  1
  Mo  Mo11  1  0.333333  0.666667  0.554904  1
