# generated using pymatgen
data_LuTa5Fe2(BRu2)4
_symmetry_space_group_name_H-M   'P 1'
_cell_length_a   9.32196000
_cell_length_b   9.32196030
_cell_length_c   3.05877000
_cell_angle_alpha   90.00000000
_cell_angle_beta   90.00000000
_cell_angle_gamma   90.21449488
_symmetry_Int_Tables_number   1
_chemical_formula_structural   LuTa5Fe2(BRu2)4
_chemical_formula_sum   'Lu1 Ta5 Fe2 B4 Ru8'
_cell_volume   265.80201119
_cell_formula_units_Z   1
loop_
 _symmetry_equiv_pos_site_id
 _symmetry_equiv_pos_as_xyz
  1  'x, y, z'
loop_
 _atom_site_type_symbol
 _atom_site_label
 _atom_site_symmetry_multiplicity
 _atom_site_fract_x
 _atom_site_fract_y
 _atom_site_fract_z
 _atom_site_occupancy
  Lu  Lu0  1  0.825049  0.674951  0.000000  1
  Ta  Ta1  1  0.171306  0.328694  0.000000  1
  Ta  Ta2  1  0.326677  0.828732  0.000000  1
  Ta  Ta3  1  0.671268  0.173323  0.000000  1
  Ta  Ta4  1  0.502483  0.500516  0.000000  1
  Ta  Ta5  1  0.999484  0.997517  0.000000  1
  Fe  Fe6  1  0.496410  0.003590  0.500000  1
  Fe  Fe7  1  0.009783  0.490217  0.500000  1
  B  B8  1  0.609752  0.890248  0.000000  1
  B  B9  1  0.386984  0.113016  0.000000  1
  B  B10  1  0.115372  0.609826  0.000000  1
  B  B11  1  0.890174  0.384628  0.000000  1
  Ru  Ru12  1  0.557174  0.728046  0.500000  1
  Ru  Ru13  1  0.429931  0.278927  0.500000  1
  Ru  Ru14  1  0.076773  0.777104  0.500000  1
  Ru  Ru15  1  0.934991  0.219531  0.500000  1
  Ru  Ru16  1  0.280469  0.565009  0.500000  1
  Ru  Ru17  1  0.722896  0.423227  0.500000  1
  Ru  Ru18  1  0.221073  0.070069  0.500000  1
  Ru  Ru19  1  0.771954  0.942826  0.500000  1
