# generated using pymatgen
data_Na3Lu(Al3Pd)6
_symmetry_space_group_name_H-M   'P 1'
_cell_length_a   7.66073200
_cell_length_b   7.65781564
_cell_length_c   9.51435500
_cell_angle_alpha   90.00000000
_cell_angle_beta   90.00000000
_cell_angle_gamma   119.57094725
_symmetry_Int_Tables_number   1
_chemical_formula_structural   Na3Lu(Al3Pd)6
_chemical_formula_sum   'Na3 Lu1 Al18 Pd6'
_cell_volume   485.45235010
_cell_formula_units_Z   1
loop_
 _symmetry_equiv_pos_site_id
 _symmetry_equiv_pos_as_xyz
  1  'x, y, z'
loop_
 _atom_site_type_symbol
 _atom_site_label
 _atom_site_symmetry_multiplicity
 _atom_site_fract_x
 _atom_site_fract_y
 _atom_site_fract_z
 _atom_site_occupancy
  Na  Na0  1  0.992614  0.669440  0.250000  1
  Na  Na1  1  0.005017  0.329481  0.750000  1
  Na  Na2  1  0.673055  0.995642  0.250000  1
  Lu  Lu3  1  0.330580  0.998796  0.750000  1
  Al  Al4  1  0.129261  0.132435  0.250000  1
  Al  Al5  1  0.873149  0.866907  0.750000  1
  Al  Al6  1  0.998385  0.334650  0.074617  1
  Al  Al7  1  0.999529  0.662429  0.925934  1
  Al  Al8  1  0.999529  0.662429  0.574066  1
  Al  Al9  1  0.334157  0.998605  0.420601  1
  Al  Al10  1  0.998385  0.334650  0.425383  1
  Al  Al11  1  0.668931  0.002723  0.574262  1
  Al  Al12  1  0.668931  0.002723  0.925738  1
  Al  Al13  1  0.334157  0.998605  0.079399  1
  Al  Al14  1  0.330859  0.331811  0.555378  1
  Al  Al15  1  0.666928  0.667862  0.447537  1
  Al  Al16  1  0.666928  0.667862  0.052463  1
  Al  Al17  1  0.330859  0.331811  0.944622  1
  Al  Al18  1  0.337466  0.547088  0.250000  1
  Al  Al19  1  0.657168  0.454227  0.750000  1
  Al  Al20  1  0.544977  0.341096  0.250000  1
  Al  Al21  1  0.460105  0.668833  0.750000  1
  Pd  Pd22  1  0.666643  0.326914  0.997459  1
  Pd  Pd23  1  0.329213  0.671907  0.996697  1
  Pd  Pd24  1  0.329213  0.671907  0.503303  1
  Pd  Pd25  1  0.666643  0.326914  0.502541  1
  Pd  Pd26  1  0.003660  0.001128  0.996871  1
  Pd  Pd27  1  0.003660  0.001128  0.503129  1
