# generated using pymatgen
data_CeNd2(GaNi)3
_symmetry_space_group_name_H-M   'P 1'
_cell_length_a   7.12472000
_cell_length_b   7.06986770
_cell_length_c   3.93582800
_cell_angle_alpha   90.00000000
_cell_angle_beta   90.00000000
_cell_angle_gamma   120.25697677
_symmetry_Int_Tables_number   1
_chemical_formula_structural   CeNd2(GaNi)3
_chemical_formula_sum   'Ce1 Nd2 Ga3 Ni3'
_cell_volume   171.24401614
_cell_formula_units_Z   1
loop_
 _symmetry_equiv_pos_site_id
 _symmetry_equiv_pos_as_xyz
  1  'x, y, z'
loop_
 _atom_site_type_symbol
 _atom_site_label
 _atom_site_symmetry_multiplicity
 _atom_site_fract_x
 _atom_site_fract_y
 _atom_site_fract_z
 _atom_site_occupancy
  Ce  Ce0  1  0.581787  0.000000  0.500000  1
  Nd  Nd1  1  0.001882  0.584731  0.500000  1
  Nd  Nd2  1  0.417151  0.415269  0.500000  1
  Ga  Ga3  1  0.234665  0.000000  0.000000  1
  Ga  Ga4  1  0.762996  0.765369  0.000000  1
  Ga  Ga5  1  0.997627  0.234631  0.000000  1
  Ni  Ni6  1  0.661613  0.310574  0.000000  1
  Ni  Ni7  1  0.351038  0.689426  0.000000  1
  Ni  Ni8  1  0.991241  0.000000  0.500000  1
