# generated using pymatgen
data_Dy3HoGa18Co5Pt
_symmetry_space_group_name_H-M   'P 1'
_cell_length_a   7.41846376
_cell_length_b   7.41766871
_cell_length_c   9.41335000
_cell_angle_alpha   89.88209661
_cell_angle_beta   89.87733640
_cell_angle_gamma   119.74733319
_symmetry_Int_Tables_number   1
_chemical_formula_structural   Dy3HoGa18Co5Pt
_chemical_formula_sum   'Dy3 Ho1 Ga18 Co5 Pt1'
_cell_volume   449.73072635
_cell_formula_units_Z   1
loop_
 _symmetry_equiv_pos_site_id
 _symmetry_equiv_pos_as_xyz
  1  'x, y, z'
loop_
 _atom_site_type_symbol
 _atom_site_label
 _atom_site_symmetry_multiplicity
 _atom_site_fract_x
 _atom_site_fract_y
 _atom_site_fract_z
 _atom_site_occupancy
  Dy  Dy0  1  0.328112  0.002912  0.748767  1
  Dy  Dy1  1  0.002933  0.328147  0.748783  1
  Dy  Dy2  1  0.671907  0.997070  0.251225  1
  Ho  Ho3  1  0.997036  0.671925  0.251267  1
  Ga  Ga4  1  0.655570  0.000664  0.923649  1
  Ga  Ga5  1  0.334958  0.997988  0.427891  1
  Ga  Ga6  1  0.998167  0.335423  0.427894  1
  Ga  Ga7  1  0.344204  0.999143  0.076517  1
  Ga  Ga8  1  0.000639  0.655562  0.923815  1
  Ga  Ga9  1  0.999326  0.344701  0.076535  1
  Ga  Ga10  1  0.333363  0.333323  0.557845  1
  Ga  Ga11  1  0.343678  0.343651  0.937106  1
  Ga  Ga12  1  0.656534  0.656316  0.063081  1
  Ga  Ga13  1  0.666901  0.666636  0.441941  1
  Ga  Ga14  1  0.870414  0.870380  0.741120  1
  Ga  Ga15  1  0.129516  0.129334  0.258880  1
  Ga  Ga16  1  0.335406  0.552747  0.251389  1
  Ga  Ga17  1  0.552997  0.335801  0.251417  1
  Ga  Ga18  1  0.664431  0.447335  0.748587  1
  Ga  Ga19  1  0.447340  0.664395  0.748605  1
  Ga  Ga20  1  0.664827  0.001837  0.571941  1
  Ga  Ga21  1  0.001771  0.664791  0.571739  1
  Co  Co22  1  0.329476  0.670548  0.000083  1
  Co  Co23  1  0.670859  0.329166  0.499909  1
  Co  Co24  1  0.670542  0.329470  0.000090  1
  Co  Co25  1  0.329169  0.670859  0.499922  1
  Co  Co26  1  0.999962  0.999927  0.499907  1
  Pt  Pt27  1  0.999963  0.999950  0.000098  1
