# generated using pymatgen
data_Dy2Ho10Tc3Ir
_symmetry_space_group_name_H-M   'P 1'
_cell_length_a   6.26798619
_cell_length_b   7.37683536
_cell_length_c   9.10403400
_cell_angle_alpha   90.00000000
_cell_angle_beta   90.00000000
_cell_angle_gamma   89.96794722
_symmetry_Int_Tables_number   1
_chemical_formula_structural   Dy2Ho10Tc3Ir
_chemical_formula_sum   'Dy2 Ho10 Tc3 Ir1'
_cell_volume   420.95136754
_cell_formula_units_Z   1
loop_
 _symmetry_equiv_pos_site_id
 _symmetry_equiv_pos_as_xyz
  1  'x, y, z'
loop_
 _atom_site_type_symbol
 _atom_site_label
 _atom_site_symmetry_multiplicity
 _atom_site_fract_x
 _atom_site_fract_y
 _atom_site_fract_z
 _atom_site_occupancy
  Dy  Dy0  1  0.874022  0.540923  0.250000  1
  Dy  Dy1  1  0.131152  0.458174  0.750000  1
  Ho  Ho2  1  0.333316  0.676177  0.064328  1
  Ho  Ho3  1  0.163341  0.175652  0.436712  1
  Ho  Ho4  1  0.664767  0.322705  0.561545  1
  Ho  Ho5  1  0.835422  0.825275  0.938040  1
  Ho  Ho6  1  0.664767  0.322705  0.938455  1
  Ho  Ho7  1  0.835422  0.825275  0.561960  1
  Ho  Ho8  1  0.333316  0.676177  0.435672  1
  Ho  Ho9  1  0.163341  0.175652  0.063288  1
  Ho  Ho10  1  0.625469  0.038573  0.250000  1
  Ho  Ho11  1  0.370892  0.960021  0.750000  1
  Tc  Tc12  1  0.039647  0.883634  0.250000  1
  Tc  Tc13  1  0.462069  0.386108  0.250000  1
  Tc  Tc14  1  0.960223  0.116373  0.750000  1
  Ir  Ir15  1  0.542836  0.616575  0.750000  1
