# generated using pymatgen
data_Tb2Dy14MgNi4Hg3
_symmetry_space_group_name_H-M   'P 1'
_cell_length_a   9.49549433
_cell_length_b   9.53342766
_cell_length_c   9.50867300
_cell_angle_alpha   60.08586176
_cell_angle_beta   59.95408194
_cell_angle_gamma   60.09111180
_symmetry_Int_Tables_number   1
_chemical_formula_structural   Tb2Dy14MgNi4Hg3
_chemical_formula_sum   'Tb2 Dy14 Mg1 Ni4 Hg3'
_cell_volume   609.25597047
_cell_formula_units_Z   1
loop_
 _symmetry_equiv_pos_site_id
 _symmetry_equiv_pos_as_xyz
  1  'x, y, z'
loop_
 _atom_site_type_symbol
 _atom_site_label
 _atom_site_symmetry_multiplicity
 _atom_site_fract_x
 _atom_site_fract_y
 _atom_site_fract_z
 _atom_site_occupancy
  Tb  Tb0  1  0.348145  0.347011  0.347366  1
  Tb  Tb1  1  0.348145  0.347011  0.957477  1
  Dy  Dy2  1  0.351009  0.951546  0.348722  1
  Dy  Dy3  1  0.945073  0.352107  0.351410  1
  Dy  Dy4  1  0.809122  0.191391  0.190572  1
  Dy  Dy5  1  0.185871  0.813798  0.811684  1
  Dy  Dy6  1  0.185871  0.813798  0.188648  1
  Dy  Dy7  1  0.809122  0.191391  0.808915  1
  Dy  Dy8  1  0.186050  0.190051  0.811950  1
  Dy  Dy9  1  0.808862  0.810631  0.190253  1
  Dy  Dy10  1  0.936082  0.564304  0.564413  1
  Dy  Dy11  1  0.561462  0.937692  0.936236  1
  Dy  Dy12  1  0.561462  0.937692  0.564609  1
  Dy  Dy13  1  0.936082  0.564304  0.935201  1
  Dy  Dy14  1  0.562275  0.564752  0.936487  1
  Dy  Dy15  1  0.936329  0.937090  0.563290  1
  Mg  Mg16  1  0.284878  0.570688  0.572218  1
  Ni  Ni17  1  0.140991  0.142511  0.145027  1
  Ni  Ni18  1  0.140991  0.142511  0.571472  1
  Ni  Ni19  1  0.139155  0.573289  0.143779  1
  Ni  Ni20  1  0.572637  0.141076  0.143144  1
  Hg  Hg21  1  0.583341  0.586232  0.586395  1
  Hg  Hg22  1  0.583341  0.586232  0.244033  1
  Hg  Hg23  1  0.583705  0.242894  0.586701  1
