# generated using pymatgen
data_Pu3Al3ZnSiGe
_symmetry_space_group_name_H-M   'P 1'
_cell_length_a   6.94227002
_cell_length_b   6.94038909
_cell_length_c   4.31035800
_cell_angle_alpha   90.00000000
_cell_angle_beta   90.00000000
_cell_angle_gamma   120.05614822
_symmetry_Int_Tables_number   1
_chemical_formula_structural   Pu3Al3ZnSiGe
_chemical_formula_sum   'Pu3 Al3 Zn1 Si1 Ge1'
_cell_volume   179.75595941
_cell_formula_units_Z   1
loop_
 _symmetry_equiv_pos_site_id
 _symmetry_equiv_pos_as_xyz
  1  'x, y, z'
loop_
 _atom_site_type_symbol
 _atom_site_label
 _atom_site_symmetry_multiplicity
 _atom_site_fract_x
 _atom_site_fract_y
 _atom_site_fract_z
 _atom_site_occupancy
  Pu  Pu0  1  0.414473  0.994715  0.500000  1
  Pu  Pu1  1  0.005220  0.419939  0.500000  1
  Pu  Pu2  1  0.579932  0.585179  0.500000  1
  Al  Al3  1  0.757711  0.996506  0.000000  1
  Al  Al4  1  0.003542  0.761161  0.000000  1
  Al  Al5  1  0.238811  0.242361  0.000000  1
  Zn  Zn6  1  0.000208  0.000150  0.500000  1
  Si  Si7  1  0.333412  0.666690  0.000000  1
  Ge  Ge8  1  0.666691  0.333301  0.000000  1
