# generated using pymatgen
data_TaNb12AlCo12
_symmetry_space_group_name_H-M   'P 1'
_cell_length_a   4.97071630
_cell_length_b   4.97076340
_cell_length_c   17.61258169
_cell_angle_alpha   97.99609672
_cell_angle_beta   97.99584886
_cell_angle_gamma   60.00604247
_symmetry_Int_Tables_number   1
_chemical_formula_structural   TaNb12AlCo12
_chemical_formula_sum   'Ta1 Nb12 Al1 Co12'
_cell_volume   372.00256775
_cell_formula_units_Z   1
loop_
 _symmetry_equiv_pos_site_id
 _symmetry_equiv_pos_as_xyz
  1  'x, y, z'
loop_
 _atom_site_type_symbol
 _atom_site_label
 _atom_site_symmetry_multiplicity
 _atom_site_fract_x
 _atom_site_fract_y
 _atom_site_fract_z
 _atom_site_occupancy
  Ta  Ta0  1  0.500000  0.500000  0.500000  1
  Nb  Nb1  1  0.416626  0.416656  0.247060  1
  Nb  Nb2  1  0.916768  0.916783  0.751790  1
  Nb  Nb3  1  0.083232  0.083217  0.248210  1
  Nb  Nb4  1  0.583374  0.583344  0.752940  1
  Nb  Nb5  1  0.773272  0.773266  0.323400  1
  Nb  Nb6  1  0.274908  0.274905  0.828265  1
  Nb  Nb7  1  0.725092  0.725095  0.171735  1
  Nb  Nb8  1  0.226728  0.226734  0.676600  1
  Nb  Nb9  1  0.827382  0.827387  0.480540  1
  Nb  Nb10  1  0.327970  0.327986  0.981601  1
  Nb  Nb11  1  0.672030  0.672014  0.018399  1
  Nb  Nb12  1  0.172618  0.172613  0.519460  1
  Al  Al13  1  0.000000  0.000000  0.000000  1
  Co  Co14  1  0.702549  0.206660  0.115140  1
  Co  Co15  1  0.199039  0.710363  0.618986  1
  Co  Co16  1  0.206027  0.206038  0.114724  1
  Co  Co17  1  0.709871  0.709878  0.619050  1
  Co  Co18  1  0.206629  0.702540  0.115130  1
  Co  Co19  1  0.710356  0.199039  0.618985  1
  Co  Co20  1  0.800961  0.289637  0.381014  1
  Co  Co21  1  0.297451  0.793340  0.884860  1
  Co  Co22  1  0.290129  0.290122  0.380950  1
  Co  Co23  1  0.793973  0.793962  0.885276  1
  Co  Co24  1  0.289644  0.800961  0.381015  1
  Co  Co25  1  0.793371  0.297460  0.884870  1
