# generated using pymatgen
data_U7PaH30
_symmetry_space_group_name_H-M   'P 1'
_cell_length_a   7.53004029
_cell_length_b   7.53003983
_cell_length_c   7.53004108
_cell_angle_alpha   109.47957160
_cell_angle_beta   109.47956632
_cell_angle_gamma   109.47957208
_symmetry_Int_Tables_number   1
_chemical_formula_structural   U7PaH30
_chemical_formula_sum   'U7 Pa1 H30'
_cell_volume   328.57589800
_cell_formula_units_Z   1
loop_
 _symmetry_equiv_pos_site_id
 _symmetry_equiv_pos_as_xyz
  1  'x, y, z'
loop_
 _atom_site_type_symbol
 _atom_site_label
 _atom_site_symmetry_multiplicity
 _atom_site_fract_x
 _atom_site_fract_y
 _atom_site_fract_z
 _atom_site_occupancy
  U  U0  1  0.500209  0.000103  0.083890  1
  U  U1  1  0.000103  0.083890  0.500209  1
  U  U2  1  0.083890  0.500209  0.000103  1
  U  U3  1  0.000077  0.582241  0.498909  1
  U  U4  1  0.582241  0.498909  0.000077  1
  U  U5  1  0.498909  0.000077  0.582241  1
  U  U6  1  0.416836  0.416836  0.416836  1
  Pa  Pa7  1  0.918537  0.918537  0.918537  1
  H  H8  1  0.652170  0.967913  0.370689  1
  H  H9  1  0.217703  0.314856  0.848162  1
  H  H10  1  0.184468  0.402534  0.531878  1
  H  H11  1  0.097473  0.281403  0.129818  1
  H  H12  1  0.281403  0.129818  0.097473  1
  H  H13  1  0.129818  0.097473  0.281403  1
  H  H14  1  0.467572  0.151566  0.870318  1
  H  H15  1  0.718049  0.347848  0.815735  1
  H  H16  1  0.624694  0.374779  0.249982  1
  H  H17  1  0.249982  0.624694  0.374779  1
  H  H18  1  0.750549  0.874959  0.124618  1
  H  H19  1  0.124618  0.750549  0.874959  1
  H  H20  1  0.374779  0.249982  0.624694  1
  H  H21  1  0.874959  0.124618  0.750549  1
  H  H22  1  0.782041  0.598581  0.630539  1
  H  H23  1  0.314856  0.848162  0.217703  1
  H  H24  1  0.370689  0.652170  0.967913  1
  H  H25  1  0.967913  0.370689  0.652170  1
  H  H26  1  0.531878  0.184468  0.402534  1
  H  H27  1  0.402534  0.531878  0.184468  1
  H  H28  1  0.848162  0.217703  0.314856  1
  H  H29  1  0.902313  0.684381  0.031605  1
  H  H30  1  0.815735  0.718049  0.347848  1
  H  H31  1  0.151566  0.870318  0.467572  1
  H  H32  1  0.684381  0.031605  0.902313  1
  H  H33  1  0.347848  0.815735  0.718049  1
  H  H34  1  0.870318  0.467572  0.151566  1
  H  H35  1  0.630539  0.782041  0.598581  1
  H  H36  1  0.598581  0.630539  0.782041  1
  H  H37  1  0.031605  0.902313  0.684381  1
