# generated using pymatgen
data_Na4CeNd3Te8
_symmetry_space_group_name_H-M   'P 1'
_cell_length_a   9.15941462
_cell_length_b   9.15941483
_cell_length_c   9.15941383
_cell_angle_alpha   60.01877261
_cell_angle_beta   60.01877560
_cell_angle_gamma   60.01877523
_symmetry_Int_Tables_number   1
_chemical_formula_structural   Na4CeNd3Te8
_chemical_formula_sum   'Na4 Ce1 Nd3 Te8'
_cell_volume   543.59184583
_cell_formula_units_Z   1
loop_
 _symmetry_equiv_pos_site_id
 _symmetry_equiv_pos_as_xyz
  1  'x, y, z'
loop_
 _atom_site_type_symbol
 _atom_site_label
 _atom_site_symmetry_multiplicity
 _atom_site_fract_x
 _atom_site_fract_y
 _atom_site_fract_z
 _atom_site_occupancy
  Na  Na0  1  0.125000  0.625000  0.125000  1
  Na  Na1  1  0.125000  0.125000  0.625000  1
  Na  Na2  1  0.625000  0.125000  0.125000  1
  Na  Na3  1  0.125000  0.125000  0.125000  1
  Ce  Ce4  1  0.625000  0.625000  0.625000  1
  Nd  Nd5  1  0.625000  0.125000  0.625000  1
  Nd  Nd6  1  0.125000  0.625000  0.625000  1
  Nd  Nd7  1  0.625000  0.625000  0.125000  1
  Te  Te8  1  0.377637  0.865858  0.377637  1
  Te  Te9  1  0.872363  0.384142  0.872363  1
  Te  Te10  1  0.872363  0.872363  0.384142  1
  Te  Te11  1  0.871945  0.871945  0.871945  1
  Te  Te12  1  0.865858  0.377637  0.377637  1
  Te  Te13  1  0.377637  0.377637  0.865858  1
  Te  Te14  1  0.378055  0.378055  0.378055  1
  Te  Te15  1  0.384142  0.872363  0.872363  1
