# generated using pymatgen
data_Y7Lu9MgAg3Rh4
_symmetry_space_group_name_H-M   'P 1'
_cell_length_a   9.46769097
_cell_length_b   9.46645840
_cell_length_c   9.48340709
_cell_angle_alpha   60.02510992
_cell_angle_beta   60.03369555
_cell_angle_gamma   60.16721590
_symmetry_Int_Tables_number   1
_chemical_formula_structural   Y7Lu9MgAg3Rh4
_chemical_formula_sum   'Y7 Lu9 Mg1 Ag3 Rh4'
_cell_volume   602.03283750
_cell_formula_units_Z   1
loop_
 _symmetry_equiv_pos_site_id
 _symmetry_equiv_pos_as_xyz
  1  'x, y, z'
loop_
 _atom_site_type_symbol
 _atom_site_label
 _atom_site_symmetry_multiplicity
 _atom_site_fract_x
 _atom_site_fract_y
 _atom_site_fract_z
 _atom_site_occupancy
  Y  Y0  1  0.060211  0.061659  0.438215  1
  Y  Y1  1  0.185642  0.810849  0.815296  1
  Y  Y2  1  0.812342  0.186936  0.185614  1
  Y  Y3  1  0.811746  0.187129  0.815492  1
  Y  Y4  1  0.186207  0.810723  0.187750  1
  Y  Y5  1  0.810443  0.811649  0.189441  1
  Y  Y6  1  0.186736  0.186965  0.813204  1
  Lu  Lu7  1  0.600046  0.598267  0.601211  1
  Lu  Lu8  1  0.599878  0.598448  0.201406  1
  Lu  Lu9  1  0.597267  0.209881  0.596940  1
  Lu  Lu10  1  0.193804  0.601224  0.602855  1
  Lu  Lu11  1  0.060639  0.437691  0.438547  1
  Lu  Lu12  1  0.434668  0.063976  0.064106  1
  Lu  Lu13  1  0.434775  0.063910  0.436295  1
  Lu  Lu14  1  0.060784  0.437383  0.062275  1
  Lu  Lu15  1  0.433566  0.434702  0.065439  1
  Mg  Mg16  1  0.536817  0.822834  0.820325  1
  Ag  Ag17  1  0.832971  0.833148  0.831249  1
  Ag  Ag18  1  0.833380  0.833302  0.502517  1
  Ag  Ag19  1  0.834713  0.501615  0.831953  1
  Rh  Rh20  1  0.388624  0.394732  0.392972  1
  Rh  Rh21  1  0.388879  0.395306  0.822927  1
  Rh  Rh22  1  0.396537  0.817829  0.393237  1
  Rh  Rh23  1  0.819325  0.399847  0.390732  1
