# generated using pymatgen
data_Tm3NbFeCo7P6
_symmetry_space_group_name_H-M   'P 1'
_cell_length_a   3.69662200
_cell_length_b   10.64685400
_cell_length_c   12.21601500
_cell_angle_alpha   90.00000000
_cell_angle_beta   90.00000000
_cell_angle_gamma   90.00000000
_symmetry_Int_Tables_number   1
_chemical_formula_structural   Tm3NbFeCo7P6
_chemical_formula_sum   'Tm6 Nb2 Fe2 Co14 P12'
_cell_volume   480.79052435
_cell_formula_units_Z   2
loop_
 _symmetry_equiv_pos_site_id
 _symmetry_equiv_pos_as_xyz
  1  'x, y, z'
loop_
 _atom_site_type_symbol
 _atom_site_label
 _atom_site_symmetry_multiplicity
 _atom_site_fract_x
 _atom_site_fract_y
 _atom_site_fract_z
 _atom_site_occupancy
  Tm  Tm0  1  0.000000  0.500000  0.527719  1
  Tm  Tm1  1  0.500000  0.000000  0.472281  1
  Tm  Tm2  1  0.500000  0.820979  0.203673  1
  Tm  Tm3  1  0.500000  0.179021  0.203673  1
  Tm  Tm4  1  0.000000  0.679021  0.796327  1
  Tm  Tm5  1  0.000000  0.320979  0.796327  1
  Nb  Nb6  1  0.500000  0.500000  0.156451  1
  Nb  Nb7  1  0.000000  0.000000  0.843549  1
  Fe  Fe8  1  0.000000  0.500000  0.986529  1
  Fe  Fe9  1  0.500000  0.000000  0.013471  1
  Co  Co10  1  0.500000  0.500000  0.700650  1
  Co  Co11  1  0.000000  0.000000  0.299350  1
  Co  Co12  1  0.500000  0.331321  0.992569  1
  Co  Co13  1  0.500000  0.668679  0.992569  1
  Co  Co14  1  0.000000  0.168679  0.007431  1
  Co  Co15  1  0.000000  0.831321  0.007431  1
  Co  Co16  1  0.500000  0.295308  0.432500  1
  Co  Co17  1  0.500000  0.704692  0.432500  1
  Co  Co18  1  0.000000  0.204692  0.567500  1
  Co  Co19  1  0.000000  0.795308  0.567500  1
  Co  Co20  1  0.500000  0.876932  0.703797  1
  Co  Co21  1  0.500000  0.123068  0.703797  1
  Co  Co22  1  0.000000  0.623068  0.296203  1
  Co  Co23  1  0.000000  0.376932  0.296203  1
  P  P24  1  0.500000  0.500000  0.882803  1
  P  P25  1  0.000000  0.000000  0.117197  1
  P  P26  1  0.500000  0.500000  0.358352  1
  P  P27  1  0.000000  0.000000  0.641648  1
  P  P28  1  0.500000  0.311591  0.616569  1
  P  P29  1  0.500000  0.688409  0.616569  1
  P  P30  1  0.000000  0.188409  0.383431  1
  P  P31  1  0.000000  0.811591  0.383431  1
  P  P32  1  0.500000  0.841067  0.894247  1
  P  P33  1  0.500000  0.158933  0.894247  1
  P  P34  1  0.000000  0.658933  0.105753  1
  P  P35  1  0.000000  0.341067  0.105753  1
