# generated using pymatgen
data_Sc6In6CoAu5
_symmetry_space_group_name_H-M   'P 1'
_cell_length_a   7.72365400
_cell_length_b   7.72365387
_cell_length_c   7.06511200
_cell_angle_alpha   90.00000000
_cell_angle_beta   90.00000000
_cell_angle_gamma   119.99999200
_symmetry_Int_Tables_number   1
_chemical_formula_structural   Sc6In6CoAu5
_chemical_formula_sum   'Sc6 In6 Co1 Au5'
_cell_volume   365.00207281
_cell_formula_units_Z   1
loop_
 _symmetry_equiv_pos_site_id
 _symmetry_equiv_pos_as_xyz
  1  'x, y, z'
loop_
 _atom_site_type_symbol
 _atom_site_label
 _atom_site_symmetry_multiplicity
 _atom_site_fract_x
 _atom_site_fract_y
 _atom_site_fract_z
 _atom_site_occupancy
  Sc  Sc0  1  0.613164  0.992361  0.750000  1
  Sc  Sc1  1  0.007639  0.620802  0.750000  1
  Sc  Sc2  1  0.379198  0.386836  0.750000  1
  Sc  Sc3  1  0.989113  0.592774  0.250000  1
  Sc  Sc4  1  0.603662  0.010887  0.250000  1
  Sc  Sc5  1  0.407226  0.396338  0.250000  1
  In  In6  1  0.732386  0.732265  0.985393  1
  In  In7  1  0.267735  0.000121  0.985393  1
  In  In8  1  0.999879  0.267614  0.985393  1
  In  In9  1  0.732386  0.732265  0.514607  1
  In  In10  1  0.267735  0.000121  0.514607  1
  In  In11  1  0.999879  0.267614  0.514607  1
  Co  Co12  1  0.000000  0.000000  0.750000  1
  Au  Au13  1  0.000000  0.000000  0.250000  1
  Au  Au14  1  0.666667  0.333333  0.981667  1
  Au  Au15  1  0.666667  0.333333  0.518333  1
  Au  Au16  1  0.333333  0.666667  0.484614  1
  Au  Au17  1  0.333333  0.666667  0.015386  1
