# generated using pymatgen
data_Dy7Sn22Os6Se
_symmetry_space_group_name_H-M   'P 1'
_cell_length_a   9.83660300
_cell_length_b   9.83660218
_cell_length_c   10.08518900
_cell_angle_alpha   90.00000000
_cell_angle_beta   90.00000000
_cell_angle_gamma   119.99999268
_symmetry_Int_Tables_number   1
_chemical_formula_structural   Dy7Sn22Os6Se
_chemical_formula_sum   'Dy7 Sn22 Os6 Se1'
_cell_volume   845.09387977
_cell_formula_units_Z   1
loop_
 _symmetry_equiv_pos_site_id
 _symmetry_equiv_pos_as_xyz
  1  'x, y, z'
loop_
 _atom_site_type_symbol
 _atom_site_label
 _atom_site_symmetry_multiplicity
 _atom_site_fract_x
 _atom_site_fract_y
 _atom_site_fract_z
 _atom_site_occupancy
  Dy  Dy0  1  0.000000  0.000000  0.000000  1
  Dy  Dy1  1  0.484573  0.515427  0.299851  1
  Dy  Dy2  1  0.515427  0.484573  0.700149  1
  Dy  Dy3  1  0.484573  0.969146  0.299851  1
  Dy  Dy4  1  0.515427  0.030854  0.700149  1
  Dy  Dy5  1  0.030854  0.515427  0.299851  1
  Dy  Dy6  1  0.969146  0.484573  0.700149  1
  Sn  Sn7  1  0.350139  0.000000  0.000000  1
  Sn  Sn8  1  0.649861  0.000000  0.000000  1
  Sn  Sn9  1  0.000000  0.350139  0.000000  1
  Sn  Sn10  1  0.000000  0.649861  0.000000  1
  Sn  Sn11  1  0.649861  0.649861  0.000000  1
  Sn  Sn12  1  0.350139  0.350139  0.000000  1
  Sn  Sn13  1  0.333333  0.666667  0.828654  1
  Sn  Sn14  1  0.666667  0.333333  0.171346  1
  Sn  Sn15  1  0.776455  0.223545  0.462535  1
  Sn  Sn16  1  0.223545  0.776455  0.537465  1
  Sn  Sn17  1  0.776455  0.552911  0.462535  1
  Sn  Sn18  1  0.223545  0.447089  0.537465  1
  Sn  Sn19  1  0.447089  0.223545  0.462535  1
  Sn  Sn20  1  0.552911  0.776455  0.537465  1
  Sn  Sn21  1  0.333333  0.666667  0.126863  1
  Sn  Sn22  1  0.666667  0.333333  0.873137  1
  Sn  Sn23  1  0.116137  0.883863  0.283132  1
  Sn  Sn24  1  0.883863  0.116137  0.716868  1
  Sn  Sn25  1  0.116137  0.232274  0.283132  1
  Sn  Sn26  1  0.883863  0.767726  0.716868  1
  Sn  Sn27  1  0.767726  0.883863  0.283132  1
  Sn  Sn28  1  0.232274  0.116137  0.716868  1
  Os  Os29  1  0.831348  0.168652  0.205072  1
  Os  Os30  1  0.168652  0.831348  0.794928  1
  Os  Os31  1  0.831348  0.662695  0.205072  1
  Os  Os32  1  0.168652  0.337305  0.794928  1
  Os  Os33  1  0.337305  0.168652  0.205072  1
  Os  Os34  1  0.662695  0.831348  0.794928  1
  Se  Se35  1  0.000000  0.000000  0.500000  1
