# generated using pymatgen
data_NaHo(ReO4)6
_symmetry_space_group_name_H-M   'P 1'
_cell_length_a   10.50757900
_cell_length_b   10.50757882
_cell_length_c   6.28547500
_cell_angle_alpha   90.00000000
_cell_angle_beta   90.00000000
_cell_angle_gamma   119.99999113
_symmetry_Int_Tables_number   1
_chemical_formula_structural   NaHo(ReO4)6
_chemical_formula_sum   'Na1 Ho1 Re6 O24'
_cell_volume   600.99947692
_cell_formula_units_Z   1
loop_
 _symmetry_equiv_pos_site_id
 _symmetry_equiv_pos_as_xyz
  1  'x, y, z'
loop_
 _atom_site_type_symbol
 _atom_site_label
 _atom_site_symmetry_multiplicity
 _atom_site_fract_x
 _atom_site_fract_y
 _atom_site_fract_z
 _atom_site_occupancy
  Na  Na0  1  0.333333  0.666667  0.250000  1
  Ho  Ho1  1  0.666667  0.333333  0.750000  1
  Re  Re2  1  0.081328  0.391111  0.750000  1
  Re  Re3  1  0.401265  0.291771  0.250000  1
  Re  Re4  1  0.608889  0.690216  0.750000  1
  Re  Re5  1  0.890506  0.598735  0.250000  1
  Re  Re6  1  0.309784  0.918672  0.750000  1
  Re  Re7  1  0.708229  0.109494  0.250000  1
  O  O8  1  0.497590  0.654655  0.524723  1
  O  O9  1  0.345345  0.842935  0.524723  1
  O  O10  1  0.817299  0.714392  0.250000  1
  O  O11  1  0.126395  0.872398  0.750000  1
  O  O12  1  0.285608  0.102906  0.250000  1
  O  O13  1  0.127602  0.253998  0.750000  1
  O  O14  1  0.513570  0.343787  0.019388  1
  O  O15  1  0.897094  0.182701  0.250000  1
  O  O16  1  0.081036  0.703006  0.250000  1
  O  O17  1  0.157065  0.502410  0.975277  1
  O  O18  1  0.157065  0.502410  0.524723  1
  O  O19  1  0.887292  0.315362  0.750000  1
  O  O20  1  0.296994  0.378031  0.250000  1
  O  O21  1  0.684638  0.571930  0.750000  1
  O  O22  1  0.830216  0.486430  0.480612  1
  O  O23  1  0.428070  0.112708  0.750000  1
  O  O24  1  0.656213  0.169784  0.019388  1
  O  O25  1  0.497590  0.654655  0.975277  1
  O  O26  1  0.345345  0.842935  0.975277  1
  O  O27  1  0.656213  0.169784  0.480612  1
  O  O28  1  0.513570  0.343787  0.480612  1
  O  O29  1  0.830216  0.486430  0.019388  1
  O  O30  1  0.746002  0.873605  0.750000  1
  O  O31  1  0.621969  0.918964  0.250000  1
