# generated using pymatgen
data_Yb5Y3(ZrIr3)2
_symmetry_space_group_name_H-M   'P 1'
_cell_length_a   10.85325963
_cell_length_b   10.85653800
_cell_length_c   6.29325161
_cell_angle_alpha   90.00000000
_cell_angle_beta   90.27983687
_cell_angle_gamma   90.00000000
_symmetry_Int_Tables_number   1
_chemical_formula_structural   Yb5Y3(ZrIr3)2
_chemical_formula_sum   'Yb10 Y6 Zr4 Ir12'
_cell_volume   741.51760219
_cell_formula_units_Z   2
loop_
 _symmetry_equiv_pos_site_id
 _symmetry_equiv_pos_as_xyz
  1  'x, y, z'
loop_
 _atom_site_type_symbol
 _atom_site_label
 _atom_site_symmetry_multiplicity
 _atom_site_fract_x
 _atom_site_fract_y
 _atom_site_fract_z
 _atom_site_occupancy
  Yb  Yb0  1  0.293317  0.081961  0.368231  1
  Yb  Yb1  1  0.293317  0.918039  0.868231  1
  Yb  Yb2  1  0.706526  0.082288  0.870789  1
  Yb  Yb3  1  0.706526  0.917712  0.370789  1
  Yb  Yb4  1  0.581840  0.792935  0.867843  1
  Yb  Yb5  1  0.581840  0.207065  0.367843  1
  Yb  Yb6  1  0.417673  0.792691  0.368530  1
  Yb  Yb7  1  0.417673  0.207309  0.868530  1
  Yb  Yb8  1  0.214918  0.414482  0.639625  1
  Yb  Yb9  1  0.214918  0.585518  0.139625  1
  Y  Y10  1  0.786329  0.416707  0.135239  1
  Y  Y11  1  0.786329  0.583293  0.635239  1
  Y  Y12  1  0.915664  0.711484  0.137981  1
  Y  Y13  1  0.915664  0.288516  0.637981  1
  Y  Y14  1  0.086007  0.710035  0.637230  1
  Y  Y15  1  0.086007  0.289965  0.137230  1
  Zr  Zr16  1  0.000019  0.000204  0.493461  1
  Zr  Zr17  1  0.000019  0.999796  0.993461  1
  Zr  Zr18  1  0.497978  0.499914  0.991809  1
  Zr  Zr19  1  0.497978  0.500086  0.491809  1
  Ir  Ir20  1  0.865956  0.148742  0.244120  1
  Ir  Ir21  1  0.865956  0.851258  0.744120  1
  Ir  Ir22  1  0.134928  0.144485  0.748961  1
  Ir  Ir23  1  0.134928  0.855515  0.248961  1
  Ir  Ir24  1  0.644877  0.363763  0.745105  1
  Ir  Ir25  1  0.644877  0.636237  0.245105  1
  Ir  Ir26  1  0.358042  0.359677  0.242491  1
  Ir  Ir27  1  0.358042  0.640323  0.742491  1
  Ir  Ir28  1  0.499980  0.999438  0.120660  1
  Ir  Ir29  1  0.499980  0.000562  0.620660  1
  Ir  Ir30  1  0.995947  0.499823  0.887923  1
  Ir  Ir31  1  0.995947  0.500177  0.387923  1
