# generated using pymatgen
data_Tb17Mg3Ir5Pt7
_symmetry_space_group_name_H-M   'P 1'
_cell_length_a   10.93795098
_cell_length_b   10.92533939
_cell_length_c   6.29647981
_cell_angle_alpha   90.08157965
_cell_angle_beta   89.97331788
_cell_angle_gamma   90.14452676
_symmetry_Int_Tables_number   1
_chemical_formula_structural   Tb17Mg3Ir5Pt7
_chemical_formula_sum   'Tb17 Mg3 Ir5 Pt7'
_cell_volume   752.43130586
_cell_formula_units_Z   1
loop_
 _symmetry_equiv_pos_site_id
 _symmetry_equiv_pos_as_xyz
  1  'x, y, z'
loop_
 _atom_site_type_symbol
 _atom_site_label
 _atom_site_symmetry_multiplicity
 _atom_site_fract_x
 _atom_site_fract_y
 _atom_site_fract_z
 _atom_site_occupancy
  Tb  Tb0  1  0.288111  0.085699  0.378448  1
  Tb  Tb1  1  0.288633  0.913128  0.876723  1
  Tb  Tb2  1  0.711671  0.082212  0.877305  1
  Tb  Tb3  1  0.711615  0.913688  0.378559  1
  Tb  Tb4  1  0.581049  0.786594  0.875280  1
  Tb  Tb5  1  0.588130  0.205630  0.376215  1
  Tb  Tb6  1  0.410133  0.793460  0.380165  1
  Tb  Tb7  1  0.415078  0.210255  0.876650  1
  Tb  Tb8  1  0.206015  0.414735  0.624980  1
  Tb  Tb9  1  0.214156  0.586411  0.119407  1
  Tb  Tb10  1  0.788893  0.415380  0.123235  1
  Tb  Tb11  1  0.796218  0.588696  0.624357  1
  Tb  Tb12  1  0.917824  0.712037  0.123403  1
  Tb  Tb13  1  0.914341  0.288296  0.621564  1
  Tb  Tb14  1  0.089237  0.711655  0.620906  1
  Tb  Tb15  1  0.083443  0.288539  0.122998  1
  Tb  Tb16  1  0.498761  0.502180  0.502743  1
  Mg  Mg17  1  0.999691  0.999809  0.500330  1
  Mg  Mg18  1  0.000307  0.000128  0.999538  1
  Mg  Mg19  1  0.498884  0.500694  0.000194  1
  Ir  Ir20  1  0.343557  0.652647  0.745369  1
  Ir  Ir21  1  0.500311  0.000381  0.118976  1
  Ir  Ir22  1  0.500119  0.000699  0.620338  1
  Ir  Ir23  1  0.999459  0.499867  0.882490  1
  Ir  Ir24  1  0.999525  0.499675  0.377638  1
  Pt  Pt25  1  0.849837  0.150951  0.247701  1
  Pt  Pt26  1  0.848521  0.849748  0.752394  1
  Pt  Pt27  1  0.151439  0.150057  0.752568  1
  Pt  Pt28  1  0.149166  0.849969  0.247282  1
  Pt  Pt29  1  0.655106  0.347366  0.749605  1
  Pt  Pt30  1  0.653646  0.655337  0.251045  1
  Pt  Pt31  1  0.347125  0.344078  0.251595  1
