# generated using pymatgen
data_Hf8Zr2CuSn3GeSb3
_symmetry_space_group_name_H-M   'P 1'
_cell_length_a   8.61502700
_cell_length_b   8.60275064
_cell_length_c   5.79555100
_cell_angle_alpha   90.00000000
_cell_angle_beta   90.00000000
_cell_angle_gamma   119.95287364
_symmetry_Int_Tables_number   1
_chemical_formula_structural   Hf8Zr2CuSn3GeSb3
_chemical_formula_sum   'Hf8 Zr2 Cu1 Sn3 Ge1 Sb3'
_cell_volume   372.15630527
_cell_formula_units_Z   1
loop_
 _symmetry_equiv_pos_site_id
 _symmetry_equiv_pos_as_xyz
  1  'x, y, z'
loop_
 _atom_site_type_symbol
 _atom_site_label
 _atom_site_symmetry_multiplicity
 _atom_site_fract_x
 _atom_site_fract_y
 _atom_site_fract_z
 _atom_site_occupancy
  Hf  Hf0  1  0.666617  0.333609  0.997997  1
  Hf  Hf1  1  0.333383  0.666993  0.997997  1
  Hf  Hf2  1  0.332892  0.667002  0.503707  1
  Hf  Hf3  1  0.667108  0.334108  0.503707  1
  Hf  Hf4  1  0.727435  0.727074  0.753372  1
  Hf  Hf5  1  0.272565  0.999638  0.753372  1
  Hf  Hf6  1  0.000000  0.271832  0.753834  1
  Hf  Hf7  1  0.000000  0.744328  0.248931  1
  Zr  Zr8  1  0.256208  0.256593  0.248510  1
  Zr  Zr9  1  0.743792  0.000384  0.248510  1
  Cu  Cu10  1  0.000000  0.997424  0.968346  1
  Sn  Sn11  1  0.383763  0.383896  0.751558  1
  Sn  Sn12  1  0.616237  0.000133  0.751558  1
  Sn  Sn13  1  0.000000  0.615811  0.751833  1
  Ge  Ge14  1  0.000000  0.999342  0.519298  1
  Sb  Sb15  1  0.606088  0.606038  0.249150  1
  Sb  Sb16  1  0.393912  0.999950  0.249150  1
  Sb  Sb17  1  0.000000  0.395846  0.249169  1
