# generated using pymatgen
data_Y2Ho3IrOs
_symmetry_space_group_name_H-M   'P 1'
_cell_length_a   6.41794034
_cell_length_b   7.31149039
_cell_length_c   8.45689373
_cell_angle_alpha   96.73132647
_cell_angle_beta   112.29963421
_cell_angle_gamma   90.00000419
_symmetry_Int_Tables_number   1
_chemical_formula_structural   Y2Ho3IrOs
_chemical_formula_sum   'Y4 Ho6 Ir2 Os2'
_cell_volume   364.20030400
_cell_formula_units_Z   2
loop_
 _symmetry_equiv_pos_site_id
 _symmetry_equiv_pos_as_xyz
  1  'x, y, z'
loop_
 _atom_site_type_symbol
 _atom_site_label
 _atom_site_symmetry_multiplicity
 _atom_site_fract_x
 _atom_site_fract_y
 _atom_site_fract_z
 _atom_site_occupancy
  Y  Y0  1  0.969404  0.917131  0.181642  1
  Y  Y1  1  0.787763  0.582869  0.818358  1
  Y  Y2  1  0.026909  0.080270  0.814611  1
  Y  Y3  1  0.212297  0.419730  0.185389  1
  Ho  Ho4  1  0.652372  0.817351  0.440370  1
  Ho  Ho5  1  0.212003  0.682649  0.559630  1
  Ho  Ho6  1  0.350538  0.180347  0.561288  1
  Ho  Ho7  1  0.789249  0.319653  0.438712  1
  Ho  Ho8  1  0.425938  0.750000  0.000000  1
  Ho  Ho9  1  0.575659  0.250000  0.000000  1
  Ir  Ir10  1  0.176432  0.424536  0.778178  1
  Ir  Ir11  1  0.398253  0.075464  0.221822  1
  Os  Os12  1  0.821158  0.573484  0.219135  1
  Os  Os13  1  0.602024  0.926516  0.780865  1
