# generated using pymatgen
data_Eu5CdPt2
_symmetry_space_group_name_H-M   'P 1'
_cell_length_a   9.38433587
_cell_length_b   9.38433530
_cell_length_c   9.38433642
_cell_angle_alpha   128.32818182
_cell_angle_beta   128.32817985
_cell_angle_gamma   76.09398838
_symmetry_Int_Tables_number   1
_chemical_formula_structural   Eu5CdPt2
_chemical_formula_sum   'Eu10 Cd2 Pt4'
_cell_volume   494.41230483
_cell_formula_units_Z   2
loop_
 _symmetry_equiv_pos_site_id
 _symmetry_equiv_pos_as_xyz
  1  'x, y, z'
loop_
 _atom_site_type_symbol
 _atom_site_label
 _atom_site_symmetry_multiplicity
 _atom_site_fract_x
 _atom_site_fract_y
 _atom_site_fract_z
 _atom_site_occupancy
  Eu  Eu0  1  0.500000  0.500000  0.000000  1
  Eu  Eu1  1  0.000000  0.000000  0.000000  1
  Eu  Eu2  1  0.532402  0.032402  0.829117  1
  Eu  Eu3  1  0.203285  0.703285  0.170883  1
  Eu  Eu4  1  0.032402  0.203285  0.500000  1
  Eu  Eu5  1  0.703285  0.532402  0.500000  1
  Eu  Eu6  1  0.467598  0.967598  0.170883  1
  Eu  Eu7  1  0.796715  0.296715  0.829117  1
  Eu  Eu8  1  0.967598  0.796715  0.500000  1
  Eu  Eu9  1  0.296715  0.467598  0.500000  1
  Cd  Cd10  1  0.250000  0.250000  0.000000  1
  Cd  Cd11  1  0.750000  0.750000  0.000000  1
  Pt  Pt12  1  0.132754  0.632754  0.765507  1
  Pt  Pt13  1  0.867246  0.367246  0.234493  1
  Pt  Pt14  1  0.632754  0.867246  0.500000  1
  Pt  Pt15  1  0.367246  0.132754  0.500000  1
