# generated using pymatgen
data_Ce14(IrOs)3
_symmetry_space_group_name_H-M   'P 1'
_cell_length_a   6.13266415
_cell_length_b   9.81388716
_cell_length_c   9.81388722
_cell_angle_alpha   119.99492113
_cell_angle_beta   89.97790448
_cell_angle_gamma   90.02209939
_symmetry_Int_Tables_number   1
_chemical_formula_structural   Ce14(IrOs)3
_chemical_formula_sum   'Ce14 Ir3 Os3'
_cell_volume   511.54532149
_cell_formula_units_Z   1
loop_
 _symmetry_equiv_pos_site_id
 _symmetry_equiv_pos_as_xyz
  1  'x, y, z'
loop_
 _atom_site_type_symbol
 _atom_site_label
 _atom_site_symmetry_multiplicity
 _atom_site_fract_x
 _atom_site_fract_y
 _atom_site_fract_z
 _atom_site_occupancy
  Ce  Ce0  1  0.453760  0.333252  0.666748  1
  Ce  Ce1  1  0.962508  0.666728  0.333272  1
  Ce  Ce2  1  0.241131  0.127168  0.872832  1
  Ce  Ce3  1  0.241174  0.745702  0.872896  1
  Ce  Ce4  1  0.241174  0.127104  0.254298  1
  Ce  Ce5  1  0.742120  0.870112  0.129888  1
  Ce  Ce6  1  0.742265  0.259710  0.129775  1
  Ce  Ce7  1  0.742265  0.870225  0.740290  1
  Ce  Ce8  1  0.454951  0.539048  0.460952  1
  Ce  Ce9  1  0.454944  0.922060  0.461046  1
  Ce  Ce10  1  0.454944  0.538954  0.077940  1
  Ce  Ce11  1  0.959309  0.463861  0.536139  1
  Ce  Ce12  1  0.959317  0.072136  0.536089  1
  Ce  Ce13  1  0.959317  0.463911  0.927864  1
  Ir  Ir14  1  0.700933  0.187791  0.812209  1
  Ir  Ir15  1  0.700972  0.624456  0.812250  1
  Ir  Ir16  1  0.700972  0.187750  0.375544  1
  Os  Os17  1  0.202023  0.814907  0.185093  1
  Os  Os18  1  0.201958  0.370067  0.184942  1
  Os  Os19  1  0.201958  0.815058  0.629933  1
