# generated using pymatgen
data_Tb5CeCoBr10
_symmetry_space_group_name_H-M   'P 1'
_cell_length_a   7.39448158
_cell_length_b   9.14280335
_cell_length_c   9.30316100
_cell_angle_alpha   108.36638638
_cell_angle_beta   97.11247910
_cell_angle_gamma   105.10283207
_symmetry_Int_Tables_number   1
_chemical_formula_structural   Tb5CeCoBr10
_chemical_formula_sum   'Tb5 Ce1 Co1 Br10'
_cell_volume   561.55543469
_cell_formula_units_Z   1
loop_
 _symmetry_equiv_pos_site_id
 _symmetry_equiv_pos_as_xyz
  1  'x, y, z'
loop_
 _atom_site_type_symbol
 _atom_site_label
 _atom_site_symmetry_multiplicity
 _atom_site_fract_x
 _atom_site_fract_y
 _atom_site_fract_z
 _atom_site_occupancy
  Tb  Tb0  1  0.966191  0.278045  0.587186  1
  Tb  Tb1  1  0.879174  0.952266  0.745987  1
  Tb  Tb2  1  0.124744  0.044968  0.254249  1
  Tb  Tb3  1  0.359367  0.136171  0.679739  1
  Tb  Tb4  1  0.642217  0.867673  0.321506  1
  Ce  Ce5  1  0.033674  0.708697  0.409412  1
  Co  Co6  1  0.002507  0.991553  0.497882  1
  Br  Br7  1  0.460798  0.825952  0.588303  1
  Br  Br8  1  0.548947  0.182442  0.418419  1
  Br  Br9  1  0.907873  0.626581  0.678494  1
  Br  Br10  1  0.083338  0.364361  0.328251  1
  Br  Br11  1  0.251631  0.094107  0.960766  1
  Br  Br12  1  0.748597  0.922138  0.045076  1
  Br  Br13  1  0.343414  0.454088  0.770666  1
  Br  Br14  1  0.637099  0.545316  0.222604  1
  Br  Br15  1  0.787233  0.255926  0.845976  1
  Br  Br16  1  0.223198  0.749718  0.145486  1
