# generated using pymatgen
data_Hf3Al3Ga2Tc
_symmetry_space_group_name_H-M   'P 1'
_cell_length_a   6.67364700
_cell_length_b   6.67364652
_cell_length_c   4.04437600
_cell_angle_alpha   90.00000000
_cell_angle_beta   90.00000000
_cell_angle_gamma   120.00000731
_symmetry_Int_Tables_number   1
_chemical_formula_structural   Hf3Al3Ga2Tc
_chemical_formula_sum   'Hf3 Al3 Ga2 Tc1'
_cell_volume   155.99423744
_cell_formula_units_Z   1
loop_
 _symmetry_equiv_pos_site_id
 _symmetry_equiv_pos_as_xyz
  1  'x, y, z'
loop_
 _atom_site_type_symbol
 _atom_site_label
 _atom_site_symmetry_multiplicity
 _atom_site_fract_x
 _atom_site_fract_y
 _atom_site_fract_z
 _atom_site_occupancy
  Hf  Hf0  1  0.417711  0.000000  0.500000  1
  Hf  Hf1  1  0.000000  0.417712  0.500000  1
  Hf  Hf2  1  0.582289  0.582289  0.500000  1
  Al  Al3  1  0.760877  0.000000  0.000000  1
  Al  Al4  1  0.239123  0.239124  0.000000  1
  Al  Al5  1  0.000000  0.760877  0.000000  1
  Ga  Ga6  1  0.666666  0.333333  0.000000  1
  Ga  Ga7  1  0.333333  0.666667  0.000000  1
  Tc  Tc8  1  0.000000  0.000000  0.500000  1
