# generated using pymatgen
data_Tb2Er3Hf5(Si5Ir2)4
_symmetry_space_group_name_H-M   'P 1'
_cell_length_a   12.47655300
_cell_length_b   12.47717300
_cell_length_c   4.16279500
_cell_angle_alpha   90.00000000
_cell_angle_beta   90.00000000
_cell_angle_gamma   90.09178815
_symmetry_Int_Tables_number   1
_chemical_formula_structural   Tb2Er3Hf5(Si5Ir2)4
_chemical_formula_sum   'Tb2 Er3 Hf5 Si20 Ir8'
_cell_volume   648.03025079
_cell_formula_units_Z   1
loop_
 _symmetry_equiv_pos_site_id
 _symmetry_equiv_pos_as_xyz
  1  'x, y, z'
loop_
 _atom_site_type_symbol
 _atom_site_label
 _atom_site_symmetry_multiplicity
 _atom_site_fract_x
 _atom_site_fract_y
 _atom_site_fract_z
 _atom_site_occupancy
  Tb  Tb0  1  0.884106  0.384453  0.500000  1
  Tb  Tb1  1  0.115894  0.615547  0.500000  1
  Er  Er2  1  0.000000  0.000000  0.000000  1
  Er  Er3  1  0.384362  0.115846  0.500000  1
  Er  Er4  1  0.615638  0.884154  0.500000  1
  Hf  Hf5  1  0.500000  0.500000  0.000000  1
  Hf  Hf6  1  0.673373  0.174888  0.500000  1
  Hf  Hf7  1  0.326627  0.825112  0.500000  1
  Hf  Hf8  1  0.175087  0.326403  0.500000  1
  Hf  Hf9  1  0.824913  0.673597  0.500000  1
  Si  Si10  1  0.565643  0.067531  0.000000  1
  Si  Si11  1  0.434357  0.932469  0.000000  1
  Si  Si12  1  0.067752  0.434099  0.000000  1
  Si  Si13  1  0.932248  0.565901  0.000000  1
  Si  Si14  1  0.665760  0.701416  0.000000  1
  Si  Si15  1  0.334240  0.298584  0.000000  1
  Si  Si16  1  0.164181  0.800986  0.000000  1
  Si  Si17  1  0.835819  0.199014  0.000000  1
  Si  Si18  1  0.298878  0.665796  0.000000  1
  Si  Si19  1  0.701122  0.334204  0.000000  1
  Si  Si20  1  0.199297  0.164136  0.000000  1
  Si  Si21  1  0.800703  0.835864  0.000000  1
  Si  Si22  1  0.651146  0.507642  0.500000  1
  Si  Si23  1  0.348854  0.492358  0.500000  1
  Si  Si24  1  0.156160  0.992834  0.500000  1
  Si  Si25  1  0.843840  0.007166  0.500000  1
  Si  Si26  1  0.492399  0.651262  0.500000  1
  Si  Si27  1  0.507601  0.348738  0.500000  1
  Si  Si28  1  0.007225  0.156024  0.500000  1
  Si  Si29  1  0.992775  0.843976  0.500000  1
  Ir  Ir30  1  0.741739  0.521761  0.000000  1
  Ir  Ir31  1  0.258261  0.478239  0.000000  1
  Ir  Ir32  1  0.246550  0.978373  0.000000  1
  Ir  Ir33  1  0.753450  0.021627  0.000000  1
  Ir  Ir34  1  0.478770  0.742374  0.000000  1
  Ir  Ir35  1  0.521230  0.257626  0.000000  1
  Ir  Ir36  1  0.022167  0.245890  0.000000  1
  Ir  Ir37  1  0.977833  0.754110  0.000000  1
