# generated using pymatgen
data_CeNd3Zn2Rh3
_symmetry_space_group_name_H-M   'P 1'
_cell_length_a   7.49533700
_cell_length_b   7.60899604
_cell_length_c   4.00707300
_cell_angle_alpha   90.00000000
_cell_angle_beta   90.00000000
_cell_angle_gamma   119.50709529
_symmetry_Int_Tables_number   1
_chemical_formula_structural   CeNd3Zn2Rh3
_chemical_formula_sum   'Ce1 Nd3 Zn2 Rh3'
_cell_volume   198.88962097
_cell_formula_units_Z   1
loop_
 _symmetry_equiv_pos_site_id
 _symmetry_equiv_pos_as_xyz
  1  'x, y, z'
loop_
 _atom_site_type_symbol
 _atom_site_label
 _atom_site_symmetry_multiplicity
 _atom_site_fract_x
 _atom_site_fract_y
 _atom_site_fract_z
 _atom_site_occupancy
  Ce  Ce0  1  0.248920  0.000000  0.000000  1
  Nd  Nd1  1  0.628602  0.000000  0.500000  1
  Nd  Nd2  1  0.417511  0.451416  0.500000  1
  Nd  Nd3  1  0.966095  0.548584  0.500000  1
  Zn  Zn4  1  0.756263  0.747628  0.000000  1
  Zn  Zn5  1  0.008635  0.252372  0.000000  1
  Rh  Rh6  1  0.006423  0.000000  0.500000  1
  Rh  Rh7  1  0.324288  0.681025  0.000000  1
  Rh  Rh8  1  0.643263  0.318975  0.000000  1
