# generated using pymatgen
data_CsSm2DyCBr6
_symmetry_space_group_name_H-M   'P 1'
_cell_length_a   8.95029219
_cell_length_b   8.98489228
_cell_length_c   9.55528324
_cell_angle_alpha   71.02279253
_cell_angle_beta   84.92395042
_cell_angle_gamma   89.23611042
_symmetry_Int_Tables_number   1
_chemical_formula_structural   CsSm2DyCBr6
_chemical_formula_sum   'Cs2 Sm4 Dy2 C2 Br12'
_cell_volume   723.69941279
_cell_formula_units_Z   2
loop_
 _symmetry_equiv_pos_site_id
 _symmetry_equiv_pos_as_xyz
  1  'x, y, z'
loop_
 _atom_site_type_symbol
 _atom_site_label
 _atom_site_symmetry_multiplicity
 _atom_site_fract_x
 _atom_site_fract_y
 _atom_site_fract_z
 _atom_site_occupancy
  Cs  Cs0  1  0.467235  0.363784  0.331102  1
  Cs  Cs1  1  0.532766  0.636216  0.668898  1
  Sm  Sm2  1  0.915208  0.740929  0.004108  1
  Sm  Sm3  1  0.084792  0.259071  0.995891  1
  Sm  Sm4  1  0.739788  0.086883  0.000940  1
  Sm  Sm5  1  0.260211  0.913117  0.999061  1
  Dy  Dy6  1  0.973382  0.887893  0.322245  1
  Dy  Dy7  1  0.026617  0.112107  0.677756  1
  C  C8  1  0.006414  0.026606  0.921559  1
  C  C9  1  0.993585  0.973394  0.078441  1
  Br  Br10  1  0.073948  0.191430  0.331658  1
  Br  Br11  1  0.926052  0.808570  0.668342  1
  Br  Br12  1  0.206530  0.590711  0.000751  1
  Br  Br13  1  0.793471  0.409289  0.999249  1
  Br  Br14  1  0.405108  0.202814  0.001977  1
  Br  Br15  1  0.594891  0.797187  0.998022  1
  Br  Br16  1  0.670719  0.998540  0.328904  1
  Br  Br17  1  0.329281  0.001460  0.671096  1
  Br  Br18  1  0.275305  0.776463  0.325668  1
  Br  Br19  1  0.724695  0.223537  0.674332  1
  Br  Br20  1  0.853335  0.593711  0.329398  1
  Br  Br21  1  0.146664  0.406289  0.670602  1
