# generated using pymatgen
data_Tb13YTh2(CdIr)4
_symmetry_space_group_name_H-M   'P 1'
_cell_length_a   9.72887520
_cell_length_b   9.72887439
_cell_length_c   9.71580100
_cell_angle_alpha   60.04444507
_cell_angle_beta   60.04444783
_cell_angle_gamma   60.14403900
_symmetry_Int_Tables_number   1
_chemical_formula_structural   Tb13YTh2(CdIr)4
_chemical_formula_sum   'Tb13 Y1 Th2 Cd4 Ir4'
_cell_volume   651.40553785
_cell_formula_units_Z   1
loop_
 _symmetry_equiv_pos_site_id
 _symmetry_equiv_pos_as_xyz
  1  'x, y, z'
loop_
 _atom_site_type_symbol
 _atom_site_label
 _atom_site_symmetry_multiplicity
 _atom_site_fract_x
 _atom_site_fract_y
 _atom_site_fract_z
 _atom_site_occupancy
  Tb  Tb0  1  0.351822  0.948141  0.350019  1
  Tb  Tb1  1  0.948141  0.351822  0.350019  1
  Tb  Tb2  1  0.811890  0.189627  0.188745  1
  Tb  Tb3  1  0.189627  0.811890  0.809737  1
  Tb  Tb4  1  0.189627  0.811890  0.188745  1
  Tb  Tb5  1  0.811890  0.189627  0.809737  1
  Tb  Tb6  1  0.186951  0.186951  0.813049  1
  Tb  Tb7  1  0.810836  0.810836  0.189164  1
  Tb  Tb8  1  0.937269  0.564263  0.563560  1
  Tb  Tb9  1  0.564263  0.937269  0.934909  1
  Tb  Tb10  1  0.564263  0.937269  0.563560  1
  Tb  Tb11  1  0.937269  0.564263  0.934909  1
  Tb  Tb12  1  0.565004  0.565004  0.934996  1
  Y  Y13  1  0.940027  0.940027  0.559973  1
  Th  Th14  1  0.346349  0.346349  0.350348  1
  Th  Th15  1  0.346349  0.346349  0.956954  1
  Cd  Cd16  1  0.581464  0.581464  0.579922  1
  Cd  Cd17  1  0.581464  0.581464  0.257152  1
  Cd  Cd18  1  0.582349  0.253512  0.582070  1
  Cd  Cd19  1  0.253512  0.582349  0.582070  1
  Ir  Ir20  1  0.141787  0.141787  0.144508  1
  Ir  Ir21  1  0.141787  0.141787  0.571917  1
  Ir  Ir22  1  0.144102  0.571957  0.141971  1
  Ir  Ir23  1  0.571957  0.144102  0.141971  1
