# generated using pymatgen
data_Li2Cd(P3Pd10)2
_symmetry_space_group_name_H-M   'P 1'
_cell_length_a   8.57674840
_cell_length_b   8.57675425
_cell_length_c   8.57674300
_cell_angle_alpha   60.00002369
_cell_angle_beta   60.00005348
_cell_angle_gamma   60.00004725
_symmetry_Int_Tables_number   1
_chemical_formula_structural   Li2Cd(P3Pd10)2
_chemical_formula_sum   'Li2 Cd1 P6 Pd20'
_cell_volume   446.12179817
_cell_formula_units_Z   1
loop_
 _symmetry_equiv_pos_site_id
 _symmetry_equiv_pos_as_xyz
  1  'x, y, z'
loop_
 _atom_site_type_symbol
 _atom_site_label
 _atom_site_symmetry_multiplicity
 _atom_site_fract_x
 _atom_site_fract_y
 _atom_site_fract_z
 _atom_site_occupancy
  Li  Li0  1  0.750000  0.750000  0.750000  1
  Li  Li1  1  0.000000  0.000000  0.000000  1
  Cd  Cd2  1  0.250000  0.250000  0.250000  1
  P  P3  1  0.736015  0.263985  0.263986  1
  P  P4  1  0.263986  0.736015  0.736014  1
  P  P5  1  0.263985  0.736015  0.263986  1
  P  P6  1  0.736015  0.263986  0.736014  1
  P  P7  1  0.263986  0.263985  0.736014  1
  P  P8  1  0.736014  0.736015  0.263986  1
  Pd  Pd9  1  0.383136  0.383137  0.383138  1
  Pd  Pd10  1  0.616573  0.616573  0.616573  1
  Pd  Pd11  1  0.383137  0.383137  0.850588  1
  Pd  Pd12  1  0.383136  0.850590  0.383137  1
  Pd  Pd13  1  0.616573  0.616574  0.150280  1
  Pd  Pd14  1  0.616574  0.150280  0.616573  1
  Pd  Pd15  1  0.850589  0.383137  0.383137  1
  Pd  Pd16  1  0.150280  0.616574  0.616573  1
  Pd  Pd17  1  0.343270  0.999219  0.999219  1
  Pd  Pd18  1  0.658293  0.999219  0.999219  1
  Pd  Pd19  1  0.999219  0.343269  0.658293  1
  Pd  Pd20  1  0.999218  0.658294  0.343269  1
  Pd  Pd21  1  0.999218  0.343270  0.999219  1
  Pd  Pd22  1  0.658293  0.999219  0.343270  1
  Pd  Pd23  1  0.999218  0.658293  0.999219  1
  Pd  Pd24  1  0.343270  0.999218  0.658292  1
  Pd  Pd25  1  0.999219  0.999218  0.343270  1
  Pd  Pd26  1  0.999219  0.999219  0.658293  1
  Pd  Pd27  1  0.658293  0.343269  0.999219  1
  Pd  Pd28  1  0.343269  0.658293  0.999219  1
