# generated using pymatgen
data_HoEr5TcOs
_symmetry_space_group_name_H-M   'P 1'
_cell_length_a   6.24782200
_cell_length_b   7.39139400
_cell_length_c   9.00281500
_cell_angle_alpha   90.00000000
_cell_angle_beta   90.00000000
_cell_angle_gamma   90.00000000
_symmetry_Int_Tables_number   1
_chemical_formula_structural   HoEr5TcOs
_chemical_formula_sum   'Ho2 Er10 Tc2 Os2'
_cell_volume   415.75102342
_cell_formula_units_Z   2
loop_
 _symmetry_equiv_pos_site_id
 _symmetry_equiv_pos_as_xyz
  1  'x, y, z'
loop_
 _atom_site_type_symbol
 _atom_site_label
 _atom_site_symmetry_multiplicity
 _atom_site_fract_x
 _atom_site_fract_y
 _atom_site_fract_z
 _atom_site_occupancy
  Ho  Ho0  1  0.876055  0.539153  0.250000  1
  Ho  Ho1  1  0.623945  0.039153  0.250000  1
  Er  Er2  1  0.337122  0.674817  0.061961  1
  Er  Er3  1  0.162878  0.174817  0.438039  1
  Er  Er4  1  0.664570  0.324843  0.562924  1
  Er  Er5  1  0.835430  0.824843  0.937076  1
  Er  Er6  1  0.664570  0.324843  0.937076  1
  Er  Er7  1  0.835430  0.824843  0.562924  1
  Er  Er8  1  0.337122  0.674817  0.438039  1
  Er  Er9  1  0.162878  0.174817  0.061961  1
  Er  Er10  1  0.129547  0.459663  0.750000  1
  Er  Er11  1  0.370453  0.959663  0.750000  1
  Tc  Tc12  1  0.039335  0.883930  0.250000  1
  Tc  Tc13  1  0.460665  0.383930  0.250000  1
  Os  Os14  1  0.959500  0.117936  0.750000  1
  Os  Os15  1  0.540500  0.617936  0.750000  1
