# generated using pymatgen
data_KZr6MnI14
_symmetry_space_group_name_H-M   'P 1'
_cell_length_a   10.88467400
_cell_length_b   10.88467424
_cell_length_c   13.13497800
_cell_angle_alpha   90.00000000
_cell_angle_beta   90.00000000
_cell_angle_gamma   95.57567536
_symmetry_Int_Tables_number   1
_chemical_formula_structural   KZr6MnI14
_chemical_formula_sum   'K2 Zr12 Mn2 I28'
_cell_volume   1548.81866927
_cell_formula_units_Z   2
loop_
 _symmetry_equiv_pos_site_id
 _symmetry_equiv_pos_as_xyz
  1  'x, y, z'
loop_
 _atom_site_type_symbol
 _atom_site_label
 _atom_site_symmetry_multiplicity
 _atom_site_fract_x
 _atom_site_fract_y
 _atom_site_fract_z
 _atom_site_occupancy
  K  K0  1  0.500000  0.500000  0.000000  1
  K  K1  1  0.000000  0.000000  0.500000  1
  Zr  Zr2  1  0.360087  0.360087  0.397248  1
  Zr  Zr3  1  0.639913  0.639913  0.602752  1
  Zr  Zr4  1  0.139913  0.139913  0.897248  1
  Zr  Zr5  1  0.860087  0.860087  0.102752  1
  Zr  Zr6  1  0.955814  0.177297  0.112336  1
  Zr  Zr7  1  0.044186  0.822703  0.887664  1
  Zr  Zr8  1  0.544186  0.322703  0.612336  1
  Zr  Zr9  1  0.677297  0.455814  0.387664  1
  Zr  Zr10  1  0.455814  0.677297  0.387664  1
  Zr  Zr11  1  0.322703  0.544186  0.612336  1
  Zr  Zr12  1  0.822703  0.044186  0.887664  1
  Zr  Zr13  1  0.177297  0.955814  0.112336  1
  Mn  Mn14  1  0.000000  0.000000  0.000000  1
  Mn  Mn15  1  0.500000  0.500000  0.500000  1
  I  I16  1  0.117187  0.369273  0.006726  1
  I  I17  1  0.882813  0.630727  0.993274  1
  I  I18  1  0.382813  0.130727  0.506726  1
  I  I19  1  0.869273  0.617187  0.493274  1
  I  I20  1  0.617187  0.869273  0.493274  1
  I  I21  1  0.130727  0.382813  0.506726  1
  I  I22  1  0.630727  0.882813  0.993274  1
  I  I23  1  0.369273  0.117187  0.006726  1
  I  I24  1  0.746349  0.253651  0.000000  1
  I  I25  1  0.253651  0.746349  0.000000  1
  I  I26  1  0.753651  0.246349  0.500000  1
  I  I27  1  0.246349  0.753651  0.500000  1
  I  I28  1  0.901219  0.401219  0.250000  1
  I  I29  1  0.098781  0.598781  0.750000  1
  I  I30  1  0.598781  0.098781  0.750000  1
  I  I31  1  0.401219  0.901219  0.250000  1
  I  I32  1  0.157009  0.157009  0.263846  1
  I  I33  1  0.842991  0.842991  0.736154  1
  I  I34  1  0.342991  0.342991  0.763846  1
  I  I35  1  0.657009  0.657009  0.236154  1
  I  I36  1  0.285446  0.535862  0.247665  1
  I  I37  1  0.714554  0.464138  0.752335  1
  I  I38  1  0.214554  0.964138  0.747665  1
  I  I39  1  0.035862  0.785446  0.252335  1
  I  I40  1  0.785446  0.035862  0.252335  1
  I  I41  1  0.964138  0.214554  0.747665  1
  I  I42  1  0.464138  0.714554  0.752335  1
  I  I43  1  0.535862  0.285446  0.247665  1
