# generated using pymatgen
data_Hf9TaCoRe2W
_symmetry_space_group_name_H-M   'P 1'
_cell_length_a   8.67880051
_cell_length_b   8.68766870
_cell_length_c   8.49619200
_cell_angle_alpha   90.00000000
_cell_angle_beta   90.00000000
_cell_angle_gamma   120.03381179
_symmetry_Int_Tables_number   1
_chemical_formula_structural   Hf9TaCoRe2W
_chemical_formula_sum   'Hf18 Ta2 Co2 Re4 W2'
_cell_volume   554.58719472
_cell_formula_units_Z   2
loop_
 _symmetry_equiv_pos_site_id
 _symmetry_equiv_pos_as_xyz
  1  'x, y, z'
loop_
 _atom_site_type_symbol
 _atom_site_label
 _atom_site_symmetry_multiplicity
 _atom_site_fract_x
 _atom_site_fract_y
 _atom_site_fract_z
 _atom_site_occupancy
  Hf  Hf0  1  0.201229  0.798668  0.440358  1
  Hf  Hf1  1  0.201229  0.402563  0.440358  1
  Hf  Hf2  1  0.597055  0.798528  0.440873  1
  Hf  Hf3  1  0.798164  0.201245  0.560485  1
  Hf  Hf4  1  0.798164  0.596918  0.560485  1
  Hf  Hf5  1  0.402583  0.201291  0.560230  1
  Hf  Hf6  1  0.798164  0.201245  0.939515  1
  Hf  Hf7  1  0.798164  0.596918  0.939515  1
  Hf  Hf8  1  0.402583  0.201291  0.939770  1
  Hf  Hf9  1  0.201229  0.798668  0.059642  1
  Hf  Hf10  1  0.201229  0.402563  0.059642  1
  Hf  Hf11  1  0.597055  0.798528  0.059127  1
  Hf  Hf12  1  0.541552  0.456795  0.250000  1
  Hf  Hf13  1  0.541552  0.084756  0.250000  1
  Hf  Hf14  1  0.915239  0.457619  0.250000  1
  Hf  Hf15  1  0.457310  0.542414  0.750000  1
  Hf  Hf16  1  0.457310  0.914897  0.750000  1
  Hf  Hf17  1  0.085571  0.542786  0.750000  1
  Ta  Ta18  1  0.001264  0.000632  0.502813  1
  Ta  Ta19  1  0.001264  0.000632  0.997187  1
  Co  Co20  1  0.333233  0.666617  0.250000  1
  Co  Co21  1  0.666199  0.333099  0.750000  1
  Re  Re22  1  0.227943  0.113972  0.250000  1
  Re  Re23  1  0.115507  0.886206  0.750000  1
  Re  Re24  1  0.115507  0.229300  0.750000  1
  Re  Re25  1  0.770720  0.885359  0.750000  1
  W  W26  1  0.886488  0.114328  0.250000  1
  W  W27  1  0.886488  0.772162  0.250000  1
