# generated using pymatgen
data_K2Np(SiO3)3
_symmetry_space_group_name_H-M   'P 1'
_cell_length_a   7.16309800
_cell_length_b   7.16309826
_cell_length_c   10.62330800
_cell_angle_alpha   90.00000000
_cell_angle_beta   90.00000000
_cell_angle_gamma   119.99999308
_symmetry_Int_Tables_number   1
_chemical_formula_structural   K2Np(SiO3)3
_chemical_formula_sum   'K4 Np2 Si6 O18'
_cell_volume   472.05460314
_cell_formula_units_Z   2
loop_
 _symmetry_equiv_pos_site_id
 _symmetry_equiv_pos_as_xyz
  1  'x, y, z'
loop_
 _atom_site_type_symbol
 _atom_site_label
 _atom_site_symmetry_multiplicity
 _atom_site_fract_x
 _atom_site_fract_y
 _atom_site_fract_z
 _atom_site_occupancy
  K  K0  1  0.333333  0.666667  0.057768  1
  K  K1  1  0.666667  0.333333  0.557768  1
  K  K2  1  0.333333  0.666667  0.442232  1
  K  K3  1  0.666667  0.333333  0.942232  1
  Np  Np4  1  0.000000  0.000000  0.000000  1
  Np  Np5  1  0.000000  0.000000  0.500000  1
  Si  Si6  1  0.605343  0.731419  0.750000  1
  Si  Si7  1  0.873925  0.605343  0.250000  1
  Si  Si8  1  0.731419  0.126075  0.250000  1
  Si  Si9  1  0.268581  0.873925  0.750000  1
  Si  Si10  1  0.126075  0.394657  0.750000  1
  Si  Si11  1  0.394657  0.268581  0.250000  1
  O  O12  1  0.265940  0.247789  0.379676  1
  O  O13  1  0.018151  0.265940  0.879676  1
  O  O14  1  0.247789  0.981849  0.879676  1
  O  O15  1  0.752211  0.018151  0.379676  1
  O  O16  1  0.981849  0.734060  0.379676  1
  O  O17  1  0.734060  0.752211  0.879676  1
  O  O18  1  0.734060  0.752211  0.620324  1
  O  O19  1  0.981849  0.734060  0.120324  1
  O  O20  1  0.752211  0.018151  0.120324  1
  O  O21  1  0.247789  0.981849  0.620324  1
  O  O22  1  0.018151  0.265940  0.620324  1
  O  O23  1  0.265940  0.247789  0.120324  1
  O  O24  1  0.485097  0.095573  0.250000  1
  O  O25  1  0.389524  0.485097  0.750000  1
  O  O26  1  0.095573  0.610476  0.750000  1
  O  O27  1  0.904427  0.389524  0.250000  1
  O  O28  1  0.610476  0.514903  0.250000  1
  O  O29  1  0.514903  0.904427  0.750000  1
