# generated using pymatgen
data_SmDyAl2(Co3B)2
_symmetry_space_group_name_H-M   'P 1'
_cell_length_a   5.19430900
_cell_length_b   5.19338042
_cell_length_c   6.65650000
_cell_angle_alpha   90.00000000
_cell_angle_beta   90.00000000
_cell_angle_gamma   120.00592121
_symmetry_Int_Tables_number   1
_chemical_formula_structural   SmDyAl2(Co3B)2
_chemical_formula_sum   'Sm1 Dy1 Al2 Co6 B2'
_cell_volume   155.49934724
_cell_formula_units_Z   1
loop_
 _symmetry_equiv_pos_site_id
 _symmetry_equiv_pos_as_xyz
  1  'x, y, z'
loop_
 _atom_site_type_symbol
 _atom_site_label
 _atom_site_symmetry_multiplicity
 _atom_site_fract_x
 _atom_site_fract_y
 _atom_site_fract_z
 _atom_site_occupancy
  Sm  Sm0  1  0.999976  0.000000  0.000000  1
  Dy  Dy1  1  0.999992  0.000000  0.500000  1
  Al  Al2  1  0.333334  0.666708  0.000000  1
  Al  Al3  1  0.666626  0.333292  0.000000  1
  Co  Co4  1  0.499987  0.000000  0.295512  1
  Co  Co5  1  0.499985  0.500002  0.295510  1
  Co  Co6  1  0.999983  0.499998  0.295510  1
  Co  Co7  1  0.499987  0.000000  0.704488  1
  Co  Co8  1  0.499985  0.500002  0.704490  1
  Co  Co9  1  0.999983  0.499998  0.704490  1
  B  B10  1  0.333362  0.666763  0.500000  1
  B  B11  1  0.666599  0.333237  0.500000  1
