# generated using pymatgen
data_TbNd2Ho5(CdPd)2
_symmetry_space_group_name_H-M   'P 1'
_cell_length_a   9.76023005
_cell_length_b   9.73851947
_cell_length_c   9.72620138
_cell_angle_alpha   60.18952209
_cell_angle_beta   59.96780913
_cell_angle_gamma   60.01192618
_symmetry_Int_Tables_number   1
_chemical_formula_structural   TbNd2Ho5(CdPd)2
_chemical_formula_sum   'Tb2 Nd4 Ho10 Cd4 Pd4'
_cell_volume   654.53456896
_cell_formula_units_Z   2
loop_
 _symmetry_equiv_pos_site_id
 _symmetry_equiv_pos_as_xyz
  1  'x, y, z'
loop_
 _atom_site_type_symbol
 _atom_site_label
 _atom_site_symmetry_multiplicity
 _atom_site_fract_x
 _atom_site_fract_y
 _atom_site_fract_z
 _atom_site_occupancy
  Tb  Tb0  1  0.353023  0.352373  0.351961  1
  Tb  Tb1  1  0.352373  0.353023  0.942641  1
  Nd  Nd2  1  0.565247  0.934279  0.566535  1
  Nd  Nd3  1  0.934279  0.565247  0.933938  1
  Nd  Nd4  1  0.566374  0.566374  0.933626  1
  Nd  Nd5  1  0.934615  0.934615  0.565385  1
  Ho  Ho6  1  0.353092  0.941173  0.353116  1
  Ho  Ho7  1  0.941173  0.353092  0.352618  1
  Ho  Ho8  1  0.812129  0.188305  0.188432  1
  Ho  Ho9  1  0.188305  0.812129  0.811134  1
  Ho  Ho10  1  0.188264  0.812092  0.188689  1
  Ho  Ho11  1  0.812092  0.188264  0.810955  1
  Ho  Ho12  1  0.188578  0.188578  0.811422  1
  Ho  Ho13  1  0.811619  0.811619  0.188381  1
  Ho  Ho14  1  0.940451  0.559653  0.559919  1
  Ho  Ho15  1  0.559653  0.940451  0.939977  1
  Cd  Cd16  1  0.583839  0.578981  0.578607  1
  Cd  Cd17  1  0.578981  0.583839  0.258573  1
  Cd  Cd18  1  0.579593  0.257824  0.583285  1
  Cd  Cd19  1  0.257824  0.579593  0.579299  1
  Pd  Pd20  1  0.145723  0.142271  0.143799  1
  Pd  Pd21  1  0.142271  0.145723  0.568205  1
  Pd  Pd22  1  0.141257  0.569242  0.146792  1
  Pd  Pd23  1  0.569242  0.141257  0.142707  1
