# generated using pymatgen
data_Sm2Ho7Er(In2Pd)4
_symmetry_space_group_name_H-M   'P 1'
_cell_length_a   3.61333600
_cell_length_b   8.18143100
_cell_length_c   18.32965900
_cell_angle_alpha   89.99875780
_cell_angle_beta   90.00000000
_cell_angle_gamma   90.00000000
_symmetry_Int_Tables_number   1
_chemical_formula_structural   Sm2Ho7Er(In2Pd)4
_chemical_formula_sum   'Sm2 Ho7 Er1 In8 Pd4'
_cell_volume   541.86612968
_cell_formula_units_Z   1
loop_
 _symmetry_equiv_pos_site_id
 _symmetry_equiv_pos_as_xyz
  1  'x, y, z'
loop_
 _atom_site_type_symbol
 _atom_site_label
 _atom_site_symmetry_multiplicity
 _atom_site_fract_x
 _atom_site_fract_y
 _atom_site_fract_z
 _atom_site_occupancy
  Sm  Sm0  1  0.000000  0.499989  0.500001  1
  Sm  Sm1  1  0.000000  0.999997  0.000005  1
  Ho  Ho2  1  0.000000  0.738980  0.281655  1
  Ho  Ho3  1  0.000000  0.261048  0.718357  1
  Ho  Ho4  1  0.000000  0.761048  0.781642  1
  Ho  Ho5  1  0.000000  0.238935  0.218368  1
  Ho  Ho6  1  0.000000  0.620013  0.084129  1
  Ho  Ho7  1  0.000000  0.379987  0.915869  1
  Ho  Ho8  1  0.000000  0.879987  0.584118  1
  Er  Er9  1  0.000000  0.119947  0.415796  1
  In  In10  1  0.500000  0.702364  0.932338  1
  In  In11  1  0.500000  0.297634  0.067657  1
  In  In12  1  0.500000  0.797744  0.432340  1
  In  In13  1  0.500000  0.202358  0.567627  1
  In  In14  1  0.500000  0.582003  0.652477  1
  In  In15  1  0.500000  0.417906  0.347549  1
  In  In16  1  0.500000  0.918007  0.152477  1
  In  In17  1  0.500000  0.081993  0.847524  1
  Pd  Pd18  1  0.500000  0.523888  0.195665  1
  Pd  Pd19  1  0.500000  0.476100  0.804334  1
  Pd  Pd20  1  0.500000  0.976105  0.695662  1
  Pd  Pd21  1  0.500000  0.023965  0.304410  1
