# generated using pymatgen
data_Mn5Cr(CoW2)2
_symmetry_space_group_name_H-M   'P 1'
_cell_length_a   4.66595794
_cell_length_b   4.66595797
_cell_length_c   7.89361600
_cell_angle_alpha   90.00000000
_cell_angle_beta   90.00000000
_cell_angle_gamma   119.89550007
_symmetry_Int_Tables_number   1
_chemical_formula_structural   Mn5Cr(CoW2)2
_chemical_formula_sum   'Mn5 Cr1 Co2 W4'
_cell_volume   148.98571296
_cell_formula_units_Z   1
loop_
 _symmetry_equiv_pos_site_id
 _symmetry_equiv_pos_as_xyz
  1  'x, y, z'
loop_
 _atom_site_type_symbol
 _atom_site_label
 _atom_site_symmetry_multiplicity
 _atom_site_fract_x
 _atom_site_fract_y
 _atom_site_fract_z
 _atom_site_occupancy
  Mn  Mn0  1  0.828213  0.653988  0.750000  1
  Mn  Mn1  1  0.346012  0.171787  0.750000  1
  Mn  Mn2  1  0.172863  0.827137  0.250000  1
  Mn  Mn3  1  0.172431  0.345454  0.250000  1
  Mn  Mn4  1  0.654546  0.827569  0.250000  1
  Cr  Cr5  1  0.829475  0.170525  0.750000  1
  Co  Co6  1  0.000885  0.999115  0.002428  1
  Co  Co7  1  0.000885  0.999115  0.497572  1
  W  W8  1  0.331749  0.668251  0.934338  1
  W  W9  1  0.665596  0.334404  0.067790  1
  W  W10  1  0.665596  0.334404  0.432210  1
  W  W11  1  0.331749  0.668251  0.565662  1
