# generated using pymatgen
data_Tm12Co4RuPb
_symmetry_space_group_name_H-M   'P 1'
_cell_length_a   8.20519602
_cell_length_b   8.20519483
_cell_length_c   8.20519538
_cell_angle_alpha   110.82034763
_cell_angle_beta   111.44325103
_cell_angle_gamma   106.19943386
_symmetry_Int_Tables_number   1
_chemical_formula_structural   Tm12Co4RuPb
_chemical_formula_sum   'Tm12 Co4 Ru1 Pb1'
_cell_volume   424.20481081
_cell_formula_units_Z   1
loop_
 _symmetry_equiv_pos_site_id
 _symmetry_equiv_pos_as_xyz
  1  'x, y, z'
loop_
 _atom_site_type_symbol
 _atom_site_label
 _atom_site_symmetry_multiplicity
 _atom_site_fract_x
 _atom_site_fract_y
 _atom_site_fract_z
 _atom_site_occupancy
  Tm  Tm0  1  0.284893  0.183695  0.468588  1
  Tm  Tm1  1  0.715107  0.816305  0.531412  1
  Tm  Tm2  1  0.284893  0.816305  0.101197  1
  Tm  Tm3  1  0.715107  0.183695  0.898803  1
  Tm  Tm4  1  0.619177  0.312014  0.307163  1
  Tm  Tm5  1  0.380823  0.687986  0.692837  1
  Tm  Tm6  1  0.004851  0.312014  0.692837  1
  Tm  Tm7  1  0.995149  0.687986  0.307163  1
  Tm  Tm8  1  0.214218  0.409252  0.195035  1
  Tm  Tm9  1  0.785782  0.590748  0.804965  1
  Tm  Tm10  1  0.214218  0.019184  0.804965  1
  Tm  Tm11  1  0.785782  0.980816  0.195035  1
  Co  Co12  1  0.000000  0.377265  0.377265  1
  Co  Co13  1  0.000000  0.622735  0.622735  1
  Co  Co14  1  0.388335  0.888335  0.500000  1
  Co  Co15  1  0.611665  0.111665  0.500000  1
  Ru  Ru16  1  0.000000  0.000000  0.000000  1
  Pb  Pb17  1  0.500000  0.500000  0.000000  1
