# generated using pymatgen
data_Dy19YIr11Os
_symmetry_space_group_name_H-M   'P 1'
_cell_length_a   10.87505217
_cell_length_b   10.87488408
_cell_length_c   6.39684507
_cell_angle_alpha   90.00594957
_cell_angle_beta   90.01565705
_cell_angle_gamma   90.01299194
_symmetry_Int_Tables_number   1
_chemical_formula_structural   Dy19YIr11Os
_chemical_formula_sum   'Dy19 Y1 Ir11 Os1'
_cell_volume   756.52239382
_cell_formula_units_Z   1
loop_
 _symmetry_equiv_pos_site_id
 _symmetry_equiv_pos_as_xyz
  1  'x, y, z'
loop_
 _atom_site_type_symbol
 _atom_site_label
 _atom_site_symmetry_multiplicity
 _atom_site_fract_x
 _atom_site_fract_y
 _atom_site_fract_z
 _atom_site_occupancy
  Dy  Dy0  1  0.293095  0.912646  0.880499  1
  Dy  Dy1  1  0.706941  0.087399  0.880396  1
  Dy  Dy2  1  0.707361  0.912625  0.376709  1
  Dy  Dy3  1  0.587307  0.793031  0.880432  1
  Dy  Dy4  1  0.587415  0.207365  0.376690  1
  Dy  Dy5  1  0.412627  0.792580  0.376654  1
  Dy  Dy6  1  0.412695  0.206912  0.880482  1
  Dy  Dy7  1  0.208843  0.411584  0.621326  1
  Dy  Dy8  1  0.208782  0.588203  0.121033  1
  Dy  Dy9  1  0.791208  0.411797  0.121074  1
  Dy  Dy10  1  0.791135  0.588428  0.621328  1
  Dy  Dy11  1  0.911791  0.708779  0.121043  1
  Dy  Dy12  1  0.911598  0.291146  0.621318  1
  Dy  Dy13  1  0.088424  0.708880  0.621338  1
  Dy  Dy14  1  0.088149  0.291329  0.121102  1
  Dy  Dy15  1  0.999951  0.999988  0.499451  1
  Dy  Dy16  1  0.000005  0.999989  0.999373  1
  Dy  Dy17  1  0.500015  0.500014  0.999310  1
  Dy  Dy18  1  0.499968  0.499993  0.499419  1
  Y  Y19  1  0.292378  0.087425  0.376461  1
  Ir  Ir20  1  0.847514  0.153841  0.250264  1
  Ir  Ir21  1  0.847521  0.846416  0.749874  1
  Ir  Ir22  1  0.152248  0.153646  0.750438  1
  Ir  Ir23  1  0.152330  0.845958  0.250169  1
  Ir  Ir24  1  0.653573  0.347552  0.749892  1
  Ir  Ir25  1  0.653872  0.652473  0.250283  1
  Ir  Ir26  1  0.346179  0.347841  0.250069  1
  Ir  Ir27  1  0.346433  0.652447  0.749901  1
  Ir  Ir28  1  0.500334  0.999837  0.624478  1
  Ir  Ir29  1  0.999999  0.500003  0.876773  1
  Ir  Ir30  1  0.999991  0.500008  0.377122  1
  Os  Os31  1  0.500317  0.999863  0.125293  1
