# generated using pymatgen
data_TlNiBr18
_symmetry_space_group_name_H-M   'P 1'
_cell_length_a   9.19238539
_cell_length_b   9.36922026
_cell_length_c   9.18491426
_cell_angle_alpha   88.32001145
_cell_angle_beta   88.05643878
_cell_angle_gamma   87.42854221
_symmetry_Int_Tables_number   1
_chemical_formula_structural   TlNiBr18
_chemical_formula_sum   'Tl1 Ni1 Br18'
_cell_volume   789.49787728
_cell_formula_units_Z   1
loop_
 _symmetry_equiv_pos_site_id
 _symmetry_equiv_pos_as_xyz
  1  'x, y, z'
loop_
 _atom_site_type_symbol
 _atom_site_label
 _atom_site_symmetry_multiplicity
 _atom_site_fract_x
 _atom_site_fract_y
 _atom_site_fract_z
 _atom_site_occupancy
  Tl  Tl0  1  0.000000  0.000000  0.000000  1
  Ni  Ni1  1  0.500000  0.500000  0.500000  1
  Br  Br2  1  0.759638  0.462726  0.508949  1
  Br  Br3  1  0.510952  0.774768  0.459872  1
  Br  Br4  1  0.466527  0.510695  0.763951  1
  Br  Br5  1  0.240362  0.537274  0.491051  1
  Br  Br6  1  0.489048  0.225232  0.540128  1
  Br  Br7  1  0.533473  0.489305  0.236049  1
  Br  Br8  1  0.878617  0.381022  0.749296  1
  Br  Br9  1  0.742400  0.886751  0.379356  1
  Br  Br10  1  0.383413  0.745586  0.881883  1
  Br  Br11  1  0.121383  0.618978  0.250704  1
  Br  Br12  1  0.257600  0.113249  0.620644  1
  Br  Br13  1  0.616587  0.254414  0.118117  1
  Br  Br14  1  0.027695  0.966514  0.700777  1
  Br  Br15  1  0.693934  0.035363  0.967683  1
  Br  Br16  1  0.967013  0.694875  0.036164  1
  Br  Br17  1  0.972305  0.033486  0.299223  1
  Br  Br18  1  0.306066  0.964637  0.032317  1
  Br  Br19  1  0.032987  0.305125  0.963836  1
