# generated using pymatgen
data_Rb6ScSe4
_symmetry_space_group_name_H-M   'P 1'
_cell_length_a   11.10668400
_cell_length_b   11.10668307
_cell_length_c   8.38053200
_cell_angle_alpha   90.00000000
_cell_angle_beta   90.00000000
_cell_angle_gamma   119.99999681
_symmetry_Int_Tables_number   1
_chemical_formula_structural   Rb6ScSe4
_chemical_formula_sum   'Rb12 Sc2 Se8'
_cell_volume   895.30504061
_cell_formula_units_Z   2
loop_
 _symmetry_equiv_pos_site_id
 _symmetry_equiv_pos_as_xyz
  1  'x, y, z'
loop_
 _atom_site_type_symbol
 _atom_site_label
 _atom_site_symmetry_multiplicity
 _atom_site_fract_x
 _atom_site_fract_y
 _atom_site_fract_z
 _atom_site_occupancy
  Rb  Rb0  1  0.135368  0.864632  0.545041  1
  Rb  Rb1  1  0.270735  0.135368  0.045041  1
  Rb  Rb2  1  0.864632  0.729265  0.045041  1
  Rb  Rb3  1  0.135368  0.270735  0.545041  1
  Rb  Rb4  1  0.729265  0.864632  0.545041  1
  Rb  Rb5  1  0.864632  0.135368  0.045041  1
  Rb  Rb6  1  0.530711  0.469289  0.362964  1
  Rb  Rb7  1  0.061423  0.530711  0.862964  1
  Rb  Rb8  1  0.469289  0.938577  0.862964  1
  Rb  Rb9  1  0.530711  0.061423  0.362964  1
  Rb  Rb10  1  0.938577  0.469289  0.362964  1
  Rb  Rb11  1  0.469289  0.530711  0.862964  1
  Sc  Sc12  1  0.333333  0.666667  0.255940  1
  Sc  Sc13  1  0.666667  0.333333  0.755940  1
  Se  Se14  1  0.333333  0.666667  0.566810  1
  Se  Se15  1  0.666667  0.333333  0.066810  1
  Se  Se16  1  0.205631  0.794369  0.154312  1
  Se  Se17  1  0.411262  0.205631  0.654312  1
  Se  Se18  1  0.794369  0.588738  0.654312  1
  Se  Se19  1  0.205631  0.411262  0.154312  1
  Se  Se20  1  0.588738  0.794369  0.154312  1
  Se  Se21  1  0.794369  0.205631  0.654312  1
