# generated using pymatgen
data_LiLa2As3Rh4
_symmetry_space_group_name_H-M   'P 1'
_cell_length_a   4.18494600
_cell_length_b   4.18494600
_cell_length_c   10.52353000
_cell_angle_alpha   90.00000000
_cell_angle_beta   90.00000000
_cell_angle_gamma   90.00000000
_symmetry_Int_Tables_number   1
_chemical_formula_structural   LiLa2As3Rh4
_chemical_formula_sum   'Li1 La2 As3 Rh4'
_cell_volume   184.30671582
_cell_formula_units_Z   1
loop_
 _symmetry_equiv_pos_site_id
 _symmetry_equiv_pos_as_xyz
  1  'x, y, z'
loop_
 _atom_site_type_symbol
 _atom_site_label
 _atom_site_symmetry_multiplicity
 _atom_site_fract_x
 _atom_site_fract_y
 _atom_site_fract_z
 _atom_site_occupancy
  Li  Li0  1  0.000000  0.000000  0.500000  1
  La  La1  1  0.000000  0.500000  0.256517  1
  La  La2  1  0.500000  0.000000  0.743483  1
  As  As3  1  0.500000  0.500000  0.500000  1
  As  As4  1  0.000000  0.500000  0.865210  1
  As  As5  1  0.500000  0.000000  0.134790  1
  Rh  Rh6  1  0.000000  0.000000  0.000000  1
  Rh  Rh7  1  0.500000  0.500000  0.000000  1
  Rh  Rh8  1  0.000000  0.500000  0.633742  1
  Rh  Rh9  1  0.500000  0.000000  0.366258  1
