# generated using pymatgen
data_SrNb2Fe2(PO4)6
_symmetry_space_group_name_H-M   'P 1'
_cell_length_a   8.67037700
_cell_length_b   9.14576983
_cell_length_c   12.59831986
_cell_angle_alpha   86.44457549
_cell_angle_beta   90.00000000
_cell_angle_gamma   90.00000000
_symmetry_Int_Tables_number   1
_chemical_formula_structural   SrNb2Fe2(PO4)6
_chemical_formula_sum   'Sr2 Nb4 Fe4 P12 O48'
_cell_volume   997.08957953
_cell_formula_units_Z   2
loop_
 _symmetry_equiv_pos_site_id
 _symmetry_equiv_pos_as_xyz
  1  'x, y, z'
loop_
 _atom_site_type_symbol
 _atom_site_label
 _atom_site_symmetry_multiplicity
 _atom_site_fract_x
 _atom_site_fract_y
 _atom_site_fract_z
 _atom_site_occupancy
  Sr  Sr0  1  0.000000  0.000000  0.500000  1
  Sr  Sr1  1  0.500000  0.500000  0.500000  1
  Nb  Nb2  1  0.499467  0.215688  0.853005  1
  Nb  Nb3  1  0.999467  0.284312  0.146995  1
  Nb  Nb4  1  0.500533  0.784312  0.146995  1
  Nb  Nb5  1  0.000533  0.715688  0.853005  1
  Fe  Fe6  1  0.501531  0.801387  0.645123  1
  Fe  Fe7  1  0.001531  0.698613  0.354877  1
  Fe  Fe8  1  0.498469  0.198613  0.354877  1
  Fe  Fe9  1  0.998469  0.301387  0.645123  1
  P  P10  1  0.352977  0.856537  0.396431  1
  P  P11  1  0.284252  0.501387  0.739948  1
  P  P12  1  0.147023  0.356537  0.396431  1
  P  P13  1  0.862066  0.360265  0.889326  1
  P  P14  1  0.362066  0.139735  0.110674  1
  P  P15  1  0.784252  0.998613  0.260052  1
  P  P16  1  0.215748  0.001387  0.739948  1
  P  P17  1  0.637934  0.860265  0.889326  1
  P  P18  1  0.137934  0.639735  0.110674  1
  P  P19  1  0.852977  0.643463  0.603569  1
  P  P20  1  0.715748  0.498613  0.260052  1
  P  P21  1  0.647023  0.143463  0.603569  1
  O  O22  1  0.307531  0.909609  0.664839  1
  O  O23  1  0.177677  0.830239  0.398366  1
  O  O24  1  0.433421  0.771621  0.490271  1
  O  O25  1  0.423329  0.789336  0.294851  1
  O  O26  1  0.396367  0.597737  0.673254  1
  O  O27  1  0.122503  0.522290  0.394513  1
  O  O28  1  0.192469  0.409609  0.664839  1
  O  O29  1  0.380188  0.395235  0.818046  1
  O  O30  1  0.119260  0.471660  0.113592  1
  O  O31  1  0.819158  0.407730  0.188305  1
  O  O32  1  0.322323  0.330239  0.398366  1
  O  O33  1  0.066579  0.271621  0.490271  1
  O  O34  1  0.076671  0.289336  0.294851  1
  O  O35  1  0.685567  0.327961  0.889958  1
  O  O36  1  0.925931  0.294872  0.997647  1
  O  O37  1  0.943257  0.291515  0.798775  1
  O  O38  1  0.443257  0.208485  0.201225  1
  O  O39  1  0.425931  0.205128  0.002353  1
  O  O40  1  0.185567  0.172039  0.110042  1
  O  O41  1  0.880188  0.104765  0.181954  1
  O  O42  1  0.377497  0.022290  0.394513  1
  O  O43  1  0.103633  0.097737  0.673254  1
  O  O44  1  0.319158  0.092270  0.811695  1
  O  O45  1  0.619260  0.028340  0.886408  1
  O  O46  1  0.380740  0.971660  0.113592  1
  O  O47  1  0.680842  0.907730  0.188305  1
  O  O48  1  0.896367  0.902263  0.326746  1
  O  O49  1  0.622503  0.977710  0.605487  1
  O  O50  1  0.119812  0.895235  0.818046  1
  O  O51  1  0.814433  0.827961  0.889958  1
  O  O52  1  0.574069  0.794872  0.997647  1
  O  O53  1  0.556743  0.791515  0.798775  1
  O  O54  1  0.056743  0.708485  0.201225  1
  O  O55  1  0.074069  0.705128  0.002353  1
  O  O56  1  0.314433  0.672039  0.110042  1
  O  O57  1  0.923329  0.710664  0.705149  1
  O  O58  1  0.933421  0.728379  0.509729  1
  O  O59  1  0.677677  0.669761  0.601634  1
  O  O60  1  0.180842  0.592270  0.811695  1
  O  O61  1  0.880740  0.528340  0.886408  1
  O  O62  1  0.619812  0.604765  0.181954  1
  O  O63  1  0.807531  0.590391  0.335161  1
  O  O64  1  0.877497  0.477710  0.605487  1
  O  O65  1  0.603633  0.402263  0.326746  1
  O  O66  1  0.576671  0.210664  0.705149  1
  O  O67  1  0.566579  0.228379  0.509729  1
  O  O68  1  0.822323  0.169761  0.601634  1
  O  O69  1  0.692469  0.090391  0.335161  1
