# generated using pymatgen
data_Ba6SrGd2(WO6)3
_symmetry_space_group_name_H-M   'P 1'
_cell_length_a   10.41529803
_cell_length_b   10.41529937
_cell_length_c   6.03565500
_cell_angle_alpha   73.92359490
_cell_angle_beta   73.92359851
_cell_angle_gamma   49.14101189
_symmetry_Int_Tables_number   1
_chemical_formula_structural   Ba6SrGd2(WO6)3
_chemical_formula_sum   'Ba6 Sr1 Gd2 W3 O18'
_cell_volume   471.67902054
_cell_formula_units_Z   1
loop_
 _symmetry_equiv_pos_site_id
 _symmetry_equiv_pos_as_xyz
  1  'x, y, z'
loop_
 _atom_site_type_symbol
 _atom_site_label
 _atom_site_symmetry_multiplicity
 _atom_site_fract_x
 _atom_site_fract_y
 _atom_site_fract_z
 _atom_site_occupancy
  Ba  Ba0  1  0.918643  0.420191  0.327212  1
  Ba  Ba1  1  0.256034  0.743966  0.000000  1
  Ba  Ba2  1  0.579809  0.081357  0.672788  1
  Ba  Ba3  1  0.743966  0.256034  0.000000  1
  Ba  Ba4  1  0.081357  0.579809  0.672788  1
  Ba  Ba5  1  0.420191  0.918643  0.327212  1
  Sr  Sr6  1  0.500000  0.500000  0.500000  1
  Gd  Gd7  1  0.165913  0.165913  0.831082  1
  Gd  Gd8  1  0.834087  0.834087  0.168918  1
  W  W9  1  0.000000  0.000000  0.500000  1
  W  W10  1  0.331585  0.331585  0.171595  1
  W  W11  1  0.668415  0.668415  0.828405  1
  O  O12  1  0.907030  0.430593  0.836021  1
  O  O13  1  0.222782  0.777218  0.500000  1
  O  O14  1  0.569407  0.092970  0.163979  1
  O  O15  1  0.777218  0.222782  0.500000  1
  O  O16  1  0.092970  0.569407  0.163979  1
  O  O17  1  0.430593  0.907030  0.836021  1
  O  O18  1  0.762703  0.762703  0.538404  1
  O  O19  1  0.422934  0.422934  0.895773  1
  O  O20  1  0.088534  0.088534  0.222869  1
  O  O21  1  0.911466  0.911466  0.777131  1
  O  O22  1  0.577066  0.577066  0.104227  1
  O  O23  1  0.237297  0.237297  0.461596  1
  O  O24  1  0.062556  0.062556  0.707659  1
  O  O25  1  0.734582  0.734582  0.028139  1
  O  O26  1  0.388898  0.388898  0.385399  1
  O  O27  1  0.937444  0.937444  0.292341  1
  O  O28  1  0.611102  0.611102  0.614601  1
  O  O29  1  0.265418  0.265418  0.971861  1
