# generated using pymatgen
data_HfZr6Pt9Au
_symmetry_space_group_name_H-M   'P 1'
_cell_length_a   8.21708299
_cell_length_b   8.21708376
_cell_length_c   9.78206223
_cell_angle_alpha   90.04580079
_cell_angle_beta   90.04580200
_cell_angle_gamma   106.97760289
_symmetry_Int_Tables_number   1
_chemical_formula_structural   HfZr6Pt9Au
_chemical_formula_sum   'Hf2 Zr12 Pt18 Au2'
_cell_volume   631.70395917
_cell_formula_units_Z   2
loop_
 _symmetry_equiv_pos_site_id
 _symmetry_equiv_pos_as_xyz
  1  'x, y, z'
loop_
 _atom_site_type_symbol
 _atom_site_label
 _atom_site_symmetry_multiplicity
 _atom_site_fract_x
 _atom_site_fract_y
 _atom_site_fract_z
 _atom_site_occupancy
  Hf  Hf0  1  0.000000  0.000000  0.000000  1
  Hf  Hf1  1  0.500000  0.500000  0.500000  1
  Zr  Zr2  1  0.697638  0.302362  0.000000  1
  Zr  Zr3  1  0.302362  0.697638  0.000000  1
  Zr  Zr4  1  0.808939  0.191061  0.500000  1
  Zr  Zr5  1  0.191061  0.808939  0.500000  1
  Zr  Zr6  1  0.000120  0.502016  0.250708  1
  Zr  Zr7  1  0.999880  0.497984  0.749292  1
  Zr  Zr8  1  0.497984  0.999880  0.749292  1
  Zr  Zr9  1  0.502016  0.000120  0.250708  1
  Zr  Zr10  1  0.309287  0.309287  0.191272  1
  Zr  Zr11  1  0.690713  0.690713  0.808728  1
  Zr  Zr12  1  0.176485  0.176485  0.676470  1
  Zr  Zr13  1  0.823515  0.823515  0.323530  1
  Pt  Pt14  1  0.854464  0.144960  0.207150  1
  Pt  Pt15  1  0.145536  0.855040  0.792850  1
  Pt  Pt16  1  0.647680  0.356181  0.706614  1
  Pt  Pt17  1  0.643819  0.352320  0.293386  1
  Pt  Pt18  1  0.352320  0.643819  0.293386  1
  Pt  Pt19  1  0.356181  0.647680  0.706614  1
  Pt  Pt20  1  0.855040  0.145536  0.792850  1
  Pt  Pt21  1  0.144960  0.854464  0.207150  1
  Pt  Pt22  1  0.937061  0.646322  0.998199  1
  Pt  Pt23  1  0.062939  0.353678  0.001801  1
  Pt  Pt24  1  0.561391  0.852316  0.499842  1
  Pt  Pt25  1  0.147684  0.438609  0.500158  1
  Pt  Pt26  1  0.438609  0.147684  0.500158  1
  Pt  Pt27  1  0.852316  0.561391  0.499842  1
  Pt  Pt28  1  0.353678  0.062939  0.001801  1
  Pt  Pt29  1  0.646322  0.937061  0.998199  1
  Pt  Pt30  1  0.105651  0.105651  0.395444  1
  Pt  Pt31  1  0.894349  0.894349  0.604556  1
  Au  Au32  1  0.391844  0.391844  0.891830  1
  Au  Au33  1  0.608156  0.608156  0.108170  1
