# generated using pymatgen
data_DyEr9(IrPt2)2
_symmetry_space_group_name_H-M   'P 1'
_cell_length_a   10.97636209
_cell_length_b   10.97976000
_cell_length_c   6.32016405
_cell_angle_alpha   90.00000000
_cell_angle_beta   90.01475236
_cell_angle_gamma   90.00000000
_symmetry_Int_Tables_number   1
_chemical_formula_structural   DyEr9(IrPt2)2
_chemical_formula_sum   'Dy2 Er18 Ir4 Pt8'
_cell_volume   761.69237744
_cell_formula_units_Z   2
loop_
 _symmetry_equiv_pos_site_id
 _symmetry_equiv_pos_as_xyz
  1  'x, y, z'
loop_
 _atom_site_type_symbol
 _atom_site_label
 _atom_site_symmetry_multiplicity
 _atom_site_fract_x
 _atom_site_fract_y
 _atom_site_fract_z
 _atom_site_occupancy
  Dy  Dy0  1  0.087504  0.705136  0.626025  1
  Dy  Dy1  1  0.087504  0.294864  0.126025  1
  Er  Er2  1  0.295928  0.087130  0.375028  1
  Er  Er3  1  0.295928  0.912870  0.875028  1
  Er  Er4  1  0.704394  0.087374  0.874440  1
  Er  Er5  1  0.704394  0.912626  0.374440  1
  Er  Er6  1  0.587563  0.795431  0.874597  1
  Er  Er7  1  0.587563  0.204569  0.374597  1
  Er  Er8  1  0.412640  0.795546  0.374538  1
  Er  Er9  1  0.412640  0.204454  0.874538  1
  Er  Er10  1  0.204626  0.412511  0.625457  1
  Er  Er11  1  0.204626  0.587489  0.125457  1
  Er  Er12  1  0.795075  0.412907  0.125642  1
  Er  Er13  1  0.795075  0.587093  0.625642  1
  Er  Er14  1  0.912166  0.704484  0.125627  1
  Er  Er15  1  0.912166  0.295516  0.625627  1
  Er  Er16  1  0.999701  0.000466  0.499736  1
  Er  Er17  1  0.999701  0.999534  0.999736  1
  Er  Er18  1  0.500052  0.499968  0.999738  1
  Er  Er19  1  0.500052  0.500032  0.499738  1
  Ir  Ir20  1  0.500216  0.999973  0.120692  1
  Ir  Ir21  1  0.500216  0.000027  0.620692  1
  Ir  Ir22  1  0.999483  0.499983  0.879351  1
  Ir  Ir23  1  0.999483  0.500017  0.379351  1
  Pt  Pt24  1  0.845858  0.153639  0.250095  1
  Pt  Pt25  1  0.845858  0.846361  0.750095  1
  Pt  Pt26  1  0.154094  0.153309  0.748868  1
  Pt  Pt27  1  0.154094  0.846691  0.248868  1
  Pt  Pt28  1  0.653758  0.346191  0.749923  1
  Pt  Pt29  1  0.653758  0.653809  0.249923  1
  Pt  Pt30  1  0.346942  0.346280  0.250243  1
  Pt  Pt31  1  0.346942  0.653720  0.750243  1
