# generated using pymatgen
data_Pu(BeP)2
_symmetry_space_group_name_H-M   'P 1'
_cell_length_a   3.72145300
_cell_length_b   3.72145203
_cell_length_c   6.52454300
_cell_angle_alpha   90.00000000
_cell_angle_beta   90.00000000
_cell_angle_gamma   119.99999978
_symmetry_Int_Tables_number   1
_chemical_formula_structural   Pu(BeP)2
_chemical_formula_sum   'Pu1 Be2 P2'
_cell_volume   78.25384639
_cell_formula_units_Z   1
loop_
 _symmetry_equiv_pos_site_id
 _symmetry_equiv_pos_as_xyz
  1  'x, y, z'
loop_
 _atom_site_type_symbol
 _atom_site_label
 _atom_site_symmetry_multiplicity
 _atom_site_fract_x
 _atom_site_fract_y
 _atom_site_fract_z
 _atom_site_occupancy
  Pu  Pu0  1  0.000000  0.000000  0.000000  1
  Be  Be1  1  0.666668  0.333335  0.368874  1
  Be  Be2  1  0.333333  0.666666  0.631126  1
  P  P3  1  0.333333  0.666666  0.286410  1
  P  P4  1  0.666668  0.333335  0.713590  1
