# generated using pymatgen
data_Tb8Ho11TmSn16
_symmetry_space_group_name_H-M   'P 1'
_cell_length_a   8.02419909
_cell_length_b   8.16705909
_cell_length_c   15.43399900
_cell_angle_alpha   90.00000000
_cell_angle_beta   90.00000000
_cell_angle_gamma   90.01688655
_symmetry_Int_Tables_number   1
_chemical_formula_structural   Tb8Ho11TmSn16
_chemical_formula_sum   'Tb8 Ho11 Tm1 Sn16'
_cell_volume   1011.45331470
_cell_formula_units_Z   1
loop_
 _symmetry_equiv_pos_site_id
 _symmetry_equiv_pos_as_xyz
  1  'x, y, z'
loop_
 _atom_site_type_symbol
 _atom_site_label
 _atom_site_symmetry_multiplicity
 _atom_site_fract_x
 _atom_site_fract_y
 _atom_site_fract_z
 _atom_site_occupancy
  Tb  Tb0  1  0.520608  0.320516  0.902666  1
  Tb  Tb1  1  0.020584  0.179512  0.597312  1
  Tb  Tb2  1  0.479355  0.679564  0.402666  1
  Tb  Tb3  1  0.979478  0.820563  0.097345  1
  Tb  Tb4  1  0.479355  0.679564  0.097334  1
  Tb  Tb5  1  0.979478  0.820563  0.402655  1
  Tb  Tb6  1  0.520608  0.320516  0.597334  1
  Tb  Tb7  1  0.020584  0.179512  0.902688  1
  Ho  Ho8  1  0.366911  0.836497  0.877560  1
  Ho  Ho9  1  0.866901  0.663494  0.622485  1
  Ho  Ho10  1  0.632961  0.163425  0.377519  1
  Ho  Ho11  1  0.133179  0.336416  0.122486  1
  Ho  Ho12  1  0.632961  0.163425  0.122481  1
  Ho  Ho13  1  0.133179  0.336416  0.377514  1
  Ho  Ho14  1  0.366911  0.836497  0.622440  1
  Ho  Ho15  1  0.866901  0.663494  0.877515  1
  Ho  Ho16  1  0.198200  0.503529  0.750000  1
  Ho  Ho17  1  0.698191  0.996494  0.750000  1
  Ho  Ho18  1  0.801840  0.496513  0.250000  1
  Tm  Tm19  1  0.301706  0.003593  0.250000  1
  Sn  Sn20  1  0.294405  0.037128  0.041886  1
  Sn  Sn21  1  0.794402  0.462869  0.458337  1
  Sn  Sn22  1  0.705581  0.962807  0.541637  1
  Sn  Sn23  1  0.205595  0.537160  0.958367  1
  Sn  Sn24  1  0.705581  0.962807  0.958363  1
  Sn  Sn25  1  0.205595  0.537160  0.541633  1
  Sn  Sn26  1  0.294405  0.037128  0.458114  1
  Sn  Sn27  1  0.794402  0.462869  0.041663  1
  Sn  Sn28  1  0.564545  0.620478  0.750000  1
  Sn  Sn29  1  0.064604  0.879566  0.750000  1
  Sn  Sn30  1  0.435346  0.379319  0.250000  1
  Sn  Sn31  1  0.935877  0.120294  0.250000  1
  Sn  Sn32  1  0.329192  0.146887  0.750000  1
  Sn  Sn33  1  0.829326  0.353009  0.750000  1
  Sn  Sn34  1  0.670572  0.853105  0.250000  1
  Sn  Sn35  1  0.170681  0.647310  0.250000  1
