# generated using pymatgen
data_Pr3Nd5Sc12Ga3Si13
_symmetry_space_group_name_H-M   'P 1'
_cell_length_a   7.26608086
_cell_length_b   7.54449092
_cell_length_c   14.34858668
_cell_angle_alpha   90.00033901
_cell_angle_beta   90.09438607
_cell_angle_gamma   90.09812633
_symmetry_Int_Tables_number   1
_chemical_formula_structural   Pr3Nd5Sc12Ga3Si13
_chemical_formula_sum   'Pr3 Nd5 Sc12 Ga3 Si13'
_cell_volume   786.57124645
_cell_formula_units_Z   1
loop_
 _symmetry_equiv_pos_site_id
 _symmetry_equiv_pos_as_xyz
  1  'x, y, z'
loop_
 _atom_site_type_symbol
 _atom_site_label
 _atom_site_symmetry_multiplicity
 _atom_site_fract_x
 _atom_site_fract_y
 _atom_site_fract_z
 _atom_site_occupancy
  Pr  Pr0  1  0.988011  0.828310  0.899602  1
  Pr  Pr1  1  0.510225  0.326418  0.099031  1
  Pr  Pr2  1  0.010667  0.173659  0.099253  1
  Nd  Nd3  1  0.012117  0.172344  0.401551  1
  Nd  Nd4  1  0.513728  0.326121  0.401142  1
  Nd  Nd5  1  0.488194  0.672537  0.899281  1
  Nd  Nd6  1  0.489435  0.675930  0.598552  1
  Nd  Nd7  1  0.986561  0.827686  0.598313  1
  Sc  Sc8  1  0.332490  0.173907  0.626009  1
  Sc  Sc9  1  0.669985  0.823935  0.375306  1
  Sc  Sc10  1  0.661316  0.002053  0.749513  1
  Sc  Sc11  1  0.172197  0.677130  0.374647  1
  Sc  Sc12  1  0.829882  0.322389  0.873311  1
  Sc  Sc13  1  0.826393  0.323911  0.624970  1
  Sc  Sc14  1  0.838774  0.501579  0.252438  1
  Sc  Sc15  1  0.338531  0.997857  0.252013  1
  Sc  Sc16  1  0.330296  0.176511  0.873200  1
  Sc  Sc17  1  0.170483  0.673775  0.126687  1
  Sc  Sc18  1  0.670334  0.826246  0.126532  1
  Sc  Sc19  1  0.160490  0.497790  0.751189  1
  Ga  Ga20  1  0.156072  0.459878  0.539576  1
  Ga  Ga21  1  0.844939  0.541097  0.038708  1
  Ga  Ga22  1  0.345310  0.958502  0.038750  1
  Si  Si23  1  0.287946  0.881099  0.748949  1
  Si  Si24  1  0.466185  0.624427  0.250819  1
  Si  Si25  1  0.034339  0.125521  0.749424  1
  Si  Si26  1  0.533698  0.377239  0.749193  1
  Si  Si27  1  0.965723  0.875474  0.250937  1
  Si  Si28  1  0.712218  0.117955  0.251355  1
  Si  Si29  1  0.153795  0.460918  0.959635  1
  Si  Si30  1  0.651426  0.037542  0.538774  1
  Si  Si31  1  0.348531  0.962656  0.460857  1
  Si  Si32  1  0.846818  0.538776  0.460415  1
  Si  Si33  1  0.788191  0.618309  0.749316  1
  Si  Si34  1  0.212163  0.381636  0.251496  1
  Si  Si35  1  0.652536  0.038879  0.959254  1
