# generated using pymatgen
data_NaTbMn4Ni8P7
_symmetry_space_group_name_H-M   'P 1'
_cell_length_a   9.12000356
_cell_length_b   9.12243606
_cell_length_c   3.62857300
_cell_angle_alpha   90.00000000
_cell_angle_beta   90.00000000
_cell_angle_gamma   119.87327652
_symmetry_Int_Tables_number   1
_chemical_formula_structural   NaTbMn4Ni8P7
_chemical_formula_sum   'Na1 Tb1 Mn4 Ni8 P7'
_cell_volume   261.77338521
_cell_formula_units_Z   1
loop_
 _symmetry_equiv_pos_site_id
 _symmetry_equiv_pos_as_xyz
  1  'x, y, z'
loop_
 _atom_site_type_symbol
 _atom_site_label
 _atom_site_symmetry_multiplicity
 _atom_site_fract_x
 _atom_site_fract_y
 _atom_site_fract_z
 _atom_site_occupancy
  Na  Na0  1  0.665916  0.332642  0.000000  1
  Tb  Tb1  1  0.334347  0.667976  0.500000  1
  Mn  Mn2  1  0.878613  0.156903  0.000000  1
  Mn  Mn3  1  0.094156  0.876642  0.500000  1
  Mn  Mn4  1  0.781366  0.902027  0.500000  1
  Mn  Mn5  1  0.127117  0.222788  0.500000  1
  Ni  Ni6  1  0.059111  0.625094  0.000000  1
  Ni  Ni7  1  0.564765  0.937395  0.000000  1
  Ni  Ni8  1  0.373955  0.433615  0.000000  1
  Ni  Ni9  1  0.276265  0.122017  0.000000  1
  Ni  Ni10  1  0.844166  0.721595  0.000000  1
  Ni  Ni11  1  0.435553  0.051816  0.500000  1
  Ni  Ni12  1  0.614911  0.562273  0.500000  1
  Ni  Ni13  1  0.949236  0.386828  0.500000  1
  P  P14  1  0.292535  0.886407  0.000000  1
  P  P15  1  0.593948  0.706782  0.000000  1
  P  P16  1  0.112678  0.405615  0.000000  1
  P  P17  1  0.407265  0.290683  0.500000  1
  P  P18  1  0.885568  0.595312  0.500000  1
  P  P19  1  0.710370  0.115057  0.500000  1
  P  P20  1  0.998159  0.000532  0.000000  1
