# generated using pymatgen
data_Tb3Ho5Cd2RuPt
_symmetry_space_group_name_H-M   'P 1'
_cell_length_a   9.63801156
_cell_length_b   9.63800935
_cell_length_c   9.66199700
_cell_angle_alpha   59.91509883
_cell_angle_beta   59.91506724
_cell_angle_gamma   59.87111667
_symmetry_Int_Tables_number   1
_chemical_formula_structural   Tb3Ho5Cd2RuPt
_chemical_formula_sum   'Tb6 Ho10 Cd4 Ru2 Pt2'
_cell_volume   633.20502047
_cell_formula_units_Z   2
loop_
 _symmetry_equiv_pos_site_id
 _symmetry_equiv_pos_as_xyz
  1  'x, y, z'
loop_
 _atom_site_type_symbol
 _atom_site_label
 _atom_site_symmetry_multiplicity
 _atom_site_fract_x
 _atom_site_fract_y
 _atom_site_fract_z
 _atom_site_occupancy
  Tb  Tb0  1  0.937499  0.559424  0.565773  1
  Tb  Tb1  1  0.559416  0.937503  0.937309  1
  Tb  Tb2  1  0.559424  0.937499  0.565772  1
  Tb  Tb3  1  0.937503  0.559416  0.937308  1
  Tb  Tb4  1  0.563684  0.563684  0.936315  1
  Tb  Tb5  1  0.938413  0.938414  0.561583  1
  Ho  Ho6  1  0.348699  0.348700  0.352562  1
  Ho  Ho7  1  0.348729  0.348730  0.950015  1
  Ho  Ho8  1  0.346185  0.953899  0.349989  1
  Ho  Ho9  1  0.953900  0.346185  0.349989  1
  Ho  Ho10  1  0.815616  0.188050  0.189182  1
  Ho  Ho11  1  0.188050  0.815652  0.807123  1
  Ho  Ho12  1  0.188049  0.815616  0.189182  1
  Ho  Ho13  1  0.815652  0.188050  0.807122  1
  Ho  Ho14  1  0.187684  0.187684  0.812285  1
  Ho  Ho15  1  0.809212  0.809212  0.190789  1
  Cd  Cd16  1  0.580335  0.580335  0.581255  1
  Cd  Cd17  1  0.580334  0.580334  0.258073  1
  Cd  Cd18  1  0.581194  0.255875  0.581463  1
  Cd  Cd19  1  0.255875  0.581195  0.581464  1
  Ru  Ru20  1  0.143530  0.143529  0.138766  1
  Ru  Ru21  1  0.143532  0.143531  0.574162  1
  Pt  Pt22  1  0.143898  0.573587  0.141260  1
  Pt  Pt23  1  0.573587  0.143897  0.141260  1
