# generated using pymatgen
data_In8Ir3Rh
_symmetry_space_group_name_H-M   'P 1'
_cell_length_a   10.39743254
_cell_length_b   9.51755551
_cell_length_c   5.65208030
_cell_angle_alpha   82.29571081
_cell_angle_beta   65.10934572
_cell_angle_gamma   32.83434071
_symmetry_Int_Tables_number   1
_chemical_formula_structural   In8Ir3Rh
_chemical_formula_sum   'In8 Ir3 Rh1'
_cell_volume   246.16104165
_cell_formula_units_Z   1
loop_
 _symmetry_equiv_pos_site_id
 _symmetry_equiv_pos_as_xyz
  1  'x, y, z'
loop_
 _atom_site_type_symbol
 _atom_site_label
 _atom_site_symmetry_multiplicity
 _atom_site_fract_x
 _atom_site_fract_y
 _atom_site_fract_z
 _atom_site_occupancy
  In  In0  1  0.592846  0.906464  0.593399  1
  In  In1  1  0.906464  0.592846  0.907290  1
  In  In2  1  0.914768  0.914768  0.085232  1
  In  In3  1  0.343774  0.657150  0.342327  1
  In  In4  1  0.085841  0.085841  0.914159  1
  In  In5  1  0.164198  0.164198  0.335802  1
  In  In6  1  0.657150  0.343774  0.656749  1
  In  In7  1  0.335372  0.335372  0.164628  1
  Ir  Ir8  1  0.369575  0.369575  0.630425  1
  Ir  Ir9  1  0.880171  0.880171  0.619829  1
  Ir  Ir10  1  0.629462  0.629462  0.370538  1
  Rh  Rh11  1  0.620380  0.620380  0.879620  1
