# generated using pymatgen
data_TbY15MgIn3Pt4
_symmetry_space_group_name_H-M   'P 1'
_cell_length_a   9.79532861
_cell_length_b   9.77177810
_cell_length_c   9.77177929
_cell_angle_alpha   59.91194546
_cell_angle_beta   60.08119063
_cell_angle_gamma   60.08118465
_symmetry_Int_Tables_number   1
_chemical_formula_structural   TbY15MgIn3Pt4
_chemical_formula_sum   'Tb1 Y15 Mg1 In3 Pt4'
_cell_volume   661.74788760
_cell_formula_units_Z   1
loop_
 _symmetry_equiv_pos_site_id
 _symmetry_equiv_pos_as_xyz
  1  'x, y, z'
loop_
 _atom_site_type_symbol
 _atom_site_label
 _atom_site_symmetry_multiplicity
 _atom_site_fract_x
 _atom_site_fract_y
 _atom_site_fract_z
 _atom_site_occupancy
  Tb  Tb0  1  0.598616  0.598604  0.598604  1
  Y  Y1  1  0.601330  0.600515  0.197605  1
  Y  Y2  1  0.601330  0.197605  0.600515  1
  Y  Y3  1  0.193503  0.602146  0.602146  1
  Y  Y4  1  0.058113  0.441965  0.441965  1
  Y  Y5  1  0.440586  0.059940  0.059940  1
  Y  Y6  1  0.439702  0.061053  0.439434  1
  Y  Y7  1  0.058250  0.443174  0.058252  1
  Y  Y8  1  0.439702  0.439434  0.061053  1
  Y  Y9  1  0.058250  0.058252  0.443174  1
  Y  Y10  1  0.185774  0.814557  0.814557  1
  Y  Y11  1  0.812404  0.187421  0.187421  1
  Y  Y12  1  0.814150  0.185979  0.813244  1
  Y  Y13  1  0.186449  0.812693  0.187508  1
  Y  Y14  1  0.814150  0.813244  0.185979  1
  Y  Y15  1  0.186449  0.187508  0.812693  1
  Mg  Mg16  1  0.517445  0.827411  0.827411  1
  In  In17  1  0.833539  0.833974  0.833974  1
  In  In18  1  0.831967  0.833637  0.500954  1
  In  In19  1  0.831967  0.500954  0.833637  1
  Pt  Pt20  1  0.392078  0.393310  0.393310  1
  Pt  Pt21  1  0.390559  0.392570  0.822312  1
  Pt  Pt22  1  0.390559  0.822312  0.392570  1
  Pt  Pt23  1  0.823133  0.391743  0.391743  1
