# generated using pymatgen
data_Lu8Sc2In5Bi
_symmetry_space_group_name_H-M   'P 1'
_cell_length_a   6.36255431
_cell_length_b   8.84632389
_cell_length_c   8.80545761
_cell_angle_alpha   120.15513898
_cell_angle_beta   90.01898166
_cell_angle_gamma   89.96336678
_symmetry_Int_Tables_number   1
_chemical_formula_structural   Lu8Sc2In5Bi
_chemical_formula_sum   'Lu8 Sc2 In5 Bi1'
_cell_volume   428.54433852
_cell_formula_units_Z   1
loop_
 _symmetry_equiv_pos_site_id
 _symmetry_equiv_pos_as_xyz
  1  'x, y, z'
loop_
 _atom_site_type_symbol
 _atom_site_label
 _atom_site_symmetry_multiplicity
 _atom_site_fract_x
 _atom_site_fract_y
 _atom_site_fract_z
 _atom_site_occupancy
  Lu  Lu0  1  0.004969  0.667005  0.339228  1
  Lu  Lu1  1  0.004956  0.327774  0.660771  1
  Lu  Lu2  1  0.749278  0.230591  0.000003  1
  Lu  Lu3  1  0.749100  0.766344  0.758474  1
  Lu  Lu4  1  0.749082  0.007855  0.241516  1
  Lu  Lu5  1  0.250780  0.763508  0.000005  1
  Lu  Lu6  1  0.250955  0.236868  0.235827  1
  Lu  Lu7  1  0.250977  0.001020  0.764160  1
  Sc  Sc8  1  0.495697  0.328244  0.661100  1
  Sc  Sc9  1  0.495699  0.667138  0.338888  1
  In  In10  1  0.745589  0.403774  0.402268  1
  In  In11  1  0.745590  0.001498  0.597746  1
  In  In12  1  0.253974  0.398657  0.000015  1
  In  In13  1  0.254341  0.599321  0.602195  1
  In  In14  1  0.254371  0.997108  0.397802  1
  Bi  Bi15  1  0.744643  0.603300  0.000002  1
