# generated using pymatgen
data_CePr2Sm(Al3Co)6
_symmetry_space_group_name_H-M   'P 1'
_cell_length_a   7.46297034
_cell_length_b   7.48402475
_cell_length_c   9.44222900
_cell_angle_alpha   90.00000000
_cell_angle_beta   90.00000000
_cell_angle_gamma   119.16493043
_symmetry_Int_Tables_number   1
_chemical_formula_structural   CePr2Sm(Al3Co)6
_chemical_formula_sum   'Ce1 Pr2 Sm1 Al18 Co6'
_cell_volume   460.51671027
_cell_formula_units_Z   1
loop_
 _symmetry_equiv_pos_site_id
 _symmetry_equiv_pos_as_xyz
  1  'x, y, z'
loop_
 _atom_site_type_symbol
 _atom_site_label
 _atom_site_symmetry_multiplicity
 _atom_site_fract_x
 _atom_site_fract_y
 _atom_site_fract_z
 _atom_site_occupancy
  Ce  Ce0  1  0.672581  0.993276  0.250000  1
  Pr  Pr1  1  0.993528  0.672887  0.250000  1
  Pr  Pr2  1  0.005304  0.328032  0.750000  1
  Sm  Sm3  1  0.329621  0.006678  0.750000  1
  Al  Al4  1  0.128301  0.130035  0.250000  1
  Al  Al5  1  0.874003  0.873256  0.750000  1
  Al  Al6  1  0.999759  0.335198  0.072441  1
  Al  Al7  1  0.000715  0.666375  0.928497  1
  Al  Al8  1  0.000715  0.666375  0.571503  1
  Al  Al9  1  0.336350  0.000411  0.429003  1
  Al  Al10  1  0.999759  0.335198  0.427559  1
  Al  Al11  1  0.663483  0.998845  0.569667  1
  Al  Al12  1  0.663483  0.998845  0.930333  1
  Al  Al13  1  0.336350  0.000411  0.070997  1
  Al  Al14  1  0.332928  0.332115  0.538242  1
  Al  Al15  1  0.665758  0.665880  0.460822  1
  Al  Al16  1  0.665758  0.665880  0.039178  1
  Al  Al17  1  0.332928  0.332115  0.961758  1
  Al  Al18  1  0.343529  0.552065  0.250000  1
  Al  Al19  1  0.658741  0.448875  0.750000  1
  Al  Al20  1  0.550225  0.336250  0.250000  1
  Al  Al21  1  0.449589  0.663534  0.750000  1
  Co  Co22  1  0.669223  0.327729  0.000984  1
  Co  Co23  1  0.331104  0.671500  0.001494  1
  Co  Co24  1  0.331104  0.671500  0.498506  1
  Co  Co25  1  0.669223  0.327729  0.499016  1
  Co  Co26  1  0.997970  0.999504  0.002601  1
  Co  Co27  1  0.997970  0.999504  0.497399  1
