# generated using pymatgen
data_LiAl2AgTe4
_symmetry_space_group_name_H-M   'P 1'
_cell_length_a   7.54966264
_cell_length_b   7.54966255
_cell_length_c   7.54966316
_cell_angle_alpha   129.65311452
_cell_angle_beta   129.65311656
_cell_angle_gamma   73.96192479
_symmetry_Int_Tables_number   1
_chemical_formula_structural   LiAl2AgTe4
_chemical_formula_sum   'Li1 Al2 Ag1 Te4'
_cell_volume   248.77855380
_cell_formula_units_Z   1
loop_
 _symmetry_equiv_pos_site_id
 _symmetry_equiv_pos_as_xyz
  1  'x, y, z'
loop_
 _atom_site_type_symbol
 _atom_site_label
 _atom_site_symmetry_multiplicity
 _atom_site_fract_x
 _atom_site_fract_y
 _atom_site_fract_z
 _atom_site_occupancy
  Li  Li0  1  0.500000  0.500000  0.000000  1
  Al  Al1  1  0.750000  0.250000  0.500000  1
  Al  Al2  1  0.000000  0.000000  0.000000  1
  Ag  Ag3  1  0.250000  0.750000  0.500000  1
  Te  Te4  1  0.868923  0.892061  0.515713  1
  Te  Te5  1  0.107939  0.623652  0.976863  1
  Te  Te6  1  0.646789  0.131077  0.023137  1
  Te  Te7  1  0.376348  0.353211  0.484287  1
