# generated using pymatgen
data_U4NiGe2Ir5
_symmetry_space_group_name_H-M   'P 1'
_cell_length_a   5.48511789
_cell_length_b   5.48513381
_cell_length_c   7.85415600
_cell_angle_alpha   90.00000000
_cell_angle_beta   90.00000000
_cell_angle_gamma   118.94824416
_symmetry_Int_Tables_number   1
_chemical_formula_structural   U4NiGe2Ir5
_chemical_formula_sum   'U4 Ni1 Ge2 Ir5'
_cell_volume   206.78031855
_cell_formula_units_Z   1
loop_
 _symmetry_equiv_pos_site_id
 _symmetry_equiv_pos_as_xyz
  1  'x, y, z'
loop_
 _atom_site_type_symbol
 _atom_site_label
 _atom_site_symmetry_multiplicity
 _atom_site_fract_x
 _atom_site_fract_y
 _atom_site_fract_z
 _atom_site_occupancy
  U  U0  1  0.663150  0.336781  0.576778  1
  U  U1  1  0.335066  0.664999  0.426005  1
  U  U2  1  0.335066  0.664999  0.073995  1
  U  U3  1  0.663150  0.336781  0.923222  1
  Ni  Ni4  1  0.833455  0.166586  0.250000  1
  Ge  Ge5  1  0.994388  0.005618  0.006298  1
  Ge  Ge6  1  0.994388  0.005618  0.493702  1
  Ir  Ir7  1  0.168183  0.340742  0.750000  1
  Ir  Ir8  1  0.659203  0.831753  0.750000  1
  Ir  Ir9  1  0.167540  0.832396  0.750000  1
  Ir  Ir10  1  0.834758  0.648398  0.250000  1
  Ir  Ir11  1  0.351655  0.165330  0.250000  1
