# generated using pymatgen
data_DyEr3(PdPt)2
_symmetry_space_group_name_H-M   'P 1'
_cell_length_a   4.52298900
_cell_length_b   5.57378827
_cell_length_c   6.95814508
_cell_angle_alpha   90.12413403
_cell_angle_beta   90.00000000
_cell_angle_gamma   90.00000000
_symmetry_Int_Tables_number   1
_chemical_formula_structural   DyEr3(PdPt)2
_chemical_formula_sum   'Dy1 Er3 Pd2 Pt2'
_cell_volume   175.41569942
_cell_formula_units_Z   1
loop_
 _symmetry_equiv_pos_site_id
 _symmetry_equiv_pos_as_xyz
  1  'x, y, z'
loop_
 _atom_site_type_symbol
 _atom_site_label
 _atom_site_symmetry_multiplicity
 _atom_site_fract_x
 _atom_site_fract_y
 _atom_site_fract_z
 _atom_site_occupancy
  Dy  Dy0  1  0.500000  0.612594  0.818580  1
  Er  Er1  1  0.000000  0.104918  0.682317  1
  Er  Er2  1  0.000000  0.895552  0.183119  1
  Er  Er3  1  0.500000  0.386890  0.318401  1
  Pd  Pd4  1  0.000000  0.592405  0.541718  1
  Pd  Pd5  1  0.000000  0.406717  0.044832  1
  Pt  Pt6  1  0.500000  0.900849  0.454600  1
  Pt  Pt7  1  0.500000  0.100075  0.956432  1
