# generated using pymatgen
data_Pr2Nd2Dy2CoBr10
_symmetry_space_group_name_H-M   'P 1'
_cell_length_a   7.53629917
_cell_length_b   9.37925911
_cell_length_c   9.44965305
_cell_angle_alpha   108.32633811
_cell_angle_beta   106.58869147
_cell_angle_gamma   96.11332126
_symmetry_Int_Tables_number   1
_chemical_formula_structural   Pr2Nd2Dy2CoBr10
_chemical_formula_sum   'Pr2 Nd2 Dy2 Co1 Br10'
_cell_volume   593.37058397
_cell_formula_units_Z   1
loop_
 _symmetry_equiv_pos_site_id
 _symmetry_equiv_pos_as_xyz
  1  'x, y, z'
loop_
 _atom_site_type_symbol
 _atom_site_label
 _atom_site_symmetry_multiplicity
 _atom_site_fract_x
 _atom_site_fract_y
 _atom_site_fract_z
 _atom_site_occupancy
  Pr  Pr0  1  0.876137  0.237862  0.955591  1
  Pr  Pr1  1  0.979470  0.101482  0.306554  1
  Nd  Nd2  1  0.125339  0.763639  0.048838  1
  Nd  Nd3  1  0.635794  0.816146  0.857764  1
  Dy  Dy4  1  0.355015  0.173894  0.129449  1
  Dy  Dy5  1  0.028349  0.906885  0.708287  1
  Co  Co6  1  0.999635  0.998648  0.000893  1
  Br  Br7  1  0.440744  0.082589  0.822489  1
  Br  Br8  1  0.748480  0.544511  0.919385  1
  Br  Br9  1  0.259661  0.449779  0.084758  1
  Br  Br10  1  0.916380  0.167082  0.634789  1
  Br  Br11  1  0.657292  0.731563  0.539948  1
  Br  Br12  1  0.547323  0.920754  0.175142  1
  Br  Br13  1  0.090345  0.829220  0.378663  1
  Br  Br14  1  0.769621  0.345497  0.253385  1
  Br  Br15  1  0.196752  0.651623  0.736392  1
  Br  Br16  1  0.373662  0.278827  0.447670  1
