# generated using pymatgen
data_SmAg6NO11
_symmetry_space_group_name_H-M   'P 1'
_cell_length_a   7.11631197
_cell_length_b   7.11631212
_cell_length_c   7.11631165
_cell_angle_alpha   61.77984958
_cell_angle_beta   61.77984981
_cell_angle_gamma   61.77984288
_symmetry_Int_Tables_number   1
_chemical_formula_structural   SmAg6NO11
_chemical_formula_sum   'Sm1 Ag6 N1 O11'
_cell_volume   264.99070464
_cell_formula_units_Z   1
loop_
 _symmetry_equiv_pos_site_id
 _symmetry_equiv_pos_as_xyz
  1  'x, y, z'
loop_
 _atom_site_type_symbol
 _atom_site_label
 _atom_site_symmetry_multiplicity
 _atom_site_fract_x
 _atom_site_fract_y
 _atom_site_fract_z
 _atom_site_occupancy
  Sm  Sm0  1  0.998971  0.998971  0.998971  1
  Ag  Ag1  1  0.498051  0.001069  0.001069  1
  Ag  Ag2  1  0.500257  0.500257  0.000435  1
  Ag  Ag3  1  0.500257  0.000435  0.500257  1
  Ag  Ag4  1  0.001069  0.001069  0.498051  1
  Ag  Ag5  1  0.000435  0.500257  0.500257  1
  Ag  Ag6  1  0.001069  0.498051  0.001069  1
  N  N7  1  0.500171  0.500171  0.500171  1
  O  O8  1  0.582797  0.144126  0.144126  1
  O  O9  1  0.144126  0.582797  0.144126  1
  O  O10  1  0.140370  0.140370  0.140370  1
  O  O11  1  0.144126  0.144126  0.582797  1
  O  O12  1  0.600047  0.600047  0.300086  1
  O  O13  1  0.600047  0.300086  0.600047  1
  O  O14  1  0.300086  0.600047  0.600047  1
  O  O15  1  0.856930  0.856930  0.415280  1
  O  O16  1  0.856930  0.415280  0.856930  1
  O  O17  1  0.858980  0.858980  0.858980  1
  O  O18  1  0.415280  0.856930  0.856930  1
