# generated using pymatgen
data_NpBr35
_symmetry_space_group_name_H-M   'P 1'
_cell_length_a   15.98197694
_cell_length_b   11.40028128
_cell_length_c   10.79188300
_cell_angle_alpha   88.81408278
_cell_angle_beta   66.02770512
_cell_angle_gamma   92.31545406
_symmetry_Int_Tables_number   1
_chemical_formula_structural   NpBr35
_chemical_formula_sum   'Np1 Br35'
_cell_volume   1793.71352310
_cell_formula_units_Z   1
loop_
 _symmetry_equiv_pos_site_id
 _symmetry_equiv_pos_as_xyz
  1  'x, y, z'
loop_
 _atom_site_type_symbol
 _atom_site_label
 _atom_site_symmetry_multiplicity
 _atom_site_fract_x
 _atom_site_fract_y
 _atom_site_fract_z
 _atom_site_occupancy
  Np  Np0  1  0.243747  0.439785  0.432752  1
  Br  Br1  1  0.518169  0.269251  0.532660  1
  Br  Br2  1  0.757798  0.582935  0.573788  1
  Br  Br3  1  0.473801  0.689172  0.760296  1
  Br  Br4  1  0.053903  0.890570  0.845840  1
  Br  Br5  1  0.883603  0.157514  0.032041  1
  Br  Br6  1  0.639681  0.326056  0.298246  1
  Br  Br7  1  0.621725  0.334808  0.836923  1
  Br  Br8  1  0.332706  0.773291  0.742773  1
  Br  Br9  1  0.320896  0.569745  0.199433  1
  Br  Br10  1  0.654975  0.133191  0.800255  1
  Br  Br11  1  0.906703  0.547023  0.380608  1
  Br  Br12  1  0.057930  0.947400  0.613964  1
  Br  Br13  1  0.884870  0.115251  0.271954  1
  Br  Br14  1  0.886398  0.207330  0.805215  1
  Br  Br15  1  0.663570  0.057083  0.152911  1
  Br  Br16  1  0.033714  0.831731  0.088431  1
  Br  Br17  1  0.362190  0.994423  0.756750  1
  Br  Br18  1  0.893071  0.326455  0.331533  1
  Br  Br19  1  0.877295  0.923114  0.690806  1
  Br  Br20  1  0.882480  0.654339  0.823314  1
  Br  Br21  1  0.304798  0.018887  0.286797  1
  Br  Br22  1  0.359844  0.281539  0.303128  1
  Br  Br23  1  0.610457  0.608222  0.794221  1
  Br  Br24  1  0.123870  0.354400  0.345636  1
  Br  Br25  1  0.708781  0.901767  0.779375  1
  Br  Br26  1  0.872013  0.444932  0.819995  1
  Br  Br27  1  0.503090  0.035613  0.217738  1
  Br  Br28  1  0.170381  0.301491  0.650897  1
  Br  Br29  1  0.684294  0.774295  0.269537  1
  Br  Br30  1  0.856621  0.803671  0.185571  1
  Br  Br31  1  0.391340  0.213183  0.769832  1
  Br  Br32  1  0.365881  0.521966  0.516788  1
  Br  Br33  1  0.659835  0.549260  0.287355  1
  Br  Br34  1  0.135669  0.606442  0.551971  1
  Br  Br35  1  0.303900  0.813866  0.250671  1
