# generated using pymatgen
data_Tb2Dy3Ti2P12Ir17
_symmetry_space_group_name_H-M   'P 1'
_cell_length_a   12.60967800
_cell_length_b   12.80472983
_cell_length_c   3.96890400
_cell_angle_alpha   90.00000000
_cell_angle_beta   90.00000000
_cell_angle_gamma   119.49736961
_symmetry_Int_Tables_number   1
_chemical_formula_structural   Tb2Dy3Ti2P12Ir17
_chemical_formula_sum   'Tb2 Dy3 Ti2 P12 Ir17'
_cell_volume   557.76732128
_cell_formula_units_Z   1
loop_
 _symmetry_equiv_pos_site_id
 _symmetry_equiv_pos_as_xyz
  1  'x, y, z'
loop_
 _atom_site_type_symbol
 _atom_site_label
 _atom_site_symmetry_multiplicity
 _atom_site_fract_x
 _atom_site_fract_y
 _atom_site_fract_z
 _atom_site_occupancy
  Tb  Tb0  1  0.999579  0.811876  0.000000  1
  Tb  Tb1  1  0.187703  0.188124  0.000000  1
  Dy  Dy2  1  0.330038  0.660276  0.500000  1
  Dy  Dy3  1  0.669764  0.339724  0.500000  1
  Dy  Dy4  1  0.812849  0.000000  0.000000  1
  Ti  Ti5  1  0.998390  0.446778  0.500000  1
  Ti  Ti6  1  0.551612  0.553222  0.500000  1
  P  P7  1  0.001532  0.639130  0.500000  1
  P  P8  1  0.362401  0.360870  0.500000  1
  P  P9  1  0.644799  0.000000  0.500000  1
  P  P10  1  0.514295  0.682445  0.000000  1
  P  P11  1  0.308657  0.823476  0.000000  1
  P  P12  1  0.162623  0.480273  0.000000  1
  P  P13  1  0.485181  0.176524  0.000000  1
  P  P14  1  0.682350  0.519727  0.000000  1
  P  P15  1  0.831849  0.317555  0.000000  1
  P  P16  1  0.999523  0.175531  0.500000  1
  P  P17  1  0.823992  0.824469  0.500000  1
  P  P18  1  0.181121  0.000000  0.500000  1
  Ir  Ir19  1  0.504643  0.863492  0.000000  1
  Ir  Ir20  1  0.127030  0.640523  0.000000  1
  Ir  Ir21  1  0.355264  0.492354  0.000000  1
  Ir  Ir22  1  0.486508  0.359477  0.000000  1
  Ir  Ir23  1  0.862911  0.507646  0.000000  1
  Ir  Ir24  1  0.641151  0.136508  0.000000  1
  Ir  Ir25  1  0.463653  0.000000  0.500000  1
  Ir  Ir26  1  0.996845  0.281592  0.000000  1
  Ir  Ir27  1  0.715254  0.718408  0.000000  1
  Ir  Ir28  1  0.290281  0.000000  0.000000  1
  Ir  Ir29  1  0.622759  0.805642  0.500000  1
  Ir  Ir30  1  0.202320  0.823293  0.500000  1
  Ir  Ir31  1  0.176735  0.368953  0.500000  1
  Ir  Ir32  1  0.379027  0.176707  0.500000  1
  Ir  Ir33  1  0.807782  0.631047  0.500000  1
  Ir  Ir34  1  0.817117  0.194358  0.500000  1
  Ir  Ir35  1  0.002466  0.000000  0.500000  1
