# generated using pymatgen
data_Er7TmGa12CoAg3
_symmetry_space_group_name_H-M   'P 1'
_cell_length_a   6.99844600
_cell_length_b   8.89337913
_cell_length_c   8.89337900
_cell_angle_alpha   120.00000324
_cell_angle_beta   90.00000000
_cell_angle_gamma   90.00000000
_symmetry_Int_Tables_number   1
_chemical_formula_structural   Er7TmGa12CoAg3
_chemical_formula_sum   'Er7 Tm1 Ga12 Co1 Ag3'
_cell_volume   479.36446947
_cell_formula_units_Z   1
loop_
 _symmetry_equiv_pos_site_id
 _symmetry_equiv_pos_as_xyz
  1  'x, y, z'
loop_
 _atom_site_type_symbol
 _atom_site_label
 _atom_site_symmetry_multiplicity
 _atom_site_fract_x
 _atom_site_fract_y
 _atom_site_fract_z
 _atom_site_occupancy
  Er  Er0  1  0.251956  0.000000  0.000000  1
  Er  Er1  1  0.749132  0.488819  0.511181  1
  Er  Er2  1  0.258069  0.522339  0.477661  1
  Er  Er3  1  0.749132  0.022362  0.511181  1
  Er  Er4  1  0.258069  0.955322  0.477661  1
  Er  Er5  1  0.749132  0.488819  0.977638  1
  Er  Er6  1  0.258069  0.522339  0.044678  1
  Tm  Tm7  1  0.740291  0.000000  0.000000  1
  Ga  Ga8  1  0.962879  0.836798  0.163202  1
  Ga  Ga9  1  0.039908  0.165451  0.834549  1
  Ga  Ga10  1  0.962879  0.326405  0.163202  1
  Ga  Ga11  1  0.465654  0.164328  0.835672  1
  Ga  Ga12  1  0.039908  0.669098  0.834549  1
  Ga  Ga13  1  0.539400  0.826197  0.173803  1
  Ga  Ga14  1  0.962879  0.836798  0.673595  1
  Ga  Ga15  1  0.465654  0.671342  0.835672  1
  Ga  Ga16  1  0.039908  0.165451  0.330902  1
  Ga  Ga17  1  0.539400  0.347609  0.173803  1
  Ga  Ga18  1  0.465654  0.164328  0.328658  1
  Ga  Ga19  1  0.539400  0.826197  0.652391  1
  Co  Co20  1  0.511717  0.666667  0.333333  1
  Ag  Ag21  1  0.943987  0.666667  0.333333  1
  Ag  Ag22  1  0.038758  0.333333  0.666667  1
  Ag  Ag23  1  0.468167  0.333333  0.666667  1
