# generated using pymatgen
data_Er2AlGa2Ru
_symmetry_space_group_name_H-M   'P 1'
_cell_length_a   5.44426168
_cell_length_b   5.41725476
_cell_length_c   8.74488600
_cell_angle_alpha   90.00000000
_cell_angle_beta   90.00000000
_cell_angle_gamma   119.83605168
_symmetry_Int_Tables_number   1
_chemical_formula_structural   Er2AlGa2Ru
_chemical_formula_sum   'Er4 Al2 Ga4 Ru2'
_cell_volume   223.72686885
_cell_formula_units_Z   2
loop_
 _symmetry_equiv_pos_site_id
 _symmetry_equiv_pos_as_xyz
  1  'x, y, z'
loop_
 _atom_site_type_symbol
 _atom_site_label
 _atom_site_symmetry_multiplicity
 _atom_site_fract_x
 _atom_site_fract_y
 _atom_site_fract_z
 _atom_site_occupancy
  Er  Er0  1  0.333105  0.668072  0.053661  1
  Er  Er1  1  0.666895  0.334966  0.553661  1
  Er  Er2  1  0.333105  0.668072  0.446339  1
  Er  Er3  1  0.666895  0.334966  0.946339  1
  Al  Al4  1  0.839385  0.160890  0.250000  1
  Al  Al5  1  0.160615  0.321507  0.750000  1
  Ga  Ga6  1  0.837594  0.667323  0.250000  1
  Ga  Ga7  1  0.162406  0.829729  0.750000  1
  Ga  Ga8  1  0.666154  0.829021  0.750000  1
  Ga  Ga9  1  0.333846  0.162865  0.250000  1
  Ru  Ru10  1  0.000000  0.011295  0.500000  1
  Ru  Ru11  1  0.000000  0.011295  0.000000  1
