# generated using pymatgen
data_Er4(Pd3Au)3
_symmetry_space_group_name_H-M   'P 1'
_cell_length_a   7.17692634
_cell_length_b   7.17692632
_cell_length_c   7.17692690
_cell_angle_alpha   108.46833372
_cell_angle_beta   108.46833550
_cell_angle_gamma   111.49617290
_symmetry_Int_Tables_number   1
_chemical_formula_structural   Er4(Pd3Au)3
_chemical_formula_sum   'Er4 Pd9 Au3'
_cell_volume   284.30528944
_cell_formula_units_Z   1
loop_
 _symmetry_equiv_pos_site_id
 _symmetry_equiv_pos_as_xyz
  1  'x, y, z'
loop_
 _atom_site_type_symbol
 _atom_site_label
 _atom_site_symmetry_multiplicity
 _atom_site_fract_x
 _atom_site_fract_y
 _atom_site_fract_z
 _atom_site_occupancy
  Er  Er0  1  0.246271  0.246271  0.492543  1
  Er  Er1  1  0.753729  0.753729  0.507457  1
  Er  Er2  1  0.246271  0.753729  0.000000  1
  Er  Er3  1  0.753729  0.246271  0.000000  1
  Pd  Pd4  1  0.499303  0.250220  0.249082  1
  Pd  Pd5  1  0.500697  0.749780  0.750918  1
  Pd  Pd6  1  0.001137  0.250220  0.750918  1
  Pd  Pd7  1  0.250220  0.001137  0.750918  1
  Pd  Pd8  1  0.998863  0.749780  0.249082  1
  Pd  Pd9  1  0.749780  0.998863  0.249082  1
  Pd  Pd10  1  0.250220  0.499303  0.249082  1
  Pd  Pd11  1  0.749780  0.500697  0.750918  1
  Pd  Pd12  1  0.000000  0.000000  0.000000  1
  Au  Au13  1  0.500000  0.000000  0.500000  1
  Au  Au14  1  0.000000  0.500000  0.500000  1
  Au  Au15  1  0.500000  0.500000  0.000000  1
