# generated using pymatgen
data_Dy5SiBiSb
_symmetry_space_group_name_H-M   'P 1'
_cell_length_a   8.02164400
_cell_length_b   9.12852500
_cell_length_c   12.00640500
_cell_angle_alpha   90.00000000
_cell_angle_beta   90.00000000
_cell_angle_gamma   90.00000000
_symmetry_Int_Tables_number   1
_chemical_formula_structural   Dy5SiBiSb
_chemical_formula_sum   'Dy20 Si4 Bi4 Sb4'
_cell_volume   879.17834465
_cell_formula_units_Z   4
loop_
 _symmetry_equiv_pos_site_id
 _symmetry_equiv_pos_as_xyz
  1  'x, y, z'
loop_
 _atom_site_type_symbol
 _atom_site_label
 _atom_site_symmetry_multiplicity
 _atom_site_fract_x
 _atom_site_fract_y
 _atom_site_fract_z
 _atom_site_occupancy
  Dy  Dy0  1  0.818913  0.551243  0.066222  1
  Dy  Dy1  1  0.681087  0.948757  0.566222  1
  Dy  Dy2  1  0.181087  0.051243  0.933778  1
  Dy  Dy3  1  0.318913  0.448757  0.433778  1
  Dy  Dy4  1  0.181331  0.447945  0.938236  1
  Dy  Dy5  1  0.318669  0.052055  0.438236  1
  Dy  Dy6  1  0.818669  0.947945  0.061764  1
  Dy  Dy7  1  0.681331  0.552055  0.561764  1
  Dy  Dy8  1  0.166154  0.743710  0.213276  1
  Dy  Dy9  1  0.333846  0.756290  0.713276  1
  Dy  Dy10  1  0.833846  0.243710  0.786724  1
  Dy  Dy11  1  0.666154  0.256290  0.286724  1
  Dy  Dy12  1  0.461332  0.750223  0.001357  1
  Dy  Dy13  1  0.038668  0.749777  0.501357  1
  Dy  Dy14  1  0.538668  0.250223  0.998643  1
  Dy  Dy15  1  0.961332  0.249777  0.498643  1
  Dy  Dy16  1  0.637465  0.744512  0.294801  1
  Dy  Dy17  1  0.862535  0.755488  0.794801  1
  Dy  Dy18  1  0.362535  0.244512  0.705199  1
  Dy  Dy19  1  0.137465  0.255488  0.205199  1
  Si  Si20  1  0.413566  0.750196  0.479535  1
  Si  Si21  1  0.086434  0.749804  0.979535  1
  Si  Si22  1  0.586434  0.250196  0.520465  1
  Si  Si23  1  0.913566  0.249804  0.020465  1
  Bi  Bi24  1  0.068215  0.489328  0.675458  1
  Bi  Bi25  1  0.431785  0.010672  0.175458  1
  Bi  Bi26  1  0.931785  0.989328  0.324542  1
  Bi  Bi27  1  0.568215  0.510672  0.824542  1
  Sb  Sb28  1  0.933082  0.510609  0.327257  1
  Sb  Sb29  1  0.566918  0.989391  0.827257  1
  Sb  Sb30  1  0.066918  0.010609  0.672743  1
  Sb  Sb31  1  0.433082  0.489391  0.172743  1
