# generated using pymatgen
data_DyBi3RuRh3O14
_symmetry_space_group_name_H-M   'P 1'
_cell_length_a   7.33620174
_cell_length_b   7.28964166
_cell_length_c   7.33620200
_cell_angle_alpha   59.78848751
_cell_angle_beta   59.99999883
_cell_angle_gamma   59.78848791
_symmetry_Int_Tables_number   1
_chemical_formula_structural   DyBi3RuRh3O14
_chemical_formula_sum   'Dy1 Bi3 Ru1 Rh3 O14'
_cell_volume   276.52720184
_cell_formula_units_Z   1
loop_
 _symmetry_equiv_pos_site_id
 _symmetry_equiv_pos_as_xyz
  1  'x, y, z'
loop_
 _atom_site_type_symbol
 _atom_site_label
 _atom_site_symmetry_multiplicity
 _atom_site_fract_x
 _atom_site_fract_y
 _atom_site_fract_z
 _atom_site_occupancy
  Dy  Dy0  1  0.125000  0.625000  0.125000  1
  Bi  Bi1  1  0.125000  0.125000  0.125000  1
  Bi  Bi2  1  0.625000  0.125000  0.125000  1
  Bi  Bi3  1  0.125000  0.125000  0.625000  1
  Ru  Ru4  1  0.625000  0.125000  0.625000  1
  Rh  Rh5  1  0.625000  0.625000  0.625000  1
  Rh  Rh6  1  0.625000  0.625000  0.125000  1
  Rh  Rh7  1  0.125000  0.625000  0.625000  1
  O  O8  1  0.248495  0.254517  0.248495  1
  O  O9  1  0.287700  0.709049  0.287700  1
  O  O10  1  0.951423  0.956882  0.545848  1
  O  O11  1  0.545848  0.956882  0.545848  1
  O  O12  1  0.715551  0.709049  0.287700  1
  O  O13  1  0.962300  0.540951  0.534449  1
  O  O14  1  0.704152  0.293118  0.704152  1
  O  O15  1  0.298577  0.293118  0.704152  1
  O  O16  1  0.704152  0.293118  0.298577  1
  O  O17  1  0.287700  0.709049  0.715551  1
  O  O18  1  0.962300  0.540951  0.962300  1
  O  O19  1  0.534449  0.540951  0.962300  1
  O  O20  1  0.001505  0.995483  0.001505  1
  O  O21  1  0.545848  0.956882  0.951423  1
