# generated using pymatgen
data_La5ErAl24Os5Pt3
_symmetry_space_group_name_H-M   'P 1'
_cell_length_a   8.94198076
_cell_length_b   8.96183202
_cell_length_c   9.70092652
_cell_angle_alpha   90.05906963
_cell_angle_beta   89.85882966
_cell_angle_gamma   119.57056827
_symmetry_Int_Tables_number   1
_chemical_formula_structural   La5ErAl24Os5Pt3
_chemical_formula_sum   'La5 Er1 Al24 Os5 Pt3'
_cell_volume   676.13921859
_cell_formula_units_Z   1
loop_
 _symmetry_equiv_pos_site_id
 _symmetry_equiv_pos_as_xyz
  1  'x, y, z'
loop_
 _atom_site_type_symbol
 _atom_site_label
 _atom_site_symmetry_multiplicity
 _atom_site_fract_x
 _atom_site_fract_y
 _atom_site_fract_z
 _atom_site_occupancy
  La  La0  1  0.187345  0.378446  0.250636  1
  La  La1  1  0.813274  0.621685  0.750018  1
  La  La2  1  0.619595  0.814291  0.251611  1
  La  La3  1  0.380786  0.185668  0.748344  1
  La  La4  1  0.192220  0.810693  0.250643  1
  Er  Er5  1  0.802837  0.191629  0.748239  1
  Al  Al6  1  0.336233  0.671266  0.018418  1
  Al  Al7  1  0.666397  0.327598  0.973752  1
  Al  Al8  1  0.670655  0.329884  0.524291  1
  Al  Al9  1  0.331182  0.668510  0.482493  1
  Al  Al10  1  0.154694  0.323701  0.575422  1
  Al  Al11  1  0.841051  0.673291  0.427703  1
  Al  Al12  1  0.675175  0.844005  0.576200  1
  Al  Al13  1  0.836075  0.675031  0.075327  1
  Al  Al14  1  0.327544  0.159635  0.426629  1
  Al  Al15  1  0.160139  0.322823  0.922162  1
  Al  Al16  1  0.164487  0.834629  0.576948  1
  Al  Al17  1  0.327038  0.159078  0.074089  1
  Al  Al18  1  0.835386  0.164775  0.428001  1
  Al  Al19  1  0.675969  0.845086  0.922925  1
  Al  Al20  1  0.831667  0.159560  0.073790  1
  Al  Al21  1  0.168895  0.840999  0.921220  1
  Al  Al22  1  0.564077  0.128463  0.249622  1
  Al  Al23  1  0.440698  0.874960  0.750188  1
  Al  Al24  1  0.870243  0.434282  0.253497  1
  Al  Al25  1  0.125854  0.560372  0.747454  1
  Al  Al26  1  0.564376  0.435042  0.249637  1
  Al  Al27  1  0.435741  0.564828  0.750523  1
  Al  Al28  1  0.998653  0.003270  0.250057  1
  Al  Al29  1  0.997312  0.001271  0.749723  1
  Os  Os30  1  0.502352  0.000901  0.998424  1
  Os  Os31  1  0.502091  0.000587  0.501449  1
  Os  Os32  1  0.999323  0.497782  0.501384  1
  Os  Os33  1  0.999993  0.000216  0.999416  1
  Os  Os34  1  0.999862  0.999755  0.500527  1
  Pt  Pt35  1  0.999415  0.497986  0.998994  1
  Pt  Pt36  1  0.500641  0.498931  0.999355  1
  Pt  Pt37  1  0.500723  0.499070  0.500887  1
