# generated using pymatgen
data_CeAlOs2C
_symmetry_space_group_name_H-M   'P 1'
_cell_length_a   5.97204199
_cell_length_b   5.97204161
_cell_length_c   7.26154300
_cell_angle_alpha   90.00000000
_cell_angle_beta   90.00000000
_cell_angle_gamma   140.73453763
_symmetry_Int_Tables_number   1
_chemical_formula_structural   CeAlOs2C
_chemical_formula_sum   'Ce2 Al2 Os4 C2'
_cell_volume   163.91530009
_cell_formula_units_Z   2
loop_
 _symmetry_equiv_pos_site_id
 _symmetry_equiv_pos_as_xyz
  1  'x, y, z'
loop_
 _atom_site_type_symbol
 _atom_site_label
 _atom_site_symmetry_multiplicity
 _atom_site_fract_x
 _atom_site_fract_y
 _atom_site_fract_z
 _atom_site_occupancy
  Ce  Ce0  1  0.552916  0.447084  0.250000  1
  Ce  Ce1  1  0.447084  0.552916  0.750000  1
  Al  Al2  1  0.271907  0.728093  0.250000  1
  Al  Al3  1  0.728093  0.271907  0.750000  1
  Os  Os4  1  0.836475  0.163525  0.059900  1
  Os  Os5  1  0.163525  0.836475  0.940100  1
  Os  Os6  1  0.163525  0.836475  0.559900  1
  Os  Os7  1  0.836475  0.163525  0.440100  1
  C  C8  1  0.000000  0.000000  0.000000  1
  C  C9  1  0.000000  0.000000  0.500000  1
