# generated using pymatgen
data_Tb7(YGa4)5
_symmetry_space_group_name_H-M   'P 1'
_cell_length_a   6.11720605
_cell_length_b   9.67109000
_cell_length_c   11.63133009
_cell_angle_alpha   89.99806859
_cell_angle_beta   90.01417494
_cell_angle_gamma   90.00268588
_symmetry_Int_Tables_number   1
_chemical_formula_structural   Tb7(YGa4)5
_chemical_formula_sum   'Tb7 Y5 Ga20'
_cell_volume   688.11005064
_cell_formula_units_Z   1
loop_
 _symmetry_equiv_pos_site_id
 _symmetry_equiv_pos_as_xyz
  1  'x, y, z'
loop_
 _atom_site_type_symbol
 _atom_site_label
 _atom_site_symmetry_multiplicity
 _atom_site_fract_x
 _atom_site_fract_y
 _atom_site_fract_z
 _atom_site_occupancy
  Tb  Tb0  1  0.609356  0.991038  0.851001  1
  Tb  Tb1  1  0.109172  0.009043  0.648962  1
  Tb  Tb2  1  0.390753  0.490999  0.149123  1
  Tb  Tb3  1  0.109287  0.490936  0.648883  1
  Tb  Tb4  1  0.390729  0.009019  0.149024  1
  Tb  Tb5  1  0.890811  0.990858  0.350956  1
  Tb  Tb6  1  0.609317  0.509076  0.851020  1
  Y  Y7  1  0.849275  0.750036  0.076023  1
  Y  Y8  1  0.650824  0.749940  0.575895  1
  Y  Y9  1  0.150809  0.249990  0.924109  1
  Y  Y10  1  0.349067  0.249938  0.424027  1
  Y  Y11  1  0.890512  0.509128  0.350913  1
  Ga  Ga12  1  0.875552  0.054836  0.090153  1
  Ga  Ga13  1  0.624416  0.445145  0.590282  1
  Ga  Ga14  1  0.124453  0.554804  0.909830  1
  Ga  Ga15  1  0.375579  0.945082  0.409826  1
  Ga  Ga16  1  0.124478  0.945191  0.909789  1
  Ga  Ga17  1  0.375253  0.554823  0.409870  1
  Ga  Ga18  1  0.875621  0.445209  0.090172  1
  Ga  Ga19  1  0.624410  0.054833  0.590151  1
  Ga  Ga20  1  0.172417  0.750041  0.253200  1
  Ga  Ga21  1  0.327794  0.750047  0.753203  1
  Ga  Ga22  1  0.827773  0.250075  0.746735  1
  Ga  Ga23  1  0.672294  0.249969  0.246879  1
  Ga  Ga24  1  0.373137  0.750020  0.003320  1
  Ga  Ga25  1  0.126943  0.749994  0.503484  1
  Ga  Ga26  1  0.626866  0.250017  0.996766  1
  Ga  Ga27  1  0.873100  0.250046  0.496505  1
  Ga  Ga28  1  0.600120  0.749967  0.300023  1
  Ga  Ga29  1  0.899813  0.750015  0.800050  1
  Ga  Ga30  1  0.399772  0.249984  0.699947  1
  Ga  Ga31  1  0.100298  0.249901  0.199881  1
