# generated using pymatgen
data_Dy4C2Cl3
_symmetry_space_group_name_H-M   'P 1'
_cell_length_a   3.65147100
_cell_length_b   10.50956700
_cell_length_c   19.59955300
_cell_angle_alpha   90.00000000
_cell_angle_beta   90.00000000
_cell_angle_gamma   90.00000000
_symmetry_Int_Tables_number   1
_chemical_formula_structural   Dy4C2Cl3
_chemical_formula_sum   'Dy16 C8 Cl12'
_cell_volume   752.14027702
_cell_formula_units_Z   4
loop_
 _symmetry_equiv_pos_site_id
 _symmetry_equiv_pos_as_xyz
  1  'x, y, z'
loop_
 _atom_site_type_symbol
 _atom_site_label
 _atom_site_symmetry_multiplicity
 _atom_site_fract_x
 _atom_site_fract_y
 _atom_site_fract_z
 _atom_site_occupancy
  Dy  Dy0  1  0.250000  0.139227  0.572421  1
  Dy  Dy1  1  0.250000  0.639227  0.927579  1
  Dy  Dy2  1  0.750000  0.860773  0.427579  1
  Dy  Dy3  1  0.750000  0.360773  0.072421  1
  Dy  Dy4  1  0.250000  0.638073  0.756212  1
  Dy  Dy5  1  0.250000  0.138073  0.743788  1
  Dy  Dy6  1  0.750000  0.361927  0.243788  1
  Dy  Dy7  1  0.750000  0.861927  0.256212  1
  Dy  Dy8  1  0.250000  0.100231  0.331805  1
  Dy  Dy9  1  0.250000  0.600231  0.168195  1
  Dy  Dy10  1  0.750000  0.899769  0.668195  1
  Dy  Dy11  1  0.750000  0.399769  0.831805  1
  Dy  Dy12  1  0.250000  0.123800  0.163488  1
  Dy  Dy13  1  0.250000  0.623800  0.336512  1
  Dy  Dy14  1  0.750000  0.876200  0.836512  1
  Dy  Dy15  1  0.750000  0.376200  0.663488  1
  C  C16  1  0.250000  0.863582  0.348542  1
  C  C17  1  0.250000  0.363582  0.151458  1
  C  C18  1  0.750000  0.136418  0.651458  1
  C  C19  1  0.750000  0.636418  0.848542  1
  C  C20  1  0.250000  0.388613  0.749314  1
  C  C21  1  0.250000  0.888613  0.750686  1
  C  C22  1  0.750000  0.611387  0.250686  1
  C  C23  1  0.750000  0.111387  0.249314  1
  Cl  Cl24  1  0.250000  0.379197  0.951866  1
  Cl  Cl25  1  0.250000  0.879197  0.548134  1
  Cl  Cl26  1  0.750000  0.620803  0.048134  1
  Cl  Cl27  1  0.750000  0.120803  0.451866  1
  Cl  Cl28  1  0.250000  0.887732  0.946721  1
  Cl  Cl29  1  0.250000  0.387732  0.553279  1
  Cl  Cl30  1  0.750000  0.112268  0.053279  1
  Cl  Cl31  1  0.750000  0.612268  0.446721  1
  Cl  Cl32  1  0.250000  0.360079  0.355155  1
  Cl  Cl33  1  0.250000  0.860079  0.144845  1
  Cl  Cl34  1  0.750000  0.639921  0.644845  1
  Cl  Cl35  1  0.750000  0.139921  0.855155  1
