# generated using pymatgen
data_Y2Sc3Si12Ir19
_symmetry_space_group_name_H-M   'P 1'
_cell_length_a   12.78002600
_cell_length_b   12.78002635
_cell_length_c   3.95867400
_cell_angle_alpha   90.00000000
_cell_angle_beta   90.00000000
_cell_angle_gamma   120.00000428
_symmetry_Int_Tables_number   1
_chemical_formula_structural   Y2Sc3Si12Ir19
_chemical_formula_sum   'Y2 Sc3 Si12 Ir19'
_cell_volume   559.94302374
_cell_formula_units_Z   1
loop_
 _symmetry_equiv_pos_site_id
 _symmetry_equiv_pos_as_xyz
  1  'x, y, z'
loop_
 _atom_site_type_symbol
 _atom_site_label
 _atom_site_symmetry_multiplicity
 _atom_site_fract_x
 _atom_site_fract_y
 _atom_site_fract_z
 _atom_site_occupancy
  Y  Y0  1  0.333333  0.666667  0.000000  1
  Y  Y1  1  0.666667  0.333333  0.000000  1
  Sc  Sc2  1  0.816074  0.000000  0.500000  1
  Sc  Sc3  1  0.000000  0.816074  0.500000  1
  Sc  Sc4  1  0.183926  0.183926  0.500000  1
  Si  Si5  1  0.178519  0.000000  0.000000  1
  Si  Si6  1  0.000000  0.178519  0.000000  1
  Si  Si7  1  0.821481  0.821481  0.000000  1
  Si  Si8  1  0.167428  0.480101  0.500000  1
  Si  Si9  1  0.519899  0.687326  0.500000  1
  Si  Si10  1  0.312674  0.832572  0.500000  1
  Si  Si11  1  0.687326  0.519899  0.500000  1
  Si  Si12  1  0.832572  0.312674  0.500000  1
  Si  Si13  1  0.480101  0.167428  0.500000  1
  Si  Si14  1  0.634766  0.000000  0.000000  1
  Si  Si15  1  0.000000  0.634766  0.000000  1
  Si  Si16  1  0.365234  0.365234  0.000000  1
  Ir  Ir17  1  0.447597  0.000000  0.000000  1
  Ir  Ir18  1  0.000000  0.447597  0.000000  1
  Ir  Ir19  1  0.552403  0.552403  0.000000  1
  Ir  Ir20  1  0.360532  0.486674  0.500000  1
  Ir  Ir21  1  0.513326  0.873857  0.500000  1
  Ir  Ir22  1  0.126143  0.639468  0.500000  1
  Ir  Ir23  1  0.873857  0.513326  0.500000  1
  Ir  Ir24  1  0.639468  0.126143  0.500000  1
  Ir  Ir25  1  0.486674  0.360532  0.500000  1
  Ir  Ir26  1  0.181812  0.373440  0.000000  1
  Ir  Ir27  1  0.626560  0.808372  0.000000  1
  Ir  Ir28  1  0.191628  0.818188  0.000000  1
  Ir  Ir29  1  0.808372  0.626560  0.000000  1
  Ir  Ir30  1  0.818188  0.191628  0.000000  1
  Ir  Ir31  1  0.373440  0.181812  0.000000  1
  Ir  Ir32  1  0.280028  0.000000  0.500000  1
  Ir  Ir33  1  0.000000  0.280028  0.500000  1
  Ir  Ir34  1  0.719972  0.719972  0.500000  1
  Ir  Ir35  1  0.000000  0.000000  0.000000  1
