# generated using pymatgen
data_YbHf2Zr(Al3Ir)6
_symmetry_space_group_name_H-M   'P 1'
_cell_length_a   7.48548703
_cell_length_b   7.48372148
_cell_length_c   9.31069200
_cell_angle_alpha   90.00000000
_cell_angle_beta   90.00000000
_cell_angle_gamma   119.71780601
_symmetry_Int_Tables_number   1
_chemical_formula_structural   YbHf2Zr(Al3Ir)6
_chemical_formula_sum   'Yb1 Hf2 Zr1 Al18 Ir6'
_cell_volume   452.97914599
_cell_formula_units_Z   1
loop_
 _symmetry_equiv_pos_site_id
 _symmetry_equiv_pos_as_xyz
  1  'x, y, z'
loop_
 _atom_site_type_symbol
 _atom_site_label
 _atom_site_symmetry_multiplicity
 _atom_site_fract_x
 _atom_site_fract_y
 _atom_site_fract_z
 _atom_site_occupancy
  Yb  Yb0  1  0.328118  0.005584  0.750000  1
  Hf  Hf1  1  0.995683  0.673217  0.250000  1
  Hf  Hf2  1  0.670596  0.993538  0.250000  1
  Zr  Zr3  1  0.005512  0.328861  0.750000  1
  Al  Al4  1  0.123238  0.123790  0.250000  1
  Al  Al5  1  0.871098  0.875448  0.750000  1
  Al  Al6  1  0.997771  0.334658  0.079468  1
  Al  Al7  1  0.000661  0.663778  0.925476  1
  Al  Al8  1  0.000661  0.663778  0.574524  1
  Al  Al9  1  0.335221  0.998924  0.420205  1
  Al  Al10  1  0.997771  0.334658  0.420532  1
  Al  Al11  1  0.666285  0.001813  0.574807  1
  Al  Al12  1  0.666285  0.001813  0.925193  1
  Al  Al13  1  0.335221  0.998924  0.079795  1
  Al  Al14  1  0.331523  0.332779  0.556204  1
  Al  Al15  1  0.668615  0.668224  0.439282  1
  Al  Al16  1  0.668615  0.668224  0.060718  1
  Al  Al17  1  0.331523  0.332779  0.943796  1
  Al  Al18  1  0.338905  0.552496  0.250000  1
  Al  Al19  1  0.667166  0.452073  0.750000  1
  Al  Al20  1  0.554149  0.339535  0.250000  1
  Al  Al21  1  0.445418  0.654624  0.750000  1
  Ir  Ir22  1  0.674031  0.328892  0.002327  1
  Ir  Ir23  1  0.328454  0.673193  0.003035  1
  Ir  Ir24  1  0.328454  0.673193  0.496965  1
  Ir  Ir25  1  0.674031  0.328892  0.497673  1
  Ir  Ir26  1  0.997499  0.998154  0.002476  1
  Ir  Ir27  1  0.997499  0.998154  0.497524  1
