# generated using pymatgen
data_Y4LuZr(SnIr)6
_symmetry_space_group_name_H-M   'P 1'
_cell_length_a   7.48813354
_cell_length_b   7.53163247
_cell_length_c   7.79250800
_cell_angle_alpha   90.00000000
_cell_angle_beta   90.00000000
_cell_angle_gamma   120.50205016
_symmetry_Int_Tables_number   1
_chemical_formula_structural   Y4LuZr(SnIr)6
_chemical_formula_sum   'Y4 Lu1 Zr1 Sn6 Ir6'
_cell_volume   378.66153520
_cell_formula_units_Z   1
loop_
 _symmetry_equiv_pos_site_id
 _symmetry_equiv_pos_as_xyz
  1  'x, y, z'
loop_
 _atom_site_type_symbol
 _atom_site_label
 _atom_site_symmetry_multiplicity
 _atom_site_fract_x
 _atom_site_fract_y
 _atom_site_fract_z
 _atom_site_occupancy
  Y  Y0  1  0.596824  0.593066  0.750000  1
  Y  Y1  1  0.596009  0.596503  0.250000  1
  Y  Y2  1  0.001377  0.409231  0.750000  1
  Y  Y3  1  0.403660  0.995222  0.750000  1
  Lu  Lu4  1  0.404408  0.004848  0.250000  1
  Zr  Zr5  1  0.998708  0.397984  0.250000  1
  Sn  Sn6  1  0.264656  0.261780  0.501123  1
  Sn  Sn7  1  0.264656  0.261780  0.998877  1
  Sn  Sn8  1  0.735116  0.996766  0.000846  1
  Sn  Sn9  1  0.001062  0.743374  0.490979  1
  Sn  Sn10  1  0.735116  0.996766  0.499154  1
  Sn  Sn11  1  0.001062  0.743374  0.009021  1
  Ir  Ir12  1  0.677177  0.333107  0.487202  1
  Ir  Ir13  1  0.677177  0.333107  0.012798  1
  Ir  Ir14  1  0.320512  0.659385  0.018487  1
  Ir  Ir15  1  0.320512  0.659385  0.481513  1
  Ir  Ir16  1  0.999528  0.999337  0.750000  1
  Ir  Ir17  1  0.002441  0.014984  0.250000  1
