# generated using pymatgen
data_Sr5BiAs2F
_symmetry_space_group_name_H-M   'P 1'
_cell_length_a   9.58661743
_cell_length_b   9.58661831
_cell_length_c   9.58661748
_cell_angle_alpha   126.10758963
_cell_angle_beta   126.10759468
_cell_angle_gamma   79.71137408
_symmetry_Int_Tables_number   1
_chemical_formula_structural   Sr5BiAs2F
_chemical_formula_sum   'Sr10 Bi2 As4 F2'
_cell_volume   555.54188424
_cell_formula_units_Z   2
loop_
 _symmetry_equiv_pos_site_id
 _symmetry_equiv_pos_as_xyz
  1  'x, y, z'
loop_
 _atom_site_type_symbol
 _atom_site_label
 _atom_site_symmetry_multiplicity
 _atom_site_fract_x
 _atom_site_fract_y
 _atom_site_fract_z
 _atom_site_occupancy
  Sr  Sr0  1  0.500000  0.500000  0.000000  1
  Sr  Sr1  1  0.000000  0.000000  0.000000  1
  Sr  Sr2  1  0.515098  0.015098  0.797667  1
  Sr  Sr3  1  0.217431  0.717431  0.202333  1
  Sr  Sr4  1  0.015098  0.217431  0.500000  1
  Sr  Sr5  1  0.717431  0.515098  0.500000  1
  Sr  Sr6  1  0.484902  0.984902  0.202333  1
  Sr  Sr7  1  0.782569  0.282569  0.797667  1
  Sr  Sr8  1  0.984902  0.782569  0.500000  1
  Sr  Sr9  1  0.282569  0.484902  0.500000  1
  Bi  Bi10  1  0.250000  0.250000  0.000000  1
  Bi  Bi11  1  0.750000  0.750000  0.000000  1
  As  As12  1  0.843047  0.343047  0.186095  1
  As  As13  1  0.156953  0.656953  0.813906  1
  As  As14  1  0.343047  0.156953  0.500000  1
  As  As15  1  0.656953  0.843047  0.500000  1
  F  F16  1  0.250000  0.750000  0.500000  1
  F  F17  1  0.750000  0.250000  0.500000  1
