# generated using pymatgen
data_Tm20Si4SnBi7
_symmetry_space_group_name_H-M   'P 1'
_cell_length_a   7.93535355
_cell_length_b   9.08708470
_cell_length_c   11.86895741
_cell_angle_alpha   89.95306400
_cell_angle_beta   90.05631483
_cell_angle_gamma   89.90770699
_symmetry_Int_Tables_number   1
_chemical_formula_structural   Tm20Si4SnBi7
_chemical_formula_sum   'Tm20 Si4 Sn1 Bi7'
_cell_volume   855.85956645
_cell_formula_units_Z   1
loop_
 _symmetry_equiv_pos_site_id
 _symmetry_equiv_pos_as_xyz
  1  'x, y, z'
loop_
 _atom_site_type_symbol
 _atom_site_label
 _atom_site_symmetry_multiplicity
 _atom_site_fract_x
 _atom_site_fract_y
 _atom_site_fract_z
 _atom_site_occupancy
  Tm  Tm0  1  0.677567  0.946210  0.433725  1
  Tm  Tm1  1  0.819830  0.553504  0.938176  1
  Tm  Tm2  1  0.320607  0.445141  0.562891  1
  Tm  Tm3  1  0.184316  0.051638  0.063369  1
  Tm  Tm4  1  0.320487  0.054928  0.561988  1
  Tm  Tm5  1  0.180400  0.445764  0.062231  1
  Tm  Tm6  1  0.680065  0.554250  0.436965  1
  Tm  Tm7  1  0.818892  0.946526  0.939298  1
  Tm  Tm8  1  0.337161  0.754602  0.285721  1
  Tm  Tm9  1  0.165671  0.749965  0.788445  1
  Tm  Tm10  1  0.665848  0.250566  0.712756  1
  Tm  Tm11  1  0.829689  0.245787  0.212754  1
  Tm  Tm12  1  0.040836  0.749389  0.497322  1
  Tm  Tm13  1  0.462048  0.754439  0.000687  1
  Tm  Tm14  1  0.960207  0.250606  0.501980  1
  Tm  Tm15  1  0.540495  0.245612  0.004021  1
  Tm  Tm16  1  0.855634  0.754325  0.205266  1
  Tm  Tm17  1  0.637319  0.749920  0.705687  1
  Tm  Tm18  1  0.137969  0.250015  0.794305  1
  Tm  Tm19  1  0.366812  0.245970  0.292387  1
  Si  Si20  1  0.087292  0.749264  0.023061  1
  Si  Si21  1  0.411346  0.749547  0.521998  1
  Si  Si22  1  0.913635  0.249974  0.978406  1
  Si  Si23  1  0.588912  0.250716  0.478623  1
  Sn  Sn24  1  0.566171  0.990227  0.173064  1
  Bi  Bi25  1  0.931924  0.511650  0.674522  1
  Bi  Bi26  1  0.432407  0.489514  0.827611  1
  Bi  Bi27  1  0.067553  0.011289  0.326336  1
  Bi  Bi28  1  0.432141  0.010929  0.824249  1
  Bi  Bi29  1  0.067887  0.488690  0.324060  1
  Bi  Bi30  1  0.567243  0.510353  0.174016  1
  Bi  Bi31  1  0.931637  0.988690  0.674081  1
