# generated using pymatgen
data_AcCe2(BN2)2
_symmetry_space_group_name_H-M   'P 1'
_cell_length_a   6.43289454
_cell_length_b   6.43300570
_cell_length_c   6.43300566
_cell_angle_alpha   146.70567625
_cell_angle_beta   120.68714416
_cell_angle_gamma   69.74439315
_symmetry_Int_Tables_number   1
_chemical_formula_structural   AcCe2(BN2)2
_chemical_formula_sum   'Ac1 Ce2 B2 N4'
_cell_volume   123.83782460
_cell_formula_units_Z   1
loop_
 _symmetry_equiv_pos_site_id
 _symmetry_equiv_pos_as_xyz
  1  'x, y, z'
loop_
 _atom_site_type_symbol
 _atom_site_label
 _atom_site_symmetry_multiplicity
 _atom_site_fract_x
 _atom_site_fract_y
 _atom_site_fract_z
 _atom_site_occupancy
  Ac  Ac0  1  0.000000  0.000000  0.000000  1
  Ce  Ce1  1  0.697684  0.197682  0.500002  1
  Ce  Ce2  1  0.302316  0.802318  0.499998  1
  B  B3  1  0.362185  0.500002  0.862182  1
  B  B4  1  0.637815  0.499998  0.137818  1
  N  N5  1  0.375566  0.624773  0.750794  1
  N  N6  1  0.873988  0.624771  0.249218  1
  N  N7  1  0.126012  0.375229  0.750782  1
  N  N8  1  0.624434  0.375227  0.249206  1
