# generated using pymatgen
data_YbYSc3Si7Pt9
_symmetry_space_group_name_H-M   'P 1'
_cell_length_a   10.08119600
_cell_length_b   10.08119564
_cell_length_c   3.95665000
_cell_angle_alpha   90.00000000
_cell_angle_beta   90.00000000
_cell_angle_gamma   119.99999461
_symmetry_Int_Tables_number   1
_chemical_formula_structural   YbYSc3Si7Pt9
_chemical_formula_sum   'Yb1 Y1 Sc3 Si7 Pt9'
_cell_volume   348.24299686
_cell_formula_units_Z   1
loop_
 _symmetry_equiv_pos_site_id
 _symmetry_equiv_pos_as_xyz
  1  'x, y, z'
loop_
 _atom_site_type_symbol
 _atom_site_label
 _atom_site_symmetry_multiplicity
 _atom_site_fract_x
 _atom_site_fract_y
 _atom_site_fract_z
 _atom_site_occupancy
  Yb  Yb0  1  0.000000  0.000000  0.000000  1
  Y  Y1  1  0.333333  0.666667  0.500000  1
  Sc  Sc2  1  0.894821  0.457682  0.500000  1
  Sc  Sc3  1  0.562861  0.105179  0.500000  1
  Sc  Sc4  1  0.542318  0.437139  0.500000  1
  Si  Si5  1  0.243982  0.193625  0.500000  1
  Si  Si6  1  0.806375  0.050358  0.500000  1
  Si  Si7  1  0.949642  0.756018  0.500000  1
  Si  Si8  1  0.556909  0.647262  0.000000  1
  Si  Si9  1  0.352738  0.909645  0.000000  1
  Si  Si10  1  0.090355  0.443091  0.000000  1
  Si  Si11  1  0.666667  0.333333  0.000000  1
  Pt  Pt12  1  0.219171  0.935717  0.500000  1
  Pt  Pt13  1  0.064283  0.283455  0.500000  1
  Pt  Pt14  1  0.716545  0.780829  0.500000  1
  Pt  Pt15  1  0.314477  0.412430  0.000000  1
  Pt  Pt16  1  0.587570  0.902047  0.000000  1
  Pt  Pt17  1  0.097953  0.685523  0.000000  1
  Pt  Pt18  1  0.385009  0.172942  0.000000  1
  Pt  Pt19  1  0.827058  0.212066  0.000000  1
  Pt  Pt20  1  0.787934  0.614991  0.000000  1
