# generated using pymatgen
data_KRb2LuAs2
_symmetry_space_group_name_H-M   'P 1'
_cell_length_a   9.58482916
_cell_length_b   9.58482856
_cell_length_c   9.58482920
_cell_angle_alpha   130.66146295
_cell_angle_beta   68.30499696
_cell_angle_gamma   135.89597587
_symmetry_Int_Tables_number   1
_chemical_formula_structural   KRb2LuAs2
_chemical_formula_sum   'K2 Rb4 Lu2 As4'
_cell_volume   456.75853285
_cell_formula_units_Z   2
loop_
 _symmetry_equiv_pos_site_id
 _symmetry_equiv_pos_as_xyz
  1  'x, y, z'
loop_
 _atom_site_type_symbol
 _atom_site_label
 _atom_site_symmetry_multiplicity
 _atom_site_fract_x
 _atom_site_fract_y
 _atom_site_fract_z
 _atom_site_occupancy
  K  K0  1  0.750000  0.250000  0.500000  1
  K  K1  1  0.250000  0.750000  0.500000  1
  Rb  Rb2  1  0.313007  0.717894  0.030903  1
  Rb  Rb3  1  0.186993  0.217894  0.404887  1
  Rb  Rb4  1  0.813007  0.782105  0.595113  1
  Rb  Rb5  1  0.686993  0.282106  0.969098  1
  Lu  Lu6  1  0.250000  0.250000  0.000000  1
  Lu  Lu7  1  0.749999  0.749999  0.000000  1
  As  As8  1  0.906063  0.193049  0.099113  1
  As  As9  1  0.593936  0.693049  0.286986  1
  As  As10  1  0.406063  0.306951  0.713015  1
  As  As11  1  0.093937  0.806951  0.900888  1
