# generated using pymatgen
data_NiHg2(PO3)4
_symmetry_space_group_name_H-M   'P 1'
_cell_length_a   5.24230654
_cell_length_b   7.35865605
_cell_length_c   10.19820893
_cell_angle_alpha   109.11249979
_cell_angle_beta   108.34683816
_cell_angle_gamma   112.69893795
_symmetry_Int_Tables_number   1
_chemical_formula_structural   NiHg2(PO3)4
_chemical_formula_sum   'Ni1 Hg2 P4 O12'
_cell_volume   295.78073957
_cell_formula_units_Z   1
loop_
 _symmetry_equiv_pos_site_id
 _symmetry_equiv_pos_as_xyz
  1  'x, y, z'
loop_
 _atom_site_type_symbol
 _atom_site_label
 _atom_site_symmetry_multiplicity
 _atom_site_fract_x
 _atom_site_fract_y
 _atom_site_fract_z
 _atom_site_occupancy
  Ni  Ni0  1  0.000000  0.000000  0.000000  1
  Hg  Hg1  1  0.549374  0.655741  0.462447  1
  Hg  Hg2  1  0.450626  0.344259  0.537553  1
  P  P3  1  0.287316  0.810482  0.224879  1
  P  P4  1  0.730361  0.336919  0.089360  1
  P  P5  1  0.269639  0.663081  0.910640  1
  P  P6  1  0.712684  0.189518  0.775121  1
  O  O7  1  0.582041  0.896252  0.379815  1
  O  O8  1  0.327841  0.679289  0.081113  1
  O  O9  1  0.778675  0.013874  0.788193  1
  O  O10  1  0.985749  0.611778  0.211317  1
  O  O11  1  0.114483  0.787894  0.874785  1
  O  O12  1  0.564384  0.707550  0.901383  1
  O  O13  1  0.435616  0.292450  0.098617  1
  O  O14  1  0.885517  0.212106  0.125215  1
  O  O15  1  0.014251  0.388222  0.788683  1
  O  O16  1  0.221325  0.986126  0.211807  1
  O  O17  1  0.672159  0.320711  0.918887  1
  O  O18  1  0.417959  0.103748  0.620185  1
