# generated using pymatgen
data_TmFe4Si
_symmetry_space_group_name_H-M   'P 1'
_cell_length_a   4.95459700
_cell_length_b   4.93684447
_cell_length_c   3.93867600
_cell_angle_alpha   90.00000000
_cell_angle_beta   90.00000000
_cell_angle_gamma   120.11901705
_symmetry_Int_Tables_number   1
_chemical_formula_structural   TmFe4Si
_chemical_formula_sum   'Tm1 Fe4 Si1'
_cell_volume   83.33291460
_cell_formula_units_Z   1
loop_
 _symmetry_equiv_pos_site_id
 _symmetry_equiv_pos_as_xyz
  1  'x, y, z'
loop_
 _atom_site_type_symbol
 _atom_site_label
 _atom_site_symmetry_multiplicity
 _atom_site_fract_x
 _atom_site_fract_y
 _atom_site_fract_z
 _atom_site_occupancy
  Tm  Tm0  1  0.000000  0.000000  0.000000  1
  Fe  Fe1  1  0.667444  0.334889  0.000000  1
  Fe  Fe2  1  0.332556  0.665111  0.000000  1
  Fe  Fe3  1  0.000000  0.499999  0.500001  1
  Fe  Fe4  1  0.499999  0.499999  0.500001  1
  Si  Si5  1  0.500000  0.000000  0.500001  1
