# generated using pymatgen
data_Sc12Ru(PtBr8)2
_symmetry_space_group_name_H-M   'P 1'
_cell_length_a   8.93687568
_cell_length_b   11.06559867
_cell_length_c   11.69501056
_cell_angle_alpha   117.10452226
_cell_angle_beta   101.74966032
_cell_angle_gamma   101.32913065
_symmetry_Int_Tables_number   1
_chemical_formula_structural   Sc12Ru(PtBr8)2
_chemical_formula_sum   'Sc12 Ru1 Pt2 Br16'
_cell_volume   950.83233546
_cell_formula_units_Z   1
loop_
 _symmetry_equiv_pos_site_id
 _symmetry_equiv_pos_as_xyz
  1  'x, y, z'
loop_
 _atom_site_type_symbol
 _atom_site_label
 _atom_site_symmetry_multiplicity
 _atom_site_fract_x
 _atom_site_fract_y
 _atom_site_fract_z
 _atom_site_occupancy
  Sc  Sc0  1  0.085710  0.254961  0.349443  1
  Sc  Sc1  1  0.918924  0.750824  0.654100  1
  Sc  Sc2  1  0.774594  0.538525  0.314574  1
  Sc  Sc3  1  0.226941  0.462399  0.681265  1
  Sc  Sc4  1  0.286707  0.745931  0.650931  1
  Sc  Sc5  1  0.713201  0.248281  0.345568  1
  Sc  Sc6  1  0.145588  0.537507  0.319475  1
  Sc  Sc7  1  0.857876  0.461657  0.684724  1
  Sc  Sc8  1  0.394706  0.348906  0.259157  1
  Sc  Sc9  1  0.595690  0.651041  0.740708  1
  Sc  Sc10  1  0.450788  0.295391  0.521623  1
  Sc  Sc11  1  0.539820  0.704560  0.478353  1
  Ru  Ru12  1  0.340270  0.500180  0.499343  1
  Pt  Pt13  1  0.997501  0.500076  0.500190  1
  Pt  Pt14  1  0.660462  0.499776  0.500605  1
  Br  Br15  1  0.397350  0.746856  0.892570  1
  Br  Br16  1  0.603247  0.254845  0.110029  1
  Br  Br17  1  0.192700  0.976280  0.788951  1
  Br  Br18  1  0.807190  0.023722  0.211111  1
  Br  Br19  1  0.338813  0.086340  0.245598  1
  Br  Br20  1  0.668346  0.913801  0.754487  1
  Br  Br21  1  0.558816  0.436949  0.804781  1
  Br  Br22  1  0.447887  0.563085  0.195430  1
  Br  Br23  1  0.308820  0.834270  0.461994  1
  Br  Br24  1  0.690993  0.168007  0.537720  1
  Br  Br25  1  0.162973  0.164603  0.533609  1
  Br  Br26  1  0.835680  0.833164  0.466511  1
  Br  Br27  1  0.925677  0.579669  0.155196  1
  Br  Br28  1  0.074433  0.420206  0.844729  1
  Br  Br29  1  0.927882  0.743494  0.890005  1
  Br  Br30  1  0.070416  0.254692  0.107227  1
