# generated using pymatgen
data_Ho2Er10Tc3Rh
_symmetry_space_group_name_H-M   'P 1'
_cell_length_a   6.24792613
_cell_length_b   7.34775958
_cell_length_c   9.06494200
_cell_angle_alpha   90.00000000
_cell_angle_beta   90.00000000
_cell_angle_gamma   89.90977969
_symmetry_Int_Tables_number   1
_chemical_formula_structural   Ho2Er10Tc3Rh
_chemical_formula_sum   'Ho2 Er10 Tc3 Rh1'
_cell_volume   416.15518975
_cell_formula_units_Z   1
loop_
 _symmetry_equiv_pos_site_id
 _symmetry_equiv_pos_as_xyz
  1  'x, y, z'
loop_
 _atom_site_type_symbol
 _atom_site_label
 _atom_site_symmetry_multiplicity
 _atom_site_fract_x
 _atom_site_fract_y
 _atom_site_fract_z
 _atom_site_occupancy
  Ho  Ho0  1  0.875535  0.960896  0.750000  1
  Ho  Ho1  1  0.369079  0.542700  0.250000  1
  Er  Er2  1  0.663030  0.173907  0.060856  1
  Er  Er3  1  0.168376  0.323152  0.934963  1
  Er  Er4  1  0.836465  0.678575  0.438970  1
  Er  Er5  1  0.336655  0.824231  0.562566  1
  Er  Er6  1  0.336655  0.824231  0.937434  1
  Er  Er7  1  0.836465  0.678575  0.061030  1
  Er  Er8  1  0.168376  0.323152  0.565037  1
  Er  Er9  1  0.663030  0.173907  0.439144  1
  Er  Er10  1  0.626494  0.459351  0.750000  1
  Er  Er11  1  0.127658  0.041087  0.250000  1
  Tc  Tc12  1  0.038172  0.612743  0.750000  1
  Tc  Tc13  1  0.539581  0.884107  0.250000  1
  Tc  Tc14  1  0.459484  0.115280  0.750000  1
  Rh  Rh15  1  0.954947  0.384105  0.250000  1
