# generated using pymatgen
data_NdDy3(Ir2O7)2
_symmetry_space_group_name_H-M   'P 1'
_cell_length_a   7.29936391
_cell_length_b   7.26497194
_cell_length_c   7.26497100
_cell_angle_alpha   59.99999974
_cell_angle_beta   60.15573750
_cell_angle_gamma   60.15574376
_symmetry_Int_Tables_number   1
_chemical_formula_structural   NdDy3(Ir2O7)2
_chemical_formula_sum   'Nd1 Dy3 Ir4 O14'
_cell_volume   273.05880176
_cell_formula_units_Z   1
loop_
 _symmetry_equiv_pos_site_id
 _symmetry_equiv_pos_as_xyz
  1  'x, y, z'
loop_
 _atom_site_type_symbol
 _atom_site_label
 _atom_site_symmetry_multiplicity
 _atom_site_fract_x
 _atom_site_fract_y
 _atom_site_fract_z
 _atom_site_occupancy
  Nd  Nd0  1  0.625000  0.125000  0.125000  1
  Dy  Dy1  1  0.125000  0.625000  0.125000  1
  Dy  Dy2  1  0.125000  0.125000  0.625000  1
  Dy  Dy3  1  0.125000  0.125000  0.125000  1
  Ir  Ir4  1  0.125000  0.625000  0.625000  1
  Ir  Ir5  1  0.625000  0.125000  0.625000  1
  Ir  Ir6  1  0.625000  0.625000  0.125000  1
  Ir  Ir7  1  0.625000  0.625000  0.625000  1
  O  O8  1  0.718378  0.703593  0.289014  1
  O  O9  1  0.288028  0.288941  0.711516  1
  O  O10  1  0.718378  0.289014  0.703593  1
  O  O11  1  0.288028  0.711516  0.288941  1
  O  O12  1  0.288028  0.711516  0.711516  1
  O  O13  1  0.718378  0.289014  0.289014  1
  O  O14  1  0.531622  0.546407  0.960986  1
  O  O15  1  0.961972  0.961059  0.538484  1
  O  O16  1  0.531622  0.960986  0.546407  1
  O  O17  1  0.961972  0.538484  0.961059  1
  O  O18  1  0.961972  0.538484  0.538484  1
  O  O19  1  0.531622  0.960986  0.960986  1
  O  O20  1  0.239883  0.253372  0.253372  1
  O  O21  1  0.010117  0.996628  0.996628  1
