# generated using pymatgen
data_Pr8Y12Si15Sn
_symmetry_space_group_name_H-M   'P 1'
_cell_length_a   7.58005711
_cell_length_b   7.86854735
_cell_length_c   14.97107206
_cell_angle_alpha   90.11526213
_cell_angle_beta   89.40847367
_cell_angle_gamma   90.04014112
_symmetry_Int_Tables_number   1
_chemical_formula_structural   Pr8Y12Si15Sn
_chemical_formula_sum   'Pr8 Y12 Si15 Sn1'
_cell_volume   892.88559482
_cell_formula_units_Z   1
loop_
 _symmetry_equiv_pos_site_id
 _symmetry_equiv_pos_as_xyz
  1  'x, y, z'
loop_
 _atom_site_type_symbol
 _atom_site_label
 _atom_site_symmetry_multiplicity
 _atom_site_fract_x
 _atom_site_fract_y
 _atom_site_fract_z
 _atom_site_occupancy
  Pr  Pr0  1  0.020289  0.174024  0.398098  1
  Pr  Pr1  1  0.522936  0.320627  0.400059  1
  Pr  Pr2  1  0.474503  0.679872  0.902510  1
  Pr  Pr3  1  0.486685  0.685953  0.601345  1
  Pr  Pr4  1  0.974892  0.824764  0.599390  1
  Pr  Pr5  1  0.973661  0.819975  0.902822  1
  Pr  Pr6  1  0.524718  0.320319  0.098378  1
  Pr  Pr7  1  0.025465  0.180932  0.098281  1
  Y  Y8  1  0.328532  0.165715  0.628574  1
  Y  Y9  1  0.677017  0.822697  0.375128  1
  Y  Y10  1  0.652420  0.987333  0.752882  1
  Y  Y11  1  0.175273  0.686799  0.371937  1
  Y  Y12  1  0.818096  0.321201  0.878538  1
  Y  Y13  1  0.814971  0.320668  0.623571  1
  Y  Y14  1  0.848103  0.488705  0.249246  1
  Y  Y15  1  0.349792  0.012815  0.248938  1
  Y  Y16  1  0.317633  0.177822  0.878524  1
  Y  Y17  1  0.181966  0.678382  0.121955  1
  Y  Y18  1  0.680338  0.821672  0.121653  1
  Y  Y19  1  0.151197  0.510736  0.753635  1
  Si  Si20  1  0.267747  0.876493  0.752440  1
  Si  Si21  1  0.473924  0.612354  0.248328  1
  Si  Si22  1  0.024390  0.113385  0.751382  1
  Si  Si23  1  0.525331  0.387300  0.752275  1
  Si  Si24  1  0.973138  0.890312  0.246861  1
  Si  Si25  1  0.730621  0.120500  0.247936  1
  Si  Si26  1  0.857375  0.528862  0.040792  1
  Si  Si27  1  0.357175  0.971370  0.040964  1
  Si  Si28  1  0.141357  0.470830  0.960161  1
  Si  Si29  1  0.646259  0.031823  0.537819  1
  Si  Si30  1  0.354916  0.969984  0.460061  1
  Si  Si31  1  0.843894  0.532492  0.457190  1
  Si  Si32  1  0.770827  0.619702  0.751134  1
  Si  Si33  1  0.230820  0.380917  0.249360  1
  Si  Si34  1  0.641240  0.029720  0.960194  1
  Sn  Sn35  1  0.162496  0.462943  0.537635  1
