# generated using pymatgen
data_La2GdSi2
_symmetry_space_group_name_H-M   'P 1'
_cell_length_a   7.70155100
_cell_length_b   7.70155100
_cell_length_c   4.57981800
_cell_angle_alpha   90.00000000
_cell_angle_beta   90.00000000
_cell_angle_gamma   90.00000000
_symmetry_Int_Tables_number   1
_chemical_formula_structural   La2GdSi2
_chemical_formula_sum   'La4 Gd2 Si4'
_cell_volume   271.64681102
_cell_formula_units_Z   2
loop_
 _symmetry_equiv_pos_site_id
 _symmetry_equiv_pos_as_xyz
  1  'x, y, z'
loop_
 _atom_site_type_symbol
 _atom_site_label
 _atom_site_symmetry_multiplicity
 _atom_site_fract_x
 _atom_site_fract_y
 _atom_site_fract_z
 _atom_site_occupancy
  La  La0  1  0.321154  0.178845  0.500001  1
  La  La1  1  0.821155  0.321154  0.500001  1
  La  La2  1  0.178845  0.678846  0.500001  1
  La  La3  1  0.678846  0.821155  0.500001  1
  Gd  Gd4  1  0.000000  0.000000  0.000000  1
  Gd  Gd5  1  0.499999  0.499999  0.000000  1
  Si  Si6  1  0.612441  0.112442  0.000000  1
  Si  Si7  1  0.112442  0.387559  0.000000  1
  Si  Si8  1  0.887558  0.612441  0.000000  1
  Si  Si9  1  0.387559  0.887558  0.000000  1
