# generated using pymatgen
data_RbNa3La4(MoN3)4
_symmetry_space_group_name_H-M   'P 1'
_cell_length_a   6.29547247
_cell_length_b   6.28997789
_cell_length_c   12.55534107
_cell_angle_alpha   90.91596553
_cell_angle_beta   89.79283326
_cell_angle_gamma   122.87304202
_symmetry_Int_Tables_number   1
_chemical_formula_structural   RbNa3La4(MoN3)4
_chemical_formula_sum   'Rb1 Na3 La4 Mo4 N12'
_cell_volume   417.50089023
_cell_formula_units_Z   1
loop_
 _symmetry_equiv_pos_site_id
 _symmetry_equiv_pos_as_xyz
  1  'x, y, z'
loop_
 _atom_site_type_symbol
 _atom_site_label
 _atom_site_symmetry_multiplicity
 _atom_site_fract_x
 _atom_site_fract_y
 _atom_site_fract_z
 _atom_site_occupancy
  Rb  Rb0  1  0.996412  0.568150  0.350306  1
  Na  Na1  1  0.545557  0.964302  0.875151  1
  Na  Na2  1  0.041953  0.450134  0.626918  1
  Na  Na3  1  0.459334  0.058697  0.119665  1
  La  La4  1  0.312383  0.097773  0.593354  1
  La  La5  1  0.893290  0.688478  0.911484  1
  La  La6  1  0.686610  0.883494  0.413029  1
  La  La7  1  0.109600  0.324449  0.088496  1
  Mo  Mo8  1  0.713477  0.745444  0.663068  1
  Mo  Mo9  1  0.244442  0.280286  0.840225  1
  Mo  Mo10  1  0.283486  0.240821  0.343564  1
  Mo  Mo11  1  0.748907  0.731077  0.158593  1
  N  N12  1  0.549048  0.439013  0.753910  1
  N  N13  1  0.453159  0.548511  0.250053  1
  N  N14  1  0.513340  0.854301  0.609877  1
  N  N15  1  0.131659  0.480898  0.890513  1
  N  N16  1  0.465856  0.108140  0.388474  1
  N  N17  1  0.871807  0.539994  0.106016  1
  N  N18  1  0.705953  0.879844  0.039458  1
  N  N19  1  0.133502  0.263647  0.466649  1
  N  N20  1  0.278839  0.130946  0.962691  1
  N  N21  1  0.872507  0.709312  0.547568  1
  N  N22  1  0.994980  0.994864  0.753841  1
  N  N23  1  0.993900  0.017426  0.247099  1
