# generated using pymatgen
data_Tb3YAl18PtRh5
_symmetry_space_group_name_H-M   'P 1'
_cell_length_a   7.57770100
_cell_length_b   7.57737429
_cell_length_c   9.48494200
_cell_angle_alpha   89.99816426
_cell_angle_beta   89.99806055
_cell_angle_gamma   119.46971413
_symmetry_Int_Tables_number   1
_chemical_formula_structural   Tb3YAl18PtRh5
_chemical_formula_sum   'Tb3 Y1 Al18 Pt1 Rh5'
_cell_volume   474.15186149
_cell_formula_units_Z   1
loop_
 _symmetry_equiv_pos_site_id
 _symmetry_equiv_pos_as_xyz
  1  'x, y, z'
loop_
 _atom_site_type_symbol
 _atom_site_label
 _atom_site_symmetry_multiplicity
 _atom_site_fract_x
 _atom_site_fract_y
 _atom_site_fract_z
 _atom_site_occupancy
  Tb  Tb0  1  0.005016  0.328973  0.750154  1
  Tb  Tb1  1  0.671033  0.994952  0.249849  1
  Tb  Tb2  1  0.329573  0.005299  0.749924  1
  Y  Y3  1  0.994660  0.670531  0.250100  1
  Al  Al4  1  0.127802  0.127185  0.250135  1
  Al  Al5  1  0.872694  0.872129  0.749866  1
  Al  Al6  1  0.004310  0.335212  0.076149  1
  Al  Al7  1  0.002537  0.668364  0.924111  1
  Al  Al8  1  0.999692  0.664797  0.574420  1
  Al  Al9  1  0.335152  0.000299  0.425452  1
  Al  Al10  1  0.001052  0.335031  0.425170  1
  Al  Al11  1  0.664997  0.998954  0.574778  1
  Al  Al12  1  0.664813  0.995695  0.923897  1
  Al  Al13  1  0.331584  0.997449  0.076018  1
  Al  Al14  1  0.332834  0.332908  0.550053  1
  Al  Al15  1  0.667104  0.667153  0.449896  1
  Al  Al16  1  0.666557  0.669920  0.051534  1
  Al  Al17  1  0.330061  0.333454  0.948512  1
  Al  Al18  1  0.340128  0.549775  0.250110  1
  Al  Al19  1  0.660066  0.453164  0.746984  1
  Al  Al20  1  0.546967  0.339915  0.253006  1
  Al  Al21  1  0.450271  0.659864  0.749890  1
  Pt  Pt22  1  0.672292  0.327743  0.999943  1
  Rh  Rh23  1  0.328207  0.671768  0.999981  1
  Rh  Rh24  1  0.328325  0.671639  0.500021  1
  Rh  Rh25  1  0.672096  0.327984  0.500044  1
  Rh  Rh26  1  0.000016  0.999995  0.999947  1
  Rh  Rh27  1  0.000165  0.999849  0.500054  1
