# generated using pymatgen
data_BaSnSbPt
_symmetry_space_group_name_H-M   'P 1'
_cell_length_a   9.89517514
_cell_length_b   9.89517491
_cell_length_c   4.88836000
_cell_angle_alpha   90.00000000
_cell_angle_beta   90.00000000
_cell_angle_gamma   151.32463676
_symmetry_Int_Tables_number   1
_chemical_formula_structural   BaSnSbPt
_chemical_formula_sum   'Ba2 Sn2 Sb2 Pt2'
_cell_volume   229.67423624
_cell_formula_units_Z   2
loop_
 _symmetry_equiv_pos_site_id
 _symmetry_equiv_pos_as_xyz
  1  'x, y, z'
loop_
 _atom_site_type_symbol
 _atom_site_label
 _atom_site_symmetry_multiplicity
 _atom_site_fract_x
 _atom_site_fract_y
 _atom_site_fract_z
 _atom_site_occupancy
  Ba  Ba0  1  0.110036  0.889963  0.250001  1
  Ba  Ba1  1  0.890339  0.109660  0.750000  1
  Sn  Sn2  1  0.749537  0.250461  0.250001  1
  Sn  Sn3  1  0.455338  0.544661  0.250001  1
  Sb  Sb4  1  0.543596  0.456403  0.750000  1
  Sb  Sb5  1  0.251589  0.748409  0.750000  1
  Pt  Pt6  1  0.316045  0.683954  0.250001  1
  Pt  Pt7  1  0.683516  0.316483  0.750000  1
