# generated using pymatgen
data_Ac(SnPd2)2
_symmetry_space_group_name_H-M   'P 1'
_cell_length_a   7.27590268
_cell_length_b   7.27582403
_cell_length_c   7.27582449
_cell_angle_alpha   105.79873538
_cell_angle_beta   111.33735933
_cell_angle_gamma   111.33735622
_symmetry_Int_Tables_number   1
_chemical_formula_structural   Ac(SnPd2)2
_chemical_formula_sum   'Ac2 Sn4 Pd8'
_cell_volume   295.60266038
_cell_formula_units_Z   2
loop_
 _symmetry_equiv_pos_site_id
 _symmetry_equiv_pos_as_xyz
  1  'x, y, z'
loop_
 _atom_site_type_symbol
 _atom_site_label
 _atom_site_symmetry_multiplicity
 _atom_site_fract_x
 _atom_site_fract_y
 _atom_site_fract_z
 _atom_site_occupancy
  Ac  Ac0  1  0.500000  0.000001  0.499999  1
  Ac  Ac1  1  0.500000  0.499998  0.000002  1
  Sn  Sn2  1  0.307068  0.403541  0.403541  1
  Sn  Sn3  1  0.692932  0.096459  0.096459  1
  Sn  Sn4  1  0.000000  0.903520  0.596480  1
  Sn  Sn5  1  0.000000  0.596481  0.903519  1
  Pd  Pd6  1  0.711814  0.444235  0.444303  1
  Pd  Pd7  1  0.288190  0.732493  0.732426  1
  Pd  Pd8  1  0.999926  0.944260  0.232410  1
  Pd  Pd9  1  0.000063  0.232478  0.944329  1
  Pd  Pd10  1  0.000074  0.267590  0.555740  1
  Pd  Pd11  1  0.999937  0.555671  0.267522  1
  Pd  Pd12  1  0.288186  0.055697  0.055765  1
  Pd  Pd13  1  0.711810  0.767574  0.767507  1
