# generated using pymatgen
data_Ti4MnCoIr2
_symmetry_space_group_name_H-M   'P 1'
_cell_length_a   6.08680400
_cell_length_b   4.33500000
_cell_length_c   8.63121900
_cell_angle_alpha   90.00000000
_cell_angle_beta   90.00028060
_cell_angle_gamma   90.00000000
_symmetry_Int_Tables_number   1
_chemical_formula_structural   Ti4MnCoIr2
_chemical_formula_sum   'Ti8 Mn2 Co2 Ir4'
_cell_volume   227.74589368
_cell_formula_units_Z   2
loop_
 _symmetry_equiv_pos_site_id
 _symmetry_equiv_pos_as_xyz
  1  'x, y, z'
loop_
 _atom_site_type_symbol
 _atom_site_label
 _atom_site_symmetry_multiplicity
 _atom_site_fract_x
 _atom_site_fract_y
 _atom_site_fract_z
 _atom_site_occupancy
  Ti  Ti0  1  0.001475  0.749999  0.123080  1
  Ti  Ti1  1  0.498537  0.749999  0.123088  1
  Ti  Ti2  1  0.998603  0.249999  0.376889  1
  Ti  Ti3  1  0.501439  0.249999  0.376896  1
  Ti  Ti4  1  0.500412  0.749999  0.626688  1
  Ti  Ti5  1  0.999548  0.749999  0.626693  1
  Ti  Ti6  1  0.499520  0.249999  0.873308  1
  Ti  Ti7  1  0.000470  0.249999  0.873311  1
  Mn  Mn8  1  0.749986  0.249999  0.624614  1
  Mn  Mn9  1  0.249980  0.749999  0.875474  1
  Co  Co10  1  0.750019  0.249999  0.124965  1
  Co  Co11  1  0.250010  0.749999  0.375009  1
  Ir  Ir12  1  0.250014  0.249999  0.125748  1
  Ir  Ir13  1  0.750008  0.749999  0.374254  1
  Ir  Ir14  1  0.249993  0.249999  0.624230  1
  Ir  Ir15  1  0.749982  0.749999  0.875754  1
