# generated using pymatgen
data_Ba4TbY(GaS5)2
_symmetry_space_group_name_H-M   'P 1'
_cell_length_a   7.15997769
_cell_length_b   8.47777805
_cell_length_c   9.19872637
_cell_angle_alpha   103.58194019
_cell_angle_beta   103.12563400
_cell_angle_gamma   107.45948326
_symmetry_Int_Tables_number   1
_chemical_formula_structural   Ba4TbY(GaS5)2
_chemical_formula_sum   'Ba4 Tb1 Y1 Ga2 S10'
_cell_volume   490.36912960
_cell_formula_units_Z   1
loop_
 _symmetry_equiv_pos_site_id
 _symmetry_equiv_pos_as_xyz
  1  'x, y, z'
loop_
 _atom_site_type_symbol
 _atom_site_label
 _atom_site_symmetry_multiplicity
 _atom_site_fract_x
 _atom_site_fract_y
 _atom_site_fract_z
 _atom_site_occupancy
  Ba  Ba0  1  0.632074  0.976852  0.288449  1
  Ba  Ba1  1  0.367995  0.023179  0.711596  1
  Ba  Ba2  1  0.338044  0.509814  0.705277  1
  Ba  Ba3  1  0.661883  0.490149  0.294670  1
  Tb  Tb4  1  0.997050  0.728911  0.997850  1
  Y  Y5  1  0.002887  0.270804  0.002085  1
  Ga  Ga6  1  0.807415  0.872433  0.689222  1
  Ga  Ga7  1  0.192603  0.127515  0.310742  1
  S  S8  1  0.988985  0.690482  0.688742  1
  S  S9  1  0.010992  0.309408  0.310395  1
  S  S10  1  0.985673  0.148887  0.692835  1
  S  S11  1  0.014359  0.851531  0.308079  1
  S  S12  1  0.716862  0.908825  0.923009  1
  S  S13  1  0.283104  0.092115  0.077017  1
  S  S14  1  0.712137  0.412289  0.947806  1
  S  S15  1  0.287934  0.586821  0.052224  1
  S  S16  1  0.499740  0.745308  0.496822  1
  S  S17  1  0.500263  0.254677  0.503182  1
