# generated using pymatgen
data_Y4Lu(GeB4)2
_symmetry_space_group_name_H-M   'P 1'
_cell_length_a   7.24080500
_cell_length_b   7.24080500
_cell_length_c   8.10980700
_cell_angle_alpha   90.00000000
_cell_angle_beta   90.00000000
_cell_angle_gamma   90.00000000
_symmetry_Int_Tables_number   1
_chemical_formula_structural   Y4Lu(GeB4)2
_chemical_formula_sum   'Y8 Lu2 Ge4 B16'
_cell_volume   425.19115581
_cell_formula_units_Z   2
loop_
 _symmetry_equiv_pos_site_id
 _symmetry_equiv_pos_as_xyz
  1  'x, y, z'
loop_
 _atom_site_type_symbol
 _atom_site_label
 _atom_site_symmetry_multiplicity
 _atom_site_fract_x
 _atom_site_fract_y
 _atom_site_fract_z
 _atom_site_occupancy
  Y  Y0  1  0.680267  0.180267  0.222417  1
  Y  Y1  1  0.319733  0.819733  0.777583  1
  Y  Y2  1  0.319733  0.819733  0.222417  1
  Y  Y3  1  0.819733  0.680267  0.222417  1
  Y  Y4  1  0.819733  0.680267  0.777583  1
  Y  Y5  1  0.680267  0.180267  0.777583  1
  Y  Y6  1  0.180267  0.319733  0.777583  1
  Y  Y7  1  0.180267  0.319733  0.222417  1
  Lu  Lu8  1  0.000000  0.000000  0.500000  1
  Lu  Lu9  1  0.500000  0.500000  0.500000  1
  Ge  Ge10  1  0.121112  0.621112  0.500000  1
  Ge  Ge11  1  0.878888  0.378888  0.500000  1
  Ge  Ge12  1  0.378888  0.121112  0.500000  1
  Ge  Ge13  1  0.621112  0.878888  0.500000  1
  B  B14  1  0.172102  0.039293  0.000000  1
  B  B15  1  0.827898  0.960707  0.000000  1
  B  B16  1  0.960707  0.172102  0.000000  1
  B  B17  1  0.327898  0.539293  0.000000  1
  B  B18  1  0.039293  0.827898  0.000000  1
  B  B19  1  0.672102  0.460707  0.000000  1
  B  B20  1  0.539293  0.672102  0.000000  1
  B  B21  1  0.460707  0.327898  0.000000  1
  B  B22  1  0.090202  0.590202  0.000000  1
  B  B23  1  0.909798  0.409798  0.000000  1
  B  B24  1  0.409798  0.090202  0.000000  1
  B  B25  1  0.590202  0.909798  0.000000  1
  B  B26  1  0.000000  0.000000  0.162888  1
  B  B27  1  0.000000  0.000000  0.837112  1
  B  B28  1  0.500000  0.500000  0.837112  1
  B  B29  1  0.500000  0.500000  0.162888  1
