# generated using pymatgen
data_Yb2TiZnIr2
_symmetry_space_group_name_H-M   'P 1'
_cell_length_a   4.26627500
_cell_length_b   7.18047220
_cell_length_c   7.68674709
_cell_angle_alpha   91.65360791
_cell_angle_beta   90.00000000
_cell_angle_gamma   90.00000000
_symmetry_Int_Tables_number   1
_chemical_formula_structural   Yb2TiZnIr2
_chemical_formula_sum   'Yb4 Ti2 Zn2 Ir4'
_cell_volume   235.37674081
_cell_formula_units_Z   2
loop_
 _symmetry_equiv_pos_site_id
 _symmetry_equiv_pos_as_xyz
  1  'x, y, z'
loop_
 _atom_site_type_symbol
 _atom_site_label
 _atom_site_symmetry_multiplicity
 _atom_site_fract_x
 _atom_site_fract_y
 _atom_site_fract_z
 _atom_site_occupancy
  Yb  Yb0  1  0.250000  0.517960  0.165017  1
  Yb  Yb1  1  0.750000  0.482040  0.834983  1
  Yb  Yb2  1  0.750000  0.980915  0.695043  1
  Yb  Yb3  1  0.250000  0.019085  0.304957  1
  Ti  Ti4  1  0.250000  0.639925  0.574480  1
  Ti  Ti5  1  0.750000  0.360075  0.425520  1
  Zn  Zn6  1  0.750000  0.842491  0.070148  1
  Zn  Zn7  1  0.250000  0.157509  0.929852  1
  Ir  Ir8  1  0.250000  0.783493  0.876517  1
  Ir  Ir9  1  0.750000  0.216507  0.123483  1
  Ir  Ir10  1  0.750000  0.703991  0.396805  1
  Ir  Ir11  1  0.250000  0.296009  0.603195  1
