# generated using pymatgen
data_Dy(Th2Ir)3
_symmetry_space_group_name_H-M   'P 1'
_cell_length_a   10.02283800
_cell_length_b   10.04520010
_cell_length_c   6.33871915
_cell_angle_alpha   90.35301460
_cell_angle_beta   90.00000000
_cell_angle_gamma   119.92638033
_symmetry_Int_Tables_number   1
_chemical_formula_structural   Dy(Th2Ir)3
_chemical_formula_sum   'Dy2 Th12 Ir6'
_cell_volume   553.08536822
_cell_formula_units_Z   2
loop_
 _symmetry_equiv_pos_site_id
 _symmetry_equiv_pos_as_xyz
  1  'x, y, z'
loop_
 _atom_site_type_symbol
 _atom_site_label
 _atom_site_symmetry_multiplicity
 _atom_site_fract_x
 _atom_site_fract_y
 _atom_site_fract_z
 _atom_site_occupancy
  Dy  Dy0  1  0.458498  0.539643  0.296299  1
  Dy  Dy1  1  0.081144  0.539643  0.296299  1
  Th  Th2  1  0.915465  0.458145  0.797499  1
  Th  Th3  1  0.255278  0.129534  0.499511  1
  Th  Th4  1  0.542194  0.084388  0.793916  1
  Th  Th5  1  0.744450  0.872686  0.000979  1
  Th  Th6  1  0.666258  0.332515  0.305414  1
  Th  Th7  1  0.128237  0.872686  0.000979  1
  Th  Th8  1  0.455951  0.911903  0.291987  1
  Th  Th9  1  0.542681  0.458145  0.797499  1
  Th  Th10  1  0.874256  0.129534  0.499511  1
  Th  Th11  1  0.128384  0.256769  0.000326  1
  Th  Th12  1  0.871513  0.743025  0.497576  1
  Th  Th13  1  0.332878  0.665757  0.783378  1
  Ir  Ir14  1  0.811906  0.623812  0.054079  1
  Ir  Ir15  1  0.812938  0.188731  0.054506  1
  Ir  Ir16  1  0.626354  0.815455  0.551720  1
  Ir  Ir17  1  0.375794  0.188731  0.054506  1
  Ir  Ir18  1  0.186722  0.373444  0.556297  1
  Ir  Ir19  1  0.189100  0.815455  0.551720  1
