# generated using pymatgen
data_Er8CuSi8Pt7
_symmetry_space_group_name_H-M   'P 1'
_cell_length_a   4.28169300
_cell_length_b   7.41429705
_cell_length_c   13.91609213
_cell_angle_alpha   89.96509510
_cell_angle_beta   90.00000000
_cell_angle_gamma   90.00000000
_symmetry_Int_Tables_number   1
_chemical_formula_structural   Er8CuSi8Pt7
_chemical_formula_sum   'Er8 Cu1 Si8 Pt7'
_cell_volume   441.77661334
_cell_formula_units_Z   1
loop_
 _symmetry_equiv_pos_site_id
 _symmetry_equiv_pos_as_xyz
  1  'x, y, z'
loop_
 _atom_site_type_symbol
 _atom_site_label
 _atom_site_symmetry_multiplicity
 _atom_site_fract_x
 _atom_site_fract_y
 _atom_site_fract_z
 _atom_site_occupancy
  Er  Er0  1  0.000000  0.299011  0.999466  1
  Er  Er1  1  0.500000  0.703880  0.498867  1
  Er  Er2  1  0.000000  0.290046  0.499544  1
  Er  Er3  1  0.500000  0.708539  0.999928  1
  Er  Er4  1  0.000000  0.205188  0.249386  1
  Er  Er5  1  0.500000  0.793422  0.251368  1
  Er  Er6  1  0.000000  0.205276  0.750193  1
  Er  Er7  1  0.500000  0.791428  0.750496  1
  Cu  Cu8  1  0.000000  0.579448  0.654838  1
  Si  Si9  1  0.000000  0.908156  0.593419  1
  Si  Si10  1  0.500000  0.092246  0.905938  1
  Si  Si11  1  0.000000  0.908909  0.406979  1
  Si  Si12  1  0.500000  0.090788  0.092936  1
  Si  Si13  1  0.000000  0.590876  0.147288  1
  Si  Si14  1  0.500000  0.409472  0.351248  1
  Si  Si15  1  0.000000  0.591918  0.852818  1
  Si  Si16  1  0.500000  0.410466  0.646167  1
  Pt  Pt17  1  0.500000  0.075010  0.610057  1
  Pt  Pt18  1  0.000000  0.924514  0.890396  1
  Pt  Pt19  1  0.500000  0.077329  0.391856  1
  Pt  Pt20  1  0.000000  0.922023  0.108932  1
  Pt  Pt21  1  0.500000  0.421505  0.153629  1
  Pt  Pt22  1  0.000000  0.579000  0.351856  1
  Pt  Pt23  1  0.500000  0.421551  0.842395  1
