# generated using pymatgen
data_NdSm7(GeBr6)2
_symmetry_space_group_name_H-M   'P 1'
_cell_length_a   4.16964300
_cell_length_b   13.65837218
_cell_length_c   14.45098013
_cell_angle_alpha   90.08872487
_cell_angle_beta   90.00000000
_cell_angle_gamma   90.00000000
_symmetry_Int_Tables_number   1
_chemical_formula_structural   NdSm7(GeBr6)2
_chemical_formula_sum   'Nd1 Sm7 Ge2 Br12'
_cell_volume   822.99007664
_cell_formula_units_Z   1
loop_
 _symmetry_equiv_pos_site_id
 _symmetry_equiv_pos_as_xyz
  1  'x, y, z'
loop_
 _atom_site_type_symbol
 _atom_site_label
 _atom_site_symmetry_multiplicity
 _atom_site_fract_x
 _atom_site_fract_y
 _atom_site_fract_z
 _atom_site_occupancy
  Nd  Nd0  1  0.000000  0.379816  0.079879  1
  Sm  Sm1  1  0.500000  0.118740  0.341052  1
  Sm  Sm2  1  0.500000  0.881371  0.658914  1
  Sm  Sm3  1  0.500000  0.618957  0.159545  1
  Sm  Sm4  1  0.500000  0.380853  0.840576  1
  Sm  Sm5  1  0.000000  0.119354  0.579254  1
  Sm  Sm6  1  0.000000  0.880753  0.420514  1
  Sm  Sm7  1  0.000000  0.620409  0.919937  1
  Ge  Ge8  1  0.500000  0.000018  0.500045  1
  Ge  Ge9  1  0.500000  0.501475  0.999030  1
  Br  Br10  1  0.500000  0.242837  0.164784  1
  Br  Br11  1  0.500000  0.755330  0.836563  1
  Br  Br12  1  0.500000  0.745070  0.337008  1
  Br  Br13  1  0.500000  0.254706  0.663180  1
  Br  Br14  1  0.000000  0.253057  0.411473  1
  Br  Br15  1  0.000000  0.747101  0.588586  1
  Br  Br16  1  0.000000  0.752952  0.088757  1
  Br  Br17  1  0.000000  0.245909  0.909667  1
  Br  Br18  1  0.000000  0.002635  0.245302  1
  Br  Br19  1  0.000000  0.997456  0.754548  1
  Br  Br20  1  0.000000  0.503888  0.256083  1
  Br  Br21  1  0.000000  0.497310  0.745302  1
