# generated using pymatgen
data_CeNd7Zn8PdRh7
_symmetry_space_group_name_H-M   'P 1'
_cell_length_a   3.97887300
_cell_length_b   7.41603475
_cell_length_c   16.58002202
_cell_angle_alpha   90.02331712
_cell_angle_beta   90.00000000
_cell_angle_gamma   90.00000000
_symmetry_Int_Tables_number   1
_chemical_formula_structural   CeNd7Zn8PdRh7
_chemical_formula_sum   'Ce1 Nd7 Zn8 Pd1 Rh7'
_cell_volume   489.23430341
_cell_formula_units_Z   1
loop_
 _symmetry_equiv_pos_site_id
 _symmetry_equiv_pos_as_xyz
  1  'x, y, z'
loop_
 _atom_site_type_symbol
 _atom_site_label
 _atom_site_symmetry_multiplicity
 _atom_site_fract_x
 _atom_site_fract_y
 _atom_site_fract_z
 _atom_site_occupancy
  Ce  Ce0  1  0.250000  0.174319  0.939841  1
  Nd  Nd1  1  0.250000  0.666678  0.565125  1
  Nd  Nd2  1  0.750000  0.327167  0.439641  1
  Nd  Nd3  1  0.750000  0.953402  0.280786  1
  Nd  Nd4  1  0.750000  0.830164  0.060081  1
  Nd  Nd5  1  0.750000  0.447803  0.214007  1
  Nd  Nd6  1  0.250000  0.049263  0.716414  1
  Nd  Nd7  1  0.250000  0.550417  0.785835  1
  Zn  Zn8  1  0.750000  0.003985  0.562420  1
  Zn  Zn9  1  0.250000  0.619040  0.345394  1
  Zn  Zn10  1  0.750000  0.379152  0.652758  1
  Zn  Zn11  1  0.250000  0.500397  0.059265  1
  Zn  Zn12  1  0.750000  0.506360  0.939709  1
  Zn  Zn13  1  0.250000  0.001091  0.440374  1
  Zn  Zn14  1  0.250000  0.122178  0.149286  1
  Zn  Zn15  1  0.750000  0.880919  0.848542  1
  Pd  Pd16  1  0.750000  0.755178  0.433858  1
  Rh  Rh17  1  0.250000  0.244549  0.313207  1
  Rh  Rh18  1  0.750000  0.246513  0.823039  1
  Rh  Rh19  1  0.750000  0.753694  0.685972  1
  Rh  Rh20  1  0.250000  0.245657  0.566002  1
  Rh  Rh21  1  0.250000  0.743562  0.186847  1
  Rh  Rh22  1  0.750000  0.247856  0.057011  1
  Rh  Rh23  1  0.250000  0.750657  0.934586  1
