# generated using pymatgen
data_CaCeNd2CdIr
_symmetry_space_group_name_H-M   'P 1'
_cell_length_a   9.94720889
_cell_length_b   9.94720953
_cell_length_c   9.85719600
_cell_angle_alpha   60.29889386
_cell_angle_beta   60.29889173
_cell_angle_gamma   59.40221239
_symmetry_Int_Tables_number   1
_chemical_formula_structural   CaCeNd2CdIr
_chemical_formula_sum   'Ca4 Ce4 Nd8 Cd4 Ir4'
_cell_volume   689.55735806
_cell_formula_units_Z   4
loop_
 _symmetry_equiv_pos_site_id
 _symmetry_equiv_pos_as_xyz
  1  'x, y, z'
loop_
 _atom_site_type_symbol
 _atom_site_label
 _atom_site_symmetry_multiplicity
 _atom_site_fract_x
 _atom_site_fract_y
 _atom_site_fract_z
 _atom_site_occupancy
  Ca  Ca0  1  0.807842  0.192158  0.192158  1
  Ca  Ca1  1  0.192158  0.807842  0.807842  1
  Ca  Ca2  1  0.192158  0.807842  0.192158  1
  Ca  Ca3  1  0.807842  0.192158  0.807842  1
  Ce  Ce4  1  0.347364  0.347364  0.341741  1
  Ce  Ce5  1  0.347364  0.347364  0.963529  1
  Ce  Ce6  1  0.341741  0.963529  0.347364  1
  Ce  Ce7  1  0.963529  0.341741  0.347364  1
  Nd  Nd8  1  0.189332  0.189332  0.810668  1
  Nd  Nd9  1  0.810668  0.810668  0.189332  1
  Nd  Nd10  1  0.941684  0.558316  0.558316  1
  Nd  Nd11  1  0.558316  0.941684  0.941684  1
  Nd  Nd12  1  0.558316  0.941684  0.558316  1
  Nd  Nd13  1  0.941684  0.558316  0.941684  1
  Nd  Nd14  1  0.558114  0.558114  0.941886  1
  Nd  Nd15  1  0.941886  0.941886  0.558114  1
  Cd  Cd16  1  0.579811  0.579811  0.578206  1
  Cd  Cd17  1  0.579811  0.579811  0.262171  1
  Cd  Cd18  1  0.578206  0.262171  0.579811  1
  Cd  Cd19  1  0.262171  0.578206  0.579811  1
  Ir  Ir20  1  0.149436  0.149436  0.140521  1
  Ir  Ir21  1  0.149436  0.149436  0.560604  1
  Ir  Ir22  1  0.140521  0.560604  0.149436  1
  Ir  Ir23  1  0.560604  0.140521  0.149436  1
