# generated using pymatgen
data_YbY4(PtPb2)2
_symmetry_space_group_name_H-M   'P 1'
_cell_length_a   3.76397600
_cell_length_b   8.25945300
_cell_length_c   18.36515500
_cell_angle_alpha   90.00000000
_cell_angle_beta   90.00000000
_cell_angle_gamma   90.00000000
_symmetry_Int_Tables_number   1
_chemical_formula_structural   YbY4(PtPb2)2
_chemical_formula_sum   'Yb2 Y8 Pt4 Pb8'
_cell_volume   570.94297002
_cell_formula_units_Z   2
loop_
 _symmetry_equiv_pos_site_id
 _symmetry_equiv_pos_as_xyz
  1  'x, y, z'
loop_
 _atom_site_type_symbol
 _atom_site_label
 _atom_site_symmetry_multiplicity
 _atom_site_fract_x
 _atom_site_fract_y
 _atom_site_fract_z
 _atom_site_occupancy
  Yb  Yb0  1  0.000000  0.000000  0.000000  1
  Yb  Yb1  1  0.000000  0.500000  0.500000  1
  Y  Y2  1  0.000000  0.117038  0.413144  1
  Y  Y3  1  0.000000  0.882962  0.586856  1
  Y  Y4  1  0.000000  0.382962  0.913144  1
  Y  Y5  1  0.000000  0.617038  0.086856  1
  Y  Y6  1  0.000000  0.242230  0.217974  1
  Y  Y7  1  0.000000  0.757770  0.782026  1
  Y  Y8  1  0.000000  0.257770  0.717974  1
  Y  Y9  1  0.000000  0.742230  0.282026  1
  Pt  Pt10  1  0.500000  0.031266  0.302782  1
  Pt  Pt11  1  0.500000  0.968734  0.697218  1
  Pt  Pt12  1  0.500000  0.468734  0.802782  1
  Pt  Pt13  1  0.500000  0.531266  0.197218  1
  Pb  Pb14  1  0.500000  0.418780  0.351279  1
  Pb  Pb15  1  0.500000  0.581220  0.648721  1
  Pb  Pb16  1  0.500000  0.081220  0.851279  1
  Pb  Pb17  1  0.500000  0.918780  0.148721  1
  Pb  Pb18  1  0.500000  0.293720  0.063809  1
  Pb  Pb19  1  0.500000  0.706280  0.936191  1
  Pb  Pb20  1  0.500000  0.206280  0.563809  1
  Pb  Pb21  1  0.500000  0.793720  0.436191  1
