# generated using pymatgen
data_TbDy3Tm4Ga3Co
_symmetry_space_group_name_H-M   'P 1'
_cell_length_a   9.91588800
_cell_length_b   9.91588671
_cell_length_c   6.95420100
_cell_angle_alpha   90.00000000
_cell_angle_beta   90.00000000
_cell_angle_gamma   119.99999762
_symmetry_Int_Tables_number   1
_chemical_formula_structural   TbDy3Tm4Ga3Co
_chemical_formula_sum   'Tb2 Dy6 Tm8 Ga6 Co2'
_cell_volume   592.16270330
_cell_formula_units_Z   2
loop_
 _symmetry_equiv_pos_site_id
 _symmetry_equiv_pos_as_xyz
  1  'x, y, z'
loop_
 _atom_site_type_symbol
 _atom_site_label
 _atom_site_symmetry_multiplicity
 _atom_site_fract_x
 _atom_site_fract_y
 _atom_site_fract_z
 _atom_site_occupancy
  Tb  Tb0  1  0.000000  0.000000  0.769094  1
  Tb  Tb1  1  0.000000  0.000000  0.269094  1
  Dy  Dy2  1  0.536348  0.072693  0.791709  1
  Dy  Dy3  1  0.927307  0.463652  0.791709  1
  Dy  Dy4  1  0.536348  0.463652  0.791709  1
  Dy  Dy5  1  0.463652  0.927307  0.291709  1
  Dy  Dy6  1  0.072693  0.536348  0.291709  1
  Dy  Dy7  1  0.463652  0.536348  0.291709  1
  Tm  Tm8  1  0.826469  0.652938  0.487436  1
  Tm  Tm9  1  0.347062  0.173531  0.487436  1
  Tm  Tm10  1  0.826469  0.173531  0.487436  1
  Tm  Tm11  1  0.173531  0.347062  0.987436  1
  Tm  Tm12  1  0.652938  0.826469  0.987436  1
  Tm  Tm13  1  0.173531  0.826469  0.987436  1
  Tm  Tm14  1  0.666667  0.333333  0.174294  1
  Tm  Tm15  1  0.333333  0.666667  0.674294  1
  Ga  Ga16  1  0.836192  0.672383  0.043023  1
  Ga  Ga17  1  0.327617  0.163808  0.043023  1
  Ga  Ga18  1  0.836192  0.163808  0.043023  1
  Ga  Ga19  1  0.163808  0.327617  0.543023  1
  Ga  Ga20  1  0.672383  0.836192  0.543023  1
  Ga  Ga21  1  0.163808  0.836192  0.543023  1
  Co  Co22  1  0.666667  0.333333  0.553145  1
  Co  Co23  1  0.333333  0.666667  0.053145  1
