# generated using pymatgen
data_CaLa3Th2(ScBi5)2
_symmetry_space_group_name_H-M   'P 1'
_cell_length_a   9.73492000
_cell_length_b   9.79822084
_cell_length_c   6.63254300
_cell_angle_alpha   90.00000000
_cell_angle_beta   90.00000000
_cell_angle_gamma   119.78651942
_symmetry_Int_Tables_number   1
_chemical_formula_structural   CaLa3Th2(ScBi5)2
_chemical_formula_sum   'Ca1 La3 Th2 Sc2 Bi10'
_cell_volume   549.06093438
_cell_formula_units_Z   1
loop_
 _symmetry_equiv_pos_site_id
 _symmetry_equiv_pos_as_xyz
  1  'x, y, z'
loop_
 _atom_site_type_symbol
 _atom_site_label
 _atom_site_symmetry_multiplicity
 _atom_site_fract_x
 _atom_site_fract_y
 _atom_site_fract_z
 _atom_site_occupancy
  Ca  Ca0  1  0.382092  0.000000  0.750000  1
  La  La1  1  0.616894  0.618297  0.750000  1
  La  La2  1  0.618673  0.000000  0.250000  1
  La  La3  1  0.998597  0.381703  0.750000  1
  Th  Th4  1  0.000316  0.620770  0.250000  1
  Th  Th5  1  0.379546  0.379230  0.250000  1
  Sc  Sc6  1  0.001314  0.000000  0.995715  1
  Sc  Sc7  1  0.001314  0.000000  0.504285  1
  Bi  Bi8  1  0.001779  0.262899  0.250000  1
  Bi  Bi9  1  0.330091  0.663252  0.496189  1
  Bi  Bi10  1  0.666840  0.336748  0.003811  1
  Bi  Bi11  1  0.330091  0.663252  0.003811  1
  Bi  Bi12  1  0.265343  0.261526  0.750000  1
  Bi  Bi13  1  0.738236  0.000000  0.750000  1
  Bi  Bi14  1  0.003816  0.738474  0.750000  1
  Bi  Bi15  1  0.738880  0.737101  0.250000  1
  Bi  Bi16  1  0.259333  0.000000  0.250000  1
  Bi  Bi17  1  0.666840  0.336748  0.496189  1
