# generated using pymatgen
data_Nd4CuRh3Pb2
_symmetry_space_group_name_H-M   'P 1'
_cell_length_a   7.82255657
_cell_length_b   7.82255545
_cell_length_c   3.85309800
_cell_angle_alpha   90.00000000
_cell_angle_beta   90.00000000
_cell_angle_gamma   90.30434270
_symmetry_Int_Tables_number   1
_chemical_formula_structural   Nd4CuRh3Pb2
_chemical_formula_sum   'Nd4 Cu1 Rh3 Pb2'
_cell_volume   235.77692029
_cell_formula_units_Z   1
loop_
 _symmetry_equiv_pos_site_id
 _symmetry_equiv_pos_as_xyz
  1  'x, y, z'
loop_
 _atom_site_type_symbol
 _atom_site_label
 _atom_site_symmetry_multiplicity
 _atom_site_fract_x
 _atom_site_fract_y
 _atom_site_fract_z
 _atom_site_occupancy
  Nd  Nd0  1  0.677565  0.177565  0.500000  1
  Nd  Nd1  1  0.336105  0.836105  0.500000  1
  Nd  Nd2  1  0.170737  0.314053  0.500000  1
  Nd  Nd3  1  0.814053  0.670737  0.500000  1
  Cu  Cu4  1  0.118507  0.618507  0.000000  1
  Rh  Rh5  1  0.883004  0.383004  0.000000  1
  Rh  Rh6  1  0.629421  0.874457  0.000000  1
  Rh  Rh7  1  0.374457  0.129421  0.000000  1
  Pb  Pb8  1  0.000851  0.995300  0.000000  1
  Pb  Pb9  1  0.495300  0.500851  0.000000  1
