# generated using pymatgen
data_Zr6Al4CuTcC2
_symmetry_space_group_name_H-M   'P 1'
_cell_length_a   8.69373534
_cell_length_b   8.69373505
_cell_length_c   8.66759100
_cell_angle_alpha   60.09943237
_cell_angle_beta   60.09943348
_cell_angle_gamma   60.06803142
_symmetry_Int_Tables_number   1
_chemical_formula_structural   Zr6Al4CuTcC2
_chemical_formula_sum   'Zr12 Al8 Cu2 Tc2 C4'
_cell_volume   464.16327134
_cell_formula_units_Z   2
loop_
 _symmetry_equiv_pos_site_id
 _symmetry_equiv_pos_as_xyz
  1  'x, y, z'
loop_
 _atom_site_type_symbol
 _atom_site_label
 _atom_site_symmetry_multiplicity
 _atom_site_fract_x
 _atom_site_fract_y
 _atom_site_fract_z
 _atom_site_occupancy
  Zr  Zr0  1  0.559938  0.943883  0.553606  1
  Zr  Zr1  1  0.306117  0.690062  0.696394  1
  Zr  Zr2  1  0.690062  0.306117  0.307427  1
  Zr  Zr3  1  0.306117  0.690062  0.307427  1
  Zr  Zr4  1  0.694694  0.694694  0.305306  1
  Zr  Zr5  1  0.306786  0.306786  0.693214  1
  Zr  Zr6  1  0.555306  0.555306  0.944694  1
  Zr  Zr7  1  0.943883  0.559938  0.553606  1
  Zr  Zr8  1  0.559938  0.943883  0.942573  1
  Zr  Zr9  1  0.943214  0.943214  0.556786  1
  Zr  Zr10  1  0.690062  0.306117  0.696394  1
  Zr  Zr11  1  0.943883  0.559938  0.942573  1
  Al  Al12  1  0.918963  0.918963  0.921090  1
  Al  Al13  1  0.007632  0.332537  0.329915  1
  Al  Al14  1  0.332537  0.007632  0.329915  1
  Al  Al15  1  0.331037  0.331037  0.009014  1
  Al  Al16  1  0.917463  0.242368  0.920085  1
  Al  Al17  1  0.918963  0.918963  0.240986  1
  Al  Al18  1  0.242368  0.917463  0.920085  1
  Al  Al19  1  0.331037  0.331037  0.328910  1
  Cu  Cu20  1  0.125000  0.125000  0.125000  1
  Cu  Cu21  1  0.125000  0.125000  0.625000  1
  Tc  Tc22  1  0.625000  0.125000  0.125000  1
  Tc  Tc23  1  0.125000  0.625000  0.125000  1
  C  C24  1  0.625000  0.625000  0.625000  1
  C  C25  1  0.125000  0.625000  0.625000  1
  C  C26  1  0.625000  0.125000  0.625000  1
  C  C27  1  0.625000  0.625000  0.125000  1
