# generated using pymatgen
data_Gd2VO5
_symmetry_space_group_name_H-M   'P 1'
_cell_length_a   3.78406500
_cell_length_b   10.53341500
_cell_length_c   11.37112300
_cell_angle_alpha   90.00000000
_cell_angle_beta   90.00000000
_cell_angle_gamma   90.00000000
_symmetry_Int_Tables_number   1
_chemical_formula_structural   Gd2VO5
_chemical_formula_sum   'Gd8 V4 O20'
_cell_volume   453.24303615
_cell_formula_units_Z   4
loop_
 _symmetry_equiv_pos_site_id
 _symmetry_equiv_pos_as_xyz
  1  'x, y, z'
loop_
 _atom_site_type_symbol
 _atom_site_label
 _atom_site_symmetry_multiplicity
 _atom_site_fract_x
 _atom_site_fract_y
 _atom_site_fract_z
 _atom_site_occupancy
  Gd  Gd0  1  0.750000  0.362679  0.444604  1
  Gd  Gd1  1  0.250000  0.637321  0.555396  1
  Gd  Gd2  1  0.750000  0.883510  0.725407  1
  Gd  Gd3  1  0.750000  0.383510  0.774593  1
  Gd  Gd4  1  0.250000  0.116490  0.274593  1
  Gd  Gd5  1  0.250000  0.616490  0.225407  1
  Gd  Gd6  1  0.750000  0.862679  0.055396  1
  Gd  Gd7  1  0.250000  0.137321  0.944604  1
  V  V8  1  0.250000  0.173013  0.619200  1
  V  V9  1  0.750000  0.326987  0.119200  1
  V  V10  1  0.750000  0.826987  0.380800  1
  V  V11  1  0.250000  0.673013  0.880800  1
  O  O12  1  0.750000  0.239446  0.268102  1
  O  O13  1  0.250000  0.260554  0.768102  1
  O  O14  1  0.250000  0.226169  0.458879  1
  O  O15  1  0.750000  0.005682  0.895128  1
  O  O16  1  0.750000  0.987684  0.345144  1
  O  O17  1  0.250000  0.494318  0.395128  1
  O  O18  1  0.750000  0.505682  0.604872  1
  O  O19  1  0.750000  0.773831  0.541121  1
  O  O20  1  0.250000  0.767272  0.383181  1
  O  O21  1  0.750000  0.732728  0.883181  1
  O  O22  1  0.750000  0.273831  0.958879  1
  O  O23  1  0.750000  0.487684  0.154856  1
  O  O24  1  0.250000  0.267272  0.116819  1
  O  O25  1  0.250000  0.012316  0.654856  1
  O  O26  1  0.750000  0.232728  0.616819  1
  O  O27  1  0.250000  0.994318  0.104872  1
  O  O28  1  0.750000  0.739446  0.231898  1
  O  O29  1  0.250000  0.726169  0.041121  1
  O  O30  1  0.250000  0.512316  0.845144  1
  O  O31  1  0.250000  0.760554  0.731898  1
