# generated using pymatgen
data_Ba2TbSc3O8
_symmetry_space_group_name_H-M   'P 1'
_cell_length_a   4.08295300
_cell_length_b   24.70721600
_cell_length_c   4.08293700
_cell_angle_alpha   89.99997961
_cell_angle_beta   89.99985967
_cell_angle_gamma   90.00033096
_symmetry_Int_Tables_number   1
_chemical_formula_structural   Ba2TbSc3O8
_chemical_formula_sum   'Ba4 Tb2 Sc6 O16'
_cell_volume   411.88015875
_cell_formula_units_Z   2
loop_
 _symmetry_equiv_pos_site_id
 _symmetry_equiv_pos_as_xyz
  1  'x, y, z'
loop_
 _atom_site_type_symbol
 _atom_site_label
 _atom_site_symmetry_multiplicity
 _atom_site_fract_x
 _atom_site_fract_y
 _atom_site_fract_z
 _atom_site_occupancy
  Ba  Ba0  1  0.499956  0.078174  0.499987  1
  Ba  Ba1  1  0.499986  0.578175  0.499972  1
  Ba  Ba2  1  0.499998  0.421828  0.499976  1
  Ba  Ba3  1  0.499956  0.921830  0.499985  1
  Tb  Tb4  1  0.500028  0.249999  0.500004  1
  Tb  Tb5  1  0.500020  0.750001  0.500014  1
  Sc  Sc6  1  0.000039  0.500017  0.000056  1
  Sc  Sc7  1  0.000009  0.670472  0.000000  1
  Sc  Sc8  1  0.000030  0.329528  0.999998  1
  Sc  Sc9  1  0.999941  0.999999  0.000076  1
  Sc  Sc10  1  0.000017  0.170472  0.999994  1
  Sc  Sc11  1  0.000008  0.829531  0.000007  1
  O  O12  1  0.999982  0.000002  0.499967  1
  O  O13  1  0.000006  0.500006  0.499970  1
  O  O14  1  0.499885  0.000002  0.999992  1
  O  O15  1  0.499956  0.500005  0.999972  1
  O  O16  1  0.999994  0.091532  0.000000  1
  O  O17  1  0.000007  0.591534  0.999987  1
  O  O18  1  0.000014  0.408463  0.999982  1
  O  O19  1  0.999992  0.908464  0.000002  1
  O  O20  1  0.500022  0.193642  0.000004  1
  O  O21  1  0.500017  0.693644  0.000011  1
  O  O22  1  0.000023  0.193642  0.500009  1
  O  O23  1  0.000019  0.693643  0.500009  1
  O  O24  1  0.500029  0.306346  0.000003  1
  O  O25  1  0.500018  0.806351  0.000013  1
  O  O26  1  0.000027  0.306348  0.499998  1
  O  O27  1  0.000019  0.806351  0.500013  1
