# generated using pymatgen
data_NdHo11Tc4
_symmetry_space_group_name_H-M   'P 1'
_cell_length_a   6.28110800
_cell_length_b   7.39497477
_cell_length_c   9.19317600
_cell_angle_alpha   90.00000000
_cell_angle_beta   90.00000000
_cell_angle_gamma   90.46997173
_symmetry_Int_Tables_number   1
_chemical_formula_structural   NdHo11Tc4
_chemical_formula_sum   'Nd1 Ho11 Tc4'
_cell_volume   426.99611343
_cell_formula_units_Z   1
loop_
 _symmetry_equiv_pos_site_id
 _symmetry_equiv_pos_as_xyz
  1  'x, y, z'
loop_
 _atom_site_type_symbol
 _atom_site_label
 _atom_site_symmetry_multiplicity
 _atom_site_fract_x
 _atom_site_fract_y
 _atom_site_fract_z
 _atom_site_occupancy
  Nd  Nd0  1  0.372342  0.541540  0.250000  1
  Ho  Ho1  1  0.664079  0.176046  0.062377  1
  Ho  Ho2  1  0.126385  0.040746  0.250000  1
  Ho  Ho3  1  0.837933  0.675072  0.437857  1
  Ho  Ho4  1  0.337015  0.826413  0.935059  1
  Ho  Ho5  1  0.163137  0.323167  0.565269  1
  Ho  Ho6  1  0.664079  0.176046  0.437623  1
  Ho  Ho7  1  0.163137  0.323167  0.934731  1
  Ho  Ho8  1  0.337015  0.826413  0.564941  1
  Ho  Ho9  1  0.871949  0.957443  0.750000  1
  Ho  Ho10  1  0.627069  0.459900  0.750000  1
  Ho  Ho11  1  0.837933  0.675072  0.062143  1
  Tc  Tc12  1  0.962007  0.383775  0.250000  1
  Tc  Tc13  1  0.460975  0.114661  0.750000  1
  Tc  Tc14  1  0.537103  0.887081  0.250000  1
  Tc  Tc15  1  0.037839  0.613463  0.750000  1
