# generated using pymatgen
data_Y5Al2SiC4
_symmetry_space_group_name_H-M   'P 1'
_cell_length_a   10.78276800
_cell_length_b   10.78276800
_cell_length_c   3.52390400
_cell_angle_alpha   90.00000000
_cell_angle_beta   90.00000000
_cell_angle_gamma   90.00000000
_symmetry_Int_Tables_number   1
_chemical_formula_structural   Y5Al2SiC4
_chemical_formula_sum   'Y10 Al4 Si2 C8'
_cell_volume   409.71757242
_cell_formula_units_Z   2
loop_
 _symmetry_equiv_pos_site_id
 _symmetry_equiv_pos_as_xyz
  1  'x, y, z'
loop_
 _atom_site_type_symbol
 _atom_site_label
 _atom_site_symmetry_multiplicity
 _atom_site_fract_x
 _atom_site_fract_y
 _atom_site_fract_z
 _atom_site_occupancy
  Y  Y0  1  0.550888  0.724422  0.500000  1
  Y  Y1  1  0.449112  0.275578  0.500000  1
  Y  Y2  1  0.050888  0.775578  0.500000  1
  Y  Y3  1  0.949112  0.224422  0.500000  1
  Y  Y4  1  0.275578  0.550888  0.500000  1
  Y  Y5  1  0.724422  0.449112  0.500000  1
  Y  Y6  1  0.224422  0.050888  0.500000  1
  Y  Y7  1  0.775578  0.949112  0.500000  1
  Y  Y8  1  0.500000  0.000000  0.000000  1
  Y  Y9  1  0.000000  0.500000  0.000000  1
  Al  Al10  1  0.703663  0.203663  0.000000  1
  Al  Al11  1  0.296337  0.796337  0.000000  1
  Al  Al12  1  0.203663  0.296337  0.000000  1
  Al  Al13  1  0.796337  0.703663  0.000000  1
  Si  Si14  1  0.500000  0.500000  0.000000  1
  Si  Si15  1  0.000000  0.000000  0.000000  1
  C  C16  1  0.634086  0.134086  0.500000  1
  C  C17  1  0.365914  0.865914  0.500000  1
  C  C18  1  0.134086  0.365914  0.500000  1
  C  C19  1  0.865914  0.634086  0.500000  1
  C  C20  1  0.163170  0.663170  0.000000  1
  C  C21  1  0.836830  0.336830  0.000000  1
  C  C22  1  0.663170  0.836830  0.000000  1
  C  C23  1  0.336830  0.163170  0.000000  1
