# generated using pymatgen
data_Y10Ho6In3HgRh4
_symmetry_space_group_name_H-M   'P 1'
_cell_length_a   9.66637150
_cell_length_b   9.66852550
_cell_length_c   9.64032870
_cell_angle_alpha   59.97068977
_cell_angle_beta   60.07738499
_cell_angle_gamma   60.06202885
_symmetry_Int_Tables_number   1
_chemical_formula_structural   Y10Ho6In3HgRh4
_chemical_formula_sum   'Y10 Ho6 In3 Hg1 Rh4'
_cell_volume   637.61839898
_cell_formula_units_Z   1
loop_
 _symmetry_equiv_pos_site_id
 _symmetry_equiv_pos_as_xyz
  1  'x, y, z'
loop_
 _atom_site_type_symbol
 _atom_site_label
 _atom_site_symmetry_multiplicity
 _atom_site_fract_x
 _atom_site_fract_y
 _atom_site_fract_z
 _atom_site_occupancy
  Y  Y0  1  0.188648  0.189379  0.810737  1
  Y  Y1  1  0.602562  0.601748  0.197647  1
  Y  Y2  1  0.440167  0.059025  0.440135  1
  Y  Y3  1  0.440231  0.439962  0.058886  1
  Y  Y4  1  0.813370  0.185696  0.812094  1
  Y  Y5  1  0.187783  0.811825  0.189400  1
  Y  Y6  1  0.436664  0.060863  0.060355  1
  Y  Y7  1  0.185507  0.813113  0.812033  1
  Y  Y8  1  0.060983  0.436424  0.060468  1
  Y  Y9  1  0.813771  0.813562  0.185174  1
  Ho  Ho10  1  0.197966  0.602192  0.601570  1
  Ho  Ho11  1  0.059505  0.439676  0.439864  1
  Ho  Ho12  1  0.060718  0.060736  0.436557  1
  Ho  Ho13  1  0.811799  0.188292  0.189182  1
  Ho  Ho14  1  0.602365  0.198747  0.600899  1
  Ho  Ho15  1  0.598370  0.598029  0.597252  1
  In  In16  1  0.831907  0.832042  0.502992  1
  In  In17  1  0.502793  0.832196  0.831859  1
  In  In18  1  0.831980  0.502850  0.832141  1
  Hg  Hg19  1  0.835766  0.836060  0.835844  1
  Rh  Rh20  1  0.388853  0.821993  0.394745  1
  Rh  Rh21  1  0.391224  0.393739  0.396432  1
  Rh  Rh22  1  0.823749  0.389011  0.395213  1
  Rh  Rh23  1  0.393320  0.392841  0.818521  1
