# generated using pymatgen
data_Zr6Re5Si6Ru
_symmetry_space_group_name_H-M   'P 1'
_cell_length_a   7.79831220
_cell_length_b   7.80013347
_cell_length_c   7.79849240
_cell_angle_alpha   126.67938341
_cell_angle_beta   127.61236899
_cell_angle_gamma   78.01209946
_symmetry_Int_Tables_number   1
_chemical_formula_structural   Zr6Re5Si6Ru
_chemical_formula_sum   'Zr6 Re5 Si6 Ru1'
_cell_volume   292.03574543
_cell_formula_units_Z   1
loop_
 _symmetry_equiv_pos_site_id
 _symmetry_equiv_pos_as_xyz
  1  'x, y, z'
loop_
 _atom_site_type_symbol
 _atom_site_label
 _atom_site_symmetry_multiplicity
 _atom_site_fract_x
 _atom_site_fract_y
 _atom_site_fract_z
 _atom_site_occupancy
  Zr  Zr0  1  0.451379  0.661017  0.707331  1
  Zr  Zr1  1  0.547970  0.253415  0.203922  1
  Zr  Zr2  1  0.749430  0.845418  0.597923  1
  Zr  Zr3  1  0.247824  0.845882  0.095943  1
  Zr  Zr4  1  0.049857  0.253344  0.704814  1
  Zr  Zr5  1  0.953287  0.660422  0.209325  1
  Re  Re6  1  0.500262  0.505716  0.005449  1
  Re  Re7  1  0.999634  0.506281  0.506843  1
  Re  Re8  1  0.126384  0.253440  0.126337  1
  Re  Re9  1  0.873503  0.000362  0.127433  1
  Re  Re10  1  0.373802  0.000932  0.626767  1
  Si  Si11  1  0.251725  0.253473  0.502276  1
  Si  Si12  1  0.750754  0.253049  0.002101  1
  Si  Si13  1  0.332345  0.585864  0.252631  1
  Si  Si14  1  0.666688  0.920539  0.254312  1
  Si  Si15  1  0.165979  0.921526  0.754829  1
  Si  Si16  1  0.832613  0.585648  0.753683  1
  Ru  Ru17  1  0.626568  0.253274  0.627683  1
