# generated using pymatgen
data_Nd2ZnSi2GeRh6
_symmetry_space_group_name_H-M   'P 1'
_cell_length_a   6.74841879
_cell_length_b   6.76277710
_cell_length_c   6.74841845
_cell_angle_alpha   130.61909726
_cell_angle_beta   113.13640230
_cell_angle_gamma   87.40718187
_symmetry_Int_Tables_number   1
_chemical_formula_structural   Nd2ZnSi2GeRh6
_chemical_formula_sum   'Nd2 Zn1 Si2 Ge1 Rh6'
_cell_volume   204.95996499
_cell_formula_units_Z   1
loop_
 _symmetry_equiv_pos_site_id
 _symmetry_equiv_pos_as_xyz
  1  'x, y, z'
loop_
 _atom_site_type_symbol
 _atom_site_label
 _atom_site_symmetry_multiplicity
 _atom_site_fract_x
 _atom_site_fract_y
 _atom_site_fract_z
 _atom_site_occupancy
  Nd  Nd0  1  0.747511  0.029743  0.282231  1
  Nd  Nd1  1  0.250158  0.964097  0.713939  1
  Zn  Zn2  1  0.417992  0.627259  0.209267  1
  Si  Si3  1  0.095684  0.309187  0.213503  1
  Si  Si4  1  0.918262  0.704317  0.786055  1
  Ge  Ge5  1  0.567962  0.360648  0.792686  1
  Rh  Rh6  1  0.209019  0.498347  0.705788  1
  Rh  Rh7  1  0.748249  0.002093  0.747700  1
  Rh  Rh8  1  0.792559  0.498347  0.289327  1
  Rh  Rh9  1  0.254392  0.002093  0.253842  1
  Rh  Rh10  1  0.512411  0.501935  0.516134  1
  Rh  Rh11  1  0.985802  0.501935  0.989526  1
