# generated using pymatgen
data_BeNb9CoS6
_symmetry_space_group_name_H-M   'P 1'
_cell_length_a   10.22242400
_cell_length_b   10.22242361
_cell_length_c   3.40060700
_cell_angle_alpha   90.00000000
_cell_angle_beta   90.00000000
_cell_angle_gamma   119.99999479
_symmetry_Int_Tables_number   1
_chemical_formula_structural   BeNb9CoS6
_chemical_formula_sum   'Be1 Nb9 Co1 S6'
_cell_volume   307.74773359
_cell_formula_units_Z   1
loop_
 _symmetry_equiv_pos_site_id
 _symmetry_equiv_pos_as_xyz
  1  'x, y, z'
loop_
 _atom_site_type_symbol
 _atom_site_label
 _atom_site_symmetry_multiplicity
 _atom_site_fract_x
 _atom_site_fract_y
 _atom_site_fract_z
 _atom_site_occupancy
  Be  Be0  1  0.666667  0.333333  0.000000  1
  Nb  Nb1  1  0.550802  0.540639  0.000000  1
  Nb  Nb2  1  0.459361  0.010162  0.000000  1
  Nb  Nb3  1  0.989838  0.449198  0.000000  1
  Nb  Nb4  1  0.801538  0.536514  0.500000  1
  Nb  Nb5  1  0.463486  0.265023  0.500000  1
  Nb  Nb6  1  0.734977  0.198462  0.500000  1
  Nb  Nb7  1  0.538193  0.804024  0.500000  1
  Nb  Nb8  1  0.265830  0.461807  0.500000  1
  Nb  Nb9  1  0.195976  0.734170  0.500000  1
  Co  Co10  1  0.333333  0.666667  0.000000  1
  S  S11  1  0.726184  0.727127  0.500000  1
  S  S12  1  0.272873  0.999056  0.500000  1
  S  S13  1  0.000944  0.273816  0.500000  1
  S  S14  1  0.299137  0.296011  0.000000  1
  S  S15  1  0.703989  0.003125  0.000000  1
  S  S16  1  0.996875  0.700863  0.000000  1
