# generated using pymatgen
data_SrCa9(Cr2N7)2
_symmetry_space_group_name_H-M   'P 1'
_cell_length_a   6.07975691
_cell_length_b   8.61375878
_cell_length_c   8.72992026
_cell_angle_alpha   114.34287136
_cell_angle_beta   97.44210189
_cell_angle_gamma   89.01069346
_symmetry_Int_Tables_number   1
_chemical_formula_structural   SrCa9(Cr2N7)2
_chemical_formula_sum   'Sr1 Ca9 Cr4 N14'
_cell_volume   412.69724526
_cell_formula_units_Z   1
loop_
 _symmetry_equiv_pos_site_id
 _symmetry_equiv_pos_as_xyz
  1  'x, y, z'
loop_
 _atom_site_type_symbol
 _atom_site_label
 _atom_site_symmetry_multiplicity
 _atom_site_fract_x
 _atom_site_fract_y
 _atom_site_fract_z
 _atom_site_occupancy
  Sr  Sr0  1  0.854492  0.586935  0.334983  1
  Ca  Ca1  1  0.264634  0.983733  0.561794  1
  Ca  Ca2  1  0.716297  0.418545  0.854896  1
  Ca  Ca3  1  0.287132  0.580274  0.139356  1
  Ca  Ca4  1  0.408346  0.788209  0.916474  1
  Ca  Ca5  1  0.587617  0.210454  0.079080  1
  Ca  Ca6  1  0.157741  0.407201  0.670392  1
  Ca  Ca7  1  0.897510  0.851707  0.770814  1
  Ca  Ca8  1  0.102296  0.151252  0.231299  1
  Ca  Ca9  1  0.736739  0.017382  0.437276  1
  Cr  Cr10  1  0.570134  0.358361  0.473652  1
  Cr  Cr11  1  0.425731  0.643680  0.530391  1
  Cr  Cr12  1  0.124752  0.212919  0.908394  1
  Cr  Cr13  1  0.875876  0.785414  0.086875  1
  N  N14  1  0.540822  0.548153  0.676801  1
  N  N15  1  0.446801  0.449439  0.325010  1
  N  N16  1  0.166357  0.708490  0.578968  1
  N  N17  1  0.838448  0.302854  0.437724  1
  N  N18  1  0.408818  0.190213  0.465856  1
  N  N19  1  0.588684  0.811117  0.538596  1
  N  N20  1  0.957568  0.138279  0.711928  1
  N  N21  1  0.044942  0.859789  0.283219  1
  N  N22  1  0.234019  0.048149  0.957786  1
  N  N23  1  0.767128  0.953300  0.041879  1
  N  N24  1  0.356565  0.326249  0.897750  1
  N  N25  1  0.968004  0.339477  0.068444  1
  N  N26  1  0.029223  0.654176  0.923550  1
  N  N27  1  0.643324  0.674246  0.096813  1
