# generated using pymatgen
data_La3CoCu5Ni7B2
_symmetry_space_group_name_H-M   'P 1'
_cell_length_a   5.15508658
_cell_length_b   5.12245160
_cell_length_c   10.93982200
_cell_angle_alpha   89.99677104
_cell_angle_beta   90.00637882
_cell_angle_gamma   119.94862145
_symmetry_Int_Tables_number   1
_chemical_formula_structural   La3CoCu5Ni7B2
_chemical_formula_sum   'La3 Co1 Cu5 Ni7 B2'
_cell_volume   250.31064759
_cell_formula_units_Z   1
loop_
 _symmetry_equiv_pos_site_id
 _symmetry_equiv_pos_as_xyz
  1  'x, y, z'
loop_
 _atom_site_type_symbol
 _atom_site_label
 _atom_site_symmetry_multiplicity
 _atom_site_fract_x
 _atom_site_fract_y
 _atom_site_fract_z
 _atom_site_occupancy
  La  La0  1  0.000026  0.000025  0.001722  1
  La  La1  1  0.000011  0.000001  0.323508  1
  La  La2  1  0.000023  0.000001  0.673445  1
  Co  Co3  1  0.000024  0.499990  0.125891  1
  Cu  Cu4  1  0.500025  0.999995  0.499794  1
  Cu  Cu5  1  0.330238  0.662429  0.315433  1
  Cu  Cu6  1  0.669718  0.337523  0.315428  1
  Cu  Cu7  1  0.667941  0.336468  0.684415  1
  Cu  Cu8  1  0.332097  0.663524  0.684438  1
  Ni  Ni9  1  0.499956  0.499991  0.500216  1
  Ni  Ni10  1  0.999939  0.500013  0.499754  1
  Ni  Ni11  1  0.500063  0.999944  0.129018  1
  Ni  Ni12  1  0.500289  0.500000  0.128943  1
  Ni  Ni13  1  0.499905  0.000056  0.871966  1
  Ni  Ni14  1  0.499826  0.500018  0.871994  1
  Ni  Ni15  1  0.999806  0.500013  0.871108  1
  B  B16  1  0.328628  0.664868  0.001464  1
  B  B17  1  0.671387  0.335140  0.001460  1
