# generated using pymatgen
data_RbBe3H7
_symmetry_space_group_name_H-M   'P 1'
_cell_length_a   4.52330550
_cell_length_b   4.30550078
_cell_length_c   7.64474258
_cell_angle_alpha   78.26167705
_cell_angle_beta   114.20770978
_cell_angle_gamma   77.53885151
_symmetry_Int_Tables_number   1
_chemical_formula_structural   RbBe3H7
_chemical_formula_sum   'Rb1 Be3 H7'
_cell_volume   125.26578404
_cell_formula_units_Z   1
loop_
 _symmetry_equiv_pos_site_id
 _symmetry_equiv_pos_as_xyz
  1  'x, y, z'
loop_
 _atom_site_type_symbol
 _atom_site_label
 _atom_site_symmetry_multiplicity
 _atom_site_fract_x
 _atom_site_fract_y
 _atom_site_fract_z
 _atom_site_occupancy
  Rb  Rb0  1  0.403293  0.080581  0.474228  1
  Be  Be1  1  0.642975  0.906172  0.102364  1
  Be  Be2  1  0.111203  0.793780  0.004286  1
  Be  Be3  1  0.100503  0.323709  0.820732  1
  H  H4  1  0.760848  0.048489  0.253229  1
  H  H5  1  0.947577  0.155608  0.924985  1
  H  H6  1  0.064278  0.662550  0.839227  1
  H  H7  1  0.465767  0.682866  0.157009  1
  H  H8  1  0.932204  0.662248  0.105336  1
  H  H9  1  0.922601  0.388092  0.610333  1
  H  H10  1  0.451525  0.134729  0.893682  1
