# generated using pymatgen
data_Sm2Er5Tm3(In2Pt)4
_symmetry_space_group_name_H-M   'P 1'
_cell_length_a   3.60267500
_cell_length_b   8.16482700
_cell_length_c   18.26238700
_cell_angle_alpha   90.00226239
_cell_angle_beta   90.00000000
_cell_angle_gamma   90.00000000
_symmetry_Int_Tables_number   1
_chemical_formula_structural   Sm2Er5Tm3(In2Pt)4
_chemical_formula_sum   'Sm2 Er5 Tm3 In8 Pt4'
_cell_volume   537.19209665
_cell_formula_units_Z   1
loop_
 _symmetry_equiv_pos_site_id
 _symmetry_equiv_pos_as_xyz
  1  'x, y, z'
loop_
 _atom_site_type_symbol
 _atom_site_label
 _atom_site_symmetry_multiplicity
 _atom_site_fract_x
 _atom_site_fract_y
 _atom_site_fract_z
 _atom_site_occupancy
  Sm  Sm0  1  0.000000  0.000061  0.999991  1
  Sm  Sm1  1  0.000000  0.500011  0.500005  1
  Er  Er2  1  0.000000  0.617365  0.086041  1
  Er  Er3  1  0.000000  0.242986  0.220267  1
  Er  Er4  1  0.000000  0.756976  0.779769  1
  Er  Er5  1  0.000000  0.256964  0.720196  1
  Er  Er6  1  0.000000  0.743049  0.279824  1
  Tm  Tm7  1  0.000000  0.117208  0.413748  1
  Tm  Tm8  1  0.000000  0.882778  0.586252  1
  Tm  Tm9  1  0.000000  0.382815  0.913708  1
  In  In10  1  0.500000  0.422467  0.349720  1
  In  In11  1  0.500000  0.577523  0.650304  1
  In  In12  1  0.500000  0.077497  0.849711  1
  In  In13  1  0.500000  0.922763  0.150346  1
  In  In14  1  0.500000  0.295643  0.067073  1
  In  In15  1  0.500000  0.704112  0.932822  1
  In  In16  1  0.500000  0.204062  0.567082  1
  In  In17  1  0.500000  0.795927  0.432915  1
  Pt  Pt18  1  0.500000  0.024655  0.303567  1
  Pt  Pt19  1  0.500000  0.975353  0.696430  1
  Pt  Pt20  1  0.500000  0.475330  0.803562  1
  Pt  Pt21  1  0.500000  0.524454  0.196665  1
