# generated using pymatgen
data_Tb10Ho3Er7Sn16
_symmetry_space_group_name_H-M   'P 1'
_cell_length_a   8.02957532
_cell_length_b   8.17565870
_cell_length_c   15.45510400
_cell_angle_alpha   90.01643398
_cell_angle_beta   90.03290222
_cell_angle_gamma   90.01715338
_symmetry_Int_Tables_number   1
_chemical_formula_structural   Tb10Ho3Er7Sn16
_chemical_formula_sum   'Tb10 Ho3 Er7 Sn16'
_cell_volume   1014.58199910
_cell_formula_units_Z   1
loop_
 _symmetry_equiv_pos_site_id
 _symmetry_equiv_pos_as_xyz
  1  'x, y, z'
loop_
 _atom_site_type_symbol
 _atom_site_label
 _atom_site_symmetry_multiplicity
 _atom_site_fract_x
 _atom_site_fract_y
 _atom_site_fract_z
 _atom_site_occupancy
  Tb  Tb0  1  0.366519  0.836929  0.622145  1
  Tb  Tb1  1  0.866623  0.662816  0.878073  1
  Tb  Tb2  1  0.519381  0.320445  0.903109  1
  Tb  Tb3  1  0.019393  0.179500  0.596814  1
  Tb  Tb4  1  0.480887  0.679461  0.402971  1
  Tb  Tb5  1  0.980293  0.820733  0.097329  1
  Tb  Tb6  1  0.481106  0.679412  0.096894  1
  Tb  Tb7  1  0.981670  0.820733  0.403354  1
  Tb  Tb8  1  0.518640  0.320989  0.596672  1
  Tb  Tb9  1  0.019049  0.178588  0.902677  1
  Ho  Ho10  1  0.134394  0.337313  0.122206  1
  Ho  Ho11  1  0.633744  0.162991  0.122957  1
  Ho  Ho12  1  0.133785  0.337065  0.377480  1
  Er  Er13  1  0.365310  0.837549  0.876573  1
  Er  Er14  1  0.864642  0.662531  0.622866  1
  Er  Er15  1  0.634806  0.162403  0.377239  1
  Er  Er16  1  0.197235  0.503317  0.750298  1
  Er  Er17  1  0.697373  0.996871  0.749612  1
  Er  Er18  1  0.802582  0.496535  0.250637  1
  Er  Er19  1  0.302951  0.003407  0.249653  1
  Sn  Sn20  1  0.294910  0.037715  0.041382  1
  Sn  Sn21  1  0.794882  0.461588  0.458542  1
  Sn  Sn22  1  0.706935  0.962329  0.541019  1
  Sn  Sn23  1  0.207401  0.538129  0.958530  1
  Sn  Sn24  1  0.702779  0.963117  0.958570  1
  Sn  Sn25  1  0.202591  0.537112  0.541582  1
  Sn  Sn26  1  0.295972  0.039369  0.457293  1
  Sn  Sn27  1  0.794749  0.461172  0.042956  1
  Sn  Sn28  1  0.563321  0.618493  0.750243  1
  Sn  Sn29  1  0.062804  0.881881  0.749973  1
  Sn  Sn30  1  0.436551  0.380383  0.250201  1
  Sn  Sn31  1  0.937124  0.119062  0.250031  1
  Sn  Sn32  1  0.328546  0.148404  0.750116  1
  Sn  Sn33  1  0.828421  0.351591  0.749756  1
  Sn  Sn34  1  0.671345  0.852288  0.250115  1
  Sn  Sn35  1  0.171284  0.647780  0.250132  1
