# generated using pymatgen
data_Sr2CaY2Al7Ga2
_symmetry_space_group_name_H-M   'P 1'
_cell_length_a   11.92041852
_cell_length_b   11.92041858
_cell_length_c   11.92041945
_cell_angle_alpha   27.47014643
_cell_angle_beta   27.47014347
_cell_angle_gamma   27.47014814
_symmetry_Int_Tables_number   1
_chemical_formula_structural   Sr2CaY2Al7Ga2
_chemical_formula_sum   'Sr2 Ca1 Y2 Al7 Ga2'
_cell_volume   318.11095955
_cell_formula_units_Z   1
loop_
 _symmetry_equiv_pos_site_id
 _symmetry_equiv_pos_as_xyz
  1  'x, y, z'
loop_
 _atom_site_type_symbol
 _atom_site_label
 _atom_site_symmetry_multiplicity
 _atom_site_fract_x
 _atom_site_fract_y
 _atom_site_fract_z
 _atom_site_occupancy
  Sr  Sr0  1  0.497411  0.497411  0.497411  1
  Sr  Sr1  1  0.215759  0.215759  0.215759  1
  Ca  Ca2  1  0.783036  0.783036  0.783036  1
  Y  Y3  1  0.684476  0.684476  0.684476  1
  Y  Y4  1  0.316288  0.316288  0.316288  1
  Al  Al5  1  0.236303  0.718393  0.236303  1
  Al  Al6  1  0.236303  0.236303  0.718393  1
  Al  Al7  1  0.718393  0.236303  0.236303  1
  Al  Al8  1  0.765715  0.280541  0.765715  1
  Al  Al9  1  0.765715  0.765715  0.280541  1
  Al  Al10  1  0.280541  0.765715  0.765715  1
  Al  Al11  1  0.000625  0.000625  0.000625  1
  Ga  Ga12  1  0.875126  0.875126  0.875126  1
  Ga  Ga13  1  0.124309  0.124309  0.124309  1
