# generated using pymatgen
data_Dy4Ga18Co5Ni
_symmetry_space_group_name_H-M   'P 1'
_cell_length_a   7.38318247
_cell_length_b   7.38318352
_cell_length_c   9.39535111
_cell_angle_alpha   89.93466767
_cell_angle_beta   89.93467261
_cell_angle_gamma   119.87456993
_symmetry_Int_Tables_number   1
_chemical_formula_structural   Dy4Ga18Co5Ni
_chemical_formula_sum   'Dy4 Ga18 Co5 Ni1'
_cell_volume   444.09646078
_cell_formula_units_Z   1
loop_
 _symmetry_equiv_pos_site_id
 _symmetry_equiv_pos_as_xyz
  1  'x, y, z'
loop_
 _atom_site_type_symbol
 _atom_site_label
 _atom_site_symmetry_multiplicity
 _atom_site_fract_x
 _atom_site_fract_y
 _atom_site_fract_z
 _atom_site_occupancy
  Dy  Dy0  1  0.332111  0.003118  0.250449  1
  Dy  Dy1  1  0.996882  0.667889  0.749551  1
  Dy  Dy2  1  0.667889  0.996882  0.749551  1
  Dy  Dy3  1  0.003118  0.332111  0.250449  1
  Ga  Ga4  1  0.336376  0.999415  0.926814  1
  Ga  Ga5  1  0.000585  0.663624  0.073186  1
  Ga  Ga6  1  0.333892  0.999356  0.571833  1
  Ga  Ga7  1  0.000644  0.666108  0.428167  1
  Ga  Ga8  1  0.663624  0.000585  0.073186  1
  Ga  Ga9  1  0.999415  0.336376  0.926814  1
  Ga  Ga10  1  0.666108  0.000644  0.428167  1
  Ga  Ga11  1  0.999356  0.333892  0.571833  1
  Ga  Ga12  1  0.663655  0.663655  0.941613  1
  Ga  Ga13  1  0.336345  0.336345  0.058387  1
  Ga  Ga14  1  0.666710  0.666710  0.557373  1
  Ga  Ga15  1  0.333290  0.333290  0.442627  1
  Ga  Ga16  1  0.121578  0.121578  0.747978  1
  Ga  Ga17  1  0.878422  0.878422  0.252022  1
  Ga  Ga18  1  0.449482  0.663977  0.250071  1
  Ga  Ga19  1  0.336023  0.550518  0.749929  1
  Ga  Ga20  1  0.550518  0.336023  0.749929  1
  Ga  Ga21  1  0.663977  0.449482  0.250071  1
  Co  Co22  1  0.000000  0.000000  0.500000  1
  Co  Co23  1  0.328929  0.671071  0.000000  1
  Co  Co24  1  0.328892  0.671108  0.500000  1
  Co  Co25  1  0.671071  0.328929  0.000000  1
  Co  Co26  1  0.671108  0.328892  0.500000  1
  Ni  Ni27  1  0.000000  0.000000  0.000000  1
