# generated using pymatgen
data_Sr2Zn14Ir3
_symmetry_space_group_name_H-M   'P 1'
_cell_length_a   6.91389210
_cell_length_b   6.91389028
_cell_length_c   6.91389029
_cell_angle_alpha   83.17010816
_cell_angle_beta   83.17011254
_cell_angle_gamma   83.17011386
_symmetry_Int_Tables_number   1
_chemical_formula_structural   Sr2Zn14Ir3
_chemical_formula_sum   'Sr2 Zn14 Ir3'
_cell_volume   323.97752898
_cell_formula_units_Z   1
loop_
 _symmetry_equiv_pos_site_id
 _symmetry_equiv_pos_as_xyz
  1  'x, y, z'
loop_
 _atom_site_type_symbol
 _atom_site_label
 _atom_site_symmetry_multiplicity
 _atom_site_fract_x
 _atom_site_fract_y
 _atom_site_fract_z
 _atom_site_occupancy
  Sr  Sr0  1  0.664520  0.664520  0.664520  1
  Sr  Sr1  1  0.335480  0.335480  0.335480  1
  Zn  Zn2  1  0.346674  0.346674  0.850200  1
  Zn  Zn3  1  0.850200  0.346674  0.346674  1
  Zn  Zn4  1  0.102462  0.102462  0.102462  1
  Zn  Zn5  1  0.897538  0.897538  0.897538  1
  Zn  Zn6  1  0.287872  0.712128  0.000000  1
  Zn  Zn7  1  0.712128  0.000000  0.287872  1
  Zn  Zn8  1  0.000000  0.287872  0.712128  1
  Zn  Zn9  1  0.712128  0.287872  0.000000  1
  Zn  Zn10  1  0.287872  0.000000  0.712128  1
  Zn  Zn11  1  0.000000  0.712128  0.287872  1
  Zn  Zn12  1  0.149800  0.653326  0.653326  1
  Zn  Zn13  1  0.653326  0.653326  0.149800  1
  Zn  Zn14  1  0.653326  0.149800  0.653326  1
  Zn  Zn15  1  0.346674  0.850200  0.346674  1
  Ir  Ir16  1  0.000000  0.000000  0.500000  1
  Ir  Ir17  1  0.000000  0.500000  0.000000  1
  Ir  Ir18  1  0.500000  0.000000  0.000000  1
