# generated using pymatgen
data_Li3Ca4Dy4Si12Ag
_symmetry_space_group_name_H-M   'P 1'
_cell_length_a   4.28935000
_cell_length_b   10.49168024
_cell_length_c   10.99717775
_cell_angle_alpha   89.86473951
_cell_angle_beta   90.00000000
_cell_angle_gamma   90.00000000
_symmetry_Int_Tables_number   1
_chemical_formula_structural   Li3Ca4Dy4Si12Ag
_chemical_formula_sum   'Li3 Ca4 Dy4 Si12 Ag1'
_cell_volume   494.89898738
_cell_formula_units_Z   1
loop_
 _symmetry_equiv_pos_site_id
 _symmetry_equiv_pos_as_xyz
  1  'x, y, z'
loop_
 _atom_site_type_symbol
 _atom_site_label
 _atom_site_symmetry_multiplicity
 _atom_site_fract_x
 _atom_site_fract_y
 _atom_site_fract_z
 _atom_site_occupancy
  Li  Li0  1  0.500000  0.139407  0.716505  1
  Li  Li1  1  0.000000  0.360203  0.216965  1
  Li  Li2  1  0.000000  0.640282  0.784411  1
  Ca  Ca3  1  0.500000  0.822944  0.575912  1
  Ca  Ca4  1  0.500000  0.177739  0.424242  1
  Ca  Ca5  1  0.000000  0.322882  0.924747  1
  Ca  Ca6  1  0.000000  0.677731  0.076824  1
  Dy  Dy7  1  0.500000  0.552632  0.349102  1
  Dy  Dy8  1  0.500000  0.446726  0.648360  1
  Dy  Dy9  1  0.000000  0.053490  0.150467  1
  Dy  Dy10  1  0.000000  0.946384  0.853405  1
  Si  Si11  1  0.500000  0.894697  0.043960  1
  Si  Si12  1  0.500000  0.106270  0.957508  1
  Si  Si13  1  0.000000  0.394888  0.455900  1
  Si  Si14  1  0.000000  0.607095  0.543283  1
  Si  Si15  1  0.000000  0.969456  0.398596  1
  Si  Si16  1  0.000000  0.032028  0.601688  1
  Si  Si17  1  0.500000  0.466847  0.100636  1
  Si  Si18  1  0.500000  0.532262  0.898561  1
  Si  Si19  1  0.000000  0.258221  0.635943  1
  Si  Si20  1  0.000000  0.740693  0.362825  1
  Si  Si21  1  0.500000  0.757864  0.865889  1
  Si  Si22  1  0.500000  0.242732  0.136209  1
  Ag  Ag23  1  0.500000  0.856524  0.278062  1
