# generated using pymatgen
data_SrY2(ZnPd2)3
_symmetry_space_group_name_H-M   'P 1'
_cell_length_a   5.64132400
_cell_length_b   5.64132322
_cell_length_c   16.63806400
_cell_angle_alpha   90.00000000
_cell_angle_beta   90.00000000
_cell_angle_gamma   120.00000454
_symmetry_Int_Tables_number   1
_chemical_formula_structural   SrY2(ZnPd2)3
_chemical_formula_sum   'Sr2 Y4 Zn6 Pd12'
_cell_volume   458.55921948
_cell_formula_units_Z   2
loop_
 _symmetry_equiv_pos_site_id
 _symmetry_equiv_pos_as_xyz
  1  'x, y, z'
loop_
 _atom_site_type_symbol
 _atom_site_label
 _atom_site_symmetry_multiplicity
 _atom_site_fract_x
 _atom_site_fract_y
 _atom_site_fract_z
 _atom_site_occupancy
  Sr  Sr0  1  0.333333  0.666667  0.750000  1
  Sr  Sr1  1  0.666667  0.333333  0.250000  1
  Y  Y2  1  0.333333  0.666667  0.537707  1
  Y  Y3  1  0.666667  0.333333  0.037707  1
  Y  Y4  1  0.666667  0.333333  0.462293  1
  Y  Y5  1  0.333333  0.666667  0.962293  1
  Zn  Zn6  1  0.000000  0.000000  0.250000  1
  Zn  Zn7  1  0.000000  0.000000  0.750000  1
  Zn  Zn8  1  0.333333  0.666667  0.250000  1
  Zn  Zn9  1  0.666667  0.333333  0.750000  1
  Zn  Zn10  1  0.000000  0.000000  0.000000  1
  Zn  Zn11  1  0.000000  0.000000  0.500000  1
  Pd  Pd12  1  0.168674  0.337348  0.121966  1
  Pd  Pd13  1  0.831326  0.662652  0.621966  1
  Pd  Pd14  1  0.662652  0.831326  0.121966  1
  Pd  Pd15  1  0.168674  0.831326  0.121966  1
  Pd  Pd16  1  0.831326  0.168674  0.621966  1
  Pd  Pd17  1  0.337348  0.168674  0.621966  1
  Pd  Pd18  1  0.831326  0.662652  0.878034  1
  Pd  Pd19  1  0.831326  0.168674  0.878034  1
  Pd  Pd20  1  0.337348  0.168674  0.878034  1
  Pd  Pd21  1  0.662652  0.831326  0.378034  1
  Pd  Pd22  1  0.168674  0.831326  0.378034  1
  Pd  Pd23  1  0.168674  0.337348  0.378034  1
