# generated using pymatgen
data_Tb9TmSi5Bi
_symmetry_space_group_name_H-M   'P 1'
_cell_length_a   8.56587330
_cell_length_b   8.61254715
_cell_length_c   6.39406407
_cell_angle_alpha   90.00977466
_cell_angle_beta   90.00746433
_cell_angle_gamma   119.79146590
_symmetry_Int_Tables_number   1
_chemical_formula_structural   Tb9TmSi5Bi
_chemical_formula_sum   'Tb9 Tm1 Si5 Bi1'
_cell_volume   409.37340000
_cell_formula_units_Z   1
loop_
 _symmetry_equiv_pos_site_id
 _symmetry_equiv_pos_as_xyz
  1  'x, y, z'
loop_
 _atom_site_type_symbol
 _atom_site_label
 _atom_site_symmetry_multiplicity
 _atom_site_fract_x
 _atom_site_fract_y
 _atom_site_fract_z
 _atom_site_occupancy
  Tb  Tb0  1  0.985242  0.744224  0.749591  1
  Tb  Tb1  1  0.998161  0.244090  0.250519  1
  Tb  Tb2  1  0.753800  0.756279  0.250661  1
  Tb  Tb3  1  0.766893  0.999749  0.749599  1
  Tb  Tb4  1  0.240989  0.255965  0.749425  1
  Tb  Tb5  1  0.241349  0.999804  0.250231  1
  Tb  Tb6  1  0.676965  0.346715  0.005084  1
  Tb  Tb7  1  0.676675  0.346018  0.494897  1
  Tb  Tb8  1  0.330399  0.653531  0.004880  1
  Tm  Tm9  1  0.330343  0.652953  0.495004  1
  Si  Si10  1  0.392068  0.390849  0.251908  1
  Si  Si11  1  0.004184  0.610619  0.251576  1
  Si  Si12  1  0.999944  0.394974  0.748396  1
  Si  Si13  1  0.603706  0.606636  0.748283  1
  Si  Si14  1  0.606201  0.998856  0.251070  1
  Bi  Bi15  1  0.393080  0.998738  0.748875  1
