# generated using pymatgen
data_Pr5NdCd23Si
_symmetry_space_group_name_H-M   'P 1'
_cell_length_a   10.11805777
_cell_length_b   10.11679803
_cell_length_c   10.11679908
_cell_angle_alpha   60.00824138
_cell_angle_beta   59.99588211
_cell_angle_gamma   59.99588108
_symmetry_Int_Tables_number   1
_chemical_formula_structural   Pr5NdCd23Si
_chemical_formula_sum   'Pr5 Nd1 Cd23 Si1'
_cell_volume   732.26514627
_cell_formula_units_Z   1
loop_
 _symmetry_equiv_pos_site_id
 _symmetry_equiv_pos_as_xyz
  1  'x, y, z'
loop_
 _atom_site_type_symbol
 _atom_site_label
 _atom_site_symmetry_multiplicity
 _atom_site_fract_x
 _atom_site_fract_y
 _atom_site_fract_z
 _atom_site_occupancy
  Pr  Pr0  1  0.793835  0.793680  0.206165  1
  Pr  Pr1  1  0.206320  0.793680  0.206165  1
  Pr  Pr2  1  0.793022  0.206978  0.206978  1
  Pr  Pr3  1  0.206320  0.206165  0.793680  1
  Pr  Pr4  1  0.793835  0.206165  0.793680  1
  Nd  Nd5  1  0.206920  0.793080  0.793080  1
  Cd  Cd6  1  0.833943  0.834732  0.497381  1
  Cd  Cd7  1  0.833943  0.497381  0.834732  1
  Cd  Cd8  1  0.496616  0.833999  0.833999  1
  Cd  Cd9  1  0.835385  0.833999  0.833999  1
  Cd  Cd10  1  0.166001  0.164615  0.503384  1
  Cd  Cd11  1  0.166001  0.503384  0.164615  1
  Cd  Cd12  1  0.502619  0.166057  0.166057  1
  Cd  Cd13  1  0.165268  0.166057  0.166057  1
  Cd  Cd14  1  0.621892  0.622903  0.133313  1
  Cd  Cd15  1  0.621892  0.133313  0.622903  1
  Cd  Cd16  1  0.133675  0.622167  0.622167  1
  Cd  Cd17  1  0.621991  0.622167  0.622167  1
  Cd  Cd18  1  0.377833  0.378009  0.866325  1
  Cd  Cd19  1  0.377833  0.866325  0.378009  1
  Cd  Cd20  1  0.866687  0.378108  0.378108  1
  Cd  Cd21  1  0.377097  0.378108  0.378108  1
  Cd  Cd22  1  0.000148  0.999852  0.500102  1
  Cd  Cd23  1  0.499898  0.999852  0.500102  1
  Cd  Cd24  1  0.000138  0.499862  0.499862  1
  Cd  Cd25  1  0.499898  0.500102  0.999852  1
  Cd  Cd26  1  0.000148  0.500102  0.999852  1
  Cd  Cd27  1  0.500138  0.999862  0.999862  1
  Cd  Cd28  1  0.500084  0.499916  0.499916  1
  Si  Si29  1  0.000618  0.999382  0.999382  1
