# generated using pymatgen
data_Er4Tm8Co4BiRu
_symmetry_space_group_name_H-M   'P 1'
_cell_length_a   8.21142831
_cell_length_b   8.21142688
_cell_length_c   8.21142718
_cell_angle_alpha   110.77377257
_cell_angle_beta   110.96068831
_cell_angle_gamma   106.71394761
_symmetry_Int_Tables_number   1
_chemical_formula_structural   Er4Tm8Co4BiRu
_chemical_formula_sum   'Er4 Tm8 Co4 Bi1 Ru1'
_cell_volume   425.48326679
_cell_formula_units_Z   1
loop_
 _symmetry_equiv_pos_site_id
 _symmetry_equiv_pos_as_xyz
  1  'x, y, z'
loop_
 _atom_site_type_symbol
 _atom_site_label
 _atom_site_symmetry_multiplicity
 _atom_site_fract_x
 _atom_site_fract_y
 _atom_site_fract_z
 _atom_site_occupancy
  Er  Er0  1  0.284110  0.183705  0.467816  1
  Er  Er1  1  0.715890  0.816295  0.532184  1
  Er  Er2  1  0.284110  0.816295  0.100403  1
  Er  Er3  1  0.715890  0.183705  0.899597  1
  Tm  Tm4  1  0.619838  0.311253  0.308585  1
  Tm  Tm5  1  0.380162  0.688747  0.691415  1
  Tm  Tm6  1  0.002669  0.311253  0.691415  1
  Tm  Tm7  1  0.997331  0.688747  0.308585  1
  Tm  Tm8  1  0.212715  0.409110  0.196396  1
  Tm  Tm9  1  0.787285  0.590890  0.803604  1
  Tm  Tm10  1  0.212715  0.016320  0.803604  1
  Tm  Tm11  1  0.787285  0.983680  0.196396  1
  Co  Co12  1  0.000000  0.374922  0.374922  1
  Co  Co13  1  0.000000  0.625078  0.625078  1
  Co  Co14  1  0.388478  0.888478  0.500000  1
  Co  Co15  1  0.611522  0.111522  0.500000  1
  Bi  Bi16  1  0.500000  0.500000  0.000000  1
  Ru  Ru17  1  0.000000  0.000000  0.000000  1
