# generated using pymatgen
data_CdIn(FeI4)4
_symmetry_space_group_name_H-M   'P 1'
_cell_length_a   11.67481100
_cell_length_b   11.67481000
_cell_length_c   14.00449700
_cell_angle_alpha   55.69318303
_cell_angle_beta   55.69318636
_cell_angle_gamma   49.19671829
_symmetry_Int_Tables_number   1
_chemical_formula_structural   CdIn(FeI4)4
_chemical_formula_sum   'Cd1 In1 Fe4 I16'
_cell_volume   1133.81114116
_cell_formula_units_Z   1
loop_
 _symmetry_equiv_pos_site_id
 _symmetry_equiv_pos_as_xyz
  1  'x, y, z'
loop_
 _atom_site_type_symbol
 _atom_site_label
 _atom_site_symmetry_multiplicity
 _atom_site_fract_x
 _atom_site_fract_y
 _atom_site_fract_z
 _atom_site_occupancy
  Cd  Cd0  1  0.993089  0.006911  0.750000  1
  In  In1  1  0.005909  0.994091  0.250000  1
  Fe  Fe2  1  0.156453  0.677233  0.532837  1
  Fe  Fe3  1  0.322767  0.843547  0.967163  1
  Fe  Fe4  1  0.845646  0.317408  0.472419  1
  Fe  Fe5  1  0.682592  0.154354  0.027581  1
  I  I6  1  0.301239  0.391609  0.549570  1
  I  I7  1  0.608391  0.698761  0.950430  1
  I  I8  1  0.698342  0.606437  0.448200  1
  I  I9  1  0.393563  0.301658  0.051800  1
  I  I10  1  0.877223  0.828268  0.511180  1
  I  I11  1  0.171732  0.122777  0.988820  1
  I  I12  1  0.126370  0.173948  0.484989  1
  I  I13  1  0.826052  0.873630  0.015011  1
  I  I14  1  0.141415  0.692884  0.716682  1
  I  I15  1  0.307116  0.858585  0.783318  1
  I  I16  1  0.857606  0.306223  0.286425  1
  I  I17  1  0.693777  0.142394  0.213575  1
  I  I18  1  0.284863  0.836855  0.326784  1
  I  I19  1  0.163145  0.715137  0.173216  1
  I  I20  1  0.708242  0.165533  0.674055  1
  I  I21  1  0.834467  0.291758  0.825945  1
