# generated using pymatgen
data_Hf8Fe7CoSi13P
_symmetry_space_group_name_H-M   'P 1'
_cell_length_a   9.45447028
_cell_length_b   9.45543839
_cell_length_c   9.45711112
_cell_angle_alpha   94.10880752
_cell_angle_beta   94.09200013
_cell_angle_gamma   149.02660185
_symmetry_Int_Tables_number   1
_chemical_formula_structural   Hf8Fe7CoSi13P
_chemical_formula_sum   'Hf8 Fe7 Co1 Si13 P1'
_cell_volume   419.20082907
_cell_formula_units_Z   1
loop_
 _symmetry_equiv_pos_site_id
 _symmetry_equiv_pos_as_xyz
  1  'x, y, z'
loop_
 _atom_site_type_symbol
 _atom_site_label
 _atom_site_symmetry_multiplicity
 _atom_site_fract_x
 _atom_site_fract_y
 _atom_site_fract_z
 _atom_site_occupancy
  Hf  Hf0  1  0.139735  0.139495  0.279560  1
  Hf  Hf1  1  0.860002  0.859743  0.720313  1
  Hf  Hf2  1  0.137974  0.862043  0.999920  1
  Hf  Hf3  1  0.861808  0.137878  0.999763  1
  Hf  Hf4  1  0.305102  0.498958  0.801561  1
  Hf  Hf5  1  0.697034  0.500966  0.197083  1
  Hf  Hf6  1  0.499246  0.694859  0.195775  1
  Hf  Hf7  1  0.496809  0.302297  0.800663  1
  Fe  Fe8  1  0.102498  0.601953  0.204527  1
  Fe  Fe9  1  0.397979  0.897489  0.795299  1
  Fe  Fe10  1  0.905162  0.102402  0.502143  1
  Fe  Fe11  1  0.597419  0.400576  0.501768  1
  Fe  Fe12  1  0.602458  0.102927  0.203395  1
  Fe  Fe13  1  0.896793  0.397345  0.796545  1
  Fe  Fe14  1  0.102240  0.901971  0.501863  1
  Co  Co15  1  0.399782  0.600330  0.501240  1
  Si  Si16  1  0.708907  0.708990  0.416474  1
  Si  Si17  1  0.290484  0.708731  0.999305  1
  Si  Si18  1  0.708602  0.290785  0.999422  1
  Si  Si19  1  0.085569  0.492051  0.590027  1
  Si  Si20  1  0.907760  0.503556  0.412448  1
  Si  Si21  1  0.509829  0.914231  0.410481  1
  Si  Si22  1  0.497388  0.091308  0.587906  1
  Si  Si23  1  0.248911  0.248876  0.999037  1
  Si  Si24  1  0.750351  0.750225  0.999485  1
  Si  Si25  1  0.301130  0.002129  0.302676  1
  Si  Si26  1  0.702092  0.001056  0.697936  1
  Si  Si27  1  0.997554  0.698716  0.698102  1
  Si  Si28  1  0.999330  0.298455  0.302643  1
  P  P29  1  0.290051  0.289657  0.582641  1
