# generated using pymatgen
data_Tb7Dy9(ErSn4)4
_symmetry_space_group_name_H-M   'P 1'
_cell_length_a   8.02259471
_cell_length_b   8.16906111
_cell_length_c   15.44878808
_cell_angle_alpha   90.00158995
_cell_angle_beta   90.03277090
_cell_angle_gamma   89.97305973
_symmetry_Int_Tables_number   1
_chemical_formula_structural   Tb7Dy9(ErSn4)4
_chemical_formula_sum   'Tb7 Dy9 Er4 Sn16'
_cell_volume   1012.46797286
_cell_formula_units_Z   1
loop_
 _symmetry_equiv_pos_site_id
 _symmetry_equiv_pos_as_xyz
  1  'x, y, z'
loop_
 _atom_site_type_symbol
 _atom_site_label
 _atom_site_symmetry_multiplicity
 _atom_site_fract_x
 _atom_site_fract_y
 _atom_site_fract_z
 _atom_site_occupancy
  Tb  Tb0  1  0.020232  0.180089  0.597618  1
  Tb  Tb1  1  0.479763  0.680019  0.402527  1
  Tb  Tb2  1  0.979651  0.820046  0.097439  1
  Tb  Tb3  1  0.479611  0.679876  0.097411  1
  Tb  Tb4  1  0.979765  0.819988  0.402540  1
  Tb  Tb5  1  0.520156  0.320045  0.597382  1
  Tb  Tb6  1  0.020286  0.180121  0.902536  1
  Dy  Dy7  1  0.367473  0.835957  0.878005  1
  Dy  Dy8  1  0.867335  0.664005  0.622076  1
  Dy  Dy9  1  0.632605  0.164081  0.377984  1
  Dy  Dy10  1  0.132366  0.335946  0.121929  1
  Dy  Dy11  1  0.632405  0.164170  0.121901  1
  Dy  Dy12  1  0.132643  0.335917  0.377981  1
  Dy  Dy13  1  0.367411  0.836015  0.622127  1
  Dy  Dy14  1  0.867490  0.663981  0.878057  1
  Dy  Dy15  1  0.520661  0.320078  0.902408  1
  Er  Er16  1  0.198215  0.502876  0.750155  1
  Er  Er17  1  0.698047  0.997093  0.750108  1
  Er  Er18  1  0.801852  0.496969  0.249943  1
  Er  Er19  1  0.301883  0.003012  0.249939  1
  Sn  Sn20  1  0.293504  0.035899  0.041906  1
  Sn  Sn21  1  0.793575  0.464096  0.458093  1
  Sn  Sn22  1  0.706458  0.964098  0.541954  1
  Sn  Sn23  1  0.207534  0.535130  0.957858  1
  Sn  Sn24  1  0.706207  0.964637  0.957944  1
  Sn  Sn25  1  0.206372  0.536011  0.541933  1
  Sn  Sn26  1  0.293579  0.035868  0.458100  1
  Sn  Sn27  1  0.792834  0.463759  0.041575  1
  Sn  Sn28  1  0.564693  0.619486  0.750045  1
  Sn  Sn29  1  0.064744  0.880183  0.750044  1
  Sn  Sn30  1  0.435242  0.380238  0.249932  1
  Sn  Sn31  1  0.935223  0.119875  0.249976  1
  Sn  Sn32  1  0.329196  0.147021  0.750432  1
  Sn  Sn33  1  0.828286  0.353391  0.750185  1
  Sn  Sn34  1  0.671354  0.853415  0.249961  1
  Sn  Sn35  1  0.171350  0.646611  0.249998  1
