# generated using pymatgen
data_Nd8Si12Ir3Au
_symmetry_space_group_name_H-M   'P 1'
_cell_length_a   8.25329500
_cell_length_b   8.25329377
_cell_length_c   8.52157600
_cell_angle_alpha   90.00000000
_cell_angle_beta   90.00000000
_cell_angle_gamma   120.00000093
_symmetry_Int_Tables_number   1
_chemical_formula_structural   Nd8Si12Ir3Au
_chemical_formula_sum   'Nd8 Si12 Ir3 Au1'
_cell_volume   502.69575906
_cell_formula_units_Z   1
loop_
 _symmetry_equiv_pos_site_id
 _symmetry_equiv_pos_as_xyz
  1  'x, y, z'
loop_
 _atom_site_type_symbol
 _atom_site_label
 _atom_site_symmetry_multiplicity
 _atom_site_fract_x
 _atom_site_fract_y
 _atom_site_fract_z
 _atom_site_occupancy
  Nd  Nd0  1  0.000000  0.000000  0.749441  1
  Nd  Nd1  1  0.000000  0.000000  0.251406  1
  Nd  Nd2  1  0.495844  0.504156  0.744884  1
  Nd  Nd3  1  0.495844  0.991688  0.744884  1
  Nd  Nd4  1  0.008312  0.504156  0.744884  1
  Nd  Nd5  1  0.498857  0.501143  0.254925  1
  Nd  Nd6  1  0.002286  0.501143  0.254925  1
  Nd  Nd7  1  0.498857  0.997714  0.254925  1
  Si  Si8  1  0.838946  0.161054  0.001127  1
  Si  Si9  1  0.838946  0.677890  0.001127  1
  Si  Si10  1  0.322110  0.161054  0.001127  1
  Si  Si11  1  0.832492  0.167508  0.499240  1
  Si  Si12  1  0.832492  0.664985  0.499240  1
  Si  Si13  1  0.335015  0.167508  0.499240  1
  Si  Si14  1  0.166517  0.833483  0.500840  1
  Si  Si15  1  0.666965  0.833483  0.500840  1
  Si  Si16  1  0.166517  0.333035  0.500840  1
  Si  Si17  1  0.168279  0.831721  0.999152  1
  Si  Si18  1  0.663441  0.831721  0.999152  1
  Si  Si19  1  0.168279  0.336559  0.999152  1
  Ir  Ir20  1  0.666667  0.333333  0.506038  1
  Ir  Ir21  1  0.333333  0.666667  0.493778  1
  Ir  Ir22  1  0.333333  0.666667  0.005387  1
  Au  Au23  1  0.666667  0.333333  0.993450  1
