# generated using pymatgen
data_YbFe3P12Pd
_symmetry_space_group_name_H-M   'P 1'
_cell_length_a   6.81438094
_cell_length_b   6.82874163
_cell_length_c   6.82874200
_cell_angle_alpha   109.51378995
_cell_angle_beta   109.42862166
_cell_angle_gamma   109.42862190
_symmetry_Int_Tables_number   1
_chemical_formula_structural   YbFe3P12Pd
_chemical_formula_sum   'Yb1 Fe3 P12 Pd1'
_cell_volume   244.74505827
_cell_formula_units_Z   1
loop_
 _symmetry_equiv_pos_site_id
 _symmetry_equiv_pos_as_xyz
  1  'x, y, z'
loop_
 _atom_site_type_symbol
 _atom_site_label
 _atom_site_symmetry_multiplicity
 _atom_site_fract_x
 _atom_site_fract_y
 _atom_site_fract_z
 _atom_site_occupancy
  Yb  Yb0  1  0.000000  0.000000  0.000000  1
  Fe  Fe1  1  0.500000  0.500000  0.500000  1
  Fe  Fe2  1  0.000000  0.500000  0.000000  1
  Fe  Fe3  1  0.000000  0.000000  0.500000  1
  P  P4  1  0.129031  0.786742  0.629560  1
  P  P5  1  0.150335  0.498069  0.348849  1
  P  P6  1  0.849665  0.501931  0.651151  1
  P  P7  1  0.347735  0.149221  0.498069  1
  P  P8  1  0.801486  0.651151  0.149221  1
  P  P9  1  0.870969  0.213258  0.370440  1
  P  P10  1  0.657710  0.157181  0.786742  1
  P  P11  1  0.500529  0.629560  0.842819  1
  P  P12  1  0.652265  0.850779  0.501931  1
  P  P13  1  0.499471  0.370440  0.157181  1
  P  P14  1  0.342290  0.842819  0.213258  1
  P  P15  1  0.198514  0.348849  0.850779  1
  Pd  Pd16  1  0.500000  0.000000  0.000000  1
