# generated using pymatgen
data_Dy2Y4CoBr10
_symmetry_space_group_name_H-M   'P 1'
_cell_length_a   7.38122870
_cell_length_b   9.15232284
_cell_length_c   9.27136400
_cell_angle_alpha   108.39340992
_cell_angle_beta   97.15872792
_cell_angle_gamma   104.87922191
_symmetry_Int_Tables_number   1
_chemical_formula_structural   Dy2Y4CoBr10
_chemical_formula_sum   'Dy2 Y4 Co1 Br10'
_cell_volume   559.77740073
_cell_formula_units_Z   1
loop_
 _symmetry_equiv_pos_site_id
 _symmetry_equiv_pos_as_xyz
  1  'x, y, z'
loop_
 _atom_site_type_symbol
 _atom_site_label
 _atom_site_symmetry_multiplicity
 _atom_site_fract_x
 _atom_site_fract_y
 _atom_site_fract_z
 _atom_site_occupancy
  Dy  Dy0  1  0.470517  0.784066  0.587243  1
  Dy  Dy1  1  0.529483  0.215934  0.412757  1
  Y  Y2  1  0.378764  0.454970  0.743943  1
  Y  Y3  1  0.621236  0.545030  0.256057  1
  Y  Y4  1  0.856974  0.631925  0.676928  1
  Y  Y5  1  0.143026  0.368075  0.323072  1
  Co  Co6  1  0.500000  0.500000  0.500000  1
  Br  Br7  1  0.414270  0.130020  0.671045  1
  Br  Br8  1  0.585730  0.869980  0.328955  1
  Br  Br9  1  0.047301  0.678622  0.415875  1
  Br  Br10  1  0.952699  0.321378  0.584125  1
  Br  Br11  1  0.284457  0.755808  0.844465  1
  Br  Br12  1  0.715543  0.244192  0.155535  1
  Br  Br13  1  0.248562  0.414441  0.041223  1
  Br  Br14  1  0.751438  0.585559  0.958777  1
  Br  Br15  1  0.848859  0.951477  0.771000  1
  Br  Br16  1  0.151141  0.048523  0.229000  1
