# generated using pymatgen
data_Ho7Tm3(SiSn3)2
_symmetry_space_group_name_H-M   'P 1'
_cell_length_a   9.14891400
_cell_length_b   9.14891542
_cell_length_c   6.41910200
_cell_angle_alpha   90.00000000
_cell_angle_beta   90.00000000
_cell_angle_gamma   120.00000211
_symmetry_Int_Tables_number   1
_chemical_formula_structural   Ho7Tm3(SiSn3)2
_chemical_formula_sum   'Ho7 Tm3 Si2 Sn6'
_cell_volume   465.31179017
_cell_formula_units_Z   1
loop_
 _symmetry_equiv_pos_site_id
 _symmetry_equiv_pos_as_xyz
  1  'x, y, z'
loop_
 _atom_site_type_symbol
 _atom_site_label
 _atom_site_symmetry_multiplicity
 _atom_site_fract_x
 _atom_site_fract_y
 _atom_site_fract_z
 _atom_site_occupancy
  Ho  Ho0  1  0.666667  0.333333  0.000000  1
  Ho  Ho1  1  0.747167  0.747232  0.750279  1
  Ho  Ho2  1  0.252768  0.999936  0.750279  1
  Ho  Ho3  1  0.000064  0.252833  0.750279  1
  Ho  Ho4  1  0.252768  0.252833  0.249721  1
  Ho  Ho5  1  0.747167  0.999936  0.249721  1
  Ho  Ho6  1  0.000064  0.747232  0.249721  1
  Tm  Tm7  1  0.333333  0.666667  0.000000  1
  Tm  Tm8  1  0.333333  0.666667  0.500000  1
  Tm  Tm9  1  0.666667  0.333333  0.500000  1
  Si  Si10  1  0.000000  0.000000  0.000000  1
  Si  Si11  1  0.000000  0.000000  0.500000  1
  Sn  Sn12  1  0.392820  0.393324  0.749853  1
  Sn  Sn13  1  0.606676  0.999496  0.749853  1
  Sn  Sn14  1  0.000504  0.607180  0.749853  1
  Sn  Sn15  1  0.606676  0.607180  0.250147  1
  Sn  Sn16  1  0.392820  0.999496  0.250147  1
  Sn  Sn17  1  0.000504  0.393324  0.250147  1
