# generated using pymatgen
data_La8In3Ru
_symmetry_space_group_name_H-M   'P 1'
_cell_length_a   11.04836000
_cell_length_b   11.04835913
_cell_length_c   7.26161100
_cell_angle_alpha   90.00000000
_cell_angle_beta   90.00000000
_cell_angle_gamma   119.99999662
_symmetry_Int_Tables_number   1
_chemical_formula_structural   La8In3Ru
_chemical_formula_sum   'La16 In6 Ru2'
_cell_volume   767.64288014
_cell_formula_units_Z   2
loop_
 _symmetry_equiv_pos_site_id
 _symmetry_equiv_pos_as_xyz
  1  'x, y, z'
loop_
 _atom_site_type_symbol
 _atom_site_label
 _atom_site_symmetry_multiplicity
 _atom_site_fract_x
 _atom_site_fract_y
 _atom_site_fract_z
 _atom_site_occupancy
  La  La0  1  0.537181  0.074361  0.784833  1
  La  La1  1  0.925639  0.462819  0.784833  1
  La  La2  1  0.537181  0.462819  0.784833  1
  La  La3  1  0.462819  0.925639  0.284833  1
  La  La4  1  0.074361  0.537181  0.284833  1
  La  La5  1  0.462819  0.537181  0.284833  1
  La  La6  1  0.824523  0.649046  0.504422  1
  La  La7  1  0.350954  0.175477  0.504422  1
  La  La8  1  0.824523  0.175477  0.504422  1
  La  La9  1  0.175477  0.350954  0.004422  1
  La  La10  1  0.649046  0.824523  0.004422  1
  La  La11  1  0.175477  0.824523  0.004422  1
  La  La12  1  0.666667  0.333333  0.179530  1
  La  La13  1  0.333333  0.666667  0.679530  1
  La  La14  1  0.000000  0.000000  0.786836  1
  La  La15  1  0.000000  0.000000  0.286836  1
  In  In16  1  0.836236  0.672473  0.037679  1
  In  In17  1  0.327527  0.163764  0.037679  1
  In  In18  1  0.836236  0.163764  0.037679  1
  In  In19  1  0.163764  0.327527  0.537679  1
  In  In20  1  0.672473  0.836236  0.537679  1
  In  In21  1  0.163764  0.836236  0.537679  1
  Ru  Ru22  1  0.666667  0.333333  0.570782  1
  Ru  Ru23  1  0.333333  0.666667  0.070782  1
