# generated using pymatgen
data_Sc4TiSn3Ru8
_symmetry_space_group_name_H-M   'P 1'
_cell_length_a   6.35893001
_cell_length_b   6.46172403
_cell_length_c   6.35892607
_cell_angle_alpha   90.00858037
_cell_angle_beta   90.01007329
_cell_angle_gamma   90.00608407
_symmetry_Int_Tables_number   1
_chemical_formula_structural   Sc4TiSn3Ru8
_chemical_formula_sum   'Sc4 Ti1 Sn3 Ru8'
_cell_volume   261.28604379
_cell_formula_units_Z   1
loop_
 _symmetry_equiv_pos_site_id
 _symmetry_equiv_pos_as_xyz
  1  'x, y, z'
loop_
 _atom_site_type_symbol
 _atom_site_label
 _atom_site_symmetry_multiplicity
 _atom_site_fract_x
 _atom_site_fract_y
 _atom_site_fract_z
 _atom_site_occupancy
  Sc  Sc0  1  0.999997  0.250019  0.999962  1
  Sc  Sc1  1  0.999996  0.749993  0.999980  1
  Sc  Sc2  1  0.499980  0.749993  0.500028  1
  Sc  Sc3  1  0.500030  0.250022  0.500033  1
  Ti  Ti4  1  0.500010  0.250001  0.000023  1
  Sn  Sn5  1  0.499978  0.749985  0.000007  1
  Sn  Sn6  1  0.999989  0.250007  0.500004  1
  Sn  Sn7  1  0.000009  0.749992  0.500001  1
  Ru  Ru8  1  0.252831  0.493969  0.247132  1
  Ru  Ru9  1  0.252868  0.006010  0.247169  1
  Ru  Ru10  1  0.747197  0.493940  0.247188  1
  Ru  Ru11  1  0.747144  0.006096  0.247138  1
  Ru  Ru12  1  0.252851  0.493883  0.752839  1
  Ru  Ru13  1  0.252806  0.006084  0.752805  1
  Ru  Ru14  1  0.747145  0.494029  0.752824  1
  Ru  Ru15  1  0.747169  0.005984  0.752869  1
