# generated using pymatgen
data_Th8Sc12Ge9Sb7
_symmetry_space_group_name_H-M   'P 1'
_cell_length_a   7.72144029
_cell_length_b   7.64691367
_cell_length_c   14.57947371
_cell_angle_alpha   90.03742216
_cell_angle_beta   89.91592985
_cell_angle_gamma   90.02861287
_symmetry_Int_Tables_number   1
_chemical_formula_structural   Th8Sc12Ge9Sb7
_chemical_formula_sum   'Th8 Sc12 Ge9 Sb7'
_cell_volume   860.84653868
_cell_formula_units_Z   1
loop_
 _symmetry_equiv_pos_site_id
 _symmetry_equiv_pos_as_xyz
  1  'x, y, z'
loop_
 _atom_site_type_symbol
 _atom_site_label
 _atom_site_symmetry_multiplicity
 _atom_site_fract_x
 _atom_site_fract_y
 _atom_site_fract_z
 _atom_site_occupancy
  Th  Th0  1  0.994600  0.169011  0.099650  1
  Th  Th1  1  0.018087  0.827795  0.900865  1
  Th  Th2  1  0.511227  0.677263  0.900428  1
  Th  Th3  1  0.014449  0.825078  0.602193  1
  Th  Th4  1  0.484384  0.320235  0.101195  1
  Th  Th5  1  0.985591  0.175214  0.397127  1
  Th  Th6  1  0.485788  0.324938  0.397352  1
  Th  Th7  1  0.514511  0.675101  0.602418  1
  Sc  Sc8  1  0.176611  0.504536  0.750621  1
  Sc  Sc9  1  0.824035  0.495730  0.248919  1
  Sc  Sc10  1  0.323228  0.004046  0.246057  1
  Sc  Sc11  1  0.676967  0.995521  0.750471  1
  Sc  Sc12  1  0.347902  0.156098  0.633393  1
  Sc  Sc13  1  0.652515  0.843591  0.366565  1
  Sc  Sc14  1  0.151970  0.655622  0.366531  1
  Sc  Sc15  1  0.644266  0.843575  0.131591  1
  Sc  Sc16  1  0.847185  0.344230  0.633884  1
  Sc  Sc17  1  0.345204  0.151699  0.870748  1
  Sc  Sc18  1  0.845681  0.343139  0.867891  1
  Sc  Sc19  1  0.161146  0.667565  0.129099  1
  Ge  Ge20  1  0.308383  0.953232  0.043890  1
  Ge  Ge21  1  0.040415  0.133466  0.750578  1
  Ge  Ge22  1  0.958517  0.865873  0.249334  1
  Ge  Ge23  1  0.459494  0.631463  0.250053  1
  Ge  Ge24  1  0.539319  0.366614  0.751453  1
  Ge  Ge25  1  0.315119  0.857014  0.750742  1
  Ge  Ge26  1  0.686787  0.142072  0.249002  1
  Ge  Ge27  1  0.185106  0.358714  0.248420  1
  Ge  Ge28  1  0.815522  0.644234  0.751829  1
  Sb  Sb29  1  0.190687  0.449398  0.543310  1
  Sb  Sb30  1  0.809170  0.550165  0.456582  1
  Sb  Sb31  1  0.309571  0.949502  0.455899  1
  Sb  Sb32  1  0.809651  0.549057  0.043846  1
  Sb  Sb33  1  0.690794  0.050720  0.543421  1
  Sb  Sb34  1  0.190047  0.449595  0.956490  1
  Sb  Sb35  1  0.686072  0.048893  0.958153  1
