# generated using pymatgen
data_Ti4NbSnRh10
_symmetry_space_group_name_H-M   'P 1'
_cell_length_a   4.07062600
_cell_length_b   5.51245342
_cell_length_c   10.80815051
_cell_angle_alpha   90.79885545
_cell_angle_beta   90.00000000
_cell_angle_gamma   90.00000000
_symmetry_Int_Tables_number   1
_chemical_formula_structural   Ti4NbSnRh10
_chemical_formula_sum   'Ti4 Nb1 Sn1 Rh10'
_cell_volume   242.50198854
_cell_formula_units_Z   1
loop_
 _symmetry_equiv_pos_site_id
 _symmetry_equiv_pos_as_xyz
  1  'x, y, z'
loop_
 _atom_site_type_symbol
 _atom_site_label
 _atom_site_symmetry_multiplicity
 _atom_site_fract_x
 _atom_site_fract_y
 _atom_site_fract_z
 _atom_site_occupancy
  Ti  Ti0  1  0.000000  0.499950  0.501926  1
  Ti  Ti1  1  0.500000  0.675090  0.849634  1
  Ti  Ti2  1  0.500000  0.831904  0.361978  1
  Ti  Ti3  1  0.500000  0.167809  0.641792  1
  Nb  Nb4  1  0.500000  0.323682  0.145893  1
  Sn  Sn5  1  0.000000  0.998162  0.997727  1
  Rh  Rh6  1  0.000000  0.999289  0.500583  1
  Rh  Rh7  1  0.000000  0.502973  0.998924  1
  Rh  Rh8  1  0.000000  0.070860  0.250154  1
  Rh  Rh9  1  0.000000  0.925084  0.751195  1
  Rh  Rh10  1  0.000000  0.571883  0.259307  1
  Rh  Rh11  1  0.000000  0.424501  0.738624  1
  Rh  Rh12  1  0.500000  0.308983  0.395083  1
  Rh  Rh13  1  0.500000  0.691725  0.605786  1
  Rh  Rh14  1  0.500000  0.794380  0.120907  1
  Rh  Rh15  1  0.500000  0.213724  0.880487  1
