# generated using pymatgen
data_Sr5Si(Cl3O2)2
_symmetry_space_group_name_H-M   'P 1'
_cell_length_a   8.44392615
_cell_length_b   8.44392707
_cell_length_c   11.22159788
_cell_angle_alpha   82.80558569
_cell_angle_beta   82.80558446
_cell_angle_gamma   114.13296008
_symmetry_Int_Tables_number   1
_chemical_formula_structural   Sr5Si(Cl3O2)2
_chemical_formula_sum   'Sr10 Si2 Cl12 O8'
_cell_volume   710.53260457
_cell_formula_units_Z   2
loop_
 _symmetry_equiv_pos_site_id
 _symmetry_equiv_pos_as_xyz
  1  'x, y, z'
loop_
 _atom_site_type_symbol
 _atom_site_label
 _atom_site_symmetry_multiplicity
 _atom_site_fract_x
 _atom_site_fract_y
 _atom_site_fract_z
 _atom_site_occupancy
  Sr  Sr0  1  0.689370  0.433743  0.517710  1
  Sr  Sr1  1  0.798535  0.201465  0.250000  1
  Sr  Sr2  1  0.761625  0.922475  0.633952  1
  Sr  Sr3  1  0.077525  0.238375  0.866048  1
  Sr  Sr4  1  0.310630  0.566257  0.482290  1
  Sr  Sr5  1  0.201465  0.798535  0.750000  1
  Sr  Sr6  1  0.922475  0.761625  0.133952  1
  Sr  Sr7  1  0.238375  0.077525  0.366048  1
  Sr  Sr8  1  0.433743  0.689370  0.017710  1
  Sr  Sr9  1  0.566257  0.310630  0.982290  1
  Si  Si10  1  0.422726  0.577274  0.750000  1
  Si  Si11  1  0.577274  0.422726  0.250000  1
  Cl  Cl12  1  0.198233  0.138565  0.639441  1
  Cl  Cl13  1  0.022257  0.721992  0.547024  1
  Cl  Cl14  1  0.721992  0.022257  0.047024  1
  Cl  Cl15  1  0.801767  0.861435  0.360559  1
  Cl  Cl16  1  0.861435  0.801767  0.860559  1
  Cl  Cl17  1  0.754978  0.245022  0.750000  1
  Cl  Cl18  1  0.977743  0.278008  0.452976  1
  Cl  Cl19  1  0.138565  0.198233  0.139441  1
  Cl  Cl20  1  0.245022  0.754978  0.250000  1
  Cl  Cl21  1  0.000000  0.500000  0.000000  1
  Cl  Cl22  1  0.278008  0.977743  0.952976  1
  Cl  Cl23  1  0.500000  0.000000  0.500000  1
  O  O24  1  0.400435  0.436975  0.873760  1
  O  O25  1  0.226415  0.521535  0.711619  1
  O  O26  1  0.563025  0.599565  0.626240  1
  O  O27  1  0.521535  0.226415  0.211619  1
  O  O28  1  0.478465  0.773585  0.788381  1
  O  O29  1  0.436975  0.400435  0.373760  1
  O  O30  1  0.773585  0.478465  0.288381  1
  O  O31  1  0.599565  0.563025  0.126240  1
