# generated using pymatgen
data_Li4La3NdSn4
_symmetry_space_group_name_H-M   'P 1'
_cell_length_a   7.85872207
_cell_length_b   4.82865800
_cell_length_c   8.32410308
_cell_angle_alpha   90.00000000
_cell_angle_beta   90.01559435
_cell_angle_gamma   90.00000000
_symmetry_Int_Tables_number   1
_chemical_formula_structural   Li4La3NdSn4
_chemical_formula_sum   'Li4 La3 Nd1 Sn4'
_cell_volume   315.87540374
_cell_formula_units_Z   1
loop_
 _symmetry_equiv_pos_site_id
 _symmetry_equiv_pos_as_xyz
  1  'x, y, z'
loop_
 _atom_site_type_symbol
 _atom_site_label
 _atom_site_symmetry_multiplicity
 _atom_site_fract_x
 _atom_site_fract_y
 _atom_site_fract_z
 _atom_site_occupancy
  Li  Li0  1  0.817660  0.250001  0.079282  1
  Li  Li1  1  0.319184  0.250001  0.420992  1
  Li  Li2  1  0.680871  0.749999  0.580427  1
  Li  Li3  1  0.182084  0.749999  0.919991  1
  La  La4  1  0.501175  0.749999  0.220470  1
  La  La5  1  0.001367  0.749999  0.278487  1
  La  La6  1  0.998726  0.250001  0.721496  1
  Nd  Nd7  1  0.498302  0.250001  0.778135  1
  Sn  Sn8  1  0.227171  0.250001  0.087553  1
  Sn  Sn9  1  0.725810  0.250001  0.412300  1
  Sn  Sn10  1  0.275877  0.749999  0.591064  1
  Sn  Sn11  1  0.771772  0.749999  0.909806  1
