# generated using pymatgen
data_Er3Al12PdRu3
_symmetry_space_group_name_H-M   'P 1'
_cell_length_a   8.82850693
_cell_length_b   8.78469695
_cell_length_c   9.52852352
_cell_angle_alpha   90.00000108
_cell_angle_beta   90.07227538
_cell_angle_gamma   119.83598434
_symmetry_Int_Tables_number   1
_chemical_formula_structural   Er3Al12PdRu3
_chemical_formula_sum   'Er6 Al24 Pd2 Ru6'
_cell_volume   641.04014888
_cell_formula_units_Z   2
loop_
 _symmetry_equiv_pos_site_id
 _symmetry_equiv_pos_as_xyz
  1  'x, y, z'
loop_
 _atom_site_type_symbol
 _atom_site_label
 _atom_site_symmetry_multiplicity
 _atom_site_fract_x
 _atom_site_fract_y
 _atom_site_fract_z
 _atom_site_occupancy
  Er  Er0  1  0.191529  0.387994  0.253017  1
  Er  Er1  1  0.808471  0.612006  0.746983  1
  Er  Er2  1  0.614483  0.807242  0.252298  1
  Er  Er3  1  0.385517  0.192758  0.747702  1
  Er  Er4  1  0.191529  0.803535  0.253017  1
  Er  Er5  1  0.808471  0.196465  0.746983  1
  Al  Al6  1  0.327751  0.663876  0.023977  1
  Al  Al7  1  0.672249  0.336124  0.976023  1
  Al  Al8  1  0.666796  0.333398  0.521434  1
  Al  Al9  1  0.333204  0.666602  0.478566  1
  Al  Al10  1  0.163629  0.326342  0.577505  1
  Al  Al11  1  0.836371  0.673658  0.422495  1
  Al  Al12  1  0.674339  0.837169  0.576349  1
  Al  Al13  1  0.842562  0.675590  0.080026  1
  Al  Al14  1  0.325661  0.162831  0.423651  1
  Al  Al15  1  0.157438  0.324410  0.919974  1
  Al  Al16  1  0.163629  0.837287  0.577505  1
  Al  Al17  1  0.322113  0.161057  0.080986  1
  Al  Al18  1  0.836371  0.162713  0.422495  1
  Al  Al19  1  0.677887  0.838943  0.919014  1
  Al  Al20  1  0.842562  0.166973  0.080026  1
  Al  Al21  1  0.157438  0.833027  0.919974  1
  Al  Al22  1  0.561878  0.123940  0.252222  1
  Al  Al23  1  0.438122  0.876060  0.747778  1
  Al  Al24  1  0.878040  0.439020  0.249125  1
  Al  Al25  1  0.121960  0.560980  0.750875  1
  Al  Al26  1  0.561878  0.437938  0.252222  1
  Al  Al27  1  0.438122  0.562062  0.747778  1
  Al  Al28  1  0.998024  0.999012  0.250523  1
  Al  Al29  1  0.001976  0.000988  0.749477  1
  Pd  Pd30  1  0.500000  0.000000  0.000000  1
  Pd  Pd31  1  0.500000  0.500000  0.000000  1
  Ru  Ru32  1  0.000000  0.500000  0.000000  1
  Ru  Ru33  1  0.500000  0.000000  0.500000  1
  Ru  Ru34  1  0.000000  0.500000  0.500000  1
  Ru  Ru35  1  0.500000  0.500000  0.500000  1
  Ru  Ru36  1  0.000000  0.000000  0.000000  1
  Ru  Ru37  1  0.000000  0.000000  0.500000  1
