# generated using pymatgen
data_SrCa2(SiIr)4
_symmetry_space_group_name_H-M   'P 1'
_cell_length_a   6.51243946
_cell_length_b   6.51243968
_cell_length_c   6.51243951
_cell_angle_alpha   110.36551313
_cell_angle_beta   107.69706929
_cell_angle_gamma   110.36550843
_symmetry_Int_Tables_number   1
_chemical_formula_structural   SrCa2(SiIr)4
_chemical_formula_sum   'Sr1 Ca2 Si4 Ir4'
_cell_volume   212.47020188
_cell_formula_units_Z   1
loop_
 _symmetry_equiv_pos_site_id
 _symmetry_equiv_pos_as_xyz
  1  'x, y, z'
loop_
 _atom_site_type_symbol
 _atom_site_label
 _atom_site_symmetry_multiplicity
 _atom_site_fract_x
 _atom_site_fract_y
 _atom_site_fract_z
 _atom_site_occupancy
  Sr  Sr0  1  0.500000  0.000000  0.500000  1
  Ca  Ca1  1  0.500000  0.500000  0.000000  1
  Ca  Ca2  1  0.000000  0.500000  0.500000  1
  Si  Si3  1  0.003652  0.368676  0.003652  1
  Si  Si4  1  0.634976  0.631324  0.634976  1
  Si  Si5  1  0.996348  0.000000  0.365024  1
  Si  Si6  1  0.365024  0.000000  0.996348  1
  Ir  Ir7  1  0.993286  0.717788  0.993286  1
  Ir  Ir8  1  0.006714  0.000000  0.724502  1
  Ir  Ir9  1  0.275498  0.282212  0.275498  1
  Ir  Ir10  1  0.724502  0.000000  0.006714  1
