# generated using pymatgen
data_LiTc2Ag3F12
_symmetry_space_group_name_H-M   'P 1'
_cell_length_a   5.50952900
_cell_length_b   5.50952900
_cell_length_c   19.54505000
_cell_angle_alpha   90.00000000
_cell_angle_beta   90.00000000
_cell_angle_gamma   90.00000000
_symmetry_Int_Tables_number   1
_chemical_formula_structural   LiTc2Ag3F12
_chemical_formula_sum   'Li2 Tc4 Ag6 F24'
_cell_volume   593.28822982
_cell_formula_units_Z   2
loop_
 _symmetry_equiv_pos_site_id
 _symmetry_equiv_pos_as_xyz
  1  'x, y, z'
loop_
 _atom_site_type_symbol
 _atom_site_label
 _atom_site_symmetry_multiplicity
 _atom_site_fract_x
 _atom_site_fract_y
 _atom_site_fract_z
 _atom_site_occupancy
  Li  Li0  1  0.000000  0.000000  0.000000  1
  Li  Li1  1  0.500000  0.500000  0.500000  1
  Tc  Tc2  1  0.000000  0.500000  0.121574  1
  Tc  Tc3  1  0.500000  0.000000  0.878426  1
  Tc  Tc4  1  0.500000  0.000000  0.378426  1
  Tc  Tc5  1  0.000000  0.500000  0.621574  1
  Ag  Ag6  1  0.000000  0.500000  0.310346  1
  Ag  Ag7  1  0.500000  0.000000  0.689654  1
  Ag  Ag8  1  0.500000  0.000000  0.189654  1
  Ag  Ag9  1  0.000000  0.500000  0.810346  1
  Ag  Ag10  1  0.000000  0.000000  0.500000  1
  Ag  Ag11  1  0.500000  0.500000  0.000000  1
  F  F12  1  0.202282  0.197507  0.382853  1
  F  F13  1  0.797718  0.802493  0.382853  1
  F  F14  1  0.197507  0.797718  0.617147  1
  F  F15  1  0.297718  0.697507  0.117147  1
  F  F16  1  0.802493  0.202282  0.617147  1
  F  F17  1  0.702282  0.302493  0.117147  1
  F  F18  1  0.302493  0.297718  0.882853  1
  F  F19  1  0.697507  0.702282  0.882853  1
  F  F20  1  0.136827  0.296678  0.194312  1
  F  F21  1  0.863173  0.703322  0.194312  1
  F  F22  1  0.296678  0.863173  0.805688  1
  F  F23  1  0.363173  0.796678  0.305688  1
  F  F24  1  0.703322  0.136827  0.805688  1
  F  F25  1  0.636827  0.203322  0.305688  1
  F  F26  1  0.203322  0.363173  0.694312  1
  F  F27  1  0.796678  0.636827  0.694312  1
  F  F28  1  0.136350  0.281168  0.049116  1
  F  F29  1  0.863650  0.718832  0.049116  1
  F  F30  1  0.281168  0.863650  0.950884  1
  F  F31  1  0.363650  0.781168  0.450884  1
  F  F32  1  0.718832  0.136350  0.950884  1
  F  F33  1  0.636350  0.218832  0.450884  1
  F  F34  1  0.218832  0.363650  0.549116  1
  F  F35  1  0.781168  0.636350  0.549116  1
