# generated using pymatgen
data_KBa4Au6
_symmetry_space_group_name_H-M   'P 1'
_cell_length_a   17.21188254
_cell_length_b   17.21188197
_cell_length_c   4.62638900
_cell_angle_alpha   90.00000000
_cell_angle_beta   90.00000000
_cell_angle_gamma   164.44613017
_symmetry_Int_Tables_number   1
_chemical_formula_structural   KBa4Au6
_chemical_formula_sum   'K1 Ba4 Au6'
_cell_volume   367.50850888
_cell_formula_units_Z   1
loop_
 _symmetry_equiv_pos_site_id
 _symmetry_equiv_pos_as_xyz
  1  'x, y, z'
loop_
 _atom_site_type_symbol
 _atom_site_label
 _atom_site_symmetry_multiplicity
 _atom_site_fract_x
 _atom_site_fract_y
 _atom_site_fract_z
 _atom_site_occupancy
  K  K0  1  0.802352  0.197647  0.500000  1
  Ba  Ba1  1  0.999095  0.000905  0.000000  1
  Ba  Ba2  1  0.615097  0.384903  0.000000  1
  Ba  Ba3  1  0.382593  0.617407  0.000000  1
  Ba  Ba4  1  0.201907  0.798092  0.500000  1
  Au  Au5  1  0.719981  0.280019  0.000000  1
  Au  Au6  1  0.276636  0.723364  0.000000  1
  Au  Au7  1  0.906989  0.093011  0.500000  1
  Au  Au8  1  0.540998  0.459001  0.500000  1
  Au  Au9  1  0.458172  0.541827  0.500000  1
  Au  Au10  1  0.096177  0.903823  0.500000  1
