# generated using pymatgen
data_La16Cd4RuPt3
_symmetry_space_group_name_H-M   'P 1'
_cell_length_a   10.20494685
_cell_length_b   10.20494687
_cell_length_c   10.20494710
_cell_angle_alpha   59.71262285
_cell_angle_beta   59.71262323
_cell_angle_gamma   59.71262306
_symmetry_Int_Tables_number   1
_chemical_formula_structural   La16Cd4RuPt3
_chemical_formula_sum   'La16 Cd4 Ru1 Pt3'
_cell_volume   746.57462254
_cell_formula_units_Z   1
loop_
 _symmetry_equiv_pos_site_id
 _symmetry_equiv_pos_as_xyz
  1  'x, y, z'
loop_
 _atom_site_type_symbol
 _atom_site_label
 _atom_site_symmetry_multiplicity
 _atom_site_fract_x
 _atom_site_fract_y
 _atom_site_fract_z
 _atom_site_occupancy
  La  La0  1  0.599937  0.599937  0.599937  1
  La  La1  1  0.595408  0.595408  0.206382  1
  La  La2  1  0.595408  0.206382  0.595408  1
  La  La3  1  0.206382  0.595408  0.595408  1
  La  La4  1  0.067140  0.439366  0.439366  1
  La  La5  1  0.441969  0.057979  0.057979  1
  La  La6  1  0.439366  0.067140  0.439366  1
  La  La7  1  0.057979  0.441969  0.057979  1
  La  La8  1  0.439366  0.439366  0.067140  1
  La  La9  1  0.057979  0.057979  0.441969  1
  La  La10  1  0.185515  0.813212  0.813212  1
  La  La11  1  0.809613  0.187827  0.187827  1
  La  La12  1  0.813212  0.185515  0.813212  1
  La  La13  1  0.187827  0.809613  0.187827  1
  La  La14  1  0.813212  0.813212  0.185515  1
  La  La15  1  0.187827  0.187827  0.809613  1
  Cd  Cd16  1  0.829670  0.829670  0.829670  1
  Cd  Cd17  1  0.830005  0.830005  0.510367  1
  Cd  Cd18  1  0.830005  0.510367  0.830005  1
  Cd  Cd19  1  0.510367  0.830005  0.830005  1
  Ru  Ru20  1  0.391051  0.391051  0.391051  1
  Pt  Pt21  1  0.393429  0.393429  0.823903  1
  Pt  Pt22  1  0.393429  0.823903  0.393429  1
  Pt  Pt23  1  0.823903  0.393429  0.393429  1
