# generated using pymatgen
data_Tb4Er6Si5As
_symmetry_space_group_name_H-M   'P 1'
_cell_length_a   8.41840600
_cell_length_b   8.44176355
_cell_length_c   6.28167900
_cell_angle_alpha   90.00000000
_cell_angle_beta   90.00000000
_cell_angle_gamma   119.90851370
_symmetry_Int_Tables_number   1
_chemical_formula_structural   Tb4Er6Si5As
_chemical_formula_sum   'Tb4 Er6 Si5 As1'
_cell_volume   386.96265129
_cell_formula_units_Z   1
loop_
 _symmetry_equiv_pos_site_id
 _symmetry_equiv_pos_as_xyz
  1  'x, y, z'
loop_
 _atom_site_type_symbol
 _atom_site_label
 _atom_site_symmetry_multiplicity
 _atom_site_fract_x
 _atom_site_fract_y
 _atom_site_fract_z
 _atom_site_occupancy
  Tb  Tb0  1  0.996253  0.752588  0.750000  1
  Tb  Tb1  1  0.757773  0.000000  0.750000  1
  Tb  Tb2  1  0.243664  0.247412  0.750000  1
  Tb  Tb3  1  0.243574  0.000000  0.250000  1
  Er  Er4  1  0.000040  0.245006  0.250000  1
  Er  Er5  1  0.755034  0.754994  0.250000  1
  Er  Er6  1  0.332978  0.663581  0.498399  1
  Er  Er7  1  0.669397  0.336419  0.001601  1
  Er  Er8  1  0.669397  0.336419  0.498399  1
  Er  Er9  1  0.332978  0.663581  0.001601  1
  Si  Si10  1  0.394228  0.394187  0.250000  1
  Si  Si11  1  0.000041  0.605813  0.250000  1
  Si  Si12  1  0.999585  0.394716  0.750000  1
  Si  Si13  1  0.604868  0.605284  0.750000  1
  Si  Si14  1  0.608457  0.000000  0.250000  1
  As  As15  1  0.391731  0.000000  0.750000  1
