# generated using pymatgen
data_TmSc5H18
_symmetry_space_group_name_H-M   'P 1'
_cell_length_a   5.89140300
_cell_length_b   5.89963003
_cell_length_c   6.16513491
_cell_angle_alpha   90.07711476
_cell_angle_beta   90.00000000
_cell_angle_gamma   119.95387544
_symmetry_Int_Tables_number   1
_chemical_formula_structural   TmSc5H18
_chemical_formula_sum   'Tm1 Sc5 H18'
_cell_volume   185.65979479
_cell_formula_units_Z   1
loop_
 _symmetry_equiv_pos_site_id
 _symmetry_equiv_pos_as_xyz
  1  'x, y, z'
loop_
 _atom_site_type_symbol
 _atom_site_label
 _atom_site_symmetry_multiplicity
 _atom_site_fract_x
 _atom_site_fract_y
 _atom_site_fract_z
 _atom_site_occupancy
  Tm  Tm0  1  0.334072  0.000000  0.250000  1
  Sc  Sc1  1  0.661189  0.000000  0.750000  1
  Sc  Sc2  1  0.340161  0.342050  0.749657  1
  Sc  Sc3  1  0.998111  0.657950  0.750343  1
  Sc  Sc4  1  0.670490  0.669382  0.250324  1
  Sc  Sc5  1  0.001107  0.330618  0.249676  1
  H  H6  1  0.332170  0.956897  0.902385  1
  H  H7  1  0.630404  0.667911  0.909064  1
  H  H8  1  0.037938  0.371360  0.909556  1
  H  H9  1  0.306818  0.331787  0.412370  1
  H  H10  1  0.012063  0.683408  0.414876  1
  H  H11  1  0.671058  0.976580  0.412557  1
  H  H12  1  0.694478  0.023420  0.087443  1
  H  H13  1  0.328655  0.316592  0.085124  1
  H  H14  1  0.975030  0.668213  0.087630  1
  H  H15  1  0.666578  0.628640  0.590444  1
  H  H16  1  0.962493  0.332089  0.590936  1
  H  H17  1  0.375273  0.043103  0.597615  1
  H  H18  1  0.001655  0.000000  0.750000  1
  H  H19  1  0.988640  0.000000  0.250000  1
  H  H20  1  0.665996  0.332325  0.819719  1
  H  H21  1  0.678799  0.345647  0.294327  1
  H  H22  1  0.333151  0.654353  0.205673  1
  H  H23  1  0.333670  0.667675  0.680281  1
