# generated using pymatgen
data_YTm9(CoSb2)2
_symmetry_space_group_name_H-M   'P 1'
_cell_length_a   7.77422400
_cell_length_b   8.71448600
_cell_length_c   12.06925700
_cell_angle_alpha   90.00000000
_cell_angle_beta   90.00000000
_cell_angle_gamma   90.00000000
_symmetry_Int_Tables_number   1
_chemical_formula_structural   YTm9(CoSb2)2
_chemical_formula_sum   'Y2 Tm18 Co4 Sb8'
_cell_volume   817.67244310
_cell_formula_units_Z   2
loop_
 _symmetry_equiv_pos_site_id
 _symmetry_equiv_pos_as_xyz
  1  'x, y, z'
loop_
 _atom_site_type_symbol
 _atom_site_label
 _atom_site_symmetry_multiplicity
 _atom_site_fract_x
 _atom_site_fract_y
 _atom_site_fract_z
 _atom_site_occupancy
  Y  Y0  1  0.376850  0.250000  0.692883  1
  Y  Y1  1  0.876850  0.750000  0.807117  1
  Tm  Tm2  1  0.156610  0.750000  0.203588  1
  Tm  Tm3  1  0.656610  0.250000  0.296412  1
  Tm  Tm4  1  0.843839  0.250000  0.796533  1
  Tm  Tm5  1  0.343839  0.750000  0.703467  1
  Tm  Tm6  1  0.450202  0.750000  0.998205  1
  Tm  Tm7  1  0.950202  0.250000  0.501795  1
  Tm  Tm8  1  0.549224  0.250000  0.002291  1
  Tm  Tm9  1  0.049224  0.750000  0.497709  1
  Tm  Tm10  1  0.621782  0.750000  0.308474  1
  Tm  Tm11  1  0.121782  0.250000  0.191526  1
  Tm  Tm12  1  0.823738  0.963573  0.065994  1
  Tm  Tm13  1  0.323738  0.036427  0.434006  1
  Tm  Tm14  1  0.176693  0.462234  0.935047  1
  Tm  Tm15  1  0.676693  0.537766  0.564953  1
  Tm  Tm16  1  0.176693  0.037766  0.935047  1
  Tm  Tm17  1  0.676693  0.962234  0.564953  1
  Tm  Tm18  1  0.823738  0.536427  0.065994  1
  Tm  Tm19  1  0.323738  0.463573  0.434006  1
  Co  Co20  1  0.431916  0.750000  0.490613  1
  Co  Co21  1  0.931916  0.250000  0.009387  1
  Co  Co22  1  0.568992  0.250000  0.508235  1
  Co  Co23  1  0.068992  0.750000  0.991765  1
  Sb  Sb24  1  0.931002  0.991606  0.327469  1
  Sb  Sb25  1  0.431002  0.008394  0.172531  1
  Sb  Sb26  1  0.068859  0.491472  0.672205  1
  Sb  Sb27  1  0.568859  0.508528  0.827795  1
  Sb  Sb28  1  0.068859  0.008528  0.672205  1
  Sb  Sb29  1  0.568859  0.991472  0.827795  1
  Sb  Sb30  1  0.931002  0.508394  0.327469  1
  Sb  Sb31  1  0.431002  0.491606  0.172531  1
