# generated using pymatgen
data_Sc4In2Hg3Pt
_symmetry_space_group_name_H-M   'P 1'
_cell_length_a   7.84170815
_cell_length_b   7.84170745
_cell_length_c   7.12629900
_cell_angle_alpha   90.00000000
_cell_angle_beta   90.00000000
_cell_angle_gamma   90.70107687
_symmetry_Int_Tables_number   1
_chemical_formula_structural   Sc4In2Hg3Pt
_chemical_formula_sum   'Sc8 In4 Hg6 Pt2'
_cell_volume   438.18029056
_cell_formula_units_Z   2
loop_
 _symmetry_equiv_pos_site_id
 _symmetry_equiv_pos_as_xyz
  1  'x, y, z'
loop_
 _atom_site_type_symbol
 _atom_site_label
 _atom_site_symmetry_multiplicity
 _atom_site_fract_x
 _atom_site_fract_y
 _atom_site_fract_z
 _atom_site_occupancy
  Sc  Sc0  1  0.167484  0.122346  0.000000  1
  Sc  Sc1  1  0.877654  0.832516  0.000000  1
  Sc  Sc2  1  0.650385  0.349615  0.500000  1
  Sc  Sc3  1  0.328039  0.671961  0.500000  1
  Sc  Sc4  1  0.681377  0.318623  0.000000  1
  Sc  Sc5  1  0.296101  0.703899  0.000000  1
  Sc  Sc6  1  0.846382  0.810164  0.500000  1
  Sc  Sc7  1  0.189836  0.153618  0.500000  1
  In  In8  1  0.493795  0.999415  0.250956  1
  In  In9  1  0.493795  0.999415  0.749044  1
  In  In10  1  0.000585  0.506205  0.250956  1
  In  In11  1  0.000585  0.506205  0.749044  1
  Hg  Hg12  1  0.361964  0.372950  0.220922  1
  Hg  Hg13  1  0.627050  0.638036  0.779078  1
  Hg  Hg14  1  0.627050  0.638036  0.220922  1
  Hg  Hg15  1  0.869105  0.130895  0.722824  1
  Hg  Hg16  1  0.869105  0.130895  0.277176  1
  Hg  Hg17  1  0.361964  0.372950  0.779078  1
  Pt  Pt18  1  0.128870  0.871130  0.279019  1
  Pt  Pt19  1  0.128870  0.871130  0.720981  1
