# generated using pymatgen
data_Ba4BiSbO8
_symmetry_space_group_name_H-M   'P 1'
_cell_length_a   7.48595338
_cell_length_b   7.48595284
_cell_length_c   6.15475300
_cell_angle_alpha   90.00000000
_cell_angle_beta   90.00000000
_cell_angle_gamma   131.78025011
_symmetry_Int_Tables_number   1
_chemical_formula_structural   Ba4BiSbO8
_chemical_formula_sum   'Ba4 Bi1 Sb1 O8'
_cell_volume   257.20079203
_cell_formula_units_Z   1
loop_
 _symmetry_equiv_pos_site_id
 _symmetry_equiv_pos_as_xyz
  1  'x, y, z'
loop_
 _atom_site_type_symbol
 _atom_site_label
 _atom_site_symmetry_multiplicity
 _atom_site_fract_x
 _atom_site_fract_y
 _atom_site_fract_z
 _atom_site_occupancy
  Ba  Ba0  1  0.354971  0.645029  0.000000  1
  Ba  Ba1  1  0.852779  0.147221  0.500000  1
  Ba  Ba2  1  0.147221  0.852779  0.500000  1
  Ba  Ba3  1  0.645029  0.354971  0.000000  1
  Bi  Bi4  1  0.000000  0.000000  0.000000  1
  Sb  Sb5  1  0.500000  0.500000  0.500000  1
  O  O6  1  0.264808  0.264808  0.728959  1
  O  O7  1  0.735192  0.735192  0.271041  1
  O  O8  1  0.735192  0.735192  0.728959  1
  O  O9  1  0.264808  0.264808  0.271041  1
  O  O10  1  0.170982  0.829018  0.000000  1
  O  O11  1  0.651372  0.348628  0.500000  1
  O  O12  1  0.348628  0.651372  0.500000  1
  O  O13  1  0.829018  0.170982  0.000000  1
