# generated using pymatgen
data_Yb2BBrO3
_symmetry_space_group_name_H-M   'P 1'
_cell_length_a   8.82147800
_cell_length_b   4.00181010
_cell_length_c   12.33303985
_cell_angle_alpha   79.08441782
_cell_angle_beta   90.00000000
_cell_angle_gamma   90.00000000
_symmetry_Int_Tables_number   1
_chemical_formula_structural   Yb2BBrO3
_chemical_formula_sum   'Yb8 B4 Br4 O12'
_cell_volume   427.50227734
_cell_formula_units_Z   4
loop_
 _symmetry_equiv_pos_site_id
 _symmetry_equiv_pos_as_xyz
  1  'x, y, z'
loop_
 _atom_site_type_symbol
 _atom_site_label
 _atom_site_symmetry_multiplicity
 _atom_site_fract_x
 _atom_site_fract_y
 _atom_site_fract_z
 _atom_site_occupancy
  Yb  Yb0  1  0.612981  0.668963  0.882226  1
  Yb  Yb1  1  0.387019  0.331037  0.117774  1
  Yb  Yb2  1  0.126860  0.702614  0.857753  1
  Yb  Yb3  1  0.887019  0.668963  0.382226  1
  Yb  Yb4  1  0.626860  0.297386  0.642247  1
  Yb  Yb5  1  0.373140  0.702614  0.357753  1
  Yb  Yb6  1  0.873140  0.297386  0.142247  1
  Yb  Yb7  1  0.112981  0.331037  0.617774  1
  B  B8  1  0.632713  0.709638  0.156301  1
  B  B9  1  0.867287  0.709638  0.656301  1
  B  B10  1  0.367287  0.290362  0.843699  1
  B  B11  1  0.132713  0.290362  0.343699  1
  Br  Br12  1  0.869586  0.187359  0.907818  1
  Br  Br13  1  0.130414  0.812641  0.092182  1
  Br  Br14  1  0.369586  0.812641  0.592182  1
  Br  Br15  1  0.630414  0.187359  0.407818  1
  O  O16  1  0.489740  0.802486  0.187853  1
  O  O17  1  0.989740  0.197514  0.312147  1
  O  O18  1  0.769625  0.775942  0.204069  1
  O  O19  1  0.637448  0.512971  0.073751  1
  O  O20  1  0.010260  0.802486  0.687853  1
  O  O21  1  0.730375  0.775942  0.704069  1
  O  O22  1  0.510260  0.197514  0.812147  1
  O  O23  1  0.269625  0.224058  0.295931  1
  O  O24  1  0.362552  0.487029  0.926249  1
  O  O25  1  0.137448  0.487029  0.426249  1
  O  O26  1  0.862552  0.512971  0.573751  1
  O  O27  1  0.230375  0.224058  0.795931  1
