# generated using pymatgen
data_Ho2NiIr5
_symmetry_space_group_name_H-M   'P 1'
_cell_length_a   5.33076600
_cell_length_b   5.33073605
_cell_length_c   17.14496400
_cell_angle_alpha   90.00000000
_cell_angle_beta   90.00000000
_cell_angle_gamma   120.00117876
_symmetry_Int_Tables_number   1
_chemical_formula_structural   Ho2NiIr5
_chemical_formula_sum   'Ho6 Ni3 Ir15'
_cell_volume   421.92848711
_cell_formula_units_Z   3
loop_
 _symmetry_equiv_pos_site_id
 _symmetry_equiv_pos_as_xyz
  1  'x, y, z'
loop_
 _atom_site_type_symbol
 _atom_site_label
 _atom_site_symmetry_multiplicity
 _atom_site_fract_x
 _atom_site_fract_y
 _atom_site_fract_z
 _atom_site_occupancy
  Ho  Ho0  1  0.333367  0.666672  0.961108  1
  Ho  Ho1  1  0.666696  0.333343  0.043193  1
  Ho  Ho2  1  0.666696  0.333343  0.456807  1
  Ho  Ho3  1  0.333367  0.666672  0.538892  1
  Ho  Ho4  1  0.333320  0.666749  0.750000  1
  Ho  Ho5  1  0.666576  0.333282  0.250000  1
  Ni  Ni6  1  0.332940  0.666389  0.250000  1
  Ni  Ni7  1  0.666631  0.333508  0.750000  1
  Ni  Ni8  1  0.000339  0.000329  0.250000  1
  Ir  Ir9  1  0.167796  0.832219  0.368969  1
  Ir  Ir10  1  0.167797  0.335519  0.368967  1
  Ir  Ir11  1  0.664390  0.832170  0.368922  1
  Ir  Ir12  1  0.831360  0.168666  0.625934  1
  Ir  Ir13  1  0.831369  0.662674  0.625917  1
  Ir  Ir14  1  0.337333  0.168640  0.625911  1
  Ir  Ir15  1  0.831360  0.168666  0.874066  1
  Ir  Ir16  1  0.831369  0.662674  0.874083  1
  Ir  Ir17  1  0.337333  0.168640  0.874089  1
  Ir  Ir18  1  0.167796  0.832219  0.131031  1
  Ir  Ir19  1  0.167797  0.335519  0.131033  1
  Ir  Ir20  1  0.664390  0.832170  0.131078  1
  Ir  Ir21  1  0.000056  0.999991  0.750000  1
  Ir  Ir22  1  0.999962  0.999970  0.497075  1
  Ir  Ir23  1  0.999962  0.999970  0.002925  1
