# generated using pymatgen
data_LaEuY2(Mo2O7)2
_symmetry_space_group_name_H-M   'P 1'
_cell_length_a   7.40651940
_cell_length_b   7.44648435
_cell_length_c   7.45363152
_cell_angle_alpha   59.81259193
_cell_angle_beta   60.20887246
_cell_angle_gamma   60.17737723
_symmetry_Int_Tables_number   1
_chemical_formula_structural   LaEuY2(Mo2O7)2
_chemical_formula_sum   'La1 Eu1 Y2 Mo4 O14'
_cell_volume   291.11022453
_cell_formula_units_Z   1
loop_
 _symmetry_equiv_pos_site_id
 _symmetry_equiv_pos_as_xyz
  1  'x, y, z'
loop_
 _atom_site_type_symbol
 _atom_site_label
 _atom_site_symmetry_multiplicity
 _atom_site_fract_x
 _atom_site_fract_y
 _atom_site_fract_z
 _atom_site_occupancy
  La  La0  1  0.125000  0.125000  0.625000  1
  Eu  Eu1  1  0.125000  0.625000  0.125000  1
  Y  Y2  1  0.125000  0.125000  0.125000  1
  Y  Y3  1  0.625000  0.125000  0.125000  1
  Mo  Mo4  1  0.625000  0.625000  0.625000  1
  Mo  Mo5  1  0.125000  0.625000  0.625000  1
  Mo  Mo6  1  0.625000  0.125000  0.625000  1
  Mo  Mo7  1  0.625000  0.625000  0.125000  1
  O  O8  1  0.257603  0.242961  0.241833  1
  O  O9  1  0.992397  0.007039  0.008167  1
  O  O10  1  0.546593  0.956980  0.538375  1
  O  O11  1  0.292643  0.711086  0.293619  1
  O  O12  1  0.547348  0.538914  0.956381  1
  O  O13  1  0.959881  0.542809  0.537428  1
  O  O14  1  0.532885  0.968176  0.966053  1
  O  O15  1  0.958052  0.956980  0.538375  1
  O  O16  1  0.957357  0.538914  0.956381  1
  O  O17  1  0.717115  0.281824  0.283947  1
  O  O18  1  0.290119  0.707191  0.712572  1
  O  O19  1  0.702652  0.711086  0.293619  1
  O  O20  1  0.291948  0.293020  0.711625  1
  O  O21  1  0.703407  0.293020  0.711625  1
