# generated using pymatgen
data_Pr2Nd3IrRu
_symmetry_space_group_name_H-M   'P 1'
_cell_length_a   9.01198815
_cell_length_b   9.01198906
_cell_length_c   7.39141309
_cell_angle_alpha   83.60732061
_cell_angle_beta   83.60732041
_cell_angle_gamma   43.34057727
_symmetry_Int_Tables_number   1
_chemical_formula_structural   Pr2Nd3IrRu
_chemical_formula_sum   'Pr4 Nd6 Ir2 Ru2'
_cell_volume   409.03870691
_cell_formula_units_Z   2
loop_
 _symmetry_equiv_pos_site_id
 _symmetry_equiv_pos_as_xyz
  1  'x, y, z'
loop_
 _atom_site_type_symbol
 _atom_site_label
 _atom_site_symmetry_multiplicity
 _atom_site_fract_x
 _atom_site_fract_y
 _atom_site_fract_z
 _atom_site_occupancy
  Pr  Pr0  1  0.014256  0.799205  0.918259  1
  Pr  Pr1  1  0.200795  0.985744  0.581741  1
  Pr  Pr2  1  0.981400  0.204389  0.085098  1
  Pr  Pr3  1  0.795611  0.018600  0.414902  1
  Nd  Nd4  1  0.359163  0.209221  0.815913  1
  Nd  Nd5  1  0.790779  0.640837  0.684087  1
  Nd  Nd6  1  0.644999  0.789032  0.185802  1
  Nd  Nd7  1  0.210968  0.355001  0.314198  1
  Nd  Nd8  1  0.569408  0.430592  0.750000  1
  Nd  Nd9  1  0.429016  0.570984  0.250000  1
  Ir  Ir10  1  0.179846  0.594434  0.575101  1
  Ir  Ir11  1  0.405566  0.820154  0.924899  1
  Ru  Ru12  1  0.821165  0.402974  0.427041  1
  Ru  Ru13  1  0.597026  0.178835  0.072959  1
