# generated using pymatgen
data_PrDyCdIrO7
_symmetry_space_group_name_H-M   'P 1'
_cell_length_a   6.44434256
_cell_length_b   6.65644308
_cell_length_c   7.59098600
_cell_angle_alpha   90.00000000
_cell_angle_beta   90.00000000
_cell_angle_gamma   111.48357365
_symmetry_Int_Tables_number   1
_chemical_formula_structural   PrDyCdIrO7
_chemical_formula_sum   'Pr2 Dy2 Cd2 Ir2 O14'
_cell_volume   303.00232301
_cell_formula_units_Z   2
loop_
 _symmetry_equiv_pos_site_id
 _symmetry_equiv_pos_as_xyz
  1  'x, y, z'
loop_
 _atom_site_type_symbol
 _atom_site_label
 _atom_site_symmetry_multiplicity
 _atom_site_fract_x
 _atom_site_fract_y
 _atom_site_fract_z
 _atom_site_occupancy
  Pr  Pr0  1  0.000000  0.000000  0.000000  1
  Pr  Pr1  1  0.000000  0.000000  0.500000  1
  Dy  Dy2  1  0.953834  0.489433  0.750000  1
  Dy  Dy3  1  0.046166  0.510567  0.250000  1
  Cd  Cd4  1  0.485177  0.984644  0.750000  1
  Cd  Cd5  1  0.514823  0.015356  0.250000  1
  Ir  Ir6  1  0.500000  0.500000  0.000000  1
  Ir  Ir7  1  0.500000  0.500000  0.500000  1
  O  O8  1  0.589341  0.504662  0.750000  1
  O  O9  1  0.410659  0.495338  0.250000  1
  O  O10  1  0.843812  0.128668  0.750000  1
  O  O11  1  0.156188  0.871332  0.250000  1
  O  O12  1  0.125160  0.851183  0.750000  1
  O  O13  1  0.874840  0.148817  0.250000  1
  O  O14  1  0.431427  0.195952  0.002736  1
  O  O15  1  0.568573  0.804048  0.502736  1
  O  O16  1  0.175398  0.431693  0.966973  1
  O  O17  1  0.824602  0.568307  0.466973  1
  O  O18  1  0.431427  0.195952  0.497264  1
  O  O19  1  0.568573  0.804048  0.997264  1
  O  O20  1  0.824602  0.568307  0.033027  1
  O  O21  1  0.175398  0.431693  0.533027  1
