# generated using pymatgen
data_Cs4NpPaTe6
_symmetry_space_group_name_H-M   'P 1'
_cell_length_a   8.38815020
_cell_length_b   8.38815043
_cell_length_c   9.33275600
_cell_angle_alpha   81.22794531
_cell_angle_beta   81.22794506
_cell_angle_gamma   119.95108971
_symmetry_Int_Tables_number   1
_chemical_formula_structural   Cs4NpPaTe6
_chemical_formula_sum   'Cs4 Np1 Pa1 Te6'
_cell_volume   541.89633621
_cell_formula_units_Z   1
loop_
 _symmetry_equiv_pos_site_id
 _symmetry_equiv_pos_as_xyz
  1  'x, y, z'
loop_
 _atom_site_type_symbol
 _atom_site_label
 _atom_site_symmetry_multiplicity
 _atom_site_fract_x
 _atom_site_fract_y
 _atom_site_fract_z
 _atom_site_occupancy
  Cs  Cs0  1  0.500294  0.499706  0.000000  1
  Cs  Cs1  1  0.652315  0.347685  0.500000  1
  Cs  Cs2  1  0.348883  0.651117  0.500000  1
  Cs  Cs3  1  0.999612  0.000388  0.500000  1
  Np  Np4  1  0.831977  0.168023  0.000000  1
  Pa  Pa5  1  0.167806  0.832194  0.000000  1
  Te  Te6  1  0.826685  0.815209  0.192029  1
  Te  Te7  1  0.184791  0.173315  0.807971  1
  Te  Te8  1  0.420622  0.039293  0.197960  1
  Te  Te9  1  0.554794  0.948487  0.802066  1
  Te  Te10  1  0.960707  0.579378  0.802040  1
  Te  Te11  1  0.051513  0.445206  0.197934  1
