# generated using pymatgen
data_Ba6Sr2UInSe12
_symmetry_space_group_name_H-M   'P 1'
_cell_length_a   8.94949749
_cell_length_b   8.94949740
_cell_length_c   8.94949801
_cell_angle_alpha   90.92857509
_cell_angle_beta   90.92857730
_cell_angle_gamma   90.92858402
_symmetry_Int_Tables_number   1
_chemical_formula_structural   Ba6Sr2UInSe12
_chemical_formula_sum   'Ba6 Sr2 U1 In1 Se12'
_cell_volume   716.51116702
_cell_formula_units_Z   1
loop_
 _symmetry_equiv_pos_site_id
 _symmetry_equiv_pos_as_xyz
  1  'x, y, z'
loop_
 _atom_site_type_symbol
 _atom_site_label
 _atom_site_symmetry_multiplicity
 _atom_site_fract_x
 _atom_site_fract_y
 _atom_site_fract_z
 _atom_site_occupancy
  Ba  Ba0  1  0.868169  0.622447  0.257899  1
  Ba  Ba1  1  0.257899  0.868169  0.622447  1
  Ba  Ba2  1  0.622447  0.257899  0.868169  1
  Ba  Ba3  1  0.742101  0.131831  0.377553  1
  Ba  Ba4  1  0.377553  0.742101  0.131831  1
  Ba  Ba5  1  0.131831  0.377553  0.742101  1
  Sr  Sr6  1  0.258137  0.258137  0.258137  1
  Sr  Sr7  1  0.741863  0.741863  0.741863  1
  U  U8  1  0.000000  0.000000  0.000000  1
  In  In9  1  0.500000  0.500000  0.500000  1
  Se  Se10  1  0.199825  0.556238  0.417944  1
  Se  Se11  1  0.417944  0.199825  0.556238  1
  Se  Se12  1  0.556238  0.417944  0.199825  1
  Se  Se13  1  0.923157  0.050854  0.704618  1
  Se  Se14  1  0.704618  0.923157  0.050854  1
  Se  Se15  1  0.050854  0.704618  0.923157  1
  Se  Se16  1  0.800175  0.443762  0.582056  1
  Se  Se17  1  0.582056  0.800175  0.443762  1
  Se  Se18  1  0.443762  0.582056  0.800175  1
  Se  Se19  1  0.076843  0.949146  0.295382  1
  Se  Se20  1  0.295382  0.076843  0.949146  1
  Se  Se21  1  0.949146  0.295382  0.076843  1
