# generated using pymatgen
data_HoEr4(In2Cu)2
_symmetry_space_group_name_H-M   'P 1'
_cell_length_a   3.63443600
_cell_length_b   8.01137000
_cell_length_c   17.89719700
_cell_angle_alpha   90.00000000
_cell_angle_beta   90.00000000
_cell_angle_gamma   90.00000000
_symmetry_Int_Tables_number   1
_chemical_formula_structural   HoEr4(In2Cu)2
_chemical_formula_sum   'Ho2 Er8 In8 Cu4'
_cell_volume   521.10931210
_cell_formula_units_Z   2
loop_
 _symmetry_equiv_pos_site_id
 _symmetry_equiv_pos_as_xyz
  1  'x, y, z'
loop_
 _atom_site_type_symbol
 _atom_site_label
 _atom_site_symmetry_multiplicity
 _atom_site_fract_x
 _atom_site_fract_y
 _atom_site_fract_z
 _atom_site_occupancy
  Ho  Ho0  1  0.000000  0.000000  0.000000  1
  Ho  Ho1  1  0.000000  0.500000  0.500000  1
  Er  Er2  1  0.000000  0.118843  0.416184  1
  Er  Er3  1  0.000000  0.881157  0.583816  1
  Er  Er4  1  0.000000  0.381157  0.916184  1
  Er  Er5  1  0.000000  0.618843  0.083816  1
  Er  Er6  1  0.000000  0.240841  0.219599  1
  Er  Er7  1  0.000000  0.759159  0.780401  1
  Er  Er8  1  0.000000  0.259159  0.719599  1
  Er  Er9  1  0.000000  0.740841  0.280401  1
  In  In10  1  0.500000  0.423247  0.349855  1
  In  In11  1  0.500000  0.576753  0.650145  1
  In  In12  1  0.500000  0.076753  0.849855  1
  In  In13  1  0.500000  0.923247  0.150145  1
  In  In14  1  0.500000  0.293592  0.068224  1
  In  In15  1  0.500000  0.706408  0.931776  1
  In  In16  1  0.500000  0.206408  0.568224  1
  In  In17  1  0.500000  0.793592  0.431776  1
  Cu  Cu18  1  0.500000  0.025277  0.301743  1
  Cu  Cu19  1  0.500000  0.974723  0.698257  1
  Cu  Cu20  1  0.500000  0.474723  0.801743  1
  Cu  Cu21  1  0.500000  0.525277  0.198257  1
