# generated using pymatgen
data_Ba5Cr2F16
_symmetry_space_group_name_H-M   'P 1'
_cell_length_a   7.91233800
_cell_length_b   7.91233811
_cell_length_c   15.37718200
_cell_angle_alpha   90.00000000
_cell_angle_beta   90.00000000
_cell_angle_gamma   117.93740338
_symmetry_Int_Tables_number   1
_chemical_formula_structural   Ba5Cr2F16
_chemical_formula_sum   'Ba10 Cr4 F32'
_cell_volume   850.49800634
_cell_formula_units_Z   2
loop_
 _symmetry_equiv_pos_site_id
 _symmetry_equiv_pos_as_xyz
  1  'x, y, z'
loop_
 _atom_site_type_symbol
 _atom_site_label
 _atom_site_symmetry_multiplicity
 _atom_site_fract_x
 _atom_site_fract_y
 _atom_site_fract_z
 _atom_site_occupancy
  Ba  Ba0  1  0.000000  0.000000  0.717571  1
  Ba  Ba1  1  0.000000  0.000000  0.282429  1
  Ba  Ba2  1  0.500000  0.500000  0.782429  1
  Ba  Ba3  1  0.500000  0.500000  0.217571  1
  Ba  Ba4  1  0.500000  0.500000  0.500000  1
  Ba  Ba5  1  0.000000  0.000000  0.000000  1
  Ba  Ba6  1  0.000000  0.500000  0.626751  1
  Ba  Ba7  1  0.500000  0.000000  0.373249  1
  Ba  Ba8  1  0.500000  0.000000  0.873249  1
  Ba  Ba9  1  0.000000  0.500000  0.126751  1
  Cr  Cr10  1  0.500000  0.000000  0.622063  1
  Cr  Cr11  1  0.000000  0.500000  0.377937  1
  Cr  Cr12  1  0.000000  0.500000  0.877937  1
  Cr  Cr13  1  0.500000  0.000000  0.122063  1
  F  F14  1  0.516971  0.179977  0.712984  1
  F  F15  1  0.483029  0.820023  0.712984  1
  F  F16  1  0.179977  0.516971  0.287016  1
  F  F17  1  0.820023  0.483029  0.287016  1
  F  F18  1  0.983029  0.320023  0.787016  1
  F  F19  1  0.016971  0.679977  0.787016  1
  F  F20  1  0.320023  0.983029  0.212984  1
  F  F21  1  0.679977  0.016971  0.212984  1
  F  F22  1  0.218766  0.883398  0.622545  1
  F  F23  1  0.781234  0.116602  0.622545  1
  F  F24  1  0.883398  0.218766  0.377455  1
  F  F25  1  0.116602  0.781234  0.377455  1
  F  F26  1  0.281234  0.616602  0.877455  1
  F  F27  1  0.718766  0.383398  0.877455  1
  F  F28  1  0.668853  0.001408  0.029839  1
  F  F29  1  0.331147  0.998592  0.029839  1
  F  F30  1  0.001408  0.668853  0.970161  1
  F  F31  1  0.998592  0.331147  0.970161  1
  F  F32  1  0.831147  0.498592  0.470161  1
  F  F33  1  0.168853  0.501408  0.470161  1
  F  F34  1  0.498592  0.831147  0.529839  1
  F  F35  1  0.501408  0.168853  0.529839  1
  F  F36  1  0.863408  0.757351  0.146376  1
  F  F37  1  0.136592  0.242649  0.146376  1
  F  F38  1  0.757351  0.863408  0.853624  1
  F  F39  1  0.242649  0.136592  0.853624  1
  F  F40  1  0.636592  0.742649  0.353624  1
  F  F41  1  0.363408  0.257351  0.353624  1
  F  F42  1  0.742649  0.636592  0.646376  1
  F  F43  1  0.257351  0.363408  0.646376  1
  F  F44  1  0.383398  0.718766  0.122545  1
  F  F45  1  0.616602  0.281234  0.122545  1
