# generated using pymatgen
data_Ce3Np5(B6Mo)4
_symmetry_space_group_name_H-M   'P 1'
_cell_length_a   3.70930000
_cell_length_b   9.31158525
_cell_length_c   11.37561931
_cell_angle_alpha   90.02657267
_cell_angle_beta   90.00000000
_cell_angle_gamma   90.00000000
_symmetry_Int_Tables_number   1
_chemical_formula_structural   Ce3Np5(B6Mo)4
_chemical_formula_sum   'Ce3 Np5 B24 Mo4'
_cell_volume   392.90774178
_cell_formula_units_Z   1
loop_
 _symmetry_equiv_pos_site_id
 _symmetry_equiv_pos_as_xyz
  1  'x, y, z'
loop_
 _atom_site_type_symbol
 _atom_site_label
 _atom_site_symmetry_multiplicity
 _atom_site_fract_x
 _atom_site_fract_y
 _atom_site_fract_z
 _atom_site_occupancy
  Ce  Ce0  1  0.000000  0.336159  0.407557  1
  Ce  Ce1  1  0.000000  0.663752  0.592753  1
  Ce  Ce2  1  0.000000  0.836707  0.092151  1
  Np  Np3  1  0.000000  0.162444  0.906261  1
  Np  Np4  1  0.000000  0.958610  0.400001  1
  Np  Np5  1  0.000000  0.041405  0.600917  1
  Np  Np6  1  0.000000  0.457994  0.099852  1
  Np  Np7  1  0.000000  0.540320  0.900059  1
  B  B8  1  0.500000  0.553385  0.430818  1
  B  B9  1  0.500000  0.445947  0.569980  1
  B  B10  1  0.500000  0.054204  0.067297  1
  B  B11  1  0.500000  0.949400  0.930867  1
  B  B12  1  0.500000  0.746756  0.422898  1
  B  B13  1  0.500000  0.253036  0.577847  1
  B  B14  1  0.500000  0.245318  0.075555  1
  B  B15  1  0.500000  0.754404  0.922827  1
  B  B16  1  0.500000  0.805837  0.274562  1
  B  B17  1  0.500000  0.193612  0.726747  1
  B  B18  1  0.500000  0.305277  0.224621  1
  B  B19  1  0.500000  0.695069  0.774959  1
  B  B20  1  0.500000  0.644139  0.187126  1
  B  B21  1  0.500000  0.354087  0.813431  1
  B  B22  1  0.500000  0.144048  0.312429  1
  B  B23  1  0.500000  0.856565  0.687644  1
  B  B24  1  0.500000  0.989623  0.220805  1
  B  B25  1  0.500000  0.012644  0.779632  1
  B  B26  1  0.500000  0.489277  0.278493  1
  B  B27  1  0.500000  0.510384  0.721872  1
  B  B28  1  0.500000  0.637526  0.037789  1
  B  B29  1  0.500000  0.359460  0.961098  1
  B  B30  1  0.500000  0.136997  0.462036  1
  B  B31  1  0.500000  0.863495  0.538162  1
  Mo  Mo32  1  0.000000  0.647705  0.318284  1
  Mo  Mo33  1  0.000000  0.351025  0.683674  1
  Mo  Mo34  1  0.000000  0.148542  0.180248  1
  Mo  Mo35  1  0.000000  0.854847  0.818747  1
