# generated using pymatgen
data_DyEr11(Si3Pt)4
_symmetry_space_group_name_H-M   'P 1'
_cell_length_a   4.22518900
_cell_length_b   10.60350814
_cell_length_c   12.23521100
_cell_angle_alpha   89.99068981
_cell_angle_beta   90.00000000
_cell_angle_gamma   90.00000000
_symmetry_Int_Tables_number   1
_chemical_formula_structural   DyEr11(Si3Pt)4
_chemical_formula_sum   'Dy1 Er11 Si12 Pt4'
_cell_volume   548.15978650
_cell_formula_units_Z   1
loop_
 _symmetry_equiv_pos_site_id
 _symmetry_equiv_pos_as_xyz
  1  'x, y, z'
loop_
 _atom_site_type_symbol
 _atom_site_label
 _atom_site_symmetry_multiplicity
 _atom_site_fract_x
 _atom_site_fract_y
 _atom_site_fract_z
 _atom_site_occupancy
  Dy  Dy0  1  0.750000  0.160221  0.698538  1
  Er  Er1  1  0.250000  0.878335  0.020794  1
  Er  Er2  1  0.250000  0.621605  0.520688  1
  Er  Er3  1  0.750000  0.121591  0.979437  1
  Er  Er4  1  0.750000  0.378449  0.479231  1
  Er  Er5  1  0.250000  0.919243  0.601394  1
  Er  Er6  1  0.250000  0.580503  0.101509  1
  Er  Er7  1  0.750000  0.080493  0.398348  1
  Er  Er8  1  0.750000  0.419582  0.898580  1
  Er  Er9  1  0.250000  0.660419  0.801301  1
  Er  Er10  1  0.250000  0.839583  0.301319  1
  Er  Er11  1  0.750000  0.339575  0.198681  1
  Si  Si12  1  0.250000  0.015549  0.823536  1
  Si  Si13  1  0.250000  0.484004  0.323215  1
  Si  Si14  1  0.750000  0.983978  0.176759  1
  Si  Si15  1  0.750000  0.515975  0.676804  1
  Si  Si16  1  0.250000  0.246199  0.843741  1
  Si  Si17  1  0.250000  0.254169  0.343170  1
  Si  Si18  1  0.750000  0.754167  0.156735  1
  Si  Si19  1  0.750000  0.745865  0.656728  1
  Si  Si20  1  0.250000  0.193781  0.540312  1
  Si  Si21  1  0.250000  0.306539  0.041335  1
  Si  Si22  1  0.750000  0.806587  0.458702  1
  Si  Si23  1  0.750000  0.693484  0.958790  1
  Pt  Pt24  1  0.250000  0.389966  0.680582  1
  Pt  Pt25  1  0.250000  0.110619  0.180657  1
  Pt  Pt26  1  0.750000  0.610725  0.319316  1
  Pt  Pt27  1  0.750000  0.888793  0.819796  1
