# generated using pymatgen
data_LiTm4B16Rh3
_symmetry_space_group_name_H-M   'P 1'
_cell_length_a   3.53361100
_cell_length_b   5.91378130
_cell_length_c   11.44283573
_cell_angle_alpha   90.27769296
_cell_angle_beta   90.00000000
_cell_angle_gamma   90.00000000
_symmetry_Int_Tables_number   1
_chemical_formula_structural   LiTm4B16Rh3
_chemical_formula_sum   'Li1 Tm4 B16 Rh3'
_cell_volume   239.11816000
_cell_formula_units_Z   1
loop_
 _symmetry_equiv_pos_site_id
 _symmetry_equiv_pos_as_xyz
  1  'x, y, z'
loop_
 _atom_site_type_symbol
 _atom_site_label
 _atom_site_symmetry_multiplicity
 _atom_site_fract_x
 _atom_site_fract_y
 _atom_site_fract_z
 _atom_site_occupancy
  Li  Li0  1  0.000000  0.635512  0.588309  1
  Tm  Tm1  1  0.000000  0.128492  0.649080  1
  Tm  Tm2  1  0.000000  0.872568  0.353643  1
  Tm  Tm3  1  0.000000  0.630807  0.847077  1
  Tm  Tm4  1  0.000000  0.367719  0.149947  1
  B  B5  1  0.500000  0.787676  0.684225  1
  B  B6  1  0.500000  0.209229  0.315950  1
  B  B7  1  0.500000  0.288992  0.810016  1
  B  B8  1  0.500000  0.708143  0.187809  1
  B  B9  1  0.500000  0.865491  0.532584  1
  B  B10  1  0.500000  0.133793  0.469387  1
  B  B11  1  0.500000  0.365499  0.968211  1
  B  B12  1  0.500000  0.634714  0.029030  1
  B  B13  1  0.500000  0.024291  0.193801  1
  B  B14  1  0.500000  0.978537  0.804012  1
  B  B15  1  0.500000  0.520977  0.308305  1
  B  B16  1  0.500000  0.481227  0.691621  1
  B  B17  1  0.500000  0.113054  0.047530  1
  B  B18  1  0.500000  0.887029  0.951124  1
  B  B19  1  0.500000  0.613304  0.452889  1
  B  B20  1  0.500000  0.385792  0.546710  1
  Rh  Rh21  1  0.000000  0.371827  0.412031  1
  Rh  Rh22  1  0.000000  0.142043  0.910077  1
  Rh  Rh23  1  0.000000  0.853280  0.096632  1
