# generated using pymatgen
data_CeEr2Co2Sn3Pd
_symmetry_space_group_name_H-M   'P 1'
_cell_length_a   7.53095153
_cell_length_b   7.46095709
_cell_length_c   3.77493200
_cell_angle_alpha   90.00000000
_cell_angle_beta   90.00000000
_cell_angle_gamma   119.59801357
_symmetry_Int_Tables_number   1
_chemical_formula_structural   CeEr2Co2Sn3Pd
_chemical_formula_sum   'Ce1 Er2 Co2 Sn3 Pd1'
_cell_volume   184.42896739
_cell_formula_units_Z   1
loop_
 _symmetry_equiv_pos_site_id
 _symmetry_equiv_pos_as_xyz
  1  'x, y, z'
loop_
 _atom_site_type_symbol
 _atom_site_label
 _atom_site_symmetry_multiplicity
 _atom_site_fract_x
 _atom_site_fract_y
 _atom_site_fract_z
 _atom_site_occupancy
  Ce  Ce0  1  0.601140  0.023231  0.000000  1
  Er  Er1  1  0.990152  0.592178  0.000000  1
  Er  Er2  1  0.409455  0.400015  0.000000  1
  Co  Co3  1  0.665157  0.313979  0.500000  1
  Co  Co4  1  0.995660  0.998332  0.000000  1
  Sn  Sn5  1  0.746877  0.739676  0.500000  1
  Sn  Sn6  1  0.005603  0.259005  0.500000  1
  Sn  Sn7  1  0.247997  0.002934  0.500000  1
  Pd  Pd8  1  0.337960  0.670648  0.500000  1
