# generated using pymatgen
data_Ce4Pa2Sb8(PtRh)3
_symmetry_space_group_name_H-M   'P 1'
_cell_length_a   8.45724450
_cell_length_b   8.45954464
_cell_length_c   8.45954407
_cell_angle_alpha   109.50725581
_cell_angle_beta   109.19389384
_cell_angle_gamma   109.72395975
_symmetry_Int_Tables_number   1
_chemical_formula_structural   Ce4Pa2Sb8(PtRh)3
_chemical_formula_sum   'Ce4 Pa2 Sb8 Pt3 Rh3'
_cell_volume   465.83543806
_cell_formula_units_Z   1
loop_
 _symmetry_equiv_pos_site_id
 _symmetry_equiv_pos_as_xyz
  1  'x, y, z'
loop_
 _atom_site_type_symbol
 _atom_site_label
 _atom_site_symmetry_multiplicity
 _atom_site_fract_x
 _atom_site_fract_y
 _atom_site_fract_z
 _atom_site_occupancy
  Ce  Ce0  1  0.250000  0.122496  0.872496  1
  Ce  Ce1  1  0.750000  0.377154  0.627154  1
  Ce  Ce2  1  0.129026  0.876057  0.250961  1
  Ce  Ce3  1  0.370974  0.621936  0.747031  1
  Pa  Pa4  1  0.880422  0.255815  0.128556  1
  Pa  Pa5  1  0.619578  0.748135  0.375393  1
  Sb  Sb6  1  0.669687  0.498224  0.996449  1
  Sb  Sb7  1  0.496442  0.998159  0.669697  1
  Sb  Sb8  1  0.003558  0.673255  0.501717  1
  Sb  Sb9  1  0.830313  0.826763  0.828538  1
  Sb  Sb10  1  0.496701  0.998051  0.169036  1
  Sb  Sb11  1  0.173155  0.503965  0.001772  1
  Sb  Sb12  1  0.003299  0.172335  0.501350  1
  Sb  Sb13  1  0.326845  0.328617  0.330810  1
  Pt  Pt14  1  0.750000  0.878425  0.128425  1
  Pt  Pt15  1  0.627679  0.378526  0.250421  1
  Pt  Pt16  1  0.872321  0.122742  0.750847  1
  Rh  Rh17  1  0.375782  0.249857  0.625916  1
  Rh  Rh18  1  0.124218  0.750134  0.874075  1
  Rh  Rh19  1  0.250000  0.619354  0.369354  1
