# generated using pymatgen
data_Tb2Ho3Er(Co3P2)6
_symmetry_space_group_name_H-M   'P 1'
_cell_length_a   3.69518100
_cell_length_b   10.51743001
_cell_length_c   12.16970191
_cell_angle_alpha   90.05462503
_cell_angle_beta   90.00000000
_cell_angle_gamma   90.00000000
_symmetry_Int_Tables_number   1
_chemical_formula_structural   Tb2Ho3Er(Co3P2)6
_chemical_formula_sum   'Tb2 Ho3 Er1 Co18 P12'
_cell_volume   472.96073785
_cell_formula_units_Z   1
loop_
 _symmetry_equiv_pos_site_id
 _symmetry_equiv_pos_as_xyz
  1  'x, y, z'
loop_
 _atom_site_type_symbol
 _atom_site_label
 _atom_site_symmetry_multiplicity
 _atom_site_fract_x
 _atom_site_fract_y
 _atom_site_fract_z
 _atom_site_occupancy
  Tb  Tb0  1  0.750000  0.249997  0.477888  1
  Tb  Tb1  1  0.250000  0.749920  0.521914  1
  Ho  Ho2  1  0.250000  0.932648  0.794287  1
  Ho  Ho3  1  0.250000  0.567384  0.794117  1
  Ho  Ho4  1  0.750000  0.067684  0.205860  1
  Er  Er5  1  0.750000  0.432641  0.205716  1
  Co  Co6  1  0.250000  0.250041  0.841209  1
  Co  Co7  1  0.750000  0.749940  0.158651  1
  Co  Co8  1  0.250000  0.250294  0.295947  1
  Co  Co9  1  0.750000  0.749901  0.703990  1
  Co  Co10  1  0.750000  0.250262  0.013984  1
  Co  Co11  1  0.250000  0.749818  0.986515  1
  Co  Co12  1  0.250000  0.416592  0.005451  1
  Co  Co13  1  0.250000  0.083652  0.005390  1
  Co  Co14  1  0.750000  0.583143  0.994894  1
  Co  Co15  1  0.750000  0.916781  0.994778  1
  Co  Co16  1  0.250000  0.452689  0.569462  1
  Co  Co17  1  0.250000  0.047232  0.569709  1
  Co  Co18  1  0.750000  0.547187  0.429973  1
  Co  Co19  1  0.750000  0.952753  0.430300  1
  Co  Co20  1  0.250000  0.870831  0.289975  1
  Co  Co21  1  0.250000  0.628770  0.289716  1
  Co  Co22  1  0.750000  0.129121  0.710176  1
  Co  Co23  1  0.750000  0.370802  0.710016  1
  P  P24  1  0.250000  0.250408  0.117562  1
  P  P25  1  0.750000  0.749877  0.882737  1
  P  P26  1  0.250000  0.249917  0.656685  1
  P  P27  1  0.750000  0.750003  0.343303  1
  P  P28  1  0.250000  0.439817  0.383335  1
  P  P29  1  0.250000  0.060207  0.383773  1
  P  P30  1  0.750000  0.560048  0.616032  1
  P  P31  1  0.750000  0.939780  0.616238  1
  P  P32  1  0.250000  0.902977  0.106999  1
  P  P33  1  0.250000  0.596752  0.107126  1
  P  P34  1  0.750000  0.097433  0.893236  1
  P  P35  1  0.750000  0.402699  0.893059  1
