# generated using pymatgen
data_Pa2Nb3Ge4
_symmetry_space_group_name_H-M   'P 1'
_cell_length_a   7.09302000
_cell_length_b   7.18066700
_cell_length_c   13.61746700
_cell_angle_alpha   90.00000000
_cell_angle_beta   90.00000000
_cell_angle_gamma   90.00000000
_symmetry_Int_Tables_number   1
_chemical_formula_structural   Pa2Nb3Ge4
_chemical_formula_sum   'Pa8 Nb12 Ge16'
_cell_volume   693.57319914
_cell_formula_units_Z   4
loop_
 _symmetry_equiv_pos_site_id
 _symmetry_equiv_pos_as_xyz
  1  'x, y, z'
loop_
 _atom_site_type_symbol
 _atom_site_label
 _atom_site_symmetry_multiplicity
 _atom_site_fract_x
 _atom_site_fract_y
 _atom_site_fract_z
 _atom_site_occupancy
  Pa  Pa0  1  0.009849  0.326907  0.907138  1
  Pa  Pa1  1  0.509849  0.173093  0.592862  1
  Pa  Pa2  1  0.490151  0.826907  0.092862  1
  Pa  Pa3  1  0.990151  0.673093  0.407138  1
  Pa  Pa4  1  0.009849  0.326907  0.592862  1
  Pa  Pa5  1  0.509849  0.173093  0.907138  1
  Pa  Pa6  1  0.490151  0.826907  0.407138  1
  Pa  Pa7  1  0.990151  0.673093  0.092862  1
  Nb  Nb8  1  0.845131  0.833921  0.874888  1
  Nb  Nb9  1  0.345131  0.666079  0.625112  1
  Nb  Nb10  1  0.654869  0.333921  0.125112  1
  Nb  Nb11  1  0.154869  0.166079  0.374888  1
  Nb  Nb12  1  0.154869  0.166079  0.125112  1
  Nb  Nb13  1  0.654869  0.333921  0.374888  1
  Nb  Nb14  1  0.345131  0.666079  0.874888  1
  Nb  Nb15  1  0.845131  0.833921  0.625112  1
  Nb  Nb16  1  0.172590  0.997754  0.750000  1
  Nb  Nb17  1  0.672590  0.502246  0.750000  1
  Nb  Nb18  1  0.327410  0.497754  0.250000  1
  Nb  Nb19  1  0.827410  0.002246  0.250000  1
  Ge  Ge20  1  0.677543  0.545144  0.956836  1
  Ge  Ge21  1  0.177543  0.954856  0.543164  1
  Ge  Ge22  1  0.822457  0.045144  0.043164  1
  Ge  Ge23  1  0.322457  0.454856  0.456836  1
  Ge  Ge24  1  0.322457  0.454856  0.043164  1
  Ge  Ge25  1  0.822457  0.045144  0.456836  1
  Ge  Ge26  1  0.177543  0.954856  0.956836  1
  Ge  Ge27  1  0.677543  0.545144  0.543164  1
  Ge  Ge28  1  0.311101  0.361337  0.750000  1
  Ge  Ge29  1  0.811101  0.138663  0.750000  1
  Ge  Ge30  1  0.188899  0.861337  0.250000  1
  Ge  Ge31  1  0.688899  0.638663  0.250000  1
  Ge  Ge32  1  0.044245  0.624779  0.750000  1
  Ge  Ge33  1  0.544245  0.875221  0.750000  1
  Ge  Ge34  1  0.455755  0.124779  0.250000  1
  Ge  Ge35  1  0.955755  0.375221  0.250000  1
