# generated using pymatgen
data_NaLa5CeNiBr12
_symmetry_space_group_name_H-M   'P 1'
_cell_length_a   9.57500432
_cell_length_b   9.79758587
_cell_length_c   9.79927759
_cell_angle_alpha   107.65245654
_cell_angle_beta   107.30741559
_cell_angle_gamma   107.09761174
_symmetry_Int_Tables_number   1
_chemical_formula_structural   NaLa5CeNiBr12
_chemical_formula_sum   'Na1 La5 Ce1 Ni1 Br12'
_cell_volume   758.09665941
_cell_formula_units_Z   1
loop_
 _symmetry_equiv_pos_site_id
 _symmetry_equiv_pos_as_xyz
  1  'x, y, z'
loop_
 _atom_site_type_symbol
 _atom_site_label
 _atom_site_symmetry_multiplicity
 _atom_site_fract_x
 _atom_site_fract_y
 _atom_site_fract_z
 _atom_site_occupancy
  Na  Na0  1  0.500007  0.500060  0.499862  1
  La  La1  1  0.028246  0.325376  0.118483  1
  La  La2  1  0.120025  0.030684  0.325743  1
  La  La3  1  0.881642  0.970052  0.675225  1
  La  La4  1  0.972324  0.675299  0.881730  1
  La  La5  1  0.692993  0.891366  0.972480  1
  Ce  Ce6  1  0.304705  0.107635  0.027418  1
  Ni  Ni7  1  0.998972  0.999694  0.000407  1
  Br  Br8  1  0.677715  0.211270  0.069113  1
  Br  Br9  1  0.371580  0.449158  0.159690  1
  Br  Br10  1  0.071211  0.685001  0.211390  1
  Br  Br11  1  0.785727  0.928832  0.315703  1
  Br  Br12  1  0.458729  0.162905  0.367709  1
  Br  Br13  1  0.157258  0.368405  0.453679  1
  Br  Br14  1  0.842625  0.631663  0.546421  1
  Br  Br15  1  0.541156  0.836855  0.629054  1
  Br  Br16  1  0.216161  0.071867  0.687029  1
  Br  Br17  1  0.928518  0.315144  0.788706  1
  Br  Br18  1  0.628601  0.547498  0.838486  1
  Br  Br19  1  0.321804  0.791240  0.931671  1
