# generated using pymatgen
data_Dy2Fe4P6IrRh5
_symmetry_space_group_name_H-M   'P 1'
_cell_length_a   3.83733500
_cell_length_b   10.56662800
_cell_length_c   12.25189400
_cell_angle_alpha   90.00000000
_cell_angle_beta   90.00000000
_cell_angle_gamma   90.00000000
_symmetry_Int_Tables_number   1
_chemical_formula_structural   Dy2Fe4P6IrRh5
_chemical_formula_sum   'Dy4 Fe8 P12 Ir2 Rh10'
_cell_volume   496.78601767
_cell_formula_units_Z   2
loop_
 _symmetry_equiv_pos_site_id
 _symmetry_equiv_pos_as_xyz
  1  'x, y, z'
loop_
 _atom_site_type_symbol
 _atom_site_label
 _atom_site_symmetry_multiplicity
 _atom_site_fract_x
 _atom_site_fract_y
 _atom_site_fract_z
 _atom_site_occupancy
  Dy  Dy0  1  0.250000  0.578082  0.710345  1
  Dy  Dy1  1  0.250000  0.921918  0.210345  1
  Dy  Dy2  1  0.750000  0.420866  0.289356  1
  Dy  Dy3  1  0.750000  0.079134  0.789356  1
  Fe  Fe4  1  0.250000  0.875776  0.698646  1
  Fe  Fe5  1  0.250000  0.624224  0.198646  1
  Fe  Fe6  1  0.750000  0.124545  0.301478  1
  Fe  Fe7  1  0.750000  0.375455  0.801478  1
  Fe  Fe8  1  0.250000  0.458919  0.934351  1
  Fe  Fe9  1  0.250000  0.041081  0.434351  1
  Fe  Fe10  1  0.750000  0.541832  0.065529  1
  Fe  Fe11  1  0.750000  0.958168  0.565529  1
  P  P12  1  0.250000  0.441228  0.111765  1
  P  P13  1  0.250000  0.058772  0.611765  1
  P  P14  1  0.750000  0.558551  0.888034  1
  P  P15  1  0.750000  0.941449  0.388034  1
  P  P16  1  0.250000  0.272242  0.863880  1
  P  P17  1  0.250000  0.227758  0.363880  1
  P  P18  1  0.750000  0.728015  0.136110  1
  P  P19  1  0.750000  0.771985  0.636110  1
  P  P20  1  0.250000  0.601746  0.380769  1
  P  P21  1  0.250000  0.898254  0.880769  1
  P  P22  1  0.750000  0.397766  0.619481  1
  P  P23  1  0.750000  0.102234  0.119481  1
  Ir  Ir24  1  0.750000  0.767982  0.826394  1
  Ir  Ir25  1  0.750000  0.732018  0.326394  1
  Rh  Rh26  1  0.250000  0.714824  0.990932  1
  Rh  Rh27  1  0.250000  0.785176  0.490932  1
  Rh  Rh28  1  0.750000  0.285246  0.008713  1
  Rh  Rh29  1  0.750000  0.214754  0.508713  1
  Rh  Rh30  1  0.250000  0.408597  0.478500  1
  Rh  Rh31  1  0.250000  0.091403  0.978500  1
  Rh  Rh32  1  0.750000  0.591773  0.521977  1
  Rh  Rh33  1  0.750000  0.908227  0.021977  1
  Rh  Rh34  1  0.250000  0.232291  0.173740  1
  Rh  Rh35  1  0.250000  0.267709  0.673740  1
