# generated using pymatgen
data_Rb2CuF5
_symmetry_space_group_name_H-M   'P 1'
_cell_length_a   6.22904000
_cell_length_b   6.22904000
_cell_length_c   4.02037900
_cell_angle_alpha   90.00000000
_cell_angle_beta   90.00000000
_cell_angle_gamma   90.00000000
_symmetry_Int_Tables_number   1
_chemical_formula_structural   Rb2CuF5
_chemical_formula_sum   'Rb2 Cu1 F5'
_cell_volume   155.99448163
_cell_formula_units_Z   1
loop_
 _symmetry_equiv_pos_site_id
 _symmetry_equiv_pos_as_xyz
  1  'x, y, z'
loop_
 _atom_site_type_symbol
 _atom_site_label
 _atom_site_symmetry_multiplicity
 _atom_site_fract_x
 _atom_site_fract_y
 _atom_site_fract_z
 _atom_site_occupancy
  Rb  Rb0  1  0.500000  0.000000  0.500001  1
  Rb  Rb1  1  0.000000  0.500000  0.500001  1
  Cu  Cu2  1  0.000000  0.000000  0.000000  1
  F  F3  1  0.214803  0.214803  0.000000  1
  F  F4  1  0.785197  0.214803  0.000000  1
  F  F5  1  0.214803  0.785197  0.000000  1
  F  F6  1  0.785197  0.785197  0.000000  1
  F  F7  1  0.000000  0.000000  0.500001  1
