# generated using pymatgen
data_Ho5TcOsO12
_symmetry_space_group_name_H-M   'P 1'
_cell_length_a   6.82846368
_cell_length_b   6.82846225
_cell_length_c   7.48681986
_cell_angle_alpha   73.87829260
_cell_angle_beta   73.87829645
_cell_angle_gamma   48.84624891
_symmetry_Int_Tables_number   1
_chemical_formula_structural   Ho5TcOsO12
_chemical_formula_sum   'Ho5 Tc1 Os1 O12'
_cell_volume   250.32812734
_cell_formula_units_Z   1
loop_
 _symmetry_equiv_pos_site_id
 _symmetry_equiv_pos_as_xyz
  1  'x, y, z'
loop_
 _atom_site_type_symbol
 _atom_site_label
 _atom_site_symmetry_multiplicity
 _atom_site_fract_x
 _atom_site_fract_y
 _atom_site_fract_z
 _atom_site_occupancy
  Ho  Ho0  1  0.300349  0.304511  0.357958  1
  Ho  Ho1  1  0.695489  0.699651  0.642042  1
  Ho  Ho2  1  0.312449  0.315211  0.826290  1
  Ho  Ho3  1  0.684789  0.687551  0.173710  1
  Ho  Ho4  1  0.998900  0.001100  0.500000  1
  Tc  Tc5  1  0.788821  0.211179  0.000000  1
  Os  Os6  1  0.219571  0.780429  0.000000  1
  O  O7  1  0.911063  0.417896  0.915064  1
  O  O8  1  0.421763  0.913483  0.914299  1
  O  O9  1  0.086517  0.578237  0.085701  1
  O  O10  1  0.582104  0.088937  0.084936  1
  O  O11  1  0.096705  0.595479  0.573860  1
  O  O12  1  0.595230  0.099815  0.572525  1
  O  O13  1  0.900185  0.404770  0.427475  1
  O  O14  1  0.404521  0.903295  0.426140  1
  O  O15  1  0.000941  0.996399  0.795739  1
  O  O16  1  0.003601  0.999059  0.204261  1
  O  O17  1  0.499487  0.502484  0.823305  1
  O  O18  1  0.497516  0.500513  0.176695  1
