# generated using pymatgen
data_Tb6Ho3Er7(In3Co)2
_symmetry_space_group_name_H-M   'P 1'
_cell_length_a   10.33959400
_cell_length_b   10.33939242
_cell_length_c   7.00129900
_cell_angle_alpha   89.99853146
_cell_angle_beta   89.99999446
_cell_angle_gamma   120.00036010
_symmetry_Int_Tables_number   1
_chemical_formula_structural   Tb6Ho3Er7(In3Co)2
_chemical_formula_sum   'Tb6 Ho3 Er7 In6 Co2'
_cell_volume   648.19575919
_cell_formula_units_Z   1
loop_
 _symmetry_equiv_pos_site_id
 _symmetry_equiv_pos_as_xyz
  1  'x, y, z'
loop_
 _atom_site_type_symbol
 _atom_site_label
 _atom_site_symmetry_multiplicity
 _atom_site_fract_x
 _atom_site_fract_y
 _atom_site_fract_z
 _atom_site_occupancy
  Tb  Tb0  1  0.534771  0.069552  0.504408  1
  Tb  Tb1  1  0.930442  0.465221  0.504394  1
  Tb  Tb2  1  0.534776  0.465227  0.504399  1
  Tb  Tb3  1  0.465333  0.930669  0.004250  1
  Tb  Tb4  1  0.069318  0.534664  0.004249  1
  Tb  Tb5  1  0.465334  0.534665  0.004240  1
  Ho  Ho6  1  0.333339  0.666670  0.396716  1
  Ho  Ho7  1  0.999997  0.999994  0.493839  1
  Ho  Ho8  1  0.000004  0.999997  0.994004  1
  Er  Er9  1  0.178010  0.356016  0.712289  1
  Er  Er10  1  0.643989  0.821996  0.712274  1
  Er  Er11  1  0.177985  0.821978  0.712261  1
  Er  Er12  1  0.821910  0.643810  0.211913  1
  Er  Er13  1  0.356201  0.178102  0.211945  1
  Er  Er14  1  0.821910  0.178082  0.211936  1
  Er  Er15  1  0.666683  0.333353  0.897287  1
  In  In16  1  0.837351  0.674705  0.752840  1
  In  In17  1  0.325278  0.162648  0.752839  1
  In  In18  1  0.837368  0.162646  0.752840  1
  In  In19  1  0.162506  0.324997  0.252719  1
  In  In20  1  0.674991  0.837496  0.252711  1
  In  In21  1  0.162506  0.837505  0.252726  1
  Co  Co22  1  0.666665  0.333339  0.280465  1
  Co  Co23  1  0.333332  0.666669  0.780502  1
