# generated using pymatgen
data_Y4ErZn2Bi
_symmetry_space_group_name_H-M   'P 1'
_cell_length_a   8.67025513
_cell_length_b   8.67025494
_cell_length_c   8.67025567
_cell_angle_alpha   123.74387447
_cell_angle_beta   123.74388034
_cell_angle_gamma   83.62918610
_symmetry_Int_Tables_number   1
_chemical_formula_structural   Y4ErZn2Bi
_chemical_formula_sum   'Y8 Er2 Zn4 Bi2'
_cell_volume   431.86732214
_cell_formula_units_Z   2
loop_
 _symmetry_equiv_pos_site_id
 _symmetry_equiv_pos_as_xyz
  1  'x, y, z'
loop_
 _atom_site_type_symbol
 _atom_site_label
 _atom_site_symmetry_multiplicity
 _atom_site_fract_x
 _atom_site_fract_y
 _atom_site_fract_z
 _atom_site_occupancy
  Y  Y0  1  0.795140  0.295140  0.807130  1
  Y  Y1  1  0.295140  0.488009  0.500000  1
  Y  Y2  1  0.988009  0.795140  0.500000  1
  Y  Y3  1  0.704860  0.511991  0.500000  1
  Y  Y4  1  0.011991  0.204860  0.500000  1
  Y  Y5  1  0.511991  0.011991  0.807130  1
  Y  Y6  1  0.204860  0.704860  0.192870  1
  Y  Y7  1  0.488009  0.988009  0.192870  1
  Er  Er8  1  0.000000  0.000000  0.000000  1
  Er  Er9  1  0.500000  0.500000  0.000000  1
  Zn  Zn10  1  0.861092  0.361092  0.222184  1
  Zn  Zn11  1  0.361092  0.138908  0.500000  1
  Zn  Zn12  1  0.638908  0.861092  0.500000  1
  Zn  Zn13  1  0.138908  0.638908  0.777816  1
  Bi  Bi14  1  0.250000  0.250000  0.000000  1
  Bi  Bi15  1  0.750000  0.750000  0.000000  1
