# generated using pymatgen
data_SrLaZn5Si3
_symmetry_space_group_name_H-M   'P 1'
_cell_length_a   4.28407200
_cell_length_b   4.28407200
_cell_length_c   10.49329900
_cell_angle_alpha   90.00000000
_cell_angle_beta   90.00000000
_cell_angle_gamma   90.00000000
_symmetry_Int_Tables_number   1
_chemical_formula_structural   SrLaZn5Si3
_chemical_formula_sum   'Sr1 La1 Zn5 Si3'
_cell_volume   192.58638018
_cell_formula_units_Z   1
loop_
 _symmetry_equiv_pos_site_id
 _symmetry_equiv_pos_as_xyz
  1  'x, y, z'
loop_
 _atom_site_type_symbol
 _atom_site_label
 _atom_site_symmetry_multiplicity
 _atom_site_fract_x
 _atom_site_fract_y
 _atom_site_fract_z
 _atom_site_occupancy
  Sr  Sr0  1  0.000000  0.000000  0.996445  1
  La  La1  1  0.500000  0.500000  0.503496  1
  Zn  Zn2  1  0.000000  0.500000  0.253061  1
  Zn  Zn3  1  0.500000  0.000000  0.747776  1
  Zn  Zn4  1  0.500000  0.000000  0.253061  1
  Zn  Zn5  1  0.000000  0.500000  0.747776  1
  Zn  Zn6  1  0.500000  0.500000  0.118482  1
  Si  Si7  1  0.000000  0.000000  0.612493  1
  Si  Si8  1  0.000000  0.000000  0.387727  1
  Si  Si9  1  0.500000  0.500000  0.879684  1
