# generated using pymatgen
data_Tb7HoCo(Si4Pd)3
_symmetry_space_group_name_H-M   'P 1'
_cell_length_a   8.16532300
_cell_length_b   8.16003921
_cell_length_c   7.95279900
_cell_angle_alpha   90.00058730
_cell_angle_beta   90.00000000
_cell_angle_gamma   120.02142618
_symmetry_Int_Tables_number   1
_chemical_formula_structural   Tb7HoCo(Si4Pd)3
_chemical_formula_sum   'Tb7 Ho1 Co1 Si12 Pd3'
_cell_volume   458.79898205
_cell_formula_units_Z   1
loop_
 _symmetry_equiv_pos_site_id
 _symmetry_equiv_pos_as_xyz
  1  'x, y, z'
loop_
 _atom_site_type_symbol
 _atom_site_label
 _atom_site_symmetry_multiplicity
 _atom_site_fract_x
 _atom_site_fract_y
 _atom_site_fract_z
 _atom_site_occupancy
  Tb  Tb0  1  0.489115  0.978230  0.751976  1
  Tb  Tb1  1  0.986514  0.493365  0.245946  1
  Tb  Tb2  1  0.021540  0.510944  0.751957  1
  Tb  Tb3  1  0.506853  0.493365  0.245946  1
  Tb  Tb4  1  0.489403  0.510944  0.751957  1
  Tb  Tb5  1  0.999914  0.999828  0.249726  1
  Tb  Tb6  1  0.000081  0.000161  0.751529  1
  Ho  Ho7  1  0.506030  0.012059  0.245573  1
  Co  Co8  1  0.333694  0.667388  0.038142  1
  Si  Si9  1  0.173089  0.346178  0.003097  1
  Si  Si10  1  0.836161  0.672323  0.998172  1
  Si  Si11  1  0.653985  0.827291  0.003213  1
  Si  Si12  1  0.834319  0.668638  0.499350  1
  Si  Si13  1  0.328036  0.163946  0.998918  1
  Si  Si14  1  0.165058  0.330116  0.501899  1
  Si  Si15  1  0.173307  0.827291  0.003213  1
  Si  Si16  1  0.331355  0.165474  0.498266  1
  Si  Si17  1  0.835910  0.163946  0.998918  1
  Si  Si18  1  0.670021  0.835041  0.501790  1
  Si  Si19  1  0.834118  0.165474  0.498266  1
  Si  Si20  1  0.165020  0.835041  0.501790  1
  Pd  Pd21  1  0.666306  0.332610  0.970166  1
  Pd  Pd22  1  0.666265  0.332528  0.531563  1
  Pd  Pd23  1  0.333908  0.667817  0.458631  1
