# generated using pymatgen
data_Y4Cd(NiHg)2
_symmetry_space_group_name_H-M   'P 1'
_cell_length_a   7.67217622
_cell_length_b   7.67217540
_cell_length_c   14.81204400
_cell_angle_alpha   90.00000000
_cell_angle_beta   90.00000000
_cell_angle_gamma   150.73783016
_symmetry_Int_Tables_number   1
_chemical_formula_structural   Y4Cd(NiHg)2
_chemical_formula_sum   'Y8 Cd2 Ni4 Hg4'
_cell_volume   426.17611348
_cell_formula_units_Z   2
loop_
 _symmetry_equiv_pos_site_id
 _symmetry_equiv_pos_as_xyz
  1  'x, y, z'
loop_
 _atom_site_type_symbol
 _atom_site_label
 _atom_site_symmetry_multiplicity
 _atom_site_fract_x
 _atom_site_fract_y
 _atom_site_fract_z
 _atom_site_occupancy
  Y  Y0  1  0.968632  0.031368  0.130456  1
  Y  Y1  1  0.031368  0.968632  0.869544  1
  Y  Y2  1  0.031368  0.968632  0.630456  1
  Y  Y3  1  0.968632  0.031368  0.369544  1
  Y  Y4  1  0.756960  0.243040  0.627764  1
  Y  Y5  1  0.243040  0.756960  0.372236  1
  Y  Y6  1  0.243040  0.756960  0.127764  1
  Y  Y7  1  0.756960  0.243040  0.872236  1
  Cd  Cd8  1  0.606774  0.393226  0.250000  1
  Cd  Cd9  1  0.393226  0.606774  0.750000  1
  Ni  Ni10  1  0.403209  0.596791  0.250000  1
  Ni  Ni11  1  0.596791  0.403209  0.750000  1
  Ni  Ni12  1  0.807663  0.192337  0.250000  1
  Ni  Ni13  1  0.192337  0.807663  0.750000  1
  Hg  Hg14  1  0.607187  0.392813  0.025707  1
  Hg  Hg15  1  0.392813  0.607187  0.974293  1
  Hg  Hg16  1  0.392813  0.607187  0.525707  1
  Hg  Hg17  1  0.607187  0.392813  0.474293  1
