# generated using pymatgen
data_CaNd9Si5Hg
_symmetry_space_group_name_H-M   'P 1'
_cell_length_a   9.13618076
_cell_length_b   9.13618114
_cell_length_c   9.13618133
_cell_angle_alpha   129.75324478
_cell_angle_beta   129.75324872
_cell_angle_gamma   73.80154112
_symmetry_Int_Tables_number   1
_chemical_formula_structural   CaNd9Si5Hg
_chemical_formula_sum   'Ca1 Nd9 Si5 Hg1'
_cell_volume   439.70837606
_cell_formula_units_Z   1
loop_
 _symmetry_equiv_pos_site_id
 _symmetry_equiv_pos_as_xyz
  1  'x, y, z'
loop_
 _atom_site_type_symbol
 _atom_site_label
 _atom_site_symmetry_multiplicity
 _atom_site_fract_x
 _atom_site_fract_y
 _atom_site_fract_z
 _atom_site_occupancy
  Ca  Ca0  1  0.487392  0.487392  0.000000  1
  Nd  Nd1  1  0.544206  0.025951  0.854667  1
  Nd  Nd2  1  0.171283  0.689537  0.145333  1
  Nd  Nd3  1  0.025951  0.171283  0.481746  1
  Nd  Nd4  1  0.689537  0.544206  0.518254  1
  Nd  Nd5  1  0.476121  0.954612  0.147553  1
  Nd  Nd6  1  0.807060  0.328569  0.852447  1
  Nd  Nd7  1  0.954612  0.807060  0.478491  1
  Nd  Nd8  1  0.328569  0.476121  0.521509  1
  Nd  Nd9  1  0.021954  0.021954  0.000000  1
  Si  Si10  1  0.748470  0.748470  0.000000  1
  Si  Si11  1  0.885022  0.382902  0.270801  1
  Si  Si12  1  0.112100  0.614221  0.729199  1
  Si  Si13  1  0.382902  0.112100  0.497879  1
  Si  Si14  1  0.614221  0.885022  0.502121  1
  Hg  Hg15  1  0.250598  0.250598  0.000000  1
