# generated using pymatgen
data_NaLiP2S5
_symmetry_space_group_name_H-M   'P 1'
_cell_length_a   7.83240200
_cell_length_b   9.87185026
_cell_length_c   12.41718997
_cell_angle_alpha   60.63165812
_cell_angle_beta   90.00000000
_cell_angle_gamma   90.00000000
_symmetry_Int_Tables_number   1
_chemical_formula_structural   NaLiP2S5
_chemical_formula_sum   'Na4 Li4 P8 S20'
_cell_volume   836.71341379
_cell_formula_units_Z   4
loop_
 _symmetry_equiv_pos_site_id
 _symmetry_equiv_pos_as_xyz
  1  'x, y, z'
loop_
 _atom_site_type_symbol
 _atom_site_label
 _atom_site_symmetry_multiplicity
 _atom_site_fract_x
 _atom_site_fract_y
 _atom_site_fract_z
 _atom_site_occupancy
  Na  Na0  1  0.636894  0.608535  0.780570  1
  Na  Na1  1  0.363106  0.391465  0.219430  1
  Na  Na2  1  0.863106  0.608535  0.280570  1
  Na  Na3  1  0.136894  0.391465  0.719430  1
  Li  Li4  1  0.335926  0.859712  0.330618  1
  Li  Li5  1  0.835926  0.140288  0.169382  1
  Li  Li6  1  0.164074  0.859712  0.830618  1
  Li  Li7  1  0.664074  0.140288  0.669382  1
  P  P8  1  0.644457  0.202395  0.910727  1
  P  P9  1  0.932074  0.816502  0.459098  1
  P  P10  1  0.067926  0.183498  0.540902  1
  P  P11  1  0.855543  0.202395  0.410727  1
  P  P12  1  0.355543  0.797605  0.089273  1
  P  P13  1  0.144457  0.797605  0.589273  1
  P  P14  1  0.567926  0.816502  0.959098  1
  P  P15  1  0.432074  0.183498  0.040902  1
  S  S16  1  0.690070  0.615131  0.034446  1
  S  S17  1  0.541858  0.306740  0.742834  1
  S  S18  1  0.154592  0.695204  0.059140  1
  S  S19  1  0.477916  0.900989  0.785770  1
  S  S20  1  0.190070  0.384869  0.465554  1
  S  S21  1  0.345408  0.695204  0.559140  1
  S  S22  1  0.309930  0.384869  0.965554  1
  S  S23  1  0.977916  0.099011  0.714230  1
  S  S24  1  0.740970  0.970253  0.980563  1
  S  S25  1  0.240970  0.029747  0.519437  1
  S  S26  1  0.845408  0.304796  0.940860  1
  S  S27  1  0.759030  0.970253  0.480563  1
  S  S28  1  0.041858  0.693260  0.757166  1
  S  S29  1  0.022084  0.900989  0.285770  1
  S  S30  1  0.654592  0.304796  0.440860  1
  S  S31  1  0.458142  0.693260  0.257166  1
  S  S32  1  0.958142  0.306740  0.242834  1
  S  S33  1  0.522084  0.099011  0.214230  1
  S  S34  1  0.259030  0.029747  0.019437  1
  S  S35  1  0.809930  0.615131  0.534446  1
