# generated using pymatgen
data_Dy5Sc3As8(PIr4)4
_symmetry_space_group_name_H-M   'P 1'
_cell_length_a   13.14176873
_cell_length_b   13.15748227
_cell_length_c   4.02136700
_cell_angle_alpha   90.00000000
_cell_angle_beta   90.00000000
_cell_angle_gamma   119.80170004
_symmetry_Int_Tables_number   1
_chemical_formula_structural   Dy5Sc3As8(PIr4)4
_chemical_formula_sum   'Dy5 Sc3 As8 P4 Ir16'
_cell_volume   603.38609797
_cell_formula_units_Z   1
loop_
 _symmetry_equiv_pos_site_id
 _symmetry_equiv_pos_as_xyz
  1  'x, y, z'
loop_
 _atom_site_type_symbol
 _atom_site_label
 _atom_site_symmetry_multiplicity
 _atom_site_fract_x
 _atom_site_fract_y
 _atom_site_fract_z
 _atom_site_occupancy
  Dy  Dy0  1  0.333073  0.666596  0.500000  1
  Dy  Dy1  1  0.671314  0.332758  0.500000  1
  Dy  Dy2  1  0.000604  0.815448  0.000000  1
  Dy  Dy3  1  0.184370  0.184775  0.000000  1
  Dy  Dy4  1  0.813831  0.000223  0.000000  1
  Sc  Sc5  1  0.995549  0.440154  0.500000  1
  Sc  Sc6  1  0.559037  0.557911  0.500000  1
  Sc  Sc7  1  0.441800  0.000136  0.500000  1
  As  As8  1  0.000926  0.646380  0.500000  1
  As  As9  1  0.354245  0.354618  0.500000  1
  As  As10  1  0.646606  0.001853  0.500000  1
  As  As11  1  0.517901  0.686348  0.000000  1
  As  As12  1  0.314295  0.831551  0.000000  1
  As  As13  1  0.167763  0.483156  0.000000  1
  As  As14  1  0.484315  0.169764  0.000000  1
  As  As15  1  0.687336  0.516042  0.000000  1
  P  P16  1  0.831873  0.309521  0.000000  1
  P  P17  1  0.999237  0.175292  0.500000  1
  P  P18  1  0.826307  0.825412  0.500000  1
  P  P19  1  0.173785  0.000355  0.500000  1
  Ir  Ir20  1  0.515969  0.872559  0.000000  1
  Ir  Ir21  1  0.126566  0.644209  0.000000  1
  Ir  Ir22  1  0.355670  0.485946  0.000000  1
  Ir  Ir23  1  0.484835  0.356334  0.000000  1
  Ir  Ir24  1  0.865769  0.498471  0.000000  1
  Ir  Ir25  1  0.650111  0.134706  0.000000  1
  Ir  Ir26  1  0.996402  0.269170  0.000000  1
  Ir  Ir27  1  0.732868  0.732087  0.000000  1
  Ir  Ir28  1  0.268098  0.000238  0.000000  1
  Ir  Ir29  1  0.633450  0.806417  0.500000  1
  Ir  Ir30  1  0.194432  0.827268  0.500000  1
  Ir  Ir31  1  0.171397  0.366104  0.500000  1
  Ir  Ir32  1  0.366487  0.172883  0.500000  1
  Ir  Ir33  1  0.807830  0.631864  0.500000  1
  Ir  Ir34  1  0.826380  0.202242  0.500000  1
  Ir  Ir35  1  0.999571  0.001205  0.500000  1
