# generated using pymatgen
data_Sr2CaNd2Ta2CdO12
_symmetry_space_group_name_H-M   'P 1'
_cell_length_a   8.29740242
_cell_length_b   8.29740666
_cell_length_c   9.98829900
_cell_angle_alpha   66.86762218
_cell_angle_beta   66.86761717
_cell_angle_gamma   92.55158737
_symmetry_Int_Tables_number   1
_chemical_formula_structural   Sr2CaNd2Ta2CdO12
_chemical_formula_sum   'Sr4 Ca2 Nd4 Ta4 Cd2 O24'
_cell_volume   565.22572675
_cell_formula_units_Z   2
loop_
 _symmetry_equiv_pos_site_id
 _symmetry_equiv_pos_as_xyz
  1  'x, y, z'
loop_
 _atom_site_type_symbol
 _atom_site_label
 _atom_site_symmetry_multiplicity
 _atom_site_fract_x
 _atom_site_fract_y
 _atom_site_fract_z
 _atom_site_occupancy
  Sr  Sr0  1  0.395494  0.347517  0.249727  1
  Sr  Sr1  1  0.891764  0.847118  0.247710  1
  Sr  Sr2  1  0.097518  0.645494  0.749726  1
  Sr  Sr3  1  0.597116  0.141764  0.747711  1
  Ca  Ca4  1  0.999059  0.505705  0.497889  1
  Ca  Ca5  1  0.255704  0.249059  0.997891  1
  Nd  Nd6  1  0.423508  0.857163  0.242241  1
  Nd  Nd7  1  0.915361  0.355594  0.244138  1
  Nd  Nd8  1  0.105595  0.165360  0.744137  1
  Nd  Nd9  1  0.607161  0.673507  0.742243  1
  Ta  Ta10  1  0.749443  0.253323  0.997400  1
  Ta  Ta11  1  0.248553  0.751898  0.001346  1
  Ta  Ta12  1  0.003325  0.999444  0.497399  1
  Ta  Ta13  1  0.501900  0.498552  0.501345  1
  Cd  Cd14  1  0.497555  0.006377  0.497330  1
  Cd  Cd15  1  0.756377  0.747555  0.997329  1
  O  O16  1  0.344297  0.794892  0.769052  1
  O  O17  1  0.844294  0.293942  0.768532  1
  O  O18  1  0.544893  0.594298  0.269051  1
  O  O19  1  0.043940  0.094294  0.268535  1
  O  O20  1  0.754827  0.990275  0.064764  1
  O  O21  1  0.253527  0.489987  0.064279  1
  O  O22  1  0.239987  0.503528  0.564277  1
  O  O23  1  0.740274  0.004826  0.564766  1
  O  O24  1  0.566605  0.755944  0.454861  1
  O  O25  1  0.066168  0.255025  0.456050  1
  O  O26  1  0.005025  0.316169  0.956050  1
  O  O27  1  0.505943  0.816604  0.954862  1
  O  O28  1  0.489416  0.164744  0.056522  1
  O  O29  1  0.989021  0.664467  0.056107  1
  O  O30  1  0.914744  0.739416  0.556524  1
  O  O31  1  0.414467  0.239022  0.556106  1
  O  O32  1  0.257229  0.964233  0.436397  1
  O  O33  1  0.757595  0.465442  0.436361  1
  O  O34  1  0.714232  0.507229  0.936397  1
  O  O35  1  0.215443  0.007596  0.936361  1
  O  O36  1  0.968640  0.926096  0.729886  1
  O  O37  1  0.470356  0.427551  0.729402  1
  O  O38  1  0.177550  0.720356  0.229403  1
  O  O39  1  0.676095  0.218638  0.229885  1
