# generated using pymatgen
data_Sr2Mn(SeF)2
_symmetry_space_group_name_H-M   'P 1'
_cell_length_a   4.08863500
_cell_length_b   4.08861700
_cell_length_c   9.40257200
_cell_angle_alpha   90.00000000
_cell_angle_beta   90.00000000
_cell_angle_gamma   90.00000000
_symmetry_Int_Tables_number   1
_chemical_formula_structural   Sr2Mn(SeF)2
_chemical_formula_sum   'Sr2 Mn1 Se2 F2'
_cell_volume   157.18150391
_cell_formula_units_Z   1
loop_
 _symmetry_equiv_pos_site_id
 _symmetry_equiv_pos_as_xyz
  1  'x, y, z'
loop_
 _atom_site_type_symbol
 _atom_site_label
 _atom_site_symmetry_multiplicity
 _atom_site_fract_x
 _atom_site_fract_y
 _atom_site_fract_z
 _atom_site_occupancy
  Sr  Sr0  1  0.000000  0.500002  0.152711  1
  Sr  Sr1  1  0.500002  0.000000  0.847289  1
  Mn  Mn2  1  0.500002  0.500002  0.499998  1
  Se  Se3  1  0.500002  0.000000  0.324336  1
  Se  Se4  1  0.000000  0.500002  0.675667  1
  F  F5  1  0.000000  0.000000  0.000002  1
  F  F6  1  0.500002  0.500002  0.999999  1
