# generated using pymatgen
data_CsTb7Sc3(C2I9)2
_symmetry_space_group_name_H-M   'P 1'
_cell_length_a   11.52538684
_cell_length_b   11.52192401
_cell_length_c   11.50721220
_cell_angle_alpha   113.15801861
_cell_angle_beta   86.27927562
_cell_angle_gamma   120.52702708
_symmetry_Int_Tables_number   1
_chemical_formula_structural   CsTb7Sc3(C2I9)2
_chemical_formula_sum   'Cs1 Tb7 Sc3 C4 I18'
_cell_volume   1192.54846477
_cell_formula_units_Z   1
loop_
 _symmetry_equiv_pos_site_id
 _symmetry_equiv_pos_as_xyz
  1  'x, y, z'
loop_
 _atom_site_type_symbol
 _atom_site_label
 _atom_site_symmetry_multiplicity
 _atom_site_fract_x
 _atom_site_fract_y
 _atom_site_fract_z
 _atom_site_occupancy
  Cs  Cs0  1  0.496577  0.993691  0.498040  1
  Tb  Tb1  1  0.961218  0.037674  0.325859  1
  Tb  Tb2  1  0.907856  0.610385  0.705457  1
  Tb  Tb3  1  0.104208  0.943783  0.000054  1
  Tb  Tb4  1  0.036955  0.966871  0.677079  1
  Tb  Tb5  1  0.321513  0.277424  0.289282  1
  Tb  Tb6  1  0.719565  0.643239  0.983360  1
  Tb  Tb7  1  0.895455  0.054336  0.999479  1
  Sc  Sc8  1  0.696558  0.733962  0.727471  1
  Sc  Sc9  1  0.267086  0.342000  0.022214  1
  Sc  Sc10  1  0.094236  0.372366  0.277136  1
  C  C11  1  0.151621  0.217843  0.119458  1
  C  C12  1  0.849808  0.779904  0.880145  1
  C  C13  1  0.925777  0.857547  0.804621  1
  C  C14  1  0.075248  0.142477  0.195859  1
  I  I15  1  0.456883  0.536513  0.827413  1
  I  I16  1  0.383496  0.042077  0.158749  1
  I  I17  1  0.776313  0.857717  0.507880  1
  I  I18  1  0.850736  0.312327  0.159363  1
  I  I19  1  0.537892  0.469009  0.162494  1
  I  I20  1  0.221141  0.147150  0.498688  1
  I  I21  1  0.317005  0.109110  0.836853  1
  I  I22  1  0.681176  0.900982  0.170497  1
  I  I23  1  0.971329  0.755572  0.170714  1
  I  I24  1  0.935250  0.303246  0.491988  1
  I  I25  1  0.038594  0.252496  0.839242  1
  I  I26  1  0.069731  0.711976  0.500507  1
  I  I27  1  0.254906  0.600157  0.175618  1
  I  I28  1  0.739415  0.376318  0.814740  1
  I  I29  1  0.641697  0.455289  0.510952  1
  I  I30  1  0.162681  0.692784  0.845660  1
  I  I31  1  0.623116  0.948625  0.837312  1
  I  I32  1  0.334960  0.555147  0.485814  1
