# generated using pymatgen
data_Zr6AlGa5SiNi16
_symmetry_space_group_name_H-M   'P 1'
_cell_length_a   8.24357443
_cell_length_b   8.24921386
_cell_length_c   8.24921356
_cell_angle_alpha   60.13556033
_cell_angle_beta   60.02261765
_cell_angle_gamma   60.02261110
_symmetry_Int_Tables_number   1
_chemical_formula_structural   Zr6AlGa5SiNi16
_chemical_formula_sum   'Zr6 Al1 Ga5 Si1 Ni16'
_cell_volume   397.20737477
_cell_formula_units_Z   1
loop_
 _symmetry_equiv_pos_site_id
 _symmetry_equiv_pos_as_xyz
  1  'x, y, z'
loop_
 _atom_site_type_symbol
 _atom_site_label
 _atom_site_symmetry_multiplicity
 _atom_site_fract_x
 _atom_site_fract_y
 _atom_site_fract_z
 _atom_site_occupancy
  Zr  Zr0  1  0.792429  0.208016  0.791984  1
  Zr  Zr1  1  0.792429  0.791984  0.208016  1
  Zr  Zr2  1  0.208585  0.791415  0.791415  1
  Zr  Zr3  1  0.207571  0.208016  0.791984  1
  Zr  Zr4  1  0.791415  0.208585  0.208585  1
  Zr  Zr5  1  0.207571  0.791984  0.208016  1
  Al  Al6  1  0.500000  0.500000  0.500000  1
  Ga  Ga7  1  0.000000  0.500000  0.000000  1
  Ga  Ga8  1  0.500000  0.500000  0.000000  1
  Ga  Ga9  1  0.500000  0.000000  0.500000  1
  Ga  Ga10  1  0.000000  0.000000  0.500000  1
  Ga  Ga11  1  0.500000  0.000000  0.000000  1
  Si  Si12  1  0.000000  0.500000  0.500000  1
  Ni  Ni13  1  0.168472  0.169762  0.169762  1
  Ni  Ni14  1  0.620601  0.618711  0.140087  1
  Ni  Ni15  1  0.374313  0.382822  0.382822  1
  Ni  Ni16  1  0.165120  0.493758  0.176002  1
  Ni  Ni17  1  0.165120  0.176002  0.493758  1
  Ni  Ni18  1  0.139957  0.617178  0.617178  1
  Ni  Ni19  1  0.620601  0.140087  0.618711  1
  Ni  Ni20  1  0.831528  0.830238  0.830238  1
  Ni  Ni21  1  0.860043  0.382822  0.382822  1
  Ni  Ni22  1  0.379399  0.381289  0.859913  1
  Ni  Ni23  1  0.379399  0.859913  0.381289  1
  Ni  Ni24  1  0.507995  0.830238  0.830238  1
  Ni  Ni25  1  0.625687  0.617178  0.617178  1
  Ni  Ni26  1  0.834880  0.823998  0.506242  1
  Ni  Ni27  1  0.492005  0.169762  0.169762  1
  Ni  Ni28  1  0.834880  0.506242  0.823998  1
