# generated using pymatgen
data_SrCe(Si7Ir3)2
_symmetry_space_group_name_H-M   'P 1'
_cell_length_a   8.08249386
_cell_length_b   8.08249501
_cell_length_c   8.08249453
_cell_angle_alpha   56.64316661
_cell_angle_beta   56.64316488
_cell_angle_gamma   56.64316596
_symmetry_Int_Tables_number   1
_chemical_formula_structural   SrCe(Si7Ir3)2
_chemical_formula_sum   'Sr1 Ce1 Si14 Ir6'
_cell_volume   344.40614987
_cell_formula_units_Z   1
loop_
 _symmetry_equiv_pos_site_id
 _symmetry_equiv_pos_as_xyz
  1  'x, y, z'
loop_
 _atom_site_type_symbol
 _atom_site_label
 _atom_site_symmetry_multiplicity
 _atom_site_fract_x
 _atom_site_fract_y
 _atom_site_fract_z
 _atom_site_occupancy
  Sr  Sr0  1  0.500000  0.500000  0.500000  1
  Ce  Ce1  1  0.000000  0.000000  0.000000  1
  Si  Si2  1  0.063891  0.849011  0.672619  1
  Si  Si3  1  0.672619  0.063891  0.849011  1
  Si  Si4  1  0.849011  0.672619  0.063891  1
  Si  Si5  1  0.172679  0.351874  0.565101  1
  Si  Si6  1  0.565101  0.172679  0.351874  1
  Si  Si7  1  0.351874  0.565101  0.172679  1
  Si  Si8  1  0.936109  0.150989  0.327381  1
  Si  Si9  1  0.327381  0.936109  0.150989  1
  Si  Si10  1  0.150989  0.327381  0.936109  1
  Si  Si11  1  0.827321  0.648126  0.434899  1
  Si  Si12  1  0.434899  0.827321  0.648126  1
  Si  Si13  1  0.648126  0.434899  0.827321  1
  Si  Si14  1  0.749677  0.749677  0.749677  1
  Si  Si15  1  0.250323  0.250323  0.250323  1
  Ir  Ir16  1  0.064675  0.753665  0.428390  1
  Ir  Ir17  1  0.428390  0.064675  0.753665  1
  Ir  Ir18  1  0.753665  0.428390  0.064675  1
  Ir  Ir19  1  0.935325  0.246335  0.571610  1
  Ir  Ir20  1  0.571610  0.935325  0.246335  1
  Ir  Ir21  1  0.246335  0.571610  0.935325  1
