# generated using pymatgen
data_Ho3Er3ReB14Os
_symmetry_space_group_name_H-M   'P 1'
_cell_length_a   8.01961819
_cell_length_b   8.01961801
_cell_length_c   9.30134619
_cell_angle_alpha   89.97712940
_cell_angle_beta   90.02287089
_cell_angle_gamma   154.65730410
_symmetry_Int_Tables_number   1
_chemical_formula_structural   Ho3Er3ReB14Os
_chemical_formula_sum   'Ho3 Er3 Re1 B14 Os1'
_cell_volume   256.05238803
_cell_formula_units_Z   1
loop_
 _symmetry_equiv_pos_site_id
 _symmetry_equiv_pos_as_xyz
  1  'x, y, z'
loop_
 _atom_site_type_symbol
 _atom_site_label
 _atom_site_symmetry_multiplicity
 _atom_site_fract_x
 _atom_site_fract_y
 _atom_site_fract_z
 _atom_site_occupancy
  Ho  Ho0  1  0.894267  0.105733  0.440125  1
  Ho  Ho1  1  0.243740  0.756260  0.249948  1
  Ho  Ho2  1  0.756587  0.243413  0.750038  1
  Er  Er3  1  0.105713  0.894287  0.560870  1
  Er  Er4  1  0.894379  0.105621  0.059634  1
  Er  Er5  1  0.105727  0.894273  0.939170  1
  Re  Re6  1  0.947674  0.052326  0.750188  1
  B  B7  1  0.726900  0.273100  0.465435  1
  B  B8  1  0.272189  0.727811  0.533513  1
  B  B9  1  0.727061  0.272939  0.034603  1
  B  B10  1  0.272297  0.727703  0.966557  1
  B  B11  1  0.631784  0.368216  0.150816  1
  B  B12  1  0.367672  0.632328  0.849414  1
  B  B13  1  0.631782  0.368218  0.349174  1
  B  B14  1  0.367665  0.632335  0.650811  1
  B  B15  1  0.520263  0.479737  0.095677  1
  B  B16  1  0.479832  0.520168  0.905144  1
  B  B17  1  0.520347  0.479653  0.404148  1
  B  B18  1  0.479885  0.520115  0.595053  1
  B  B19  1  0.455664  0.544336  0.249771  1
  B  B20  1  0.545032  0.454968  0.750022  1
  Os  Os21  1  0.053536  0.946464  0.249891  1
