# generated using pymatgen
data_Ac3Si3Cl2
_symmetry_space_group_name_H-M   'P 1'
_cell_length_a   9.65437021
_cell_length_b   9.65437055
_cell_length_c   10.94359708
_cell_angle_alpha   82.59782912
_cell_angle_beta   82.59782984
_cell_angle_gamma   26.47751235
_symmetry_Int_Tables_number   1
_chemical_formula_structural   Ac3Si3Cl2
_chemical_formula_sum   'Ac6 Si6 Cl4'
_cell_volume   450.77103234
_cell_formula_units_Z   2
loop_
 _symmetry_equiv_pos_site_id
 _symmetry_equiv_pos_as_xyz
  1  'x, y, z'
loop_
 _atom_site_type_symbol
 _atom_site_label
 _atom_site_symmetry_multiplicity
 _atom_site_fract_x
 _atom_site_fract_y
 _atom_site_fract_z
 _atom_site_occupancy
  Ac  Ac0  1  0.679835  0.679835  0.850924  1
  Ac  Ac1  1  0.320165  0.320165  0.149076  1
  Ac  Ac2  1  0.385122  0.385122  0.490452  1
  Ac  Ac3  1  0.614878  0.614878  0.509548  1
  Ac  Ac4  1  0.464750  0.464750  0.830910  1
  Ac  Ac5  1  0.535250  0.535250  0.169090  1
  Si  Si6  1  0.936587  0.936587  0.051968  1
  Si  Si7  1  0.063413  0.063413  0.948032  1
  Si  Si8  1  0.087784  0.087784  0.722159  1
  Si  Si9  1  0.912216  0.912216  0.277841  1
  Si  Si10  1  0.982912  0.982912  0.610087  1
  Si  Si11  1  0.017088  0.017088  0.389913  1
  Cl  Cl12  1  0.226340  0.226340  0.392004  1
  Cl  Cl13  1  0.773660  0.773660  0.607996  1
  Cl  Cl14  1  0.296632  0.296632  0.873386  1
  Cl  Cl15  1  0.703368  0.703368  0.126614  1
