# generated using pymatgen
data_Ca20Cd3InNi8
_symmetry_space_group_name_H-M   'P 1'
_cell_length_a   7.70484900
_cell_length_b   7.70484900
_cell_length_c   14.89841100
_cell_angle_alpha   90.00000000
_cell_angle_beta   90.00000000
_cell_angle_gamma   90.00000000
_symmetry_Int_Tables_number   1
_chemical_formula_structural   Ca20Cd3InNi8
_chemical_formula_sum   'Ca20 Cd3 In1 Ni8'
_cell_volume   884.43967138
_cell_formula_units_Z   1
loop_
 _symmetry_equiv_pos_site_id
 _symmetry_equiv_pos_as_xyz
  1  'x, y, z'
loop_
 _atom_site_type_symbol
 _atom_site_label
 _atom_site_symmetry_multiplicity
 _atom_site_fract_x
 _atom_site_fract_y
 _atom_site_fract_z
 _atom_site_occupancy
  Ca  Ca0  1  0.670441  0.170423  0.116031  1
  Ca  Ca1  1  0.170347  0.671088  0.619088  1
  Ca  Ca2  1  0.329559  0.829577  0.116031  1
  Ca  Ca3  1  0.829653  0.328912  0.619088  1
  Ca  Ca4  1  0.829577  0.670441  0.116031  1
  Ca  Ca5  1  0.328912  0.170347  0.619088  1
  Ca  Ca6  1  0.170423  0.329559  0.116031  1
  Ca  Ca7  1  0.671088  0.829653  0.619088  1
  Ca  Ca8  1  0.829577  0.329559  0.883969  1
  Ca  Ca9  1  0.328912  0.829653  0.380912  1
  Ca  Ca10  1  0.170423  0.670441  0.883969  1
  Ca  Ca11  1  0.671088  0.170347  0.380912  1
  Ca  Ca12  1  0.670441  0.829577  0.883969  1
  Ca  Ca13  1  0.170347  0.328912  0.380912  1
  Ca  Ca14  1  0.329559  0.170423  0.883969  1
  Ca  Ca15  1  0.829653  0.671088  0.380912  1
  Ca  Ca16  1  0.500000  0.500000  0.751768  1
  Ca  Ca17  1  0.000000  0.000000  0.246684  1
  Ca  Ca18  1  0.000000  0.000000  0.753316  1
  Ca  Ca19  1  0.500000  0.500000  0.248232  1
  Cd  Cd20  1  0.500000  0.500000  0.500000  1
  Cd  Cd21  1  0.500000  0.500000  0.000000  1
  Cd  Cd22  1  0.000000  0.000000  0.500000  1
  In  In23  1  0.000000  0.000000  0.000000  1
  Ni  Ni24  1  0.609030  0.109804  0.750633  1
  Ni  Ni25  1  0.109804  0.609030  0.249367  1
  Ni  Ni26  1  0.890196  0.390970  0.249367  1
  Ni  Ni27  1  0.390970  0.890196  0.750633  1
  Ni  Ni28  1  0.890196  0.609030  0.750633  1
  Ni  Ni29  1  0.390970  0.109804  0.249367  1
  Ni  Ni30  1  0.109804  0.390970  0.750633  1
  Ni  Ni31  1  0.609030  0.890196  0.249367  1
