# generated using pymatgen
data_TbNd3Sc4(WO6)4
_symmetry_space_group_name_H-M   'P 1'
_cell_length_a   5.41941300
_cell_length_b   7.63617231
_cell_length_c   11.28922375
_cell_angle_alpha   79.46148775
_cell_angle_beta   90.00000000
_cell_angle_gamma   90.00000000
_symmetry_Int_Tables_number   1
_chemical_formula_structural   TbNd3Sc4(WO6)4
_chemical_formula_sum   'Tb1 Nd3 Sc4 W4 O24'
_cell_volume   459.30795461
_cell_formula_units_Z   1
loop_
 _symmetry_equiv_pos_site_id
 _symmetry_equiv_pos_as_xyz
  1  'x, y, z'
loop_
 _atom_site_type_symbol
 _atom_site_label
 _atom_site_symmetry_multiplicity
 _atom_site_fract_x
 _atom_site_fract_y
 _atom_site_fract_z
 _atom_site_occupancy
  Tb  Tb0  1  0.224239  0.000000  0.250000  1
  Nd  Nd1  1  0.773565  0.000000  0.750000  1
  Nd  Nd2  1  0.692555  0.500000  0.750000  1
  Nd  Nd3  1  0.304246  0.500000  0.250000  1
  Sc  Sc4  1  0.207380  0.771979  0.594557  1
  Sc  Sc5  1  0.793181  0.771865  0.096921  1
  Sc  Sc6  1  0.207380  0.228021  0.905443  1
  Sc  Sc7  1  0.793181  0.228135  0.403079  1
  W  W8  1  0.269548  0.735267  0.892177  1
  W  W9  1  0.729008  0.740542  0.390204  1
  W  W10  1  0.269548  0.264733  0.607823  1
  W  W11  1  0.729008  0.259458  0.109796  1
  O  O12  1  0.110083  0.967064  0.889708  1
  O  O13  1  0.576661  0.823733  0.942811  1
  O  O14  1  0.899665  0.969422  0.387204  1
  O  O15  1  0.462731  0.787532  0.729092  1
  O  O16  1  0.423508  0.832804  0.439866  1
  O  O17  1  0.002284  0.712114  0.775448  1
  O  O18  1  0.531380  0.793808  0.227975  1
  O  O19  1  0.865432  0.667520  0.546664  1
  O  O20  1  0.356348  0.492885  0.889781  1
  O  O21  1  0.999659  0.717877  0.273828  1
  O  O22  1  0.356348  0.507115  0.610219  1
  O  O23  1  0.865432  0.332480  0.953336  1
  O  O24  1  0.129797  0.661233  0.047498  1
  O  O25  1  0.646031  0.498276  0.386060  1
  O  O26  1  0.002284  0.287886  0.724552  1
  O  O27  1  0.646031  0.501724  0.113940  1
  O  O28  1  0.129797  0.338767  0.452502  1
  O  O29  1  0.462731  0.212468  0.770908  1
  O  O30  1  0.999659  0.282123  0.226172  1
  O  O31  1  0.576661  0.176267  0.557189  1
  O  O32  1  0.531380  0.206192  0.272025  1
  O  O33  1  0.110083  0.032936  0.610292  1
  O  O34  1  0.423508  0.167196  0.060134  1
  O  O35  1  0.899665  0.030578  0.112796  1
