# generated using pymatgen
data_Np2Co3NiAs4
_symmetry_space_group_name_H-M   'P 1'
_cell_length_a   4.12684300
_cell_length_b   4.12684300
_cell_length_c   9.34727600
_cell_angle_alpha   90.00000000
_cell_angle_beta   90.00000000
_cell_angle_gamma   90.00000000
_symmetry_Int_Tables_number   1
_chemical_formula_structural   Np2Co3NiAs4
_chemical_formula_sum   'Np2 Co3 Ni1 As4'
_cell_volume   159.19189793
_cell_formula_units_Z   1
loop_
 _symmetry_equiv_pos_site_id
 _symmetry_equiv_pos_as_xyz
  1  'x, y, z'
loop_
 _atom_site_type_symbol
 _atom_site_label
 _atom_site_symmetry_multiplicity
 _atom_site_fract_x
 _atom_site_fract_y
 _atom_site_fract_z
 _atom_site_occupancy
  Np  Np0  1  0.500000  0.000000  0.250813  1
  Np  Np1  1  0.000000  0.500000  0.749187  1
  Co  Co2  1  0.500000  0.000000  0.884103  1
  Co  Co3  1  0.500000  0.500000  0.500000  1
  Co  Co4  1  0.000000  0.500000  0.115897  1
  Ni  Ni5  1  0.000000  0.000000  0.500000  1
  As  As6  1  0.000000  0.500000  0.363146  1
  As  As7  1  0.500000  0.500000  0.000000  1
  As  As8  1  0.000000  0.000000  0.000000  1
  As  As9  1  0.500000  0.000000  0.636854  1
