# generated using pymatgen
data_RbInPbO4
_symmetry_space_group_name_H-M   'P 1'
_cell_length_a   3.35506100
_cell_length_b   6.97543790
_cell_length_c   5.75150900
_cell_angle_alpha   71.69580292
_cell_angle_beta   90.00000000
_cell_angle_gamma   90.00000000
_symmetry_Int_Tables_number   1
_chemical_formula_structural   RbInPbO4
_chemical_formula_sum   'Rb1 In1 Pb1 O4'
_cell_volume   127.79211568
_cell_formula_units_Z   1
loop_
 _symmetry_equiv_pos_site_id
 _symmetry_equiv_pos_as_xyz
  1  'x, y, z'
loop_
 _atom_site_type_symbol
 _atom_site_label
 _atom_site_symmetry_multiplicity
 _atom_site_fract_x
 _atom_site_fract_y
 _atom_site_fract_z
 _atom_site_occupancy
  Rb  Rb0  1  0.500000  0.500371  0.667761  1
  In  In1  1  0.500000  0.021798  0.491142  1
  Pb  Pb2  1  0.000000  0.980157  0.007622  1
  O  O3  1  0.000000  0.837583  0.405066  1
  O  O4  1  0.500000  0.822769  0.888104  1
  O  O5  1  0.000000  0.173594  0.612611  1
  O  O6  1  0.500000  0.162848  0.094653  1
