# generated using pymatgen
data_Ta3Ti11P8
_symmetry_space_group_name_H-M   'P 1'
_cell_length_a   7.58535513
_cell_length_b   7.58535420
_cell_length_c   13.62721564
_cell_angle_alpha   75.91079872
_cell_angle_beta   75.91079997
_cell_angle_gamma   25.87458647
_symmetry_Int_Tables_number   1
_chemical_formula_structural   Ta3Ti11P8
_chemical_formula_sum   'Ta3 Ti11 P8'
_cell_volume   331.32816722
_cell_formula_units_Z   1
loop_
 _symmetry_equiv_pos_site_id
 _symmetry_equiv_pos_as_xyz
  1  'x, y, z'
loop_
 _atom_site_type_symbol
 _atom_site_label
 _atom_site_symmetry_multiplicity
 _atom_site_fract_x
 _atom_site_fract_y
 _atom_site_fract_z
 _atom_site_occupancy
  Ta  Ta0  1  0.500000  0.500000  0.500000  1
  Ta  Ta1  1  0.428009  0.428009  0.172455  1
  Ta  Ta2  1  0.571991  0.571991  0.827545  1
  Ti  Ti3  1  0.000000  0.000000  0.000000  1
  Ti  Ti4  1  0.197702  0.197702  0.690205  1
  Ti  Ti5  1  0.802298  0.802298  0.309795  1
  Ti  Ti6  1  0.207286  0.207286  0.205196  1
  Ti  Ti7  1  0.792714  0.792714  0.794804  1
  Ti  Ti8  1  0.339587  0.339587  0.969316  1
  Ti  Ti9  1  0.660413  0.660413  0.030684  1
  Ti  Ti10  1  0.003397  0.003397  0.335935  1
  Ti  Ti11  1  0.996603  0.996603  0.664065  1
  Ti  Ti12  1  0.177527  0.177527  0.458948  1
  Ti  Ti13  1  0.822473  0.822473  0.541052  1
  P  P14  1  0.179334  0.179334  0.890908  1
  P  P15  1  0.820666  0.820666  0.109092  1
  P  P16  1  0.373214  0.373214  0.394166  1
  P  P17  1  0.626786  0.626786  0.605834  1
  P  P18  1  0.368783  0.368783  0.660577  1
  P  P19  1  0.631217  0.631217  0.339423  1
  P  P20  1  0.063308  0.063308  0.151186  1
  P  P21  1  0.936692  0.936692  0.848814  1
