# generated using pymatgen
data_CeThMgSi2
_symmetry_space_group_name_H-M   'P 1'
_cell_length_a   7.28540837
_cell_length_b   7.29521337
_cell_length_c   4.36180800
_cell_angle_alpha   90.00000000
_cell_angle_beta   90.00000000
_cell_angle_gamma   89.96342350
_symmetry_Int_Tables_number   1
_chemical_formula_structural   CeThMgSi2
_chemical_formula_sum   'Ce2 Th2 Mg2 Si4'
_cell_volume   231.82397880
_cell_formula_units_Z   2
loop_
 _symmetry_equiv_pos_site_id
 _symmetry_equiv_pos_as_xyz
  1  'x, y, z'
loop_
 _atom_site_type_symbol
 _atom_site_label
 _atom_site_symmetry_multiplicity
 _atom_site_fract_x
 _atom_site_fract_y
 _atom_site_fract_z
 _atom_site_occupancy
  Ce  Ce0  1  0.821476  0.679285  0.500000  1
  Ce  Ce1  1  0.320458  0.820952  0.500000  1
  Th  Th2  1  0.678737  0.178086  0.500000  1
  Th  Th3  1  0.178635  0.321876  0.500000  1
  Mg  Mg4  1  0.000439  0.997184  0.000000  1
  Mg  Mg5  1  0.500669  0.502804  0.000000  1
  Si  Si6  1  0.882816  0.384577  0.000000  1
  Si  Si7  1  0.382852  0.115211  0.000000  1
  Si  Si8  1  0.617139  0.881271  0.000000  1
  Si  Si9  1  0.116780  0.618754  0.000000  1
