# generated using pymatgen
data_Ce4Si(HgRh5)2
_symmetry_space_group_name_H-M   'P 1'
_cell_length_a   7.28948889
_cell_length_b   7.38910640
_cell_length_c   7.38910713
_cell_angle_alpha   108.00689228
_cell_angle_beta   110.49679835
_cell_angle_gamma   110.49679257
_symmetry_Int_Tables_number   1
_chemical_formula_structural   Ce4Si(HgRh5)2
_chemical_formula_sum   'Ce4 Si1 Hg2 Rh10'
_cell_volume   303.99770085
_cell_formula_units_Z   1
loop_
 _symmetry_equiv_pos_site_id
 _symmetry_equiv_pos_as_xyz
  1  'x, y, z'
loop_
 _atom_site_type_symbol
 _atom_site_label
 _atom_site_symmetry_multiplicity
 _atom_site_fract_x
 _atom_site_fract_y
 _atom_site_fract_z
 _atom_site_occupancy
  Ce  Ce0  1  0.033713  0.016857  0.516857  1
  Ce  Ce1  1  0.033713  0.516857  0.016857  1
  Ce  Ce2  1  0.475404  0.962172  0.962172  1
  Ce  Ce3  1  0.475404  0.513233  0.513233  1
  Si  Si4  1  0.999371  0.999686  0.999686  1
  Hg  Hg5  1  0.744850  0.247002  0.497849  1
  Hg  Hg6  1  0.744850  0.497849  0.247002  1
  Rh  Rh7  1  0.508669  0.254334  0.754334  1
  Rh  Rh8  1  0.244654  0.496008  0.748645  1
  Rh  Rh9  1  0.244654  0.748645  0.496008  1
  Rh  Rh10  1  0.508669  0.754334  0.254334  1
  Rh  Rh11  1  0.731613  0.725551  0.006062  1
  Rh  Rh12  1  0.274498  0.999382  0.275116  1
  Rh  Rh13  1  0.986914  0.261941  0.261941  1
  Rh  Rh14  1  0.274498  0.275116  0.999382  1
  Rh  Rh15  1  0.731613  0.006062  0.725551  1
  Rh  Rh16  1  0.986914  0.724973  0.724973  1
