# generated using pymatgen
data_Na3Cd2BiO6
_symmetry_space_group_name_H-M   'P 1'
_cell_length_a   5.87760042
_cell_length_b   5.87760067
_cell_length_c   10.59406885
_cell_angle_alpha   100.53179864
_cell_angle_beta   100.53179831
_cell_angle_gamma   109.94346083
_symmetry_Int_Tables_number   1
_chemical_formula_structural   Na3Cd2BiO6
_chemical_formula_sum   'Na6 Cd4 Bi2 O12'
_cell_volume   326.12640160
_cell_formula_units_Z   2
loop_
 _symmetry_equiv_pos_site_id
 _symmetry_equiv_pos_as_xyz
  1  'x, y, z'
loop_
 _atom_site_type_symbol
 _atom_site_label
 _atom_site_symmetry_multiplicity
 _atom_site_fract_x
 _atom_site_fract_y
 _atom_site_fract_z
 _atom_site_occupancy
  Na  Na0  1  0.037682  0.787683  0.075363  1
  Na  Na1  1  0.125000  0.374999  0.250000  1
  Na  Na2  1  0.712318  0.462318  0.424637  1
  Na  Na3  1  0.287682  0.537681  0.575363  1
  Na  Na4  1  0.875000  0.625000  0.750000  1
  Na  Na5  1  0.962318  0.212317  0.924637  1
  Cd  Cd6  1  0.543555  0.293555  0.087111  1
  Cd  Cd7  1  0.206444  0.956445  0.412889  1
  Cd  Cd8  1  0.793555  0.043554  0.587111  1
  Cd  Cd9  1  0.456445  0.706444  0.912890  1
  Bi  Bi10  1  0.625001  0.875000  0.250000  1
  Bi  Bi11  1  0.375000  0.125001  0.750000  1
  O  O12  1  0.769767  0.028612  0.095678  1
  O  O13  1  0.325911  0.567066  0.095678  1
  O  O14  1  0.401001  0.098998  0.250000  1
  O  O15  1  0.848998  0.651003  0.250000  1
  O  O16  1  0.932934  0.174088  0.404322  1
  O  O17  1  0.471387  0.730234  0.404322  1
  O  O18  1  0.528612  0.269766  0.595678  1
  O  O19  1  0.067067  0.825912  0.595678  1
  O  O20  1  0.151003  0.348998  0.750000  1
  O  O21  1  0.598998  0.901002  0.750000  1
  O  O22  1  0.674088  0.432933  0.904322  1
  O  O23  1  0.230234  0.971388  0.904322  1
