# generated using pymatgen
data_CaAc8Pr11Pb16
_symmetry_space_group_name_H-M   'P 1'
_cell_length_a   8.65881100
_cell_length_b   8.75964504
_cell_length_c   16.69014400
_cell_angle_alpha   90.00000000
_cell_angle_beta   90.00000000
_cell_angle_gamma   90.32857632
_symmetry_Int_Tables_number   1
_chemical_formula_structural   CaAc8Pr11Pb16
_chemical_formula_sum   'Ca1 Ac8 Pr11 Pb16'
_cell_volume   1265.89507565
_cell_formula_units_Z   1
loop_
 _symmetry_equiv_pos_site_id
 _symmetry_equiv_pos_as_xyz
  1  'x, y, z'
loop_
 _atom_site_type_symbol
 _atom_site_label
 _atom_site_symmetry_multiplicity
 _atom_site_fract_x
 _atom_site_fract_y
 _atom_site_fract_z
 _atom_site_occupancy
  Ca  Ca0  1  0.296185  0.005389  0.250000  1
  Ac  Ac1  1  0.520580  0.320499  0.902576  1
  Ac  Ac2  1  0.020346  0.177188  0.598158  1
  Ac  Ac3  1  0.480989  0.683934  0.402872  1
  Ac  Ac4  1  0.982801  0.821216  0.096498  1
  Ac  Ac5  1  0.480989  0.683934  0.097128  1
  Ac  Ac6  1  0.982801  0.821216  0.403502  1
  Ac  Ac7  1  0.520580  0.320499  0.597424  1
  Ac  Ac8  1  0.020346  0.177188  0.901842  1
  Pr  Pr9  1  0.365619  0.841711  0.879806  1
  Pr  Pr10  1  0.865718  0.656846  0.620426  1
  Pr  Pr11  1  0.629433  0.158072  0.379917  1
  Pr  Pr12  1  0.134360  0.340783  0.119860  1
  Pr  Pr13  1  0.629433  0.158072  0.120083  1
  Pr  Pr14  1  0.134360  0.340783  0.380140  1
  Pr  Pr15  1  0.365619  0.841711  0.620194  1
  Pr  Pr16  1  0.865718  0.656846  0.879574  1
  Pr  Pr17  1  0.200846  0.500130  0.750000  1
  Pr  Pr18  1  0.701550  0.996642  0.750000  1
  Pr  Pr19  1  0.799230  0.498732  0.250000  1
  Pb  Pb20  1  0.294943  0.043833  0.042277  1
  Pb  Pb21  1  0.795147  0.459843  0.454260  1
  Pb  Pb22  1  0.704886  0.956668  0.543777  1
  Pb  Pb23  1  0.204331  0.540462  0.955494  1
  Pb  Pb24  1  0.704886  0.956668  0.956223  1
  Pb  Pb25  1  0.204331  0.540462  0.544506  1
  Pb  Pb26  1  0.294943  0.043833  0.457723  1
  Pb  Pb27  1  0.795147  0.459843  0.045740  1
  Pb  Pb28  1  0.562764  0.630056  0.750000  1
  Pb  Pb29  1  0.064197  0.868432  0.750000  1
  Pb  Pb30  1  0.434471  0.376116  0.250000  1
  Pb  Pb31  1  0.932986  0.128636  0.250000  1
  Pb  Pb32  1  0.330829  0.140827  0.750000  1
  Pb  Pb33  1  0.830517  0.355427  0.750000  1
  Pb  Pb34  1  0.679562  0.859412  0.250000  1
  Pb  Pb35  1  0.168558  0.638099  0.250000  1
