# generated using pymatgen
data_Dy3Au10
_symmetry_space_group_name_H-M   'P 1'
_cell_length_a   10.93657800
_cell_length_b   10.93657717
_cell_length_c   5.04239100
_cell_angle_alpha   90.00000000
_cell_angle_beta   90.00000000
_cell_angle_gamma   119.99999645
_symmetry_Int_Tables_number   1
_chemical_formula_structural   Dy3Au10
_chemical_formula_sum   'Dy6 Au20'
_cell_volume   522.31204683
_cell_formula_units_Z   2
loop_
 _symmetry_equiv_pos_site_id
 _symmetry_equiv_pos_as_xyz
  1  'x, y, z'
loop_
 _atom_site_type_symbol
 _atom_site_label
 _atom_site_symmetry_multiplicity
 _atom_site_fract_x
 _atom_site_fract_y
 _atom_site_fract_z
 _atom_site_occupancy
  Dy  Dy0  1  0.639379  0.743630  0.250000  1
  Dy  Dy1  1  0.256370  0.895749  0.250000  1
  Dy  Dy2  1  0.104251  0.360621  0.250000  1
  Dy  Dy3  1  0.360621  0.256370  0.750000  1
  Dy  Dy4  1  0.743630  0.104251  0.750000  1
  Dy  Dy5  1  0.895749  0.639379  0.750000  1
  Au  Au6  1  0.877107  0.054694  0.250000  1
  Au  Au7  1  0.945306  0.822413  0.250000  1
  Au  Au8  1  0.177587  0.122893  0.250000  1
  Au  Au9  1  0.122893  0.945306  0.750000  1
  Au  Au10  1  0.054694  0.177587  0.750000  1
  Au  Au11  1  0.822413  0.877107  0.750000  1
  Au  Au12  1  0.565223  0.976154  0.250000  1
  Au  Au13  1  0.023846  0.589069  0.250000  1
  Au  Au14  1  0.410931  0.434777  0.250000  1
  Au  Au15  1  0.434777  0.023846  0.750000  1
  Au  Au16  1  0.976154  0.410931  0.750000  1
  Au  Au17  1  0.589069  0.565223  0.750000  1
  Au  Au18  1  0.795559  0.285411  0.250000  1
  Au  Au19  1  0.714589  0.510148  0.250000  1
  Au  Au20  1  0.489852  0.204441  0.250000  1
  Au  Au21  1  0.204441  0.714589  0.750000  1
  Au  Au22  1  0.285411  0.489852  0.750000  1
  Au  Au23  1  0.510148  0.795559  0.750000  1
  Au  Au24  1  0.666667  0.333333  0.750000  1
  Au  Au25  1  0.333333  0.666667  0.250000  1
