# generated using pymatgen
data_Y18Er2Cd6IrRu
_symmetry_space_group_name_H-M   'P 1'
_cell_length_a   9.66472400
_cell_length_b   9.66472356
_cell_length_c   9.84256600
_cell_angle_alpha   90.00000000
_cell_angle_beta   90.00000000
_cell_angle_gamma   120.00000150
_symmetry_Int_Tables_number   1
_chemical_formula_structural   Y18Er2Cd6IrRu
_chemical_formula_sum   'Y18 Er2 Cd6 Ir1 Ru1'
_cell_volume   796.19208068
_cell_formula_units_Z   1
loop_
 _symmetry_equiv_pos_site_id
 _symmetry_equiv_pos_as_xyz
  1  'x, y, z'
loop_
 _atom_site_type_symbol
 _atom_site_label
 _atom_site_symmetry_multiplicity
 _atom_site_fract_x
 _atom_site_fract_y
 _atom_site_fract_z
 _atom_site_occupancy
  Y  Y0  1  0.208963  0.791037  0.440341  1
  Y  Y1  1  0.208963  0.417926  0.440341  1
  Y  Y2  1  0.582074  0.791037  0.440341  1
  Y  Y3  1  0.790623  0.209377  0.560192  1
  Y  Y4  1  0.790623  0.581243  0.560192  1
  Y  Y5  1  0.418757  0.209377  0.560192  1
  Y  Y6  1  0.790623  0.209377  0.939808  1
  Y  Y7  1  0.790623  0.581243  0.939808  1
  Y  Y8  1  0.418757  0.209377  0.939808  1
  Y  Y9  1  0.208963  0.791037  0.059659  1
  Y  Y10  1  0.208963  0.417926  0.059659  1
  Y  Y11  1  0.582074  0.791037  0.059659  1
  Y  Y12  1  0.541366  0.458634  0.250000  1
  Y  Y13  1  0.541366  0.082731  0.250000  1
  Y  Y14  1  0.917269  0.458634  0.250000  1
  Y  Y15  1  0.458749  0.541251  0.750000  1
  Y  Y16  1  0.458749  0.917498  0.750000  1
  Y  Y17  1  0.082502  0.541251  0.750000  1
  Er  Er18  1  0.000000  0.000000  0.499606  1
  Er  Er19  1  0.000000  0.000000  0.000394  1
  Cd  Cd20  1  0.885559  0.114441  0.250000  1
  Cd  Cd21  1  0.885559  0.771118  0.250000  1
  Cd  Cd22  1  0.228882  0.114441  0.250000  1
  Cd  Cd23  1  0.114328  0.885672  0.750000  1
  Cd  Cd24  1  0.114328  0.228655  0.750000  1
  Cd  Cd25  1  0.771345  0.885672  0.750000  1
  Ir  Ir26  1  0.333333  0.666667  0.250000  1
  Ru  Ru27  1  0.666667  0.333333  0.750000  1
