# generated using pymatgen
data_NdSm2Co8P6W
_symmetry_space_group_name_H-M   'P 1'
_cell_length_a   3.78325100
_cell_length_b   10.70914700
_cell_length_c   12.43620900
_cell_angle_alpha   90.00000000
_cell_angle_beta   90.00000000
_cell_angle_gamma   90.00000000
_symmetry_Int_Tables_number   1
_chemical_formula_structural   NdSm2Co8P6W
_chemical_formula_sum   'Nd2 Sm4 Co16 P12 W2'
_cell_volume   503.85787140
_cell_formula_units_Z   2
loop_
 _symmetry_equiv_pos_site_id
 _symmetry_equiv_pos_as_xyz
  1  'x, y, z'
loop_
 _atom_site_type_symbol
 _atom_site_label
 _atom_site_symmetry_multiplicity
 _atom_site_fract_x
 _atom_site_fract_y
 _atom_site_fract_z
 _atom_site_occupancy
  Nd  Nd0  1  0.000000  0.500000  0.523901  1
  Nd  Nd1  1  0.500000  0.000000  0.476099  1
  Sm  Sm2  1  0.500000  0.818833  0.204405  1
  Sm  Sm3  1  0.500000  0.181167  0.204405  1
  Sm  Sm4  1  0.000000  0.681167  0.795595  1
  Sm  Sm5  1  0.000000  0.318833  0.795595  1
  Co  Co6  1  0.500000  0.500000  0.703473  1
  Co  Co7  1  0.000000  0.000000  0.296527  1
  Co  Co8  1  0.000000  0.500000  0.987804  1
  Co  Co9  1  0.500000  0.000000  0.012196  1
  Co  Co10  1  0.500000  0.332695  0.991227  1
  Co  Co11  1  0.500000  0.667305  0.991227  1
  Co  Co12  1  0.000000  0.167305  0.008773  1
  Co  Co13  1  0.000000  0.832695  0.008773  1
  Co  Co14  1  0.500000  0.295256  0.430454  1
  Co  Co15  1  0.500000  0.704744  0.430454  1
  Co  Co16  1  0.000000  0.204744  0.569546  1
  Co  Co17  1  0.000000  0.795256  0.569546  1
  Co  Co18  1  0.500000  0.880056  0.709843  1
  Co  Co19  1  0.500000  0.119944  0.709843  1
  Co  Co20  1  0.000000  0.619944  0.290157  1
  Co  Co21  1  0.000000  0.380056  0.290157  1
  P  P22  1  0.500000  0.500000  0.883653  1
  P  P23  1  0.000000  0.000000  0.116347  1
  P  P24  1  0.500000  0.500000  0.345028  1
  P  P25  1  0.000000  0.000000  0.654972  1
  P  P26  1  0.500000  0.307145  0.615446  1
  P  P27  1  0.500000  0.692855  0.615446  1
  P  P28  1  0.000000  0.192855  0.384554  1
  P  P29  1  0.000000  0.807145  0.384554  1
  P  P30  1  0.500000  0.845674  0.894760  1
  P  P31  1  0.500000  0.154326  0.894760  1
  P  P32  1  0.000000  0.654326  0.105240  1
  P  P33  1  0.000000  0.345674  0.105240  1
  W  W34  1  0.500000  0.500000  0.154056  1
  W  W35  1  0.000000  0.000000  0.845944  1
