# generated using pymatgen
data_La13Yb3(CdOs)4
_symmetry_space_group_name_H-M   'P 1'
_cell_length_a   10.10794512
_cell_length_b   10.04720726
_cell_length_c   10.10794500
_cell_angle_alpha   59.79981960
_cell_angle_beta   59.99999712
_cell_angle_gamma   59.79981675
_symmetry_Int_Tables_number   1
_chemical_formula_structural   La13Yb3(CdOs)4
_chemical_formula_sum   'La13 Yb3 Cd4 Os4'
_cell_volume   723.66136298
_cell_formula_units_Z   1
loop_
 _symmetry_equiv_pos_site_id
 _symmetry_equiv_pos_as_xyz
  1  'x, y, z'
loop_
 _atom_site_type_symbol
 _atom_site_label
 _atom_site_symmetry_multiplicity
 _atom_site_fract_x
 _atom_site_fract_y
 _atom_site_fract_z
 _atom_site_occupancy
  La  La0  1  0.689673  0.689930  0.310199  1
  La  La1  1  0.155526  0.151856  0.537092  1
  La  La2  1  0.310199  0.689930  0.689673  1
  La  La3  1  0.155526  0.151856  0.155526  1
  La  La4  1  0.537092  0.151856  0.155526  1
  La  La5  1  0.310199  0.689930  0.310199  1
  La  La6  1  0.311767  0.306822  0.690706  1
  La  La7  1  0.690706  0.306822  0.690706  1
  La  La8  1  0.941570  0.560612  0.556249  1
  La  La9  1  0.556249  0.560612  0.941570  1
  La  La10  1  0.155423  0.533732  0.155423  1
  La  La11  1  0.690706  0.306822  0.311767  1
  La  La12  1  0.941570  0.560612  0.941570  1
  Yb  Yb13  1  0.944609  0.940401  0.557495  1
  Yb  Yb14  1  0.557495  0.940401  0.557495  1
  Yb  Yb15  1  0.557495  0.940401  0.944609  1
  Cd  Cd16  1  0.238457  0.921196  0.920173  1
  Cd  Cd17  1  0.920173  0.921196  0.920173  1
  Cd  Cd18  1  0.920173  0.921196  0.238457  1
  Cd  Cd19  1  0.921290  0.236130  0.921290  1
  Os  Os20  1  0.909824  0.368266  0.360955  1
  Os  Os21  1  0.360955  0.368266  0.909824  1
  Os  Os22  1  0.362371  0.912888  0.362371  1
  Os  Os23  1  0.360955  0.368266  0.360955  1
