# generated using pymatgen
data_Dy2(HoPt3)3
_symmetry_space_group_name_H-M   'P 1'
_cell_length_a   9.76566828
_cell_length_b   9.76566828
_cell_length_c   5.77091300
_cell_angle_alpha   90.00000000
_cell_angle_beta   90.00000000
_cell_angle_gamma   90.05870582
_symmetry_Int_Tables_number   1
_chemical_formula_structural   Dy2(HoPt3)3
_chemical_formula_sum   'Dy4 Ho6 Pt18'
_cell_volume   550.36174055
_cell_formula_units_Z   2
loop_
 _symmetry_equiv_pos_site_id
 _symmetry_equiv_pos_as_xyz
  1  'x, y, z'
loop_
 _atom_site_type_symbol
 _atom_site_label
 _atom_site_symmetry_multiplicity
 _atom_site_fract_x
 _atom_site_fract_y
 _atom_site_fract_z
 _atom_site_occupancy
  Dy  Dy0  1  0.452359  0.809443  0.000000  1
  Dy  Dy1  1  0.547641  0.190557  0.000000  1
  Dy  Dy2  1  0.190557  0.547641  0.000000  1
  Dy  Dy3  1  0.809443  0.452359  0.000000  1
  Ho  Ho4  1  0.500000  0.500000  0.500000  1
  Ho  Ho5  1  0.309388  0.047718  0.500000  1
  Ho  Ho6  1  0.690612  0.952282  0.500000  1
  Ho  Ho7  1  0.952282  0.690612  0.500000  1
  Ho  Ho8  1  0.047718  0.309388  0.500000  1
  Ho  Ho9  1  0.000000  0.000000  0.000000  1
  Pt  Pt10  1  0.191263  0.808737  0.251056  1
  Pt  Pt11  1  0.808737  0.191263  0.748944  1
  Pt  Pt12  1  0.808737  0.191263  0.251056  1
  Pt  Pt13  1  0.191263  0.808737  0.748944  1
  Pt  Pt14  1  0.440138  0.781487  0.500000  1
  Pt  Pt15  1  0.559862  0.218513  0.500000  1
  Pt  Pt16  1  0.218513  0.559862  0.500000  1
  Pt  Pt17  1  0.781487  0.440138  0.500000  1
  Pt  Pt18  1  0.308418  0.308418  0.249595  1
  Pt  Pt19  1  0.691582  0.691582  0.750405  1
  Pt  Pt20  1  0.691582  0.691582  0.249595  1
  Pt  Pt21  1  0.308418  0.308418  0.750405  1
  Pt  Pt22  1  0.281199  0.059897  0.000000  1
  Pt  Pt23  1  0.718801  0.940103  0.000000  1
  Pt  Pt24  1  0.940103  0.718801  0.000000  1
  Pt  Pt25  1  0.059897  0.281199  0.000000  1
  Pt  Pt26  1  0.000000  0.000000  0.500000  1
  Pt  Pt27  1  0.500000  0.500000  0.000000  1
