# generated using pymatgen
data_Tb2Pr3Dy3(CdPt)2
_symmetry_space_group_name_H-M   'P 1'
_cell_length_a   9.83475244
_cell_length_b   9.83475793
_cell_length_c   9.83476000
_cell_angle_alpha   60.00000560
_cell_angle_beta   60.00001222
_cell_angle_gamma   60.00003866
_symmetry_Int_Tables_number   1
_chemical_formula_structural   Tb2Pr3Dy3(CdPt)2
_chemical_formula_sum   'Tb4 Pr6 Dy6 Cd4 Pt4'
_cell_volume   672.62973297
_cell_formula_units_Z   2
loop_
 _symmetry_equiv_pos_site_id
 _symmetry_equiv_pos_as_xyz
  1  'x, y, z'
loop_
 _atom_site_type_symbol
 _atom_site_label
 _atom_site_symmetry_multiplicity
 _atom_site_fract_x
 _atom_site_fract_y
 _atom_site_fract_z
 _atom_site_occupancy
  Tb  Tb0  1  0.350163  0.350166  0.350162  1
  Tb  Tb1  1  0.350162  0.350165  0.949508  1
  Tb  Tb2  1  0.350163  0.949508  0.350163  1
  Tb  Tb3  1  0.949508  0.350166  0.350162  1
  Pr  Pr4  1  0.938242  0.561758  0.561758  1
  Pr  Pr5  1  0.561759  0.938242  0.938242  1
  Pr  Pr6  1  0.561757  0.938243  0.561757  1
  Pr  Pr7  1  0.938241  0.561758  0.938242  1
  Pr  Pr8  1  0.561759  0.561757  0.938242  1
  Pr  Pr9  1  0.938242  0.938243  0.561758  1
  Dy  Dy10  1  0.811869  0.188134  0.188131  1
  Dy  Dy11  1  0.188131  0.811864  0.811870  1
  Dy  Dy12  1  0.188133  0.811866  0.188133  1
  Dy  Dy13  1  0.811867  0.188133  0.811867  1
  Dy  Dy14  1  0.188131  0.188135  0.811870  1
  Dy  Dy15  1  0.811870  0.811864  0.188132  1
  Cd  Cd16  1  0.579553  0.579552  0.579553  1
  Cd  Cd17  1  0.579553  0.579553  0.261339  1
  Cd  Cd18  1  0.579553  0.261340  0.579553  1
  Cd  Cd19  1  0.261340  0.579552  0.579554  1
  Pt  Pt20  1  0.142351  0.142352  0.142352  1
  Pt  Pt21  1  0.142351  0.142351  0.572946  1
  Pt  Pt22  1  0.142352  0.572944  0.142352  1
  Pt  Pt23  1  0.572946  0.142351  0.142351  1
