# generated using pymatgen
data_Pr8Nd2Si5Ir
_symmetry_space_group_name_H-M   'P 1'
_cell_length_a   7.69956161
_cell_length_b   7.69956170
_cell_length_c   9.12197800
_cell_angle_alpha   114.96304694
_cell_angle_beta   114.96304658
_cell_angle_gamma   89.99999934
_symmetry_Int_Tables_number   1
_chemical_formula_structural   Pr8Nd2Si5Ir
_chemical_formula_sum   'Pr8 Nd2 Si5 Ir1'
_cell_volume   433.89849776
_cell_formula_units_Z   1
loop_
 _symmetry_equiv_pos_site_id
 _symmetry_equiv_pos_as_xyz
  1  'x, y, z'
loop_
 _atom_site_type_symbol
 _atom_site_label
 _atom_site_symmetry_multiplicity
 _atom_site_fract_x
 _atom_site_fract_y
 _atom_site_fract_z
 _atom_site_occupancy
  Pr  Pr0  1  0.949534  0.806998  0.286303  1
  Pr  Pr1  1  0.336769  0.479305  0.286303  1
  Pr  Pr2  1  0.806998  0.336769  0.286303  1
  Pr  Pr3  1  0.479305  0.949534  0.286303  1
  Pr  Pr4  1  0.020695  0.163231  0.713697  1
  Pr  Pr5  1  0.693002  0.550466  0.713697  1
  Pr  Pr6  1  0.163231  0.693002  0.713697  1
  Pr  Pr7  1  0.550466  0.020695  0.713697  1
  Nd  Nd8  1  0.469053  0.469053  0.938106  1
  Nd  Nd9  1  0.030947  0.030947  0.061894  1
  Si  Si10  1  0.250000  0.250000  0.500000  1
  Si  Si11  1  0.614909  0.885091  0.000000  1
  Si  Si12  1  0.385091  0.114909  0.000000  1
  Si  Si13  1  0.885091  0.385091  0.000000  1
  Si  Si14  1  0.114909  0.614909  0.000000  1
  Ir  Ir15  1  0.750000  0.750000  0.500000  1
