# generated using pymatgen
data_Tm7CoSn23Ru5
_symmetry_space_group_name_H-M   'P 1'
_cell_length_a   9.78990809
_cell_length_b   9.78990605
_cell_length_c   10.03197702
_cell_angle_alpha   90.07080683
_cell_angle_beta   89.92919373
_cell_angle_gamma   120.02056382
_symmetry_Int_Tables_number   1
_chemical_formula_structural   Tm7CoSn23Ru5
_chemical_formula_sum   'Tm7 Co1 Sn23 Ru5'
_cell_volume   832.49920481
_cell_formula_units_Z   1
loop_
 _symmetry_equiv_pos_site_id
 _symmetry_equiv_pos_as_xyz
  1  'x, y, z'
loop_
 _atom_site_type_symbol
 _atom_site_label
 _atom_site_symmetry_multiplicity
 _atom_site_fract_x
 _atom_site_fract_y
 _atom_site_fract_z
 _atom_site_occupancy
  Tm  Tm0  1  0.004848  0.995152  0.994325  1
  Tm  Tm1  1  0.514357  0.485643  0.697293  1
  Tm  Tm2  1  0.515133  0.029944  0.696484  1
  Tm  Tm3  1  0.970056  0.484867  0.696484  1
  Tm  Tm4  1  0.030835  0.516278  0.304251  1
  Tm  Tm5  1  0.483722  0.969165  0.304251  1
  Tm  Tm6  1  0.483977  0.516023  0.303338  1
  Co  Co7  1  0.828442  0.171558  0.201117  1
  Sn  Sn8  1  0.667811  0.332189  0.180711  1
  Sn  Sn9  1  0.666503  0.333497  0.870918  1
  Sn  Sn10  1  0.332795  0.667205  0.129672  1
  Sn  Sn11  1  0.349245  0.349206  0.000156  1
  Sn  Sn12  1  0.999049  0.648228  0.000347  1
  Sn  Sn13  1  0.655104  0.002646  0.004609  1
  Sn  Sn14  1  0.650794  0.650755  0.000156  1
  Sn  Sn15  1  0.333153  0.666847  0.821261  1
  Sn  Sn16  1  0.440220  0.220311  0.462837  1
  Sn  Sn17  1  0.220433  0.779567  0.538109  1
  Sn  Sn18  1  0.219699  0.440198  0.537466  1
  Sn  Sn19  1  0.559802  0.780301  0.537466  1
  Sn  Sn20  1  0.119412  0.880588  0.273469  1
  Sn  Sn21  1  0.779689  0.559780  0.462837  1
  Sn  Sn22  1  0.781999  0.218001  0.457093  1
  Sn  Sn23  1  0.351772  0.000951  0.000347  1
  Sn  Sn24  1  0.111214  0.234501  0.271677  1
  Sn  Sn25  1  0.765499  0.888786  0.271677  1
  Sn  Sn26  1  0.237465  0.119134  0.724616  1
  Sn  Sn27  1  0.880866  0.762535  0.724616  1
  Sn  Sn28  1  0.880992  0.119008  0.726583  1
  Sn  Sn29  1  0.000368  0.999632  0.498809  1
  Sn  Sn30  1  0.997354  0.344896  0.004609  1
  Ru  Ru31  1  0.169506  0.830494  0.799657  1
  Ru  Ru32  1  0.168779  0.339793  0.799003  1
  Ru  Ru33  1  0.660207  0.831221  0.799003  1
  Ru  Ru34  1  0.339331  0.170432  0.202377  1
  Ru  Ru35  1  0.829568  0.660669  0.202377  1
