# generated using pymatgen
data_Hf5ZrGa7Cu16
_symmetry_space_group_name_H-M   'P 1'
_cell_length_a   8.40714670
_cell_length_b   8.40106029
_cell_length_c   8.40106104
_cell_angle_alpha   60.04793492
_cell_angle_beta   59.97602684
_cell_angle_gamma   59.97603110
_symmetry_Int_Tables_number   1
_chemical_formula_structural   Hf5ZrGa7Cu16
_chemical_formula_sum   'Hf5 Zr1 Ga7 Cu16'
_cell_volume   419.56706523
_cell_formula_units_Z   1
loop_
 _symmetry_equiv_pos_site_id
 _symmetry_equiv_pos_as_xyz
  1  'x, y, z'
loop_
 _atom_site_type_symbol
 _atom_site_label
 _atom_site_symmetry_multiplicity
 _atom_site_fract_x
 _atom_site_fract_y
 _atom_site_fract_z
 _atom_site_occupancy
  Hf  Hf0  1  0.703508  0.703057  0.296492  1
  Hf  Hf1  1  0.296943  0.703057  0.296492  1
  Hf  Hf2  1  0.702186  0.297814  0.297814  1
  Hf  Hf3  1  0.296943  0.296492  0.703057  1
  Hf  Hf4  1  0.703508  0.296492  0.703057  1
  Zr  Zr5  1  0.297453  0.702547  0.702547  1
  Ga  Ga6  1  0.000426  0.999574  0.999574  1
  Ga  Ga7  1  0.000163  0.999837  0.499770  1
  Ga  Ga8  1  0.500230  0.999837  0.499770  1
  Ga  Ga9  1  0.000113  0.499887  0.499887  1
  Ga  Ga10  1  0.500230  0.499770  0.999837  1
  Ga  Ga11  1  0.000163  0.499770  0.999837  1
  Ga  Ga12  1  0.500113  0.999887  0.999887  1
  Cu  Cu13  1  0.880868  0.881331  0.356934  1
  Cu  Cu14  1  0.880868  0.356934  0.881331  1
  Cu  Cu15  1  0.357693  0.881437  0.881437  1
  Cu  Cu16  1  0.879433  0.881437  0.881437  1
  Cu  Cu17  1  0.118563  0.120567  0.642307  1
  Cu  Cu18  1  0.118563  0.642307  0.120567  1
  Cu  Cu19  1  0.643066  0.119132  0.119132  1
  Cu  Cu20  1  0.118669  0.119132  0.119132  1
  Cu  Cu21  1  0.669360  0.669248  0.992031  1
  Cu  Cu22  1  0.669360  0.992031  0.669248  1
  Cu  Cu23  1  0.990831  0.669285  0.669285  1
  Cu  Cu24  1  0.670599  0.669285  0.669285  1
  Cu  Cu25  1  0.330715  0.329401  0.009169  1
  Cu  Cu26  1  0.330715  0.009169  0.329401  1
  Cu  Cu27  1  0.007969  0.330640  0.330640  1
  Cu  Cu28  1  0.330752  0.330640  0.330640  1
