# generated using pymatgen
data_Ca4TbY(Si3Ru)8
_symmetry_space_group_name_H-M   'P 1'
_cell_length_a   10.17285525
_cell_length_b   10.17285585
_cell_length_c   8.14858800
_cell_angle_alpha   89.94825420
_cell_angle_beta   90.05174744
_cell_angle_gamma   132.79545128
_symmetry_Int_Tables_number   1
_chemical_formula_structural   Ca4TbY(Si3Ru)8
_chemical_formula_sum   'Ca4 Tb1 Y1 Si24 Ru8'
_cell_volume   618.77965523
_cell_formula_units_Z   1
loop_
 _symmetry_equiv_pos_site_id
 _symmetry_equiv_pos_as_xyz
  1  'x, y, z'
loop_
 _atom_site_type_symbol
 _atom_site_label
 _atom_site_symmetry_multiplicity
 _atom_site_fract_x
 _atom_site_fract_y
 _atom_site_fract_z
 _atom_site_occupancy
  Ca  Ca0  1  0.499542  0.499540  0.499645  1
  Ca  Ca1  1  0.999540  0.999542  0.000355  1
  Ca  Ca2  1  0.999085  0.499085  0.250000  1
  Ca  Ca3  1  0.499130  0.999130  0.250000  1
  Tb  Tb4  1  0.999611  0.499611  0.750000  1
  Y  Y5  1  0.499814  0.999814  0.750000  1
  Si  Si6  1  0.794519  0.204621  0.498461  1
  Si  Si7  1  0.294946  0.705232  0.001859  1
  Si  Si8  1  0.205232  0.794946  0.498141  1
  Si  Si9  1  0.704621  0.294519  0.001539  1
  Si  Si10  1  0.333075  0.333166  0.832222  1
  Si  Si11  1  0.665372  0.664970  0.167982  1
  Si  Si12  1  0.164970  0.165372  0.332018  1
  Si  Si13  1  0.833166  0.833075  0.667778  1
  Si  Si14  1  0.123345  0.891351  0.728900  1
  Si  Si15  1  0.109578  0.876604  0.269718  1
  Si  Si16  1  0.609987  0.377122  0.230042  1
  Si  Si17  1  0.624007  0.392121  0.770921  1
  Si  Si18  1  0.877122  0.109987  0.269958  1
  Si  Si19  1  0.892121  0.124007  0.729079  1
  Si  Si20  1  0.391351  0.623345  0.771100  1
  Si  Si21  1  0.376604  0.609578  0.230282  1
  Si  Si22  1  0.346442  0.113353  0.507903  1
  Si  Si23  1  0.887086  0.653985  0.493406  1
  Si  Si24  1  0.387038  0.154385  0.007145  1
  Si  Si25  1  0.846583  0.613369  0.992271  1
  Si  Si26  1  0.654385  0.887038  0.492855  1
  Si  Si27  1  0.113369  0.346583  0.507729  1
  Si  Si28  1  0.613353  0.846442  0.992097  1
  Si  Si29  1  0.153985  0.387086  0.006594  1
  Ru  Ru30  1  0.670975  0.330409  0.503064  1
  Ru  Ru31  1  0.171126  0.830609  0.997097  1
  Ru  Ru32  1  0.330609  0.671126  0.502903  1
  Ru  Ru33  1  0.830409  0.170975  0.996936  1
  Ru  Ru34  1  0.126438  0.126484  0.624778  1
  Ru  Ru35  1  0.872674  0.872308  0.375171  1
  Ru  Ru36  1  0.372308  0.372674  0.124829  1
  Ru  Ru37  1  0.626484  0.626438  0.875222  1
