# generated using pymatgen
data_Tb4Tm8Ni4SnAu
_symmetry_space_group_name_H-M   'P 1'
_cell_length_a   8.30016383
_cell_length_b   8.30016451
_cell_length_c   8.30016393
_cell_angle_alpha   106.62935217
_cell_angle_beta   109.31016861
_cell_angle_gamma   112.52824554
_symmetry_Int_Tables_number   1
_chemical_formula_structural   Tb4Tm8Ni4SnAu
_chemical_formula_sum   'Tb4 Tm8 Ni4 Sn1 Au1'
_cell_volume   439.01525614
_cell_formula_units_Z   1
loop_
 _symmetry_equiv_pos_site_id
 _symmetry_equiv_pos_as_xyz
  1  'x, y, z'
loop_
 _atom_site_type_symbol
 _atom_site_label
 _atom_site_symmetry_multiplicity
 _atom_site_fract_x
 _atom_site_fract_y
 _atom_site_fract_z
 _atom_site_occupancy
  Tb  Tb0  1  0.611542  0.792933  0.818609  1
  Tb  Tb1  1  0.974323  0.792933  0.181391  1
  Tb  Tb2  1  0.025677  0.207067  0.818609  1
  Tb  Tb3  1  0.388458  0.207067  0.181391  1
  Tm  Tm4  1  0.697068  0.276854  0.973921  1
  Tm  Tm5  1  0.302932  0.723146  0.026079  1
  Tm  Tm6  1  0.697068  0.723146  0.420213  1
  Tm  Tm7  1  0.302932  0.276854  0.579787  1
  Tm  Tm8  1  0.809621  0.134491  0.324868  1
  Tm  Tm9  1  0.809621  0.484753  0.675132  1
  Tm  Tm10  1  0.190379  0.865509  0.675132  1
  Tm  Tm11  1  0.190379  0.515247  0.324868  1
  Ni  Ni12  1  0.858520  0.500000  0.358520  1
  Ni  Ni13  1  0.141480  0.500000  0.641480  1
  Ni  Ni14  1  0.000000  0.127189  0.127189  1
  Ni  Ni15  1  0.000000  0.872811  0.872811  1
  Sn  Sn16  1  0.500000  0.000000  0.500000  1
  Au  Au17  1  0.500000  0.500000  0.000000  1
