# generated using pymatgen
data_Nd4HoIr2Ru
_symmetry_space_group_name_H-M   'P 1'
_cell_length_a   11.14092900
_cell_length_b   11.14092900
_cell_length_c   6.56973900
_cell_angle_alpha   90.00000000
_cell_angle_beta   90.00000000
_cell_angle_gamma   90.00000000
_symmetry_Int_Tables_number   1
_chemical_formula_structural   Nd4HoIr2Ru
_chemical_formula_sum   'Nd16 Ho4 Ir8 Ru4'
_cell_volume   815.43796892
_cell_formula_units_Z   4
loop_
 _symmetry_equiv_pos_site_id
 _symmetry_equiv_pos_as_xyz
  1  'x, y, z'
loop_
 _atom_site_type_symbol
 _atom_site_label
 _atom_site_symmetry_multiplicity
 _atom_site_fract_x
 _atom_site_fract_y
 _atom_site_fract_z
 _atom_site_occupancy
  Nd  Nd0  1  0.291504  0.086446  0.379949  1
  Nd  Nd1  1  0.291504  0.913554  0.879949  1
  Nd  Nd2  1  0.708496  0.086446  0.879949  1
  Nd  Nd3  1  0.708496  0.913554  0.379949  1
  Nd  Nd4  1  0.586446  0.791504  0.879949  1
  Nd  Nd5  1  0.586446  0.208496  0.379949  1
  Nd  Nd6  1  0.413554  0.791504  0.379949  1
  Nd  Nd7  1  0.413554  0.208496  0.879949  1
  Nd  Nd8  1  0.208496  0.413554  0.620051  1
  Nd  Nd9  1  0.208496  0.586446  0.120051  1
  Nd  Nd10  1  0.791504  0.413554  0.120051  1
  Nd  Nd11  1  0.791504  0.586446  0.620051  1
  Nd  Nd12  1  0.913554  0.708496  0.120051  1
  Nd  Nd13  1  0.913554  0.291504  0.620051  1
  Nd  Nd14  1  0.086446  0.708496  0.620051  1
  Nd  Nd15  1  0.086446  0.291504  0.120051  1
  Ho  Ho16  1  0.000000  0.000000  0.500000  1
  Ho  Ho17  1  0.000000  0.000000  0.000000  1
  Ho  Ho18  1  0.500000  0.500000  0.000000  1
  Ho  Ho19  1  0.500000  0.500000  0.500000  1
  Ir  Ir20  1  0.852432  0.147568  0.250000  1
  Ir  Ir21  1  0.852432  0.852432  0.750000  1
  Ir  Ir22  1  0.147568  0.147568  0.750000  1
  Ir  Ir23  1  0.147568  0.852432  0.250000  1
  Ir  Ir24  1  0.647568  0.352432  0.750000  1
  Ir  Ir25  1  0.647568  0.647568  0.250000  1
  Ir  Ir26  1  0.352432  0.352432  0.250000  1
  Ir  Ir27  1  0.352432  0.647568  0.750000  1
  Ru  Ru28  1  0.500000  0.000000  0.118132  1
  Ru  Ru29  1  0.500000  0.000000  0.618132  1
  Ru  Ru30  1  0.000000  0.500000  0.881868  1
  Ru  Ru31  1  0.000000  0.500000  0.381868  1
