# generated using pymatgen
data_Ba6Sr2USbSe12
_symmetry_space_group_name_H-M   'P 1'
_cell_length_a   8.98110692
_cell_length_b   8.98110605
_cell_length_c   8.98110728
_cell_angle_alpha   90.89188819
_cell_angle_beta   90.89188546
_cell_angle_gamma   90.89189315
_symmetry_Int_Tables_number   1
_chemical_formula_structural   Ba6Sr2USbSe12
_chemical_formula_sum   'Ba6 Sr2 U1 Sb1 Se12'
_cell_volume   724.15250861
_cell_formula_units_Z   1
loop_
 _symmetry_equiv_pos_site_id
 _symmetry_equiv_pos_as_xyz
  1  'x, y, z'
loop_
 _atom_site_type_symbol
 _atom_site_label
 _atom_site_symmetry_multiplicity
 _atom_site_fract_x
 _atom_site_fract_y
 _atom_site_fract_z
 _atom_site_occupancy
  Ba  Ba0  1  0.867259  0.622779  0.256558  1
  Ba  Ba1  1  0.256558  0.867259  0.622779  1
  Ba  Ba2  1  0.622779  0.256558  0.867259  1
  Ba  Ba3  1  0.743442  0.132741  0.377221  1
  Ba  Ba4  1  0.377221  0.743442  0.132741  1
  Ba  Ba5  1  0.132741  0.377221  0.743442  1
  Sr  Sr6  1  0.256587  0.256587  0.256587  1
  Sr  Sr7  1  0.743413  0.743413  0.743413  1
  U  U8  1  0.000000  0.000000  0.000000  1
  Sb  Sb9  1  0.500000  0.500000  0.500000  1
  Se  Se10  1  0.194545  0.556369  0.414776  1
  Se  Se11  1  0.414776  0.194545  0.556369  1
  Se  Se12  1  0.556369  0.414776  0.194545  1
  Se  Se13  1  0.923188  0.050591  0.705549  1
  Se  Se14  1  0.705549  0.923188  0.050591  1
  Se  Se15  1  0.050591  0.705549  0.923188  1
  Se  Se16  1  0.805455  0.443631  0.585224  1
  Se  Se17  1  0.585224  0.805455  0.443631  1
  Se  Se18  1  0.443631  0.585224  0.805455  1
  Se  Se19  1  0.076812  0.949409  0.294451  1
  Se  Se20  1  0.294451  0.076812  0.949409  1
  Se  Se21  1  0.949409  0.294451  0.076812  1
