# generated using pymatgen
data_Yb(HfSe2)8
_symmetry_space_group_name_H-M   'P 1'
_cell_length_a   7.52649200
_cell_length_b   7.52649076
_cell_length_c   14.15144900
_cell_angle_alpha   90.00000000
_cell_angle_beta   90.00000000
_cell_angle_gamma   119.99998786
_symmetry_Int_Tables_number   1
_chemical_formula_structural   Yb(HfSe2)8
_chemical_formula_sum   'Yb1 Hf8 Se16'
_cell_volume   694.25134972
_cell_formula_units_Z   1
loop_
 _symmetry_equiv_pos_site_id
 _symmetry_equiv_pos_as_xyz
  1  'x, y, z'
loop_
 _atom_site_type_symbol
 _atom_site_label
 _atom_site_symmetry_multiplicity
 _atom_site_fract_x
 _atom_site_fract_y
 _atom_site_fract_z
 _atom_site_occupancy
  Yb  Yb0  1  0.000000  0.000000  0.000000  1
  Hf  Hf1  1  0.502527  0.497473  0.744971  1
  Hf  Hf2  1  0.497473  0.502527  0.255029  1
  Hf  Hf3  1  0.502527  0.005054  0.744971  1
  Hf  Hf4  1  0.497473  0.994946  0.255029  1
  Hf  Hf5  1  0.994946  0.497473  0.744971  1
  Hf  Hf6  1  0.005054  0.502527  0.255029  1
  Hf  Hf7  1  0.000000  0.000000  0.738666  1
  Hf  Hf8  1  0.000000  0.000000  0.261334  1
  Se  Se9  1  0.833977  0.667954  0.141616  1
  Se  Se10  1  0.832169  0.664340  0.632069  1
  Se  Se11  1  0.833977  0.166023  0.141616  1
  Se  Se12  1  0.832169  0.167831  0.632069  1
  Se  Se13  1  0.333333  0.666667  0.140579  1
  Se  Se14  1  0.333333  0.666667  0.637078  1
  Se  Se15  1  0.332046  0.166023  0.141616  1
  Se  Se16  1  0.335660  0.167831  0.632069  1
  Se  Se17  1  0.667954  0.833977  0.858384  1
  Se  Se18  1  0.664340  0.832169  0.367931  1
  Se  Se19  1  0.666667  0.333333  0.859421  1
  Se  Se20  1  0.666667  0.333333  0.362922  1
  Se  Se21  1  0.166023  0.833977  0.858384  1
  Se  Se22  1  0.167831  0.832169  0.367931  1
  Se  Se23  1  0.166023  0.332046  0.858384  1
  Se  Se24  1  0.167831  0.335660  0.367931  1
