# generated using pymatgen
data_Nd2Co3Si2P5Ru9
_symmetry_space_group_name_H-M   'P 1'
_cell_length_a   9.39838446
_cell_length_b   9.41547872
_cell_length_c   3.86485200
_cell_angle_alpha   90.00000000
_cell_angle_beta   90.00000000
_cell_angle_gamma   119.80565022
_symmetry_Int_Tables_number   1
_chemical_formula_structural   Nd2Co3Si2P5Ru9
_chemical_formula_sum   'Nd2 Co3 Si2 P5 Ru9'
_cell_volume   296.76064509
_cell_formula_units_Z   1
loop_
 _symmetry_equiv_pos_site_id
 _symmetry_equiv_pos_as_xyz
  1  'x, y, z'
loop_
 _atom_site_type_symbol
 _atom_site_label
 _atom_site_symmetry_multiplicity
 _atom_site_fract_x
 _atom_site_fract_y
 _atom_site_fract_z
 _atom_site_occupancy
  Nd  Nd0  1  0.000366  0.000378  0.000000  1
  Nd  Nd1  1  0.334625  0.666087  0.500000  1
  Co  Co2  1  0.826436  0.605760  0.000000  1
  Co  Co3  1  0.390881  0.217026  0.000000  1
  Co  Co4  1  0.780745  0.175762  0.000000  1
  Si  Si5  1  0.776869  0.726012  0.500000  1
  Si  Si6  1  0.665846  0.334301  0.000000  1
  P  P7  1  0.273270  0.050039  0.500000  1
  P  P8  1  0.949693  0.223865  0.500000  1
  P  P9  1  0.076047  0.636961  0.000000  1
  P  P10  1  0.363524  0.437908  0.000000  1
  P  P11  1  0.563205  0.925226  0.000000  1
  Ru  Ru12  1  0.089582  0.394715  0.000000  1
  Ru  Ru13  1  0.604593  0.694703  0.000000  1
  Ru  Ru14  1  0.307049  0.912438  0.000000  1
  Ru  Ru15  1  0.055343  0.768169  0.500000  1
  Ru  Ru16  1  0.229077  0.280387  0.500000  1
  Ru  Ru17  1  0.717886  0.953204  0.500000  1
  Ru  Ru18  1  0.870309  0.421934  0.500000  1
  Ru  Ru19  1  0.574369  0.444045  0.500000  1
  Ru  Ru20  1  0.550286  0.131080  0.500000  1
