# generated using pymatgen
data_PrHo3(WN3)4
_symmetry_space_group_name_H-M   'P 1'
_cell_length_a   7.31664064
_cell_length_b   7.31664120
_cell_length_c   6.26748206
_cell_angle_alpha   74.71698698
_cell_angle_beta   74.71699959
_cell_angle_gamma   82.56196640
_symmetry_Int_Tables_number   1
_chemical_formula_structural   PrHo3(WN3)4
_chemical_formula_sum   'Pr1 Ho3 W4 N12'
_cell_volume   311.55821920
_cell_formula_units_Z   1
loop_
 _symmetry_equiv_pos_site_id
 _symmetry_equiv_pos_as_xyz
  1  'x, y, z'
loop_
 _atom_site_type_symbol
 _atom_site_label
 _atom_site_symmetry_multiplicity
 _atom_site_fract_x
 _atom_site_fract_y
 _atom_site_fract_z
 _atom_site_occupancy
  Pr  Pr0  1  0.700742  0.299258  0.750000  1
  Ho  Ho1  1  0.091363  0.908637  0.750000  1
  Ho  Ho2  1  0.293170  0.706830  0.250000  1
  Ho  Ho3  1  0.914757  0.085243  0.250000  1
  W  W4  1  0.379569  0.200036  0.243274  1
  W  W5  1  0.617816  0.800336  0.761063  1
  W  W6  1  0.799964  0.620431  0.256726  1
  W  W7  1  0.199664  0.382184  0.738937  1
  N  N8  1  0.622821  0.110416  0.167728  1
  N  N9  1  0.358822  0.359909  0.452589  1
  N  N10  1  0.007561  0.212657  0.851745  1
  N  N11  1  0.375960  0.894188  0.843555  1
  N  N12  1  0.787343  0.992439  0.648255  1
  N  N13  1  0.105812  0.624040  0.656445  1
  N  N14  1  0.889584  0.377179  0.332272  1
  N  N15  1  0.641356  0.649549  0.541043  1
  N  N16  1  0.640091  0.641178  0.047411  1
  N  N17  1  0.350451  0.358644  0.958957  1
  N  N18  1  0.002673  0.779521  0.149213  1
  N  N19  1  0.220479  0.997327  0.350787  1
