# generated using pymatgen
data_CeDyRe2F14
_symmetry_space_group_name_H-M   'P 1'
_cell_length_a   5.71304300
_cell_length_b   9.06757931
_cell_length_c   12.15136000
_cell_angle_alpha   62.40768990
_cell_angle_beta   90.00000000
_cell_angle_gamma   90.00000000
_symmetry_Int_Tables_number   1
_chemical_formula_structural   CeDyRe2F14
_chemical_formula_sum   'Ce2 Dy2 Re4 F28'
_cell_volume   557.88888728
_cell_formula_units_Z   2
loop_
 _symmetry_equiv_pos_site_id
 _symmetry_equiv_pos_as_xyz
  1  'x, y, z'
loop_
 _atom_site_type_symbol
 _atom_site_label
 _atom_site_symmetry_multiplicity
 _atom_site_fract_x
 _atom_site_fract_y
 _atom_site_fract_z
 _atom_site_occupancy
  Ce  Ce0  1  0.757580  0.810075  0.765399  1
  Ce  Ce1  1  0.257580  0.189925  0.734601  1
  Dy  Dy2  1  0.241922  0.184754  0.235170  1
  Dy  Dy3  1  0.741922  0.815246  0.264830  1
  Re  Re4  1  0.754903  0.268972  0.963887  1
  Re  Re5  1  0.254903  0.731028  0.536113  1
  Re  Re6  1  0.242200  0.722228  0.050629  1
  Re  Re7  1  0.742200  0.277772  0.449371  1
  F  F8  1  0.445717  0.705149  0.925360  1
  F  F9  1  0.945717  0.294851  0.574640  1
  F  F10  1  0.548143  0.291526  0.085534  1
  F  F11  1  0.048143  0.708474  0.414466  1
  F  F12  1  0.458229  0.286385  0.540066  1
  F  F13  1  0.958229  0.713615  0.959934  1
  F  F14  1  0.546351  0.721652  0.448968  1
  F  F15  1  0.046351  0.278348  0.051032  1
  F  F16  1  0.768239  0.513332  0.863328  1
  F  F17  1  0.268239  0.486668  0.636672  1
  F  F18  1  0.233924  0.476340  0.145639  1
  F  F19  1  0.733924  0.523660  0.354361  1
  F  F20  1  0.756617  0.022914  0.057267  1
  F  F21  1  0.256617  0.977086  0.442733  1
  F  F22  1  0.240163  0.967370  0.953016  1
  F  F23  1  0.740163  0.032630  0.546984  1
  F  F24  1  0.976072  0.729181  0.632971  1
  F  F25  1  0.476072  0.270819  0.867029  1
  F  F26  1  0.017589  0.269381  0.353039  1
  F  F27  1  0.517589  0.730619  0.146961  1
  F  F28  1  0.038061  0.743540  0.174908  1
  F  F29  1  0.538061  0.256460  0.325092  1
  F  F30  1  0.949301  0.253212  0.834351  1
  F  F31  1  0.449301  0.746788  0.665649  1
  F  F32  1  0.428818  0.975308  0.233760  1
  F  F33  1  0.928818  0.024692  0.266240  1
  F  F34  1  0.596173  0.034516  0.771091  1
  F  F35  1  0.096173  0.965484  0.728909  1
