# generated using pymatgen
data_Sr(NdSn4)3
_symmetry_space_group_name_H-M   'P 1'
_cell_length_a   12.09640938
_cell_length_b   12.09640920
_cell_length_c   12.09640825
_cell_angle_alpha   32.14104027
_cell_angle_beta   32.14104226
_cell_angle_gamma   32.14104322
_symmetry_Int_Tables_number   1
_chemical_formula_structural   Sr(NdSn4)3
_chemical_formula_sum   'Sr1 Nd3 Sn12'
_cell_volume   445.19703443
_cell_formula_units_Z   1
loop_
 _symmetry_equiv_pos_site_id
 _symmetry_equiv_pos_as_xyz
  1  'x, y, z'
loop_
 _atom_site_type_symbol
 _atom_site_label
 _atom_site_symmetry_multiplicity
 _atom_site_fract_x
 _atom_site_fract_y
 _atom_site_fract_z
 _atom_site_occupancy
  Sr  Sr0  1  0.708284  0.708284  0.708283  1
  Nd  Nd1  1  0.121297  0.121297  0.121297  1
  Nd  Nd2  1  0.877521  0.877521  0.877520  1
  Nd  Nd3  1  0.293663  0.293663  0.293662  1
  Sn  Sn4  1  0.381528  0.862733  0.381527  1
  Sn  Sn5  1  0.381528  0.381528  0.862732  1
  Sn  Sn6  1  0.862733  0.381528  0.381527  1
  Sn  Sn7  1  0.148563  0.614040  0.614039  1
  Sn  Sn8  1  0.614040  0.614040  0.148562  1
  Sn  Sn9  1  0.614040  0.148563  0.614039  1
  Sn  Sn10  1  0.207364  0.707121  0.207366  1
  Sn  Sn11  1  0.207365  0.207365  0.707120  1
  Sn  Sn12  1  0.707121  0.207364  0.207366  1
  Sn  Sn13  1  0.292757  0.791098  0.791099  1
  Sn  Sn14  1  0.791098  0.791098  0.292757  1
  Sn  Sn15  1  0.791098  0.292757  0.791099  1
