# generated using pymatgen
data_LiNb6IrS12
_symmetry_space_group_name_H-M   'P 1'
_cell_length_a   5.81623500
_cell_length_b   5.81623502
_cell_length_c   12.61117400
_cell_angle_alpha   90.00000000
_cell_angle_beta   90.00000000
_cell_angle_gamma   120.00000557
_symmetry_Int_Tables_number   1
_chemical_formula_structural   LiNb6IrS12
_chemical_formula_sum   'Li1 Nb6 Ir1 S12'
_cell_volume   369.46220491
_cell_formula_units_Z   1
loop_
 _symmetry_equiv_pos_site_id
 _symmetry_equiv_pos_as_xyz
  1  'x, y, z'
loop_
 _atom_site_type_symbol
 _atom_site_label
 _atom_site_symmetry_multiplicity
 _atom_site_fract_x
 _atom_site_fract_y
 _atom_site_fract_z
 _atom_site_occupancy
  Li  Li0  1  0.666667  0.333333  0.750000  1
  Nb  Nb1  1  0.333333  0.666667  0.011454  1
  Nb  Nb2  1  0.666667  0.333333  0.484017  1
  Nb  Nb3  1  0.333333  0.666667  0.488546  1
  Nb  Nb4  1  0.000000  0.000000  0.015246  1
  Nb  Nb5  1  0.666667  0.333333  0.015983  1
  Nb  Nb6  1  0.000000  0.000000  0.484754  1
  Ir  Ir7  1  0.333333  0.666667  0.250000  1
  S  S8  1  0.999085  0.666938  0.137720  1
  S  S9  1  0.669495  0.667517  0.611173  1
  S  S10  1  0.999085  0.332147  0.362280  1
  S  S11  1  0.333062  0.332147  0.137720  1
  S  S12  1  0.332483  0.001978  0.611173  1
  S  S13  1  0.332483  0.330505  0.888827  1
  S  S14  1  0.667853  0.666938  0.362280  1
  S  S15  1  0.998022  0.667517  0.888827  1
  S  S16  1  0.669495  0.001978  0.888827  1
  S  S17  1  0.333062  0.000915  0.362280  1
  S  S18  1  0.667853  0.000915  0.137720  1
  S  S19  1  0.998022  0.330505  0.611173  1
