# generated using pymatgen
data_MnFe7P4
_symmetry_space_group_name_H-M   'P 1'
_cell_length_a   3.54863800
_cell_length_b   5.67555387
_cell_length_c   6.57438136
_cell_angle_alpha   89.93907507
_cell_angle_beta   90.00000000
_cell_angle_gamma   90.00000000
_symmetry_Int_Tables_number   1
_chemical_formula_structural   MnFe7P4
_chemical_formula_sum   'Mn1 Fe7 P4'
_cell_volume   132.41116192
_cell_formula_units_Z   1
loop_
 _symmetry_equiv_pos_site_id
 _symmetry_equiv_pos_as_xyz
  1  'x, y, z'
loop_
 _atom_site_type_symbol
 _atom_site_label
 _atom_site_symmetry_multiplicity
 _atom_site_fract_x
 _atom_site_fract_y
 _atom_site_fract_z
 _atom_site_occupancy
  Mn  Mn0  1  0.500000  0.532861  0.675493  1
  Fe  Fe1  1  0.500000  0.643901  0.066518  1
  Fe  Fe2  1  0.500000  0.147704  0.435665  1
  Fe  Fe3  1  0.000000  0.356947  0.932993  1
  Fe  Fe4  1  0.000000  0.850366  0.562041  1
  Fe  Fe5  1  0.500000  0.026533  0.832992  1
  Fe  Fe6  1  0.000000  0.466715  0.325904  1
  Fe  Fe7  1  0.000000  0.973697  0.169669  1
  P  P8  1  0.500000  0.257226  0.116579  1
  P  P9  1  0.500000  0.768803  0.373927  1
  P  P10  1  0.000000  0.745385  0.884011  1
  P  P11  1  0.000000  0.229859  0.624209  1
