# generated using pymatgen
data_TbTm9(SiHg)4
_symmetry_space_group_name_H-M   'P 1'
_cell_length_a   8.71266700
_cell_length_b   8.65683819
_cell_length_c   7.46332278
_cell_angle_alpha   90.12340602
_cell_angle_beta   90.00966677
_cell_angle_gamma   129.15565791
_symmetry_Int_Tables_number   1
_chemical_formula_structural   TbTm9(SiHg)4
_chemical_formula_sum   'Tb1 Tm9 Si4 Hg4'
_cell_volume   436.50104556
_cell_formula_units_Z   1
loop_
 _symmetry_equiv_pos_site_id
 _symmetry_equiv_pos_as_xyz
  1  'x, y, z'
loop_
 _atom_site_type_symbol
 _atom_site_label
 _atom_site_symmetry_multiplicity
 _atom_site_fract_x
 _atom_site_fract_y
 _atom_site_fract_z
 _atom_site_occupancy
  Tb  Tb0  1  0.555212  0.813803  0.176802  1
  Tm  Tm1  1  0.306204  0.051431  0.324880  1
  Tm  Tm2  1  0.195327  0.446850  0.824519  1
  Tm  Tm3  1  0.943981  0.689197  0.674965  1
  Tm  Tm4  1  0.695124  0.948082  0.674763  1
  Tm  Tm5  1  0.445597  0.190107  0.824831  1
  Tm  Tm6  1  0.804664  0.552135  0.175771  1
  Tm  Tm7  1  0.054189  0.308984  0.325564  1
  Tm  Tm8  1  0.500257  0.499015  0.500111  1
  Tm  Tm9  1  0.000044  0.999505  0.000012  1
  Si  Si10  1  0.620595  0.620173  0.876103  1
  Si  Si11  1  0.121106  0.119620  0.623296  1
  Si  Si12  1  0.881065  0.879991  0.377623  1
  Si  Si13  1  0.378932  0.378379  0.123844  1
  Hg  Hg14  1  0.282005  0.718291  0.505519  1
  Hg  Hg15  1  0.211072  0.778818  0.998270  1
  Hg  Hg16  1  0.715343  0.279193  0.498189  1
  Hg  Hg17  1  0.789283  0.226424  0.994936  1
