# generated using pymatgen
data_Nd4Dy4Re(B8Ru)3
_symmetry_space_group_name_H-M   'P 1'
_cell_length_a   3.73004800
_cell_length_b   9.24329916
_cell_length_c   11.67323105
_cell_angle_alpha   90.12846584
_cell_angle_beta   90.00000000
_cell_angle_gamma   90.00000000
_symmetry_Int_Tables_number   1
_chemical_formula_structural   Nd4Dy4Re(B8Ru)3
_chemical_formula_sum   'Nd4 Dy4 Re1 B24 Ru3'
_cell_volume   402.46805928
_cell_formula_units_Z   1
loop_
 _symmetry_equiv_pos_site_id
 _symmetry_equiv_pos_as_xyz
  1  'x, y, z'
loop_
 _atom_site_type_symbol
 _atom_site_label
 _atom_site_symmetry_multiplicity
 _atom_site_fract_x
 _atom_site_fract_y
 _atom_site_fract_z
 _atom_site_occupancy
  Nd  Nd0  1  0.000000  0.323821  0.414990  1
  Nd  Nd1  1  0.000000  0.678756  0.587381  1
  Nd  Nd2  1  0.000000  0.823082  0.084086  1
  Nd  Nd3  1  0.000000  0.176212  0.913442  1
  Dy  Dy4  1  0.000000  0.943224  0.370257  1
  Dy  Dy5  1  0.000000  0.056157  0.628341  1
  Dy  Dy6  1  0.000000  0.442597  0.129267  1
  Dy  Dy7  1  0.000000  0.556102  0.871885  1
  Re  Re8  1  0.000000  0.861010  0.819734  1
  B  B9  1  0.500000  0.556314  0.430793  1
  B  B10  1  0.500000  0.443987  0.569704  1
  B  B11  1  0.500000  0.055806  0.069788  1
  B  B12  1  0.500000  0.945174  0.930682  1
  B  B13  1  0.500000  0.749149  0.417251  1
  B  B14  1  0.500000  0.251243  0.582502  1
  B  B15  1  0.500000  0.249098  0.083115  1
  B  B16  1  0.500000  0.750639  0.916986  1
  B  B17  1  0.500000  0.789191  0.266688  1
  B  B18  1  0.500000  0.210119  0.732338  1
  B  B19  1  0.500000  0.289731  0.233390  1
  B  B20  1  0.500000  0.709291  0.766769  1
  B  B21  1  0.500000  0.630154  0.185798  1
  B  B22  1  0.500000  0.369126  0.813890  1
  B  B23  1  0.500000  0.131068  0.314481  1
  B  B24  1  0.500000  0.869354  0.685968  1
  B  B25  1  0.500000  0.986275  0.213376  1
  B  B26  1  0.500000  0.015238  0.786295  1
  B  B27  1  0.500000  0.486082  0.287205  1
  B  B28  1  0.500000  0.514061  0.713747  1
  B  B29  1  0.500000  0.601531  0.028793  1
  B  B30  1  0.500000  0.396357  0.972329  1
  B  B31  1  0.500000  0.103298  0.471035  1
  B  B32  1  0.500000  0.897433  0.527308  1
  Ru  Ru33  1  0.000000  0.639251  0.319504  1
  Ru  Ru34  1  0.000000  0.360981  0.680067  1
  Ru  Ru35  1  0.000000  0.139089  0.180815  1
