# generated using pymatgen
data_MgSi4Ir5Rh
_symmetry_space_group_name_H-M   'P 1'
_cell_length_a   7.03204261
_cell_length_b   7.06290548
_cell_length_c   3.75468900
_cell_angle_alpha   90.00000000
_cell_angle_beta   90.00000000
_cell_angle_gamma   120.14527690
_symmetry_Int_Tables_number   1
_chemical_formula_structural   MgSi4Ir5Rh
_chemical_formula_sum   'Mg1 Si4 Ir5 Rh1'
_cell_volume   161.26193262
_cell_formula_units_Z   1
loop_
 _symmetry_equiv_pos_site_id
 _symmetry_equiv_pos_as_xyz
  1  'x, y, z'
loop_
 _atom_site_type_symbol
 _atom_site_label
 _atom_site_symmetry_multiplicity
 _atom_site_fract_x
 _atom_site_fract_y
 _atom_site_fract_z
 _atom_site_occupancy
  Mg  Mg0  1  0.000930  0.000465  0.000000  1
  Si  Si1  1  0.801946  0.196669  0.500000  1
  Si  Si2  1  0.393886  0.196943  0.500000  1
  Si  Si3  1  0.333595  0.666798  0.000000  1
  Si  Si4  1  0.801946  0.605277  0.500000  1
  Ir  Ir5  1  0.192636  0.807022  0.500000  1
  Ir  Ir6  1  0.192636  0.385615  0.500000  1
  Ir  Ir7  1  0.532754  0.065828  0.000000  1
  Ir  Ir8  1  0.933835  0.466917  0.000000  1
  Ir  Ir9  1  0.532754  0.466926  0.000000  1
  Rh  Rh10  1  0.616414  0.808208  0.500000  1
