# generated using pymatgen
data_Hf8In4CoCu7
_symmetry_space_group_name_H-M   'P 1'
_cell_length_a   7.18588916
_cell_length_b   7.18588852
_cell_length_c   6.76809604
_cell_angle_alpha   90.09202044
_cell_angle_beta   89.90797826
_cell_angle_gamma   89.74350110
_symmetry_Int_Tables_number   1
_chemical_formula_structural   Hf8In4CoCu7
_chemical_formula_sum   'Hf8 In4 Co1 Cu7'
_cell_volume   349.47975708
_cell_formula_units_Z   1
loop_
 _symmetry_equiv_pos_site_id
 _symmetry_equiv_pos_as_xyz
  1  'x, y, z'
loop_
 _atom_site_type_symbol
 _atom_site_label
 _atom_site_symmetry_multiplicity
 _atom_site_fract_x
 _atom_site_fract_y
 _atom_site_fract_z
 _atom_site_occupancy
  Hf  Hf0  1  0.179663  0.191031  0.993887  1
  Hf  Hf1  1  0.808969  0.820337  0.993887  1
  Hf  Hf2  1  0.309634  0.690366  0.499410  1
  Hf  Hf3  1  0.697360  0.302640  0.507723  1
  Hf  Hf4  1  0.658996  0.341004  0.993223  1
  Hf  Hf5  1  0.352018  0.647982  0.002475  1
  Hf  Hf6  1  0.845405  0.856809  0.508930  1
  Hf  Hf7  1  0.143191  0.154595  0.508930  1
  In  In8  1  0.495753  0.000725  0.250532  1
  In  In9  1  0.999275  0.504247  0.250532  1
  In  In10  1  0.001242  0.502600  0.751853  1
  In  In11  1  0.497400  0.998758  0.751853  1
  Co  Co12  1  0.876982  0.123018  0.778343  1
  Cu  Cu13  1  0.378354  0.373307  0.292508  1
  Cu  Cu14  1  0.626693  0.621646  0.292508  1
  Cu  Cu15  1  0.123094  0.876906  0.208827  1
  Cu  Cu16  1  0.876577  0.123423  0.206882  1
  Cu  Cu17  1  0.624040  0.621931  0.705888  1
  Cu  Cu18  1  0.378069  0.375960  0.705888  1
  Cu  Cu19  1  0.127286  0.872714  0.795923  1
