# generated using pymatgen
data_Tb3Er13(In3Tc)2
_symmetry_space_group_name_H-M   'P 1'
_cell_length_a   10.35902000
_cell_length_b   10.35901995
_cell_length_c   7.03042000
_cell_angle_alpha   90.00000000
_cell_angle_beta   90.00000000
_cell_angle_gamma   119.99999377
_symmetry_Int_Tables_number   1
_chemical_formula_structural   Tb3Er13(In3Tc)2
_chemical_formula_sum   'Tb3 Er13 In6 Tc2'
_cell_volume   653.35507786
_cell_formula_units_Z   1
loop_
 _symmetry_equiv_pos_site_id
 _symmetry_equiv_pos_as_xyz
  1  'x, y, z'
loop_
 _atom_site_type_symbol
 _atom_site_label
 _atom_site_symmetry_multiplicity
 _atom_site_fract_x
 _atom_site_fract_y
 _atom_site_fract_z
 _atom_site_occupancy
  Tb  Tb0  1  0.530160  0.060320  0.795985  1
  Tb  Tb1  1  0.939680  0.469840  0.795985  1
  Tb  Tb2  1  0.530160  0.469840  0.795985  1
  Er  Er3  1  0.468025  0.936050  0.297470  1
  Er  Er4  1  0.063950  0.531975  0.297470  1
  Er  Er5  1  0.468025  0.531975  0.297470  1
  Er  Er6  1  0.822945  0.645890  0.497849  1
  Er  Er7  1  0.354110  0.177055  0.497849  1
  Er  Er8  1  0.822945  0.177055  0.497849  1
  Er  Er9  1  0.177573  0.355145  0.000691  1
  Er  Er10  1  0.644855  0.822427  0.000691  1
  Er  Er11  1  0.177573  0.822427  0.000691  1
  Er  Er12  1  0.666667  0.333333  0.169831  1
  Er  Er13  1  0.333333  0.666667  0.665560  1
  Er  Er14  1  0.000000  0.000000  0.775817  1
  Er  Er15  1  0.000000  0.000000  0.275267  1
  In  In16  1  0.837367  0.674735  0.039547  1
  In  In17  1  0.325265  0.162633  0.039547  1
  In  In18  1  0.837367  0.162633  0.039547  1
  In  In19  1  0.163144  0.326288  0.539278  1
  In  In20  1  0.673712  0.836856  0.539278  1
  In  In21  1  0.163144  0.836856  0.539278  1
  Tc  Tc22  1  0.666667  0.333333  0.569318  1
  Tc  Tc23  1  0.333333  0.666667  0.067655  1
