# generated using pymatgen
data_Zr2(Al3Rh)3
_symmetry_space_group_name_H-M   'P 1'
_cell_length_a   7.46502749
_cell_length_b   7.46502665
_cell_length_c   9.25974900
_cell_angle_alpha   90.00000000
_cell_angle_beta   90.00000000
_cell_angle_gamma   119.72812215
_symmetry_Int_Tables_number   1
_chemical_formula_structural   Zr2(Al3Rh)3
_chemical_formula_sum   'Zr4 Al18 Rh6'
_cell_volume   448.10100233
_cell_formula_units_Z   2
loop_
 _symmetry_equiv_pos_site_id
 _symmetry_equiv_pos_as_xyz
  1  'x, y, z'
loop_
 _atom_site_type_symbol
 _atom_site_label
 _atom_site_symmetry_multiplicity
 _atom_site_fract_x
 _atom_site_fract_y
 _atom_site_fract_z
 _atom_site_occupancy
  Zr  Zr0  1  0.993295  0.670864  0.250000  1
  Zr  Zr1  1  0.006705  0.329136  0.750000  1
  Zr  Zr2  1  0.670864  0.993295  0.250000  1
  Zr  Zr3  1  0.329136  0.006705  0.750000  1
  Al  Al4  1  0.121704  0.121704  0.250000  1
  Al  Al5  1  0.878296  0.878296  0.750000  1
  Al  Al6  1  0.997138  0.334398  0.076125  1
  Al  Al7  1  0.002862  0.665602  0.923875  1
  Al  Al8  1  0.002862  0.665602  0.576125  1
  Al  Al9  1  0.334398  0.997138  0.423875  1
  Al  Al10  1  0.997138  0.334398  0.423875  1
  Al  Al11  1  0.665602  0.002862  0.576125  1
  Al  Al12  1  0.665602  0.002862  0.923875  1
  Al  Al13  1  0.334398  0.997138  0.076125  1
  Al  Al14  1  0.331445  0.331445  0.557401  1
  Al  Al15  1  0.668555  0.668555  0.442599  1
  Al  Al16  1  0.668555  0.668555  0.057401  1
  Al  Al17  1  0.331445  0.331445  0.942599  1
  Al  Al18  1  0.337978  0.554664  0.250000  1
  Al  Al19  1  0.662022  0.445336  0.750000  1
  Al  Al20  1  0.554664  0.337978  0.250000  1
  Al  Al21  1  0.445336  0.662022  0.750000  1
  Rh  Rh22  1  0.672458  0.327542  0.000000  1
  Rh  Rh23  1  0.327542  0.672458  0.000000  1
  Rh  Rh24  1  0.327542  0.672458  0.500000  1
  Rh  Rh25  1  0.672458  0.327542  0.500000  1
  Rh  Rh26  1  0.000000  0.000000  0.000000  1
  Rh  Rh27  1  0.000000  0.000000  0.500000  1
