# generated using pymatgen
data_RuI27
_symmetry_space_group_name_H-M   'P 1'
_cell_length_a   12.24508722
_cell_length_b   11.75613724
_cell_length_c   16.21569040
_cell_angle_alpha   124.54131301
_cell_angle_beta   86.51173171
_cell_angle_gamma   107.92550558
_symmetry_Int_Tables_number   1
_chemical_formula_structural   RuI27
_chemical_formula_sum   'Ru1 I27'
_cell_volume   1810.14492506
_cell_formula_units_Z   1
loop_
 _symmetry_equiv_pos_site_id
 _symmetry_equiv_pos_as_xyz
  1  'x, y, z'
loop_
 _atom_site_type_symbol
 _atom_site_label
 _atom_site_symmetry_multiplicity
 _atom_site_fract_x
 _atom_site_fract_y
 _atom_site_fract_z
 _atom_site_occupancy
  Ru  Ru0  1  0.320058  0.877334  0.941612  1
  I  I1  1  0.668657  0.136259  0.091185  1
  I  I2  1  0.364958  0.680430  0.962421  1
  I  I3  1  0.610389  0.336210  0.968368  1
  I  I4  1  0.551609  0.780366  0.389370  1
  I  I5  1  0.433852  0.203566  0.607275  1
  I  I6  1  0.761150  0.724366  0.034915  1
  I  I7  1  0.267491  0.315660  0.005648  1
  I  I8  1  0.748352  0.952115  0.223561  1
  I  I9  1  0.276863  0.027406  0.878265  1
  I  I10  1  0.412270  0.099271  0.132448  1
  I  I11  1  0.530786  0.911580  0.882931  1
  I  I12  1  0.220493  0.655718  0.742818  1
  I  I13  1  0.766198  0.350977  0.309739  1
  I  I14  1  0.109191  0.820705  0.993732  1
  I  I15  1  0.886799  0.132825  0.990612  1
  I  I16  1  0.111573  0.087922  0.206825  1
  I  I17  1  0.900866  0.880535  0.775427  1
  I  I18  1  0.278969  0.917839  0.444997  1
  I  I19  1  0.727470  0.078616  0.524835  1
  I  I20  1  0.322448  0.422243  0.667847  1
  I  I21  1  0.663662  0.577315  0.350423  1
  I  I22  1  0.881344  0.374096  0.665922  1
  I  I23  1  0.139962  0.619718  0.276750  1
  I  I24  1  0.954490  0.684921  0.584268  1
  I  I25  1  0.095034  0.328371  0.397225  1
  I  I26  1  0.247501  0.645289  0.114782  1
  I  I27  1  0.747564  0.378349  0.835802  1
