# generated using pymatgen
data_Y2ThIn3IrRh2
_symmetry_space_group_name_H-M   'P 1'
_cell_length_a   7.61191346
_cell_length_b   7.80229993
_cell_length_c   3.88874800
_cell_angle_alpha   90.00000000
_cell_angle_beta   90.00000000
_cell_angle_gamma   121.04368232
_symmetry_Int_Tables_number   1
_chemical_formula_structural   Y2ThIn3IrRh2
_chemical_formula_sum   'Y2 Th1 In3 Ir1 Rh2'
_cell_volume   197.87583432
_cell_formula_units_Z   1
loop_
 _symmetry_equiv_pos_site_id
 _symmetry_equiv_pos_as_xyz
  1  'x, y, z'
loop_
 _atom_site_type_symbol
 _atom_site_label
 _atom_site_symmetry_multiplicity
 _atom_site_fract_x
 _atom_site_fract_y
 _atom_site_fract_z
 _atom_site_occupancy
  Y  Y0  1  0.403848  0.411258  0.500000  1
  Y  Y1  1  0.591055  0.996286  0.500000  1
  Th  Th2  1  0.999154  0.581114  0.500000  1
  In  In3  1  0.998579  0.240292  0.000000  1
  In  In4  1  0.269935  0.013984  0.000000  1
  In  In5  1  0.732566  0.744193  0.000000  1
  Ir  Ir6  1  0.315370  0.666076  0.000000  1
  Rh  Rh7  1  0.000447  0.991235  0.500000  1
  Rh  Rh8  1  0.689046  0.355563  0.000000  1
