# generated using pymatgen
data_Tb3Al12CoOs3
_symmetry_space_group_name_H-M   'P 1'
_cell_length_a   8.81305100
_cell_length_b   8.81305157
_cell_length_c   9.49232600
_cell_angle_alpha   90.00000000
_cell_angle_beta   90.00000000
_cell_angle_gamma   119.99999410
_symmetry_Int_Tables_number   1
_chemical_formula_structural   Tb3Al12CoOs3
_chemical_formula_sum   'Tb6 Al24 Co2 Os6'
_cell_volume   638.49264284
_cell_formula_units_Z   2
loop_
 _symmetry_equiv_pos_site_id
 _symmetry_equiv_pos_as_xyz
  1  'x, y, z'
loop_
 _atom_site_type_symbol
 _atom_site_label
 _atom_site_symmetry_multiplicity
 _atom_site_fract_x
 _atom_site_fract_y
 _atom_site_fract_z
 _atom_site_occupancy
  Tb  Tb0  1  0.193427  0.386854  0.250000  1
  Tb  Tb1  1  0.806573  0.613146  0.750000  1
  Tb  Tb2  1  0.613146  0.806573  0.250000  1
  Tb  Tb3  1  0.386854  0.193427  0.750000  1
  Tb  Tb4  1  0.193427  0.806573  0.250000  1
  Tb  Tb5  1  0.806573  0.193427  0.750000  1
  Al  Al6  1  0.333333  0.666667  0.015309  1
  Al  Al7  1  0.666667  0.333333  0.984691  1
  Al  Al8  1  0.666667  0.333333  0.515309  1
  Al  Al9  1  0.333333  0.666667  0.484691  1
  Al  Al10  1  0.159559  0.319118  0.575582  1
  Al  Al11  1  0.840441  0.680882  0.424418  1
  Al  Al12  1  0.680882  0.840441  0.575582  1
  Al  Al13  1  0.840441  0.680882  0.075582  1
  Al  Al14  1  0.319118  0.159559  0.424418  1
  Al  Al15  1  0.159559  0.319118  0.924418  1
  Al  Al16  1  0.159559  0.840441  0.575582  1
  Al  Al17  1  0.319118  0.159559  0.075582  1
  Al  Al18  1  0.840441  0.159559  0.424418  1
  Al  Al19  1  0.680882  0.840441  0.924418  1
  Al  Al20  1  0.840441  0.159559  0.075582  1
  Al  Al21  1  0.159559  0.840441  0.924418  1
  Al  Al22  1  0.560368  0.120736  0.250000  1
  Al  Al23  1  0.439632  0.879264  0.750000  1
  Al  Al24  1  0.879264  0.439632  0.250000  1
  Al  Al25  1  0.120736  0.560368  0.750000  1
  Al  Al26  1  0.560368  0.439632  0.250000  1
  Al  Al27  1  0.439632  0.560368  0.750000  1
  Al  Al28  1  0.000000  0.000000  0.250000  1
  Al  Al29  1  0.000000  0.000000  0.750000  1
  Co  Co30  1  0.000000  0.000000  0.000000  1
  Co  Co31  1  0.000000  0.000000  0.500000  1
  Os  Os32  1  0.500000  0.000000  0.000000  1
  Os  Os33  1  0.000000  0.500000  0.000000  1
  Os  Os34  1  0.500000  0.000000  0.500000  1
  Os  Os35  1  0.500000  0.500000  0.000000  1
  Os  Os36  1  0.000000  0.500000  0.500000  1
  Os  Os37  1  0.500000  0.500000  0.500000  1
