# generated using pymatgen
data_SrCa7(VN3)4
_symmetry_space_group_name_H-M   'P 1'
_cell_length_a   5.98089216
_cell_length_b   5.99211409
_cell_length_c   11.71401859
_cell_angle_alpha   89.10576515
_cell_angle_beta   89.33694601
_cell_angle_gamma   123.57698941
_symmetry_Int_Tables_number   1
_chemical_formula_structural   SrCa7(VN3)4
_chemical_formula_sum   'Sr1 Ca7 V4 N12'
_cell_volume   349.61580998
_cell_formula_units_Z   1
loop_
 _symmetry_equiv_pos_site_id
 _symmetry_equiv_pos_as_xyz
  1  'x, y, z'
loop_
 _atom_site_type_symbol
 _atom_site_label
 _atom_site_symmetry_multiplicity
 _atom_site_fract_x
 _atom_site_fract_y
 _atom_site_fract_z
 _atom_site_occupancy
  Sr  Sr0  1  0.933203  0.523472  0.150993  1
  Ca  Ca1  1  0.615812  0.836271  0.075577  1
  Ca  Ca2  1  0.446034  0.046006  0.357576  1
  Ca  Ca3  1  0.055603  0.459723  0.852031  1
  Ca  Ca4  1  0.539217  0.948208  0.646743  1
  Ca  Ca5  1  0.391192  0.164998  0.921029  1
  Ca  Ca6  1  0.834777  0.611663  0.578282  1
  Ca  Ca7  1  0.156863  0.383826  0.423556  1
  V  V8  1  0.768280  0.770400  0.835089  1
  V  V9  1  0.231809  0.234930  0.661770  1
  V  V10  1  0.241320  0.234017  0.161482  1
  V  V11  1  0.761968  0.765553  0.340098  1
  N  N12  1  0.087996  0.915414  0.748250  1
  N  N13  1  0.920692  0.077401  0.249106  1
  N  N14  1  0.504722  0.497699  0.748501  1
  N  N15  1  0.487301  0.509806  0.251573  1
  N  N16  1  0.366170  0.031288  0.129636  1
  N  N17  1  0.978073  0.655940  0.376247  1
  N  N18  1  0.662367  0.989300  0.870786  1
  N  N19  1  0.010774  0.338789  0.628487  1
  N  N20  1  0.809719  0.625781  0.957495  1
  N  N21  1  0.620253  0.812988  0.462723  1
  N  N22  1  0.200139  0.370948  0.035307  1
  N  N23  1  0.375717  0.195581  0.537663  1
