# generated using pymatgen
data_Gd3Zr(CBr)2
_symmetry_space_group_name_H-M   'P 1'
_cell_length_a   7.56762000
_cell_length_b   7.56761886
_cell_length_c   30.11373600
_cell_angle_alpha   90.00000000
_cell_angle_beta   90.00000000
_cell_angle_gamma   119.99997994
_symmetry_Int_Tables_number   1
_chemical_formula_structural   Gd3Zr(CBr)2
_chemical_formula_sum   'Gd3 Zr1 C2 Br2'
_cell_volume   1493.52991268
_cell_formula_units_Z   1
loop_
 _symmetry_equiv_pos_site_id
 _symmetry_equiv_pos_as_xyz
  1  'x, y, z'
loop_
 _atom_site_type_symbol
 _atom_site_label
 _atom_site_symmetry_multiplicity
 _atom_site_fract_x
 _atom_site_fract_y
 _atom_site_fract_z
 _atom_site_occupancy
  Gd  Gd0  1  0.666667  0.333333  0.629904  1
  Gd  Gd1  1  0.666667  0.333333  0.899288  1
  Gd  Gd2  1  0.333333  0.666667  0.366479  1
  Zr  Zr3  1  0.333333  0.666667  0.083536  1
  C  C4  1  0.000000  0.000000  0.035706  1
  C  C5  1  0.000000  0.000000  0.502687  1
  Br  Br6  1  0.333333  0.666667  0.751297  1
  Br  Br7  1  0.666667  0.333333  0.231102  1
