# generated using pymatgen
data_DyErPa3(AlGa4)3
_symmetry_space_group_name_H-M   'P 1'
_cell_length_a   12.54574606
_cell_length_b   12.54574608
_cell_length_c   12.54574520
_cell_angle_alpha   28.20048305
_cell_angle_beta   28.20048262
_cell_angle_gamma   28.20048974
_symmetry_Int_Tables_number   1
_chemical_formula_structural   DyErPa3(AlGa4)3
_chemical_formula_sum   'Dy1 Er1 Pa3 Al3 Ga12'
_cell_volume   389.58398426
_cell_formula_units_Z   1
loop_
 _symmetry_equiv_pos_site_id
 _symmetry_equiv_pos_as_xyz
  1  'x, y, z'
loop_
 _atom_site_type_symbol
 _atom_site_label
 _atom_site_symmetry_multiplicity
 _atom_site_fract_x
 _atom_site_fract_y
 _atom_site_fract_z
 _atom_site_occupancy
  Dy  Dy0  1  0.999271  0.999271  0.999271  1
  Er  Er1  1  0.598679  0.598679  0.598679  1
  Pa  Pa2  1  0.130480  0.130480  0.130480  1
  Pa  Pa3  1  0.869898  0.869898  0.869898  1
  Pa  Pa4  1  0.401790  0.401790  0.401790  1
  Al  Al5  1  0.497484  0.497484  0.003494  1
  Al  Al6  1  0.497484  0.003494  0.497484  1
  Al  Al7  1  0.003494  0.497484  0.497484  1
  Ga  Ga8  1  0.130682  0.636737  0.636737  1
  Ga  Ga9  1  0.636737  0.636737  0.130682  1
  Ga  Ga10  1  0.636737  0.130682  0.636737  1
  Ga  Ga11  1  0.363859  0.873041  0.363859  1
  Ga  Ga12  1  0.363859  0.363859  0.873041  1
  Ga  Ga13  1  0.873041  0.363859  0.363859  1
  Ga  Ga14  1  0.430122  0.881853  0.881853  1
  Ga  Ga15  1  0.881853  0.881853  0.430122  1
  Ga  Ga16  1  0.881853  0.430122  0.881853  1
  Ga  Ga17  1  0.118076  0.566521  0.118076  1
  Ga  Ga18  1  0.118076  0.118076  0.566521  1
  Ga  Ga19  1  0.566521  0.118076  0.118076  1
