# generated using pymatgen
data_La3In3PdPt2
_symmetry_space_group_name_H-M   'P 1'
_cell_length_a   7.84702300
_cell_length_b   7.84702252
_cell_length_c   4.11303400
_cell_angle_alpha   90.00000000
_cell_angle_beta   90.00000000
_cell_angle_gamma   119.99999780
_symmetry_Int_Tables_number   1
_chemical_formula_structural   La3In3PdPt2
_chemical_formula_sum   'La3 In3 Pd1 Pt2'
_cell_volume   219.33238727
_cell_formula_units_Z   1
loop_
 _symmetry_equiv_pos_site_id
 _symmetry_equiv_pos_as_xyz
  1  'x, y, z'
loop_
 _atom_site_type_symbol
 _atom_site_label
 _atom_site_symmetry_multiplicity
 _atom_site_fract_x
 _atom_site_fract_y
 _atom_site_fract_z
 _atom_site_occupancy
  La  La0  1  0.415530  0.415530  0.500000  1
  La  La1  1  0.000000  0.584470  0.500000  1
  La  La2  1  0.584470  0.000000  0.500000  1
  In  In3  1  0.753541  0.753541  0.000000  1
  In  In4  1  0.246459  0.000000  0.000000  1
  In  In5  1  0.000000  0.246459  0.000000  1
  Pd  Pd6  1  0.000000  0.000000  0.500000  1
  Pt  Pt7  1  0.666667  0.333333  0.000000  1
  Pt  Pt8  1  0.333333  0.666667  0.000000  1
