# generated using pymatgen
data_Dy3Ho2Zr3(P3Ir4)4
_symmetry_space_group_name_H-M   'P 1'
_cell_length_a   12.88472300
_cell_length_b   12.88517840
_cell_length_c   3.98441500
_cell_angle_alpha   90.00000000
_cell_angle_beta   90.00000000
_cell_angle_gamma   119.99883343
_symmetry_Int_Tables_number   1
_chemical_formula_structural   Dy3Ho2Zr3(P3Ir4)4
_chemical_formula_sum   'Dy3 Ho2 Zr3 P12 Ir16'
_cell_volume   572.88285558
_cell_formula_units_Z   1
loop_
 _symmetry_equiv_pos_site_id
 _symmetry_equiv_pos_as_xyz
  1  'x, y, z'
loop_
 _atom_site_type_symbol
 _atom_site_label
 _atom_site_symmetry_multiplicity
 _atom_site_fract_x
 _atom_site_fract_y
 _atom_site_fract_z
 _atom_site_occupancy
  Dy  Dy0  1  0.333333  0.666666  0.500000  1
  Dy  Dy1  1  0.666668  0.333334  0.500000  1
  Dy  Dy2  1  0.815038  0.000000  0.000000  1
  Ho  Ho3  1  0.999997  0.814987  0.000000  1
  Ho  Ho4  1  0.185010  0.185013  0.000000  1
  Zr  Zr5  1  0.999996  0.449273  0.500000  1
  Zr  Zr6  1  0.550723  0.550727  0.500000  1
  Zr  Zr7  1  0.449233  0.000000  0.500000  1
  P  P8  1  0.000003  0.649455  0.500000  1
  P  P9  1  0.350548  0.350545  0.500000  1
  P  P10  1  0.649284  0.000000  0.500000  1
  P  P11  1  0.517118  0.686468  0.000000  1
  P  P12  1  0.313534  0.830638  0.000000  1
  P  P13  1  0.169361  0.482914  0.000000  1
  P  P14  1  0.482896  0.169362  0.000000  1
  P  P15  1  0.686446  0.517086  0.000000  1
  P  P16  1  0.830650  0.313532  0.000000  1
  P  P17  1  0.000092  0.176023  0.500000  1
  P  P18  1  0.824068  0.823977  0.500000  1
  P  P19  1  0.175974  0.000000  0.500000  1
  Ir  Ir20  1  0.507711  0.863955  0.000000  1
  Ir  Ir21  1  0.136062  0.643783  0.000000  1
  Ir  Ir22  1  0.356233  0.492293  0.000000  1
  Ir  Ir23  1  0.492280  0.356217  0.000000  1
  Ir  Ir24  1  0.863941  0.507707  0.000000  1
  Ir  Ir25  1  0.643757  0.136045  0.000000  1
  Ir  Ir26  1  0.000095  0.278612  0.000000  1
  Ir  Ir27  1  0.721483  0.721388  0.000000  1
  Ir  Ir28  1  0.278480  0.000000  0.000000  1
  Ir  Ir29  1  0.628981  0.807126  0.500000  1
  Ir  Ir30  1  0.192627  0.821849  0.500000  1
  Ir  Ir31  1  0.178170  0.370786  0.500000  1
  Ir  Ir32  1  0.370778  0.178151  0.500000  1
  Ir  Ir33  1  0.807384  0.629214  0.500000  1
  Ir  Ir34  1  0.821855  0.192874  0.500000  1
  Ir  Ir35  1  0.000194  0.000000  0.500000  1
