# generated using pymatgen
data_Ce8Si15Pd
_symmetry_space_group_name_H-M   'P 1'
_cell_length_a   8.18897300
_cell_length_b   8.18897392
_cell_length_c   8.25298100
_cell_angle_alpha   90.00000000
_cell_angle_beta   90.00000000
_cell_angle_gamma   119.99999224
_symmetry_Int_Tables_number   1
_chemical_formula_structural   Ce8Si15Pd
_chemical_formula_sum   'Ce8 Si15 Pd1'
_cell_volume   479.29228472
_cell_formula_units_Z   1
loop_
 _symmetry_equiv_pos_site_id
 _symmetry_equiv_pos_as_xyz
  1  'x, y, z'
loop_
 _atom_site_type_symbol
 _atom_site_label
 _atom_site_symmetry_multiplicity
 _atom_site_fract_x
 _atom_site_fract_y
 _atom_site_fract_z
 _atom_site_occupancy
  Ce  Ce0  1  0.497517  0.502557  0.755046  1
  Ce  Ce1  1  0.497745  0.502158  0.245278  1
  Ce  Ce2  1  0.004813  0.502344  0.755011  1
  Ce  Ce3  1  0.004465  0.502082  0.245059  1
  Ce  Ce4  1  0.497767  0.995282  0.754960  1
  Ce  Ce5  1  0.497929  0.995525  0.245151  1
  Ce  Ce6  1  0.999945  0.000040  0.751824  1
  Ce  Ce7  1  0.999947  0.999974  0.248262  1
  Si  Si8  1  0.666488  0.333354  0.999947  1
  Si  Si9  1  0.333618  0.666567  0.000956  1
  Si  Si10  1  0.333473  0.666684  0.499288  1
  Si  Si11  1  0.833632  0.166105  0.000318  1
  Si  Si12  1  0.167058  0.833151  0.000261  1
  Si  Si13  1  0.332637  0.166459  0.000462  1
  Si  Si14  1  0.166209  0.833959  0.499434  1
  Si  Si15  1  0.665898  0.832833  0.000449  1
  Si  Si16  1  0.834418  0.165448  0.499668  1
  Si  Si17  1  0.833424  0.667418  0.000330  1
  Si  Si18  1  0.667657  0.833726  0.499339  1
  Si  Si19  1  0.167288  0.334043  0.000320  1
  Si  Si20  1  0.331018  0.165658  0.499607  1
  Si  Si21  1  0.166315  0.332272  0.499504  1
  Si  Si22  1  0.834231  0.668973  0.499690  1
  Pd  Pd23  1  0.666508  0.333388  0.499836  1
