# generated using pymatgen
data_Dy2Co9As6Ru
_symmetry_space_group_name_H-M   'P 1'
_cell_length_a   3.79946600
_cell_length_b   10.72388500
_cell_length_c   12.20660000
_cell_angle_alpha   90.00000000
_cell_angle_beta   90.00000000
_cell_angle_gamma   90.00000000
_symmetry_Int_Tables_number   1
_chemical_formula_structural   Dy2Co9As6Ru
_chemical_formula_sum   'Dy4 Co18 As12 Ru2'
_cell_volume   497.35836187
_cell_formula_units_Z   2
loop_
 _symmetry_equiv_pos_site_id
 _symmetry_equiv_pos_as_xyz
  1  'x, y, z'
loop_
 _atom_site_type_symbol
 _atom_site_label
 _atom_site_symmetry_multiplicity
 _atom_site_fract_x
 _atom_site_fract_y
 _atom_site_fract_z
 _atom_site_occupancy
  Dy  Dy0  1  0.250000  0.580290  0.701124  1
  Dy  Dy1  1  0.250000  0.919710  0.201124  1
  Dy  Dy2  1  0.750000  0.415889  0.295835  1
  Dy  Dy3  1  0.750000  0.084111  0.795835  1
  Co  Co4  1  0.750000  0.288310  0.008691  1
  Co  Co5  1  0.750000  0.211690  0.508691  1
  Co  Co6  1  0.250000  0.406377  0.488031  1
  Co  Co7  1  0.250000  0.093623  0.988031  1
  Co  Co8  1  0.750000  0.592334  0.511363  1
  Co  Co9  1  0.750000  0.907666  0.011363  1
  Co  Co10  1  0.250000  0.215629  0.177619  1
  Co  Co11  1  0.250000  0.284371  0.677619  1
  Co  Co12  1  0.750000  0.783217  0.823227  1
  Co  Co13  1  0.750000  0.716783  0.323227  1
  Co  Co14  1  0.250000  0.887537  0.699514  1
  Co  Co15  1  0.250000  0.612463  0.199514  1
  Co  Co16  1  0.750000  0.116502  0.302640  1
  Co  Co17  1  0.750000  0.383498  0.802640  1
  Co  Co18  1  0.250000  0.466766  0.931913  1
  Co  Co19  1  0.250000  0.033234  0.431913  1
  Co  Co20  1  0.750000  0.532099  0.068725  1
  Co  Co21  1  0.750000  0.967901  0.568725  1
  As  As22  1  0.250000  0.414144  0.113237  1
  As  As23  1  0.250000  0.085856  0.613237  1
  As  As24  1  0.750000  0.582228  0.885025  1
  As  As25  1  0.750000  0.917772  0.385025  1
  As  As26  1  0.250000  0.268827  0.870069  1
  As  As27  1  0.250000  0.231173  0.370069  1
  As  As28  1  0.750000  0.731098  0.132485  1
  As  As29  1  0.750000  0.768902  0.632485  1
  As  As30  1  0.250000  0.595135  0.389839  1
  As  As31  1  0.250000  0.904865  0.889839  1
  As  As32  1  0.750000  0.398070  0.608847  1
  As  As33  1  0.750000  0.101930  0.108847  1
  Ru  Ru34  1  0.250000  0.711362  0.991815  1
  Ru  Ru35  1  0.250000  0.788638  0.491815  1
