# generated using pymatgen
data_Dy3Hf7(Pb3S)2
_symmetry_space_group_name_H-M   'P 1'
_cell_length_a   8.78926638
_cell_length_b   8.81149380
_cell_length_c   6.14115100
_cell_angle_alpha   90.00000000
_cell_angle_beta   90.00000000
_cell_angle_gamma   120.08368858
_symmetry_Int_Tables_number   1
_chemical_formula_structural   Dy3Hf7(Pb3S)2
_chemical_formula_sum   'Dy3 Hf7 Pb6 S2'
_cell_volume   411.54347037
_cell_formula_units_Z   1
loop_
 _symmetry_equiv_pos_site_id
 _symmetry_equiv_pos_as_xyz
  1  'x, y, z'
loop_
 _atom_site_type_symbol
 _atom_site_label
 _atom_site_symmetry_multiplicity
 _atom_site_fract_x
 _atom_site_fract_y
 _atom_site_fract_z
 _atom_site_occupancy
  Dy  Dy0  1  0.000000  0.250583  0.250000  1
  Dy  Dy1  1  0.749968  0.000043  0.750000  1
  Dy  Dy2  1  0.250032  0.250075  0.750000  1
  Hf  Hf3  1  0.666136  0.336976  0.000403  1
  Hf  Hf4  1  0.333864  0.670842  0.499597  1
  Hf  Hf5  1  0.333864  0.670842  0.000403  1
  Hf  Hf6  1  0.000000  0.749882  0.750000  1
  Hf  Hf7  1  0.666136  0.336976  0.499597  1
  Hf  Hf8  1  0.747761  0.749059  0.250000  1
  Hf  Hf9  1  0.252239  0.001298  0.250000  1
  Pb  Pb10  1  0.604730  0.603167  0.750000  1
  Pb  Pb11  1  0.395270  0.998437  0.750000  1
  Pb  Pb12  1  0.000000  0.607220  0.250000  1
  Pb  Pb13  1  0.401644  0.401154  0.250000  1
  Pb  Pb14  1  0.000000  0.405550  0.750000  1
  Pb  Pb15  1  0.598356  0.999510  0.250000  1
  S  S16  1  0.000000  0.984193  0.005244  1
  S  S17  1  0.000000  0.984193  0.494756  1
