# generated using pymatgen
data_Ho9Tm3ZnCo4Sn
_symmetry_space_group_name_H-M   'P 1'
_cell_length_a   8.25605047
_cell_length_b   8.25880693
_cell_length_c   8.25605075
_cell_angle_alpha   112.01196590
_cell_angle_beta   109.38144006
_cell_angle_gamma   107.04491014
_symmetry_Int_Tables_number   1
_chemical_formula_structural   Ho9Tm3ZnCo4Sn
_chemical_formula_sum   'Ho9 Tm3 Zn1 Co4 Sn1'
_cell_volume   432.60750411
_cell_formula_units_Z   1
loop_
 _symmetry_equiv_pos_site_id
 _symmetry_equiv_pos_as_xyz
  1  'x, y, z'
loop_
 _atom_site_type_symbol
 _atom_site_label
 _atom_site_symmetry_multiplicity
 _atom_site_fract_x
 _atom_site_fract_y
 _atom_site_fract_z
 _atom_site_occupancy
  Ho  Ho0  1  0.429513  0.228347  0.200780  1
  Ho  Ho1  1  0.570872  0.771508  0.799893  1
  Ho  Ho2  1  0.027567  0.228347  0.798835  1
  Ho  Ho3  1  0.971616  0.771508  0.200637  1
  Ho  Ho4  1  0.182003  0.283330  0.465893  1
  Ho  Ho5  1  0.818414  0.716557  0.534511  1
  Ho  Ho6  1  0.182046  0.716557  0.898142  1
  Ho  Ho7  1  0.817436  0.283330  0.101327  1
  Ho  Ho8  1  0.323387  0.634475  0.311086  1
  Tm  Tm9  1  0.676523  0.364691  0.688169  1
  Tm  Tm10  1  0.323549  0.012150  0.688601  1
  Tm  Tm11  1  0.676816  0.988663  0.311847  1
  Zn  Zn12  1  0.000015  0.999984  0.999968  1
  Co  Co13  1  0.347896  0.000529  0.347968  1
  Co  Co14  1  0.652561  0.000529  0.652633  1
  Co  Co15  1  0.114731  0.614998  0.500267  1
  Co  Co16  1  0.884823  0.384651  0.499828  1
  Sn  Sn17  1  0.500231  0.499847  0.999616  1
