# generated using pymatgen
data_Dy3Lu3(Be2Ir5)2
_symmetry_space_group_name_H-M   'P 1'
_cell_length_a   9.73544700
_cell_length_b   9.73544628
_cell_length_c   3.28367000
_cell_angle_alpha   90.00000000
_cell_angle_beta   90.00000000
_cell_angle_gamma   89.74783869
_symmetry_Int_Tables_number   1
_chemical_formula_structural   Dy3Lu3(Be2Ir5)2
_chemical_formula_sum   'Dy3 Lu3 Be4 Ir10'
_cell_volume   311.21968650
_cell_formula_units_Z   1
loop_
 _symmetry_equiv_pos_site_id
 _symmetry_equiv_pos_as_xyz
  1  'x, y, z'
loop_
 _atom_site_type_symbol
 _atom_site_label
 _atom_site_symmetry_multiplicity
 _atom_site_fract_x
 _atom_site_fract_y
 _atom_site_fract_z
 _atom_site_occupancy
  Dy  Dy0  1  0.176018  0.676955  0.000000  1
  Dy  Dy1  1  0.324338  0.175662  0.000000  1
  Dy  Dy2  1  0.823045  0.323982  0.000000  1
  Lu  Lu3  1  0.499944  0.499252  0.000000  1
  Lu  Lu4  1  0.676171  0.823829  0.000000  1
  Lu  Lu5  1  0.000748  0.000056  0.000000  1
  Be  Be6  1  0.381316  0.877957  0.000000  1
  Be  Be7  1  0.119737  0.380263  0.000000  1
  Be  Be8  1  0.877489  0.622511  0.000000  1
  Be  Be9  1  0.622043  0.118684  0.000000  1
  Ir  Ir10  1  0.222419  0.930627  0.500000  1
  Ir  Ir11  1  0.926612  0.781377  0.500000  1
  Ir  Ir12  1  0.433975  0.720560  0.500000  1
  Ir  Ir13  1  0.569373  0.277581  0.500000  1
  Ir  Ir14  1  0.718623  0.573388  0.500000  1
  Ir  Ir15  1  0.278660  0.430801  0.500000  1
  Ir  Ir16  1  0.069199  0.221340  0.500000  1
  Ir  Ir17  1  0.998536  0.501464  0.500000  1
  Ir  Ir18  1  0.502313  0.997687  0.500000  1
  Ir  Ir19  1  0.779440  0.066025  0.500000  1
