# generated using pymatgen
data_Ho2Ge(PIr2)6
_symmetry_space_group_name_H-M   'P 1'
_cell_length_a   9.66395200
_cell_length_b   9.66395133
_cell_length_c   3.95972100
_cell_angle_alpha   90.00000000
_cell_angle_beta   90.00000000
_cell_angle_gamma   120.00001007
_symmetry_Int_Tables_number   1
_chemical_formula_structural   Ho2Ge(PIr2)6
_chemical_formula_sum   'Ho2 Ge1 P6 Ir12'
_cell_volume   320.26145510
_cell_formula_units_Z   1
loop_
 _symmetry_equiv_pos_site_id
 _symmetry_equiv_pos_as_xyz
  1  'x, y, z'
loop_
 _atom_site_type_symbol
 _atom_site_label
 _atom_site_symmetry_multiplicity
 _atom_site_fract_x
 _atom_site_fract_y
 _atom_site_fract_z
 _atom_site_occupancy
  Ho  Ho0  1  0.333333  0.666667  0.753730  1
  Ho  Ho1  1  0.666667  0.333333  0.246270  1
  Ge  Ge2  1  0.000000  0.000000  0.500000  1
  P  P3  1  0.406600  0.281320  0.745853  1
  P  P4  1  0.718680  0.125280  0.745853  1
  P  P5  1  0.874720  0.593400  0.745853  1
  P  P6  1  0.593400  0.718680  0.254147  1
  P  P7  1  0.281320  0.874720  0.254147  1
  P  P8  1  0.125280  0.406600  0.254147  1
  Ir  Ir9  1  0.457616  0.070142  0.746601  1
  Ir  Ir10  1  0.929858  0.387474  0.746601  1
  Ir  Ir11  1  0.612526  0.542384  0.746601  1
  Ir  Ir12  1  0.542384  0.929858  0.253399  1
  Ir  Ir13  1  0.070142  0.612526  0.253399  1
  Ir  Ir14  1  0.387474  0.457616  0.253399  1
  Ir  Ir15  1  0.161473  0.277973  0.764156  1
  Ir  Ir16  1  0.722027  0.883501  0.764156  1
  Ir  Ir17  1  0.116499  0.838527  0.764156  1
  Ir  Ir18  1  0.838527  0.722027  0.235844  1
  Ir  Ir19  1  0.277973  0.116499  0.235844  1
  Ir  Ir20  1  0.883501  0.161473  0.235844  1
