# generated using pymatgen
data_Nd6Al24Re3Pd5
_symmetry_space_group_name_H-M   'P 1'
_cell_length_a   9.02856180
_cell_length_b   8.98601175
_cell_length_c   9.71366977
_cell_angle_alpha   90.00000217
_cell_angle_beta   89.70251052
_cell_angle_gamma   119.84422333
_symmetry_Int_Tables_number   1
_chemical_formula_structural   Nd6Al24Re3Pd5
_chemical_formula_sum   'Nd6 Al24 Re3 Pd5'
_cell_volume   683.55162626
_cell_formula_units_Z   1
loop_
 _symmetry_equiv_pos_site_id
 _symmetry_equiv_pos_as_xyz
  1  'x, y, z'
loop_
 _atom_site_type_symbol
 _atom_site_label
 _atom_site_symmetry_multiplicity
 _atom_site_fract_x
 _atom_site_fract_y
 _atom_site_fract_z
 _atom_site_occupancy
  Nd  Nd0  1  0.187980  0.380720  0.250472  1
  Nd  Nd1  1  0.812020  0.619280  0.749528  1
  Nd  Nd2  1  0.620668  0.810334  0.251088  1
  Nd  Nd3  1  0.379332  0.189666  0.748912  1
  Nd  Nd4  1  0.187980  0.807259  0.250472  1
  Nd  Nd5  1  0.812020  0.192741  0.749528  1
  Al  Al6  1  0.334041  0.667021  0.022801  1
  Al  Al7  1  0.665959  0.332979  0.977199  1
  Al  Al8  1  0.671060  0.335530  0.522773  1
  Al  Al9  1  0.328940  0.664470  0.477227  1
  Al  Al10  1  0.156592  0.325092  0.575213  1
  Al  Al11  1  0.843408  0.674908  0.424787  1
  Al  Al12  1  0.675795  0.837897  0.575597  1
  Al  Al13  1  0.836994  0.676008  0.079337  1
  Al  Al14  1  0.324205  0.162103  0.424403  1
  Al  Al15  1  0.163006  0.323992  0.920663  1
  Al  Al16  1  0.156592  0.831500  0.575213  1
  Al  Al17  1  0.322990  0.161495  0.076213  1
  Al  Al18  1  0.843408  0.168500  0.424787  1
  Al  Al19  1  0.677010  0.838505  0.923787  1
  Al  Al20  1  0.836994  0.160987  0.079337  1
  Al  Al21  1  0.163006  0.839013  0.920663  1
  Al  Al22  1  0.564528  0.127788  0.249540  1
  Al  Al23  1  0.435472  0.872212  0.750460  1
  Al  Al24  1  0.871132  0.435566  0.252697  1
  Al  Al25  1  0.128868  0.564434  0.747303  1
  Al  Al26  1  0.564528  0.436740  0.249540  1
  Al  Al27  1  0.435472  0.563260  0.750460  1
  Al  Al28  1  0.997452  0.998726  0.250215  1
  Al  Al29  1  0.002548  0.001274  0.749785  1
  Re  Re30  1  0.000000  0.500000  0.500000  1
  Re  Re31  1  0.000000  0.000000  0.000000  1
  Re  Re32  1  0.000000  0.000000  0.500000  1
  Pd  Pd33  1  0.500000  0.000000  0.000000  1
  Pd  Pd34  1  0.000000  0.500000  0.000000  1
  Pd  Pd35  1  0.500000  0.000000  0.500000  1
  Pd  Pd36  1  0.500000  0.500000  0.000000  1
  Pd  Pd37  1  0.500000  0.500000  0.500000  1
