# generated using pymatgen
data_NdY2Ho(WN3)4
_symmetry_space_group_name_H-M   'P 1'
_cell_length_a   7.34859652
_cell_length_b   7.34859729
_cell_length_c   6.29135136
_cell_angle_alpha   74.39940133
_cell_angle_beta   74.39940278
_cell_angle_gamma   82.37918144
_symmetry_Int_Tables_number   1
_chemical_formula_structural   NdY2Ho(WN3)4
_chemical_formula_sum   'Nd1 Y2 Ho1 W4 N12'
_cell_volume   314.50694161
_cell_formula_units_Z   1
loop_
 _symmetry_equiv_pos_site_id
 _symmetry_equiv_pos_as_xyz
  1  'x, y, z'
loop_
 _atom_site_type_symbol
 _atom_site_label
 _atom_site_symmetry_multiplicity
 _atom_site_fract_x
 _atom_site_fract_y
 _atom_site_fract_z
 _atom_site_occupancy
  Nd  Nd0  1  0.703793  0.296207  0.750000  1
  Y  Y1  1  0.292669  0.707331  0.250000  1
  Y  Y2  1  0.913467  0.086533  0.250000  1
  Ho  Ho3  1  0.091477  0.908523  0.750000  1
  W  W4  1  0.378967  0.200596  0.238674  1
  W  W5  1  0.618432  0.799625  0.764986  1
  W  W6  1  0.799404  0.621033  0.261326  1
  W  W7  1  0.200375  0.381568  0.735014  1
  N  N8  1  0.621931  0.110996  0.166112  1
  N  N9  1  0.354014  0.361744  0.445721  1
  N  N10  1  0.007263  0.214081  0.848603  1
  N  N11  1  0.375794  0.891679  0.840861  1
  N  N12  1  0.785919  0.992737  0.651397  1
  N  N13  1  0.108321  0.624206  0.659139  1
  N  N14  1  0.889004  0.378069  0.333888  1
  N  N15  1  0.646396  0.645724  0.549280  1
  N  N16  1  0.638256  0.645986  0.054279  1
  N  N17  1  0.354276  0.353604  0.950720  1
  N  N18  1  0.000628  0.780387  0.148769  1
  N  N19  1  0.219613  0.999372  0.351231  1
