# generated using pymatgen
data_K3B4PPt9
_symmetry_space_group_name_H-M   'P 1'
_cell_length_a   6.49071645
_cell_length_b   6.49071659
_cell_length_c   15.33851200
_cell_angle_alpha   90.00000000
_cell_angle_beta   90.00000000
_cell_angle_gamma   121.29005881
_symmetry_Int_Tables_number   1
_chemical_formula_structural   K3B4PPt9
_chemical_formula_sum   'K6 B8 P2 Pt18'
_cell_volume   552.21152007
_cell_formula_units_Z   2
loop_
 _symmetry_equiv_pos_site_id
 _symmetry_equiv_pos_as_xyz
  1  'x, y, z'
loop_
 _atom_site_type_symbol
 _atom_site_label
 _atom_site_symmetry_multiplicity
 _atom_site_fract_x
 _atom_site_fract_y
 _atom_site_fract_z
 _atom_site_occupancy
  K  K0  1  0.326329  0.673671  0.750000  1
  K  K1  1  0.673671  0.326329  0.250000  1
  K  K2  1  0.550639  0.449361  0.086260  1
  K  K3  1  0.449361  0.550639  0.913740  1
  K  K4  1  0.449361  0.550639  0.586260  1
  K  K5  1  0.550639  0.449361  0.413740  1
  B  B6  1  0.938819  0.061181  0.141083  1
  B  B7  1  0.061181  0.938819  0.858917  1
  B  B8  1  0.061181  0.938819  0.641083  1
  B  B9  1  0.938819  0.061181  0.358917  1
  B  B10  1  0.204278  0.795722  0.026415  1
  B  B11  1  0.795722  0.204278  0.973585  1
  B  B12  1  0.795722  0.204278  0.526415  1
  B  B13  1  0.204278  0.795722  0.473585  1
  P  P14  1  0.707656  0.292344  0.750000  1
  P  P15  1  0.292344  0.707656  0.250000  1
  Pt  Pt16  1  0.000000  0.000000  0.000000  1
  Pt  Pt17  1  0.000000  0.000000  0.500000  1
  Pt  Pt18  1  0.699211  0.863418  0.250000  1
  Pt  Pt19  1  0.863418  0.699211  0.750000  1
  Pt  Pt20  1  0.300789  0.136582  0.750000  1
  Pt  Pt21  1  0.136582  0.300789  0.250000  1
  Pt  Pt22  1  0.128392  0.871608  0.152599  1
  Pt  Pt23  1  0.871608  0.128392  0.847401  1
  Pt  Pt24  1  0.871608  0.128392  0.652599  1
  Pt  Pt25  1  0.128392  0.871608  0.347401  1
  Pt  Pt26  1  0.579818  0.959257  0.077014  1
  Pt  Pt27  1  0.959257  0.579818  0.922986  1
  Pt  Pt28  1  0.420182  0.040743  0.577014  1
  Pt  Pt29  1  0.040743  0.420182  0.422986  1
  Pt  Pt30  1  0.420182  0.040743  0.922986  1
  Pt  Pt31  1  0.040743  0.420182  0.077014  1
  Pt  Pt32  1  0.579818  0.959257  0.422986  1
  Pt  Pt33  1  0.959257  0.579818  0.577014  1
