# generated using pymatgen
data_Tm12ZnCo3SiBi
_symmetry_space_group_name_H-M   'P 1'
_cell_length_a   8.28308107
_cell_length_b   8.28308089
_cell_length_c   8.28308021
_cell_angle_alpha   110.91968903
_cell_angle_beta   112.57340808
_cell_angle_gamma   105.01513325
_symmetry_Int_Tables_number   1
_chemical_formula_structural   Tm12ZnCo3SiBi
_chemical_formula_sum   'Tm12 Zn1 Co3 Si1 Bi1'
_cell_volume   435.41251921
_cell_formula_units_Z   1
loop_
 _symmetry_equiv_pos_site_id
 _symmetry_equiv_pos_as_xyz
  1  'x, y, z'
loop_
 _atom_site_type_symbol
 _atom_site_label
 _atom_site_symmetry_multiplicity
 _atom_site_fract_x
 _atom_site_fract_y
 _atom_site_fract_z
 _atom_site_occupancy
  Tm  Tm0  1  0.286319  0.181734  0.468053  1
  Tm  Tm1  1  0.719297  0.816543  0.535840  1
  Tm  Tm2  1  0.280703  0.816543  0.097247  1
  Tm  Tm3  1  0.713681  0.181734  0.895416  1
  Tm  Tm4  1  0.620439  0.310886  0.314404  1
  Tm  Tm5  1  0.379561  0.693965  0.690447  1
  Tm  Tm6  1  0.996482  0.310886  0.690447  1
  Tm  Tm7  1  0.003518  0.693965  0.314404  1
  Tm  Tm8  1  0.232245  0.432044  0.199799  1
  Tm  Tm9  1  0.776620  0.573330  0.796710  1
  Tm  Tm10  1  0.223380  0.020090  0.796710  1
  Tm  Tm11  1  0.767755  0.967554  0.199799  1
  Zn  Zn12  1  0.000000  0.995992  0.995992  1
  Co  Co13  1  0.000000  0.642462  0.642462  1
  Co  Co14  1  0.389281  0.888171  0.498890  1
  Co  Co15  1  0.610719  0.109609  0.498890  1
  Si  Si16  1  0.000000  0.369587  0.369587  1
  Bi  Bi17  1  0.500000  0.494903  0.994903  1
