# generated using pymatgen
data_Nd2Sm3PPb3
_symmetry_space_group_name_H-M   'P 1'
_cell_length_a   9.38984102
_cell_length_b   9.39165389
_cell_length_c   7.04391400
_cell_angle_alpha   90.00000000
_cell_angle_beta   90.00000000
_cell_angle_gamma   120.00638015
_symmetry_Int_Tables_number   1
_chemical_formula_structural   Nd2Sm3PPb3
_chemical_formula_sum   'Nd4 Sm6 P2 Pb6'
_cell_volume   537.91923026
_cell_formula_units_Z   2
loop_
 _symmetry_equiv_pos_site_id
 _symmetry_equiv_pos_as_xyz
  1  'x, y, z'
loop_
 _atom_site_type_symbol
 _atom_site_label
 _atom_site_symmetry_multiplicity
 _atom_site_fract_x
 _atom_site_fract_y
 _atom_site_fract_z
 _atom_site_occupancy
  Nd  Nd0  1  0.666674  0.333337  0.500000  1
  Nd  Nd1  1  0.333326  0.666663  0.500000  1
  Nd  Nd2  1  0.333326  0.666663  0.000000  1
  Nd  Nd3  1  0.666674  0.333337  0.000000  1
  Sm  Sm4  1  0.764334  0.764326  0.250000  1
  Sm  Sm5  1  0.235666  0.999992  0.250000  1
  Sm  Sm6  1  0.000000  0.235671  0.250000  1
  Sm  Sm7  1  0.235666  0.235674  0.750000  1
  Sm  Sm8  1  0.764334  0.000008  0.750000  1
  Sm  Sm9  1  0.000000  0.764329  0.750000  1
  P  P10  1  0.000000  0.000000  0.500000  1
  P  P11  1  0.000000  0.000000  0.000000  1
  Pb  Pb12  1  0.399431  0.399435  0.250000  1
  Pb  Pb13  1  0.600569  0.000004  0.250000  1
  Pb  Pb14  1  0.000000  0.600551  0.250000  1
  Pb  Pb15  1  0.600569  0.600565  0.750000  1
  Pb  Pb16  1  0.399431  0.999996  0.750000  1
  Pb  Pb17  1  0.000000  0.399449  0.750000  1
