# generated using pymatgen
data_Cs2Nb6SnCl18
_symmetry_space_group_name_H-M   'P 1'
_cell_length_a   10.53305647
_cell_length_b   10.53305653
_cell_length_c   10.53305573
_cell_angle_alpha   54.88765992
_cell_angle_beta   54.88765810
_cell_angle_gamma   54.88766111
_symmetry_Int_Tables_number   1
_chemical_formula_structural   Cs2Nb6SnCl18
_chemical_formula_sum   'Cs2 Nb6 Sn1 Cl18'
_cell_volume   727.98521731
_cell_formula_units_Z   1
loop_
 _symmetry_equiv_pos_site_id
 _symmetry_equiv_pos_as_xyz
  1  'x, y, z'
loop_
 _atom_site_type_symbol
 _atom_site_label
 _atom_site_symmetry_multiplicity
 _atom_site_fract_x
 _atom_site_fract_y
 _atom_site_fract_z
 _atom_site_occupancy
  Cs  Cs0  1  0.276623  0.276623  0.276623  1
  Cs  Cs1  1  0.723377  0.723377  0.723377  1
  Nb  Nb2  1  0.419175  0.300346  0.645833  1
  Nb  Nb3  1  0.354167  0.580825  0.699654  1
  Nb  Nb4  1  0.699654  0.354167  0.580825  1
  Nb  Nb5  1  0.645833  0.419175  0.300346  1
  Nb  Nb6  1  0.580825  0.699654  0.354167  1
  Nb  Nb7  1  0.300346  0.645833  0.419175  1
  Sn  Sn8  1  0.000000  0.000000  0.000000  1
  Cl  Cl9  1  0.639188  0.094665  0.767148  1
  Cl  Cl10  1  0.767148  0.639188  0.094665  1
  Cl  Cl11  1  0.094665  0.767148  0.639188  1
  Cl  Cl12  1  0.827584  0.318563  0.043736  1
  Cl  Cl13  1  0.169390  0.436032  0.576908  1
  Cl  Cl14  1  0.681437  0.956264  0.172416  1
  Cl  Cl15  1  0.905335  0.232852  0.360812  1
  Cl  Cl16  1  0.563968  0.423092  0.830610  1
  Cl  Cl17  1  0.423092  0.830610  0.563968  1
  Cl  Cl18  1  0.956264  0.172416  0.681437  1
  Cl  Cl19  1  0.172416  0.681437  0.956264  1
  Cl  Cl20  1  0.043736  0.827584  0.318563  1
  Cl  Cl21  1  0.318563  0.043736  0.827584  1
  Cl  Cl22  1  0.232852  0.360812  0.905335  1
  Cl  Cl23  1  0.576908  0.169390  0.436032  1
  Cl  Cl24  1  0.436032  0.576908  0.169390  1
  Cl  Cl25  1  0.360812  0.905335  0.232852  1
  Cl  Cl26  1  0.830610  0.563968  0.423092  1
