# generated using pymatgen
data_KBa4Bi2As
_symmetry_space_group_name_H-M   'P 1'
_cell_length_a   9.11527700
_cell_length_b   10.57815600
_cell_length_c   14.41451600
_cell_angle_alpha   90.00000000
_cell_angle_beta   90.00000000
_cell_angle_gamma   90.00000000
_symmetry_Int_Tables_number   1
_chemical_formula_structural   KBa4Bi2As
_chemical_formula_sum   'K4 Ba16 Bi8 As4'
_cell_volume   1389.88831177
_cell_formula_units_Z   4
loop_
 _symmetry_equiv_pos_site_id
 _symmetry_equiv_pos_as_xyz
  1  'x, y, z'
loop_
 _atom_site_type_symbol
 _atom_site_label
 _atom_site_symmetry_multiplicity
 _atom_site_fract_x
 _atom_site_fract_y
 _atom_site_fract_z
 _atom_site_occupancy
  K  K0  1  0.013272  0.750000  0.500053  1
  K  K1  1  0.986728  0.250000  0.499947  1
  K  K2  1  0.513272  0.250000  0.999947  1
  K  K3  1  0.486728  0.750000  0.000053  1
  Ba  Ba4  1  0.841333  0.750000  0.799620  1
  Ba  Ba5  1  0.158667  0.250000  0.200380  1
  Ba  Ba6  1  0.341333  0.250000  0.700380  1
  Ba  Ba7  1  0.658667  0.750000  0.299620  1
  Ba  Ba8  1  0.691489  0.504351  0.573861  1
  Ba  Ba9  1  0.308511  0.495649  0.426139  1
  Ba  Ba10  1  0.191489  0.495649  0.926139  1
  Ba  Ba11  1  0.308511  0.004351  0.426139  1
  Ba  Ba12  1  0.808511  0.504351  0.073861  1
  Ba  Ba13  1  0.691489  0.995649  0.573861  1
  Ba  Ba14  1  0.808511  0.995649  0.073861  1
  Ba  Ba15  1  0.191489  0.004351  0.926139  1
  Ba  Ba16  1  0.337174  0.750000  0.703237  1
  Ba  Ba17  1  0.662826  0.250000  0.296763  1
  Ba  Ba18  1  0.837174  0.250000  0.796763  1
  Ba  Ba19  1  0.162826  0.750000  0.203237  1
  Bi  Bi20  1  0.558274  0.500817  0.824352  1
  Bi  Bi21  1  0.441726  0.499183  0.175648  1
  Bi  Bi22  1  0.058274  0.499183  0.675648  1
  Bi  Bi23  1  0.441726  0.000817  0.175648  1
  Bi  Bi24  1  0.941726  0.500817  0.324352  1
  Bi  Bi25  1  0.558274  0.999183  0.824352  1
  Bi  Bi26  1  0.941726  0.999183  0.324352  1
  Bi  Bi27  1  0.058274  0.000817  0.675648  1
  As  As28  1  0.009687  0.750000  0.998675  1
  As  As29  1  0.990313  0.250000  0.001325  1
  As  As30  1  0.509687  0.250000  0.501325  1
  As  As31  1  0.490313  0.750000  0.498675  1
