# generated using pymatgen
data_EuZn3CuRh
_symmetry_space_group_name_H-M   'P 1'
_cell_length_a   5.44625000
_cell_length_b   5.44625149
_cell_length_c   4.13626700
_cell_angle_alpha   90.00000000
_cell_angle_beta   90.00000000
_cell_angle_gamma   120.00000309
_symmetry_Int_Tables_number   1
_chemical_formula_structural   EuZn3CuRh
_chemical_formula_sum   'Eu1 Zn3 Cu1 Rh1'
_cell_volume   106.25134787
_cell_formula_units_Z   1
loop_
 _symmetry_equiv_pos_site_id
 _symmetry_equiv_pos_as_xyz
  1  'x, y, z'
loop_
 _atom_site_type_symbol
 _atom_site_label
 _atom_site_symmetry_multiplicity
 _atom_site_fract_x
 _atom_site_fract_y
 _atom_site_fract_z
 _atom_site_occupancy
  Eu  Eu0  1  0.000000  0.000000  0.000000  1
  Zn  Zn1  1  0.998643  0.499321  0.500000  1
  Zn  Zn2  1  0.500679  0.001357  0.500000  1
  Zn  Zn3  1  0.500679  0.499321  0.500000  1
  Cu  Cu4  1  0.666667  0.333333  0.000000  1
  Rh  Rh5  1  0.333333  0.666667  0.000000  1
