# generated using pymatgen
data_Er4Lu4In3Cu
_symmetry_space_group_name_H-M   'P 1'
_cell_length_a   10.39977681
_cell_length_b   10.39977598
_cell_length_c   6.73784707
_cell_angle_alpha   89.98533298
_cell_angle_beta   90.01466661
_cell_angle_gamma   120.04289605
_symmetry_Int_Tables_number   1
_chemical_formula_structural   Er4Lu4In3Cu
_chemical_formula_sum   'Er8 Lu8 In6 Cu2'
_cell_volume   630.82933427
_cell_formula_units_Z   2
loop_
 _symmetry_equiv_pos_site_id
 _symmetry_equiv_pos_as_xyz
  1  'x, y, z'
loop_
 _atom_site_type_symbol
 _atom_site_label
 _atom_site_symmetry_multiplicity
 _atom_site_fract_x
 _atom_site_fract_y
 _atom_site_fract_z
 _atom_site_occupancy
  Er  Er0  1  0.824411  0.175589  0.509119  1
  Er  Er1  1  0.175910  0.352609  0.008668  1
  Er  Er2  1  0.647391  0.824090  0.008668  1
  Er  Er3  1  0.176301  0.823699  0.008270  1
  Er  Er4  1  0.666424  0.333576  0.165699  1
  Er  Er5  1  0.333303  0.666697  0.664156  1
  Er  Er6  1  0.000669  0.999331  0.774385  1
  Er  Er7  1  0.000515  0.999485  0.275850  1
  Lu  Lu8  1  0.524569  0.050821  0.795985  1
  Lu  Lu9  1  0.949179  0.475431  0.795985  1
  Lu  Lu10  1  0.525236  0.474764  0.795263  1
  Lu  Lu11  1  0.474614  0.950537  0.296926  1
  Lu  Lu12  1  0.049463  0.525386  0.296926  1
  Lu  Lu13  1  0.475696  0.524304  0.297045  1
  Lu  Lu14  1  0.824076  0.647700  0.508135  1
  Lu  Lu15  1  0.352300  0.175924  0.508135  1
  In  In16  1  0.836073  0.672301  0.031111  1
  In  In17  1  0.327699  0.163927  0.031111  1
  In  In18  1  0.835965  0.164035  0.030598  1
  In  In19  1  0.164419  0.327230  0.530261  1
  In  In20  1  0.672770  0.835581  0.530261  1
  In  In21  1  0.163525  0.836475  0.530433  1
  Cu  Cu22  1  0.666182  0.333818  0.571804  1
  Cu  Cu23  1  0.333311  0.666689  0.071115  1
