# generated using pymatgen
data_MgZn3(BrO3)8
_symmetry_space_group_name_H-M   'P 1'
_cell_length_a   5.73283663
_cell_length_b   10.52588341
_cell_length_c   10.58102474
_cell_angle_alpha   119.18733118
_cell_angle_beta   89.96516640
_cell_angle_gamma   90.19336562
_symmetry_Int_Tables_number   1
_chemical_formula_structural   MgZn3(BrO3)8
_chemical_formula_sum   'Mg1 Zn3 Br8 O24'
_cell_volume   557.41955792
_cell_formula_units_Z   1
loop_
 _symmetry_equiv_pos_site_id
 _symmetry_equiv_pos_as_xyz
  1  'x, y, z'
loop_
 _atom_site_type_symbol
 _atom_site_label
 _atom_site_symmetry_multiplicity
 _atom_site_fract_x
 _atom_site_fract_y
 _atom_site_fract_z
 _atom_site_occupancy
  Mg  Mg0  1  0.139101  0.762647  0.506836  1
  Zn  Zn1  1  0.644734  0.236552  0.493329  1
  Zn  Zn2  1  0.145228  0.263535  0.006485  1
  Zn  Zn3  1  0.643093  0.736659  0.994621  1
  Br  Br4  1  0.261136  0.414758  0.349762  1
  Br  Br5  1  0.760229  0.584469  0.650564  1
  Br  Br6  1  0.258979  0.916114  0.850968  1
  Br  Br7  1  0.759384  0.084659  0.150045  1
  Br  Br8  1  0.787021  0.086171  0.689120  1
  Br  Br9  1  0.287199  0.912999  0.309116  1
  Br  Br10  1  0.286798  0.412947  0.809722  1
  Br  Br11  1  0.787333  0.585735  0.189208  1
  O  O12  1  0.428214  0.886142  0.964092  1
  O  O13  1  0.926474  0.114454  0.035583  1
  O  O14  1  0.361881  0.802890  0.682843  1
  O  O15  1  0.868270  0.198723  0.317578  1
  O  O16  1  0.369032  0.302292  0.182004  1
  O  O17  1  0.866521  0.697918  0.818745  1
  O  O18  1  0.930112  0.227846  0.825236  1
  O  O19  1  0.433259  0.771441  0.174768  1
  O  O20  1  0.929611  0.934167  0.659424  1
  O  O21  1  0.428553  0.066570  0.338256  1
  O  O22  1  0.355909  0.081838  0.881230  1
  O  O23  1  0.855143  0.919034  0.119294  1
  O  O24  1  0.430479  0.271608  0.674284  1
  O  O25  1  0.930986  0.724882  0.326473  1
  O  O26  1  0.352869  0.397666  0.958419  1
  O  O27  1  0.855939  0.603944  0.042560  1
  O  O28  1  0.429057  0.565848  0.837443  1
  O  O29  1  0.926690  0.432327  0.160461  1
  O  O30  1  0.350237  0.581317  0.381723  1
  O  O31  1  0.856454  0.418977  0.619515  1
  O  O32  1  0.433605  0.386375  0.462866  1
  O  O33  1  0.929326  0.617248  0.539637  1
  O  O34  1  0.852887  0.103450  0.541496  1
  O  O35  1  0.347856  0.895800  0.456295  1
