# generated using pymatgen
data_Tb4Er2Si24OsRu7
_symmetry_space_group_name_H-M   'P 1'
_cell_length_a   10.11652704
_cell_length_b   10.11652684
_cell_length_c   8.15881700
_cell_angle_alpha   89.99676427
_cell_angle_beta   89.99676125
_cell_angle_gamma   132.47969976
_symmetry_Int_Tables_number   1
_chemical_formula_structural   Tb4Er2Si24OsRu7
_chemical_formula_sum   'Tb4 Er2 Si24 Os1 Ru7'
_cell_volume   615.83150911
_cell_formula_units_Z   1
loop_
 _symmetry_equiv_pos_site_id
 _symmetry_equiv_pos_as_xyz
  1  'x, y, z'
loop_
 _atom_site_type_symbol
 _atom_site_label
 _atom_site_symmetry_multiplicity
 _atom_site_fract_x
 _atom_site_fract_y
 _atom_site_fract_z
 _atom_site_occupancy
  Tb  Tb0  1  0.502385  0.002413  0.750275  1
  Tb  Tb1  1  0.997587  0.497615  0.249725  1
  Tb  Tb2  1  0.497624  0.997244  0.249634  1
  Tb  Tb3  1  0.002756  0.502376  0.750366  1
  Er  Er4  1  0.499918  0.500082  0.500000  1
  Er  Er5  1  0.000047  0.999953  0.000000  1
  Si  Si6  1  0.795370  0.204630  0.500000  1
  Si  Si7  1  0.294780  0.705220  0.000000  1
  Si  Si8  1  0.205163  0.794837  0.500000  1
  Si  Si9  1  0.705382  0.294618  0.000000  1
  Si  Si10  1  0.331975  0.332199  0.833668  1
  Si  Si11  1  0.667801  0.668025  0.166332  1
  Si  Si12  1  0.167065  0.166844  0.332542  1
  Si  Si13  1  0.833156  0.832935  0.667458  1
  Si  Si14  1  0.121861  0.887813  0.729045  1
  Si  Si15  1  0.112187  0.878139  0.270955  1
  Si  Si16  1  0.612137  0.378216  0.227219  1
  Si  Si17  1  0.621784  0.387863  0.772781  1
  Si  Si18  1  0.877335  0.111141  0.270404  1
  Si  Si19  1  0.888859  0.122665  0.729596  1
  Si  Si20  1  0.387505  0.622052  0.771843  1
  Si  Si21  1  0.377948  0.612495  0.228157  1
  Si  Si22  1  0.343921  0.110940  0.505085  1
  Si  Si23  1  0.889060  0.656079  0.494915  1
  Si  Si24  1  0.387550  0.154200  0.004718  1
  Si  Si25  1  0.845800  0.612450  0.995282  1
  Si  Si26  1  0.654179  0.887747  0.493764  1
  Si  Si27  1  0.112253  0.345821  0.506236  1
  Si  Si28  1  0.612199  0.845468  0.995406  1
  Si  Si29  1  0.154532  0.387801  0.004594  1
  Os  Os30  1  0.668687  0.331313  0.500000  1
  Ru  Ru31  1  0.168724  0.831276  0.000000  1
  Ru  Ru32  1  0.331307  0.668693  0.500000  1
  Ru  Ru33  1  0.831342  0.168658  0.000000  1
  Ru  Ru34  1  0.127135  0.127254  0.626526  1
  Ru  Ru35  1  0.872746  0.872865  0.373474  1
  Ru  Ru36  1  0.374423  0.374484  0.127676  1
  Ru  Ru37  1  0.625516  0.625577  0.872324  1
