# generated using pymatgen
data_SrPr2Nd4OsBr12
_symmetry_space_group_name_H-M   'P 1'
_cell_length_a   9.58069471
_cell_length_b   9.58396874
_cell_length_c   9.69404930
_cell_angle_alpha   106.13877423
_cell_angle_beta   106.50325312
_cell_angle_gamma   106.15376255
_symmetry_Int_Tables_number   1
_chemical_formula_structural   SrPr2Nd4OsBr12
_chemical_formula_sum   'Sr1 Pr2 Nd4 Os1 Br12'
_cell_volume   755.65681647
_cell_formula_units_Z   1
loop_
 _symmetry_equiv_pos_site_id
 _symmetry_equiv_pos_as_xyz
  1  'x, y, z'
loop_
 _atom_site_type_symbol
 _atom_site_label
 _atom_site_symmetry_multiplicity
 _atom_site_fract_x
 _atom_site_fract_y
 _atom_site_fract_z
 _atom_site_occupancy
  Sr  Sr0  1  0.500018  0.500113  0.500218  1
  Pr  Pr1  1  0.101161  0.307785  0.019480  1
  Pr  Pr2  1  0.308809  0.020046  0.102175  1
  Nd  Nd3  1  0.019939  0.105123  0.317050  1
  Nd  Nd4  1  0.979636  0.894037  0.682596  1
  Nd  Nd5  1  0.692530  0.979593  0.898276  1
  Nd  Nd6  1  0.898360  0.693497  0.980047  1
  Os  Os7  1  0.999728  0.999648  0.999719  1
  Br  Br8  1  0.218157  0.679960  0.071380  1
  Br  Br9  1  0.450543  0.368837  0.153294  1
  Br  Br10  1  0.681602  0.070992  0.217223  1
  Br  Br11  1  0.928511  0.781639  0.318012  1
  Br  Br12  1  0.150064  0.447992  0.366810  1
  Br  Br13  1  0.365731  0.150535  0.448527  1
  Br  Br14  1  0.634297  0.850475  0.553474  1
  Br  Br15  1  0.850102  0.552138  0.634990  1
  Br  Br16  1  0.071069  0.217168  0.679913  1
  Br  Br17  1  0.319173  0.928575  0.780991  1
  Br  Br18  1  0.551912  0.633232  0.848105  1
  Br  Br19  1  0.778657  0.318616  0.927721  1
