# generated using pymatgen
data_Nd2Co9As7Ru3
_symmetry_space_group_name_H-M   'P 1'
_cell_length_a   3.86333700
_cell_length_b   9.43921923
_cell_length_c   9.43921800
_cell_angle_alpha   120.00000176
_cell_angle_beta   90.00000000
_cell_angle_gamma   90.00000000
_symmetry_Int_Tables_number   1
_chemical_formula_structural   Nd2Co9As7Ru3
_chemical_formula_sum   'Nd2 Co9 As7 Ru3'
_cell_volume   298.10228611
_cell_formula_units_Z   1
loop_
 _symmetry_equiv_pos_site_id
 _symmetry_equiv_pos_as_xyz
  1  'x, y, z'
loop_
 _atom_site_type_symbol
 _atom_site_label
 _atom_site_symmetry_multiplicity
 _atom_site_fract_x
 _atom_site_fract_y
 _atom_site_fract_z
 _atom_site_occupancy
  Nd  Nd0  1  0.000000  0.666667  0.333333  1
  Nd  Nd1  1  0.500000  0.333333  0.666667  1
  Co  Co2  1  0.000000  0.571846  0.942024  1
  Co  Co3  1  0.000000  0.370178  0.428154  1
  Co  Co4  1  0.000000  0.057976  0.629822  1
  Co  Co5  1  0.000000  0.875699  0.154450  1
  Co  Co6  1  0.000000  0.278751  0.124301  1
  Co  Co7  1  0.000000  0.845550  0.721249  1
  Co  Co8  1  0.500000  0.947870  0.381742  1
  Co  Co9  1  0.500000  0.433872  0.052130  1
  Co  Co10  1  0.500000  0.618258  0.566128  1
  As  As11  1  0.000000  0.000000  0.000000  1
  As  As12  1  0.500000  0.707496  0.112714  1
  As  As13  1  0.500000  0.405219  0.292504  1
  As  As14  1  0.500000  0.887286  0.594781  1
  As  As15  1  0.000000  0.590892  0.700000  1
  As  As16  1  0.000000  0.109110  0.409108  1
  As  As17  1  0.000000  0.300000  0.890890  1
  Ru  Ru18  1  0.500000  0.784151  0.900077  1
  Ru  Ru19  1  0.500000  0.115926  0.215849  1
  Ru  Ru20  1  0.500000  0.099923  0.884074  1
