# generated using pymatgen
data_Er2Tm2ReB12Ru
_symmetry_space_group_name_H-M   'P 1'
_cell_length_a   3.63625300
_cell_length_b   9.09539260
_cell_length_c   11.47649900
_cell_angle_alpha   89.80638865
_cell_angle_beta   90.00000000
_cell_angle_gamma   90.00000000
_symmetry_Int_Tables_number   1
_chemical_formula_structural   Er2Tm2ReB12Ru
_chemical_formula_sum   'Er4 Tm4 Re2 B24 Ru2'
_cell_volume   379.56179022
_cell_formula_units_Z   2
loop_
 _symmetry_equiv_pos_site_id
 _symmetry_equiv_pos_as_xyz
  1  'x, y, z'
loop_
 _atom_site_type_symbol
 _atom_site_label
 _atom_site_symmetry_multiplicity
 _atom_site_fract_x
 _atom_site_fract_y
 _atom_site_fract_z
 _atom_site_occupancy
  Er  Er0  1  0.000000  0.324372  0.415435  1
  Er  Er1  1  0.000000  0.675628  0.584565  1
  Er  Er2  1  0.000000  0.820682  0.087647  1
  Er  Er3  1  0.000000  0.179318  0.912353  1
  Tm  Tm4  1  0.000000  0.943043  0.371030  1
  Tm  Tm5  1  0.000000  0.056957  0.628970  1
  Tm  Tm6  1  0.000000  0.442867  0.129151  1
  Tm  Tm7  1  0.000000  0.557133  0.870849  1
  Re  Re8  1  0.000000  0.638482  0.320128  1
  Re  Re9  1  0.000000  0.361518  0.679872  1
  B  B10  1  0.500000  0.552905  0.433330  1
  B  B11  1  0.500000  0.447095  0.566670  1
  B  B12  1  0.500000  0.053702  0.066713  1
  B  B13  1  0.500000  0.946298  0.933287  1
  B  B14  1  0.500000  0.749558  0.419372  1
  B  B15  1  0.500000  0.250442  0.580628  1
  B  B16  1  0.500000  0.249081  0.080734  1
  B  B17  1  0.500000  0.750919  0.919266  1
  B  B18  1  0.500000  0.792441  0.265078  1
  B  B19  1  0.500000  0.207559  0.734922  1
  B  B20  1  0.500000  0.291151  0.234197  1
  B  B21  1  0.500000  0.708849  0.765803  1
  B  B22  1  0.500000  0.630988  0.184530  1
  B  B23  1  0.500000  0.369012  0.815470  1
  B  B24  1  0.500000  0.130736  0.314481  1
  B  B25  1  0.500000  0.869264  0.685519  1
  B  B26  1  0.500000  0.982640  0.212112  1
  B  B27  1  0.500000  0.017360  0.787888  1
  B  B28  1  0.500000  0.481660  0.287226  1
  B  B29  1  0.500000  0.518340  0.712774  1
  B  B30  1  0.500000  0.603017  0.028324  1
  B  B31  1  0.500000  0.396983  0.971676  1
  B  B32  1  0.500000  0.102766  0.471390  1
  B  B33  1  0.500000  0.897234  0.528610  1
  Ru  Ru34  1  0.000000  0.137880  0.178629  1
  Ru  Ru35  1  0.000000  0.862120  0.821371  1
