# generated using pymatgen
data_TbGd6ScO12
_symmetry_space_group_name_H-M   'P 1'
_cell_length_a   6.76317114
_cell_length_b   6.76317139
_cell_length_c   6.76317185
_cell_angle_alpha   92.79271468
_cell_angle_beta   92.79273100
_cell_angle_gamma   92.79271157
_symmetry_Int_Tables_number   1
_chemical_formula_structural   TbGd6ScO12
_chemical_formula_sum   'Tb1 Gd6 Sc1 O12'
_cell_volume   308.21132627
_cell_formula_units_Z   1
loop_
 _symmetry_equiv_pos_site_id
 _symmetry_equiv_pos_as_xyz
  1  'x, y, z'
loop_
 _atom_site_type_symbol
 _atom_site_label
 _atom_site_symmetry_multiplicity
 _atom_site_fract_x
 _atom_site_fract_y
 _atom_site_fract_z
 _atom_site_occupancy
  Tb  Tb0  1  0.000000  0.000000  0.000000  1
  Gd  Gd1  1  0.741428  0.929063  0.438810  1
  Gd  Gd2  1  0.438810  0.741428  0.929063  1
  Gd  Gd3  1  0.070937  0.561190  0.258572  1
  Gd  Gd4  1  0.929063  0.438810  0.741428  1
  Gd  Gd5  1  0.561190  0.258572  0.070937  1
  Gd  Gd6  1  0.258572  0.070937  0.561190  1
  Sc  Sc7  1  0.500000  0.500000  0.500000  1
  O  O8  1  0.067436  0.906770  0.316777  1
  O  O9  1  0.683223  0.932564  0.093230  1
  O  O10  1  0.463967  0.802790  0.591186  1
  O  O11  1  0.093230  0.683223  0.932564  1
  O  O12  1  0.802790  0.591186  0.463967  1
  O  O13  1  0.408814  0.536033  0.197210  1
  O  O14  1  0.591186  0.463967  0.802790  1
  O  O15  1  0.197210  0.408814  0.536033  1
  O  O16  1  0.906770  0.316777  0.067436  1
  O  O17  1  0.536033  0.197210  0.408814  1
  O  O18  1  0.316777  0.067436  0.906770  1
  O  O19  1  0.932564  0.093230  0.683223  1
