# generated using pymatgen
data_Sc4Be4ZnSiIr10
_symmetry_space_group_name_H-M   'P 1'
_cell_length_a   9.47412300
_cell_length_b   9.47412300
_cell_length_c   3.08740300
_cell_angle_alpha   90.00000000
_cell_angle_beta   90.00000000
_cell_angle_gamma   90.00000000
_symmetry_Int_Tables_number   1
_chemical_formula_structural   Sc4Be4ZnSiIr10
_chemical_formula_sum   'Sc4 Be4 Zn1 Si1 Ir10'
_cell_volume   277.12222631
_cell_formula_units_Z   1
loop_
 _symmetry_equiv_pos_site_id
 _symmetry_equiv_pos_as_xyz
  1  'x, y, z'
loop_
 _atom_site_type_symbol
 _atom_site_label
 _atom_site_symmetry_multiplicity
 _atom_site_fract_x
 _atom_site_fract_y
 _atom_site_fract_z
 _atom_site_occupancy
  Sc  Sc0  1  0.173355  0.676375  0.000000  1
  Sc  Sc1  1  0.676375  0.826645  0.000000  1
  Sc  Sc2  1  0.323625  0.173355  0.000000  1
  Sc  Sc3  1  0.826645  0.323625  0.000000  1
  Be  Be4  1  0.374949  0.876073  0.000000  1
  Be  Be5  1  0.876073  0.625051  0.000000  1
  Be  Be6  1  0.123927  0.374949  0.000000  1
  Be  Be7  1  0.625051  0.123927  0.000000  1
  Zn  Zn8  1  0.000000  0.000000  0.000000  1
  Si  Si9  1  0.500000  0.500000  0.000000  1
  Ir  Ir10  1  0.000000  0.500000  0.500000  1
  Ir  Ir11  1  0.500000  0.000000  0.500000  1
  Ir  Ir12  1  0.295014  0.434640  0.500000  1
  Ir  Ir13  1  0.704987  0.565360  0.500000  1
  Ir  Ir14  1  0.565360  0.295014  0.500000  1
  Ir  Ir15  1  0.434640  0.704987  0.500000  1
  Ir  Ir16  1  0.930299  0.789907  0.500000  1
  Ir  Ir17  1  0.789907  0.069701  0.500000  1
  Ir  Ir18  1  0.210092  0.930299  0.500000  1
  Ir  Ir19  1  0.069701  0.210092  0.500000  1
