# generated using pymatgen
data_Nd5BiPb2
_symmetry_space_group_name_H-M   'P 1'
_cell_length_a   6.75030300
_cell_length_b   9.47935270
_cell_length_c   9.47922291
_cell_angle_alpha   120.00045828
_cell_angle_beta   90.00000000
_cell_angle_gamma   90.00000000
_symmetry_Int_Tables_number   1
_chemical_formula_structural   Nd5BiPb2
_chemical_formula_sum   'Nd10 Bi2 Pb4'
_cell_volume   525.29505457
_cell_formula_units_Z   2
loop_
 _symmetry_equiv_pos_site_id
 _symmetry_equiv_pos_as_xyz
  1  'x, y, z'
loop_
 _atom_site_type_symbol
 _atom_site_label
 _atom_site_symmetry_multiplicity
 _atom_site_fract_x
 _atom_site_fract_y
 _atom_site_fract_z
 _atom_site_occupancy
  Nd  Nd0  1  0.500830  0.333324  0.668517  1
  Nd  Nd1  1  0.500830  0.664808  0.331483  1
  Nd  Nd2  1  0.999168  0.664804  0.331483  1
  Nd  Nd3  1  0.999168  0.333320  0.668517  1
  Nd  Nd4  1  0.750000  0.240132  0.000000  1
  Nd  Nd5  1  0.750001  0.758887  0.759440  1
  Nd  Nd6  1  0.750001  0.999448  0.240560  1
  Nd  Nd7  1  0.250000  0.759020  0.000000  1
  Nd  Nd8  1  0.250001  0.241222  0.237336  1
  Nd  Nd9  1  0.250001  0.003885  0.762664  1
  Bi  Bi10  1  0.250000  0.608932  0.608545  1
  Bi  Bi11  1  0.250000  0.000388  0.391455  1
  Pb  Pb12  1  0.749998  0.607803  0.000000  1
  Pb  Pb13  1  0.750000  0.391724  0.393173  1
  Pb  Pb14  1  0.750000  0.998551  0.606827  1
  Pb  Pb15  1  0.249998  0.393752  0.000000  1
