# generated using pymatgen
data_Th4ZnAu
_symmetry_space_group_name_H-M   'P 1'
_cell_length_a   6.08565144
_cell_length_b   6.08565142
_cell_length_c   6.08565106
_cell_angle_alpha   102.45697079
_cell_angle_beta   102.45696811
_cell_angle_gamma   124.65177923
_symmetry_Int_Tables_number   1
_chemical_formula_structural   Th4ZnAu
_chemical_formula_sum   'Th4 Zn1 Au1'
_cell_volume   164.19552473
_cell_formula_units_Z   1
loop_
 _symmetry_equiv_pos_site_id
 _symmetry_equiv_pos_as_xyz
  1  'x, y, z'
loop_
 _atom_site_type_symbol
 _atom_site_label
 _atom_site_symmetry_multiplicity
 _atom_site_fract_x
 _atom_site_fract_y
 _atom_site_fract_z
 _atom_site_occupancy
  Th  Th0  1  0.157311  0.657311  0.814623  1
  Th  Th1  1  0.842689  0.342689  0.185377  1
  Th  Th2  1  0.342689  0.157311  0.500000  1
  Th  Th3  1  0.657311  0.842689  0.500000  1
  Zn  Zn4  1  0.250000  0.250000  0.000000  1
  Au  Au5  1  0.750000  0.750000  0.000000  1
