# generated using pymatgen
data_Dy2Tm3Co16(P4W)3
_symmetry_space_group_name_H-M   'P 1'
_cell_length_a   12.04184100
_cell_length_b   12.04184006
_cell_length_c   3.68869400
_cell_angle_alpha   90.00000000
_cell_angle_beta   90.00000000
_cell_angle_gamma   119.99999433
_symmetry_Int_Tables_number   1
_chemical_formula_structural   Dy2Tm3Co16(P4W)3
_chemical_formula_sum   'Dy2 Tm3 Co16 P12 W3'
_cell_volume   463.22184186
_cell_formula_units_Z   1
loop_
 _symmetry_equiv_pos_site_id
 _symmetry_equiv_pos_as_xyz
  1  'x, y, z'
loop_
 _atom_site_type_symbol
 _atom_site_label
 _atom_site_symmetry_multiplicity
 _atom_site_fract_x
 _atom_site_fract_y
 _atom_site_fract_z
 _atom_site_occupancy
  Dy  Dy0  1  0.666667  0.333333  0.000000  1
  Dy  Dy1  1  0.333333  0.666667  0.000000  1
  Tm  Tm2  1  0.184419  0.184419  0.500000  1
  Tm  Tm3  1  0.815581  0.000000  0.500000  1
  Tm  Tm4  1  0.000000  0.815581  0.500000  1
  Co  Co5  1  0.823701  0.197555  0.000000  1
  Co  Co6  1  0.802445  0.626146  0.000000  1
  Co  Co7  1  0.373854  0.176299  0.000000  1
  Co  Co8  1  0.197555  0.823701  0.000000  1
  Co  Co9  1  0.626146  0.802445  0.000000  1
  Co  Co10  1  0.176299  0.373854  0.000000  1
  Co  Co11  1  0.644897  0.126875  0.500000  1
  Co  Co12  1  0.873125  0.518021  0.500000  1
  Co  Co13  1  0.481979  0.355103  0.500000  1
  Co  Co14  1  0.126875  0.644897  0.500000  1
  Co  Co15  1  0.518021  0.873125  0.500000  1
  Co  Co16  1  0.355103  0.481979  0.500000  1
  Co  Co17  1  0.719878  0.719878  0.500000  1
  Co  Co18  1  0.280122  0.000000  0.500000  1
  Co  Co19  1  0.000000  0.280122  0.500000  1
  Co  Co20  1  0.000000  0.000000  0.000000  1
  P  P21  1  0.358348  0.358348  0.000000  1
  P  P22  1  0.641652  0.000000  0.000000  1
  P  P23  1  0.000000  0.641652  0.000000  1
  P  P24  1  0.834536  0.313939  0.500000  1
  P  P25  1  0.686061  0.520597  0.500000  1
  P  P26  1  0.479403  0.165464  0.500000  1
  P  P27  1  0.313939  0.834536  0.500000  1
  P  P28  1  0.520597  0.686061  0.500000  1
  P  P29  1  0.165464  0.479403  0.500000  1
  P  P30  1  0.823218  0.823218  0.000000  1
  P  P31  1  0.176782  0.000000  0.000000  1
  P  P32  1  0.000000  0.176782  0.000000  1
  W  W33  1  0.553336  0.553336  0.000000  1
  W  W34  1  0.446664  0.000000  0.000000  1
  W  W35  1  0.000000  0.446664  0.000000  1
