# generated using pymatgen
data_Ba8TiV2GaO16
_symmetry_space_group_name_H-M   'P 1'
_cell_length_a   7.75382990
_cell_length_b   6.22664840
_cell_length_c   11.92915283
_cell_angle_alpha   62.69984764
_cell_angle_beta   90.18401907
_cell_angle_gamma   89.86392147
_symmetry_Int_Tables_number   1
_chemical_formula_structural   Ba8TiV2GaO16
_chemical_formula_sum   'Ba8 Ti1 V2 Ga1 O16'
_cell_volume   511.78557180
_cell_formula_units_Z   1
loop_
 _symmetry_equiv_pos_site_id
 _symmetry_equiv_pos_as_xyz
  1  'x, y, z'
loop_
 _atom_site_type_symbol
 _atom_site_label
 _atom_site_symmetry_multiplicity
 _atom_site_fract_x
 _atom_site_fract_y
 _atom_site_fract_z
 _atom_site_occupancy
  Ba  Ba0  1  0.512720  0.033579  0.195622  1
  Ba  Ba1  1  0.993801  0.978377  0.300583  1
  Ba  Ba2  1  0.507288  0.987752  0.800988  1
  Ba  Ba3  1  0.990123  0.031420  0.695286  1
  Ba  Ba4  1  0.155524  0.311929  0.918632  1
  Ba  Ba5  1  0.661985  0.683311  0.587025  1
  Ba  Ba6  1  0.840012  0.692457  0.063976  1
  Ba  Ba7  1  0.342091  0.304526  0.436150  1
  Ti  Ti8  1  0.219964  0.662863  0.579942  1
  V  V9  1  0.279933  0.654105  0.082888  1
  V  V10  1  0.777879  0.345831  0.414869  1
  Ga  Ga11  1  0.720270  0.338087  0.920267  1
  O  O12  1  0.762956  0.669093  0.818835  1
  O  O13  1  0.258662  0.336174  0.677488  1
  O  O14  1  0.237971  0.347478  0.177200  1
  O  O15  1  0.740892  0.666927  0.313524  1
  O  O16  1  0.837446  0.139134  0.862934  1
  O  O17  1  0.325638  0.851601  0.641629  1
  O  O18  1  0.179652  0.836462  0.139972  1
  O  O19  1  0.669416  0.134126  0.371377  1
  O  O20  1  0.825725  0.252498  0.080079  1
  O  O21  1  0.311441  0.753592  0.422519  1
  O  O22  1  0.192201  0.744993  0.931690  1
  O  O23  1  0.673781  0.268425  0.568534  1
  O  O24  1  0.006010  0.284361  0.420550  1
  O  O25  1  0.499380  0.702371  0.074914  1
  O  O26  1  0.991381  0.728563  0.565621  1
  O  O27  1  0.485862  0.259966  0.936904  1
