# generated using pymatgen
data_Dy16Cd2Co3NiHg2
_symmetry_space_group_name_H-M   'P 1'
_cell_length_a   9.50247088
_cell_length_b   9.50300311
_cell_length_c   9.50461978
_cell_angle_alpha   60.00562604
_cell_angle_beta   60.09972099
_cell_angle_gamma   59.99813776
_symmetry_Int_Tables_number   1
_chemical_formula_structural   Dy16Cd2Co3NiHg2
_chemical_formula_sum   'Dy16 Cd2 Co3 Ni1 Hg2'
_cell_volume   607.37340408
_cell_formula_units_Z   1
loop_
 _symmetry_equiv_pos_site_id
 _symmetry_equiv_pos_as_xyz
  1  'x, y, z'
loop_
 _atom_site_type_symbol
 _atom_site_label
 _atom_site_symmetry_multiplicity
 _atom_site_fract_x
 _atom_site_fract_y
 _atom_site_fract_z
 _atom_site_occupancy
  Dy  Dy0  1  0.151275  0.540811  0.155290  1
  Dy  Dy1  1  0.693289  0.310297  0.686118  1
  Dy  Dy2  1  0.688678  0.310465  0.313176  1
  Dy  Dy3  1  0.938107  0.561885  0.563022  1
  Dy  Dy4  1  0.544041  0.151367  0.153224  1
  Dy  Dy5  1  0.151785  0.153154  0.541907  1
  Dy  Dy6  1  0.938107  0.936985  0.563022  1
  Dy  Dy7  1  0.312286  0.687737  0.312240  1
  Dy  Dy8  1  0.562818  0.935559  0.939334  1
  Dy  Dy9  1  0.562135  0.937668  0.562530  1
  Dy  Dy10  1  0.688678  0.687680  0.313176  1
  Dy  Dy11  1  0.562818  0.562288  0.939334  1
  Dy  Dy12  1  0.936414  0.562174  0.939237  1
  Dy  Dy13  1  0.312572  0.691660  0.685439  1
  Dy  Dy14  1  0.151275  0.152624  0.155290  1
  Dy  Dy15  1  0.312572  0.310329  0.685439  1
  Cd  Cd16  1  0.919678  0.919325  0.241674  1
  Cd  Cd17  1  0.240973  0.919595  0.919838  1
  Co  Co18  1  0.358482  0.924276  0.357991  1
  Co  Co19  1  0.923560  0.359255  0.357933  1
  Co  Co20  1  0.358482  0.359252  0.357991  1
  Ni  Ni21  1  0.358520  0.358953  0.923575  1
  Hg  Hg22  1  0.916727  0.251716  0.916610  1
  Hg  Hg23  1  0.916727  0.914945  0.916610  1
