# generated using pymatgen
data_Ho3ZnIn3CuPt
_symmetry_space_group_name_H-M   'P 1'
_cell_length_a   7.63949600
_cell_length_b   7.63949547
_cell_length_c   3.86285800
_cell_angle_alpha   90.00000000
_cell_angle_beta   90.00000000
_cell_angle_gamma   120.00000228
_symmetry_Int_Tables_number   1
_chemical_formula_structural   Ho3ZnIn3CuPt
_chemical_formula_sum   'Ho3 Zn1 In3 Cu1 Pt1'
_cell_volume   195.23997846
_cell_formula_units_Z   1
loop_
 _symmetry_equiv_pos_site_id
 _symmetry_equiv_pos_as_xyz
  1  'x, y, z'
loop_
 _atom_site_type_symbol
 _atom_site_label
 _atom_site_symmetry_multiplicity
 _atom_site_fract_x
 _atom_site_fract_y
 _atom_site_fract_z
 _atom_site_occupancy
  Ho  Ho0  1  0.015138  0.601082  0.500000  1
  Ho  Ho1  1  0.398918  0.414057  0.500000  1
  Ho  Ho2  1  0.585943  0.984862  0.500000  1
  Zn  Zn3  1  0.666667  0.333333  0.000000  1
  In  In4  1  0.751264  0.745332  0.000000  1
  In  In5  1  0.994067  0.248736  0.000000  1
  In  In6  1  0.254668  0.005933  0.000000  1
  Cu  Cu7  1  0.000000  0.000000  0.500000  1
  Pt  Pt8  1  0.333333  0.666667  0.000000  1
