# generated using pymatgen
data_Y20In3Ni2Pd3
_symmetry_space_group_name_H-M   'P 1'
_cell_length_a   9.65601201
_cell_length_b   9.65602663
_cell_length_c   9.48927100
_cell_angle_alpha   90.00000000
_cell_angle_beta   90.00000000
_cell_angle_gamma   119.99495465
_symmetry_Int_Tables_number   1
_chemical_formula_structural   Y20In3Ni2Pd3
_chemical_formula_sum   'Y20 In3 Ni2 Pd3'
_cell_volume   766.26997874
_cell_formula_units_Z   1
loop_
 _symmetry_equiv_pos_site_id
 _symmetry_equiv_pos_as_xyz
  1  'x, y, z'
loop_
 _atom_site_type_symbol
 _atom_site_label
 _atom_site_symmetry_multiplicity
 _atom_site_fract_x
 _atom_site_fract_y
 _atom_site_fract_z
 _atom_site_occupancy
  Y  Y0  1  0.999986  0.000039  0.441956  1
  Y  Y1  1  0.999986  0.000039  0.058044  1
  Y  Y2  1  0.543660  0.456387  0.250000  1
  Y  Y3  1  0.543679  0.087336  0.250000  1
  Y  Y4  1  0.912710  0.456383  0.250000  1
  Y  Y5  1  0.458186  0.541772  0.750000  1
  Y  Y6  1  0.458181  0.916342  0.750000  1
  Y  Y7  1  0.083624  0.541818  0.750000  1
  Y  Y8  1  0.209047  0.790969  0.434836  1
  Y  Y9  1  0.209046  0.418103  0.434840  1
  Y  Y10  1  0.581913  0.790944  0.434818  1
  Y  Y11  1  0.791795  0.208182  0.558877  1
  Y  Y12  1  0.791767  0.583548  0.558841  1
  Y  Y13  1  0.416431  0.208213  0.558863  1
  Y  Y14  1  0.791795  0.208182  0.941123  1
  Y  Y15  1  0.791767  0.583548  0.941159  1
  Y  Y16  1  0.416431  0.208213  0.941137  1
  Y  Y17  1  0.209047  0.790969  0.065164  1
  Y  Y18  1  0.209046  0.418103  0.065160  1
  Y  Y19  1  0.581913  0.790944  0.065182  1
  In  In20  1  0.108598  0.891324  0.750000  1
  In  In21  1  0.108567  0.217157  0.750000  1
  In  In22  1  0.782728  0.891232  0.750000  1
  Ni  Ni23  1  0.333330  0.666653  0.250000  1
  Ni  Ni24  1  0.666679  0.333373  0.750000  1
  Pd  Pd25  1  0.865562  0.134581  0.250000  1
  Pd  Pd26  1  0.865481  0.731017  0.250000  1
  Pd  Pd27  1  0.269045  0.134629  0.250000  1
