# generated using pymatgen
data_Sr3TmCoO6
_symmetry_space_group_name_H-M   'P 1'
_cell_length_a   6.76625699
_cell_length_b   6.74211955
_cell_length_c   6.74659232
_cell_angle_alpha   92.82901836
_cell_angle_beta   92.81286742
_cell_angle_gamma   92.80865562
_symmetry_Int_Tables_number   1
_chemical_formula_structural   Sr3TmCoO6
_chemical_formula_sum   'Sr6 Tm2 Co2 O12'
_cell_volume   306.61856974
_cell_formula_units_Z   2
loop_
 _symmetry_equiv_pos_site_id
 _symmetry_equiv_pos_as_xyz
  1  'x, y, z'
loop_
 _atom_site_type_symbol
 _atom_site_label
 _atom_site_symmetry_multiplicity
 _atom_site_fract_x
 _atom_site_fract_y
 _atom_site_fract_z
 _atom_site_occupancy
  Sr  Sr0  1  0.881710  0.249586  0.618400  1
  Sr  Sr1  1  0.249881  0.618821  0.881478  1
  Sr  Sr2  1  0.618224  0.881500  0.250122  1
  Sr  Sr3  1  0.749769  0.381478  0.118626  1
  Sr  Sr4  1  0.381541  0.118201  0.749734  1
  Sr  Sr5  1  0.118606  0.750134  0.381663  1
  Tm  Tm6  1  0.749934  0.749823  0.750291  1
  Tm  Tm7  1  0.250042  0.250214  0.249811  1
  Co  Co8  1  0.000017  0.000049  0.000037  1
  Co  Co9  1  0.500048  0.499994  0.500052  1
  O  O10  1  0.218513  0.411906  0.542265  1
  O  O11  1  0.412016  0.542662  0.218309  1
  O  O12  1  0.542327  0.218408  0.411540  1
  O  O13  1  0.912064  0.718365  0.042675  1
  O  O14  1  0.718418  0.042236  0.911960  1
  O  O15  1  0.042184  0.911684  0.718376  1
  O  O16  1  0.781573  0.588147  0.457746  1
  O  O17  1  0.588031  0.457260  0.781689  1
  O  O18  1  0.457682  0.781607  0.588365  1
  O  O19  1  0.088013  0.281795  0.957364  1
  O  O20  1  0.281635  0.957764  0.087921  1
  O  O21  1  0.957772  0.088367  0.281576  1
