# generated using pymatgen
data_K2Cr(CuS2)2
_symmetry_space_group_name_H-M   'P 1'
_cell_length_a   5.58308500
_cell_length_b   5.58308500
_cell_length_c   12.70459800
_cell_angle_alpha   90.00000000
_cell_angle_beta   90.00000000
_cell_angle_gamma   90.00000000
_symmetry_Int_Tables_number   1
_chemical_formula_structural   K2Cr(CuS2)2
_chemical_formula_sum   'K4 Cr2 Cu4 S8'
_cell_volume   396.01296760
_cell_formula_units_Z   2
loop_
 _symmetry_equiv_pos_site_id
 _symmetry_equiv_pos_as_xyz
  1  'x, y, z'
loop_
 _atom_site_type_symbol
 _atom_site_label
 _atom_site_symmetry_multiplicity
 _atom_site_fract_x
 _atom_site_fract_y
 _atom_site_fract_z
 _atom_site_occupancy
  K  K0  1  0.254778  0.254778  0.000000  1
  K  K1  1  0.745222  0.745222  0.000000  1
  K  K2  1  0.745222  0.254778  0.500000  1
  K  K3  1  0.254778  0.745222  0.500000  1
  Cr  Cr4  1  0.000000  0.000000  0.250000  1
  Cr  Cr5  1  0.000000  0.000000  0.750000  1
  Cu  Cu6  1  0.000000  0.500000  0.250000  1
  Cu  Cu7  1  0.000000  0.500000  0.750000  1
  Cu  Cu8  1  0.500000  0.000000  0.750000  1
  Cu  Cu9  1  0.500000  0.000000  0.250000  1
  S  S10  1  0.231865  0.231865  0.348339  1
  S  S11  1  0.768135  0.768135  0.651661  1
  S  S12  1  0.768135  0.768135  0.348339  1
  S  S13  1  0.768135  0.231865  0.848339  1
  S  S14  1  0.768135  0.231865  0.151661  1
  S  S15  1  0.231865  0.231865  0.651661  1
  S  S16  1  0.231865  0.768135  0.151661  1
  S  S17  1  0.231865  0.768135  0.848339  1
