# generated using pymatgen
data_Ce4Hg3Ru4Pb
_symmetry_space_group_name_H-M   'P 1'
_cell_length_a   6.38992282
_cell_length_b   6.38992279
_cell_length_c   9.84803178
_cell_angle_alpha   75.80473311
_cell_angle_beta   75.80473211
_cell_angle_gamma   45.17143657
_symmetry_Int_Tables_number   1
_chemical_formula_structural   Ce4Hg3Ru4Pb
_chemical_formula_sum   'Ce4 Hg3 Ru4 Pb1'
_cell_volume   274.93889968
_cell_formula_units_Z   1
loop_
 _symmetry_equiv_pos_site_id
 _symmetry_equiv_pos_as_xyz
  1  'x, y, z'
loop_
 _atom_site_type_symbol
 _atom_site_label
 _atom_site_symmetry_multiplicity
 _atom_site_fract_x
 _atom_site_fract_y
 _atom_site_fract_z
 _atom_site_occupancy
  Ce  Ce0  1  0.133065  0.133065  0.582945  1
  Ce  Ce1  1  0.866715  0.866715  0.418204  1
  Ce  Ce2  1  0.863436  0.863436  0.914134  1
  Ce  Ce3  1  0.134867  0.134867  0.083293  1
  Hg  Hg4  1  0.422424  0.422424  0.647102  1
  Hg  Hg5  1  0.574495  0.574495  0.845423  1
  Hg  Hg6  1  0.579283  0.579283  0.355048  1
  Ru  Ru7  1  0.806047  0.806047  0.159979  1
  Ru  Ru8  1  0.196372  0.196372  0.339838  1
  Ru  Ru9  1  0.198742  0.198742  0.842696  1
  Ru  Ru10  1  0.799439  0.799439  0.660017  1
  Pb  Pb11  1  0.425115  0.425115  0.151321  1
