# generated using pymatgen
data_Ir2Pt(RhS2)6
_symmetry_space_group_name_H-M   'P 1'
_cell_length_a   7.60421707
_cell_length_b   7.59836359
_cell_length_c   6.32675053
_cell_angle_alpha   77.19757642
_cell_angle_beta   77.03496380
_cell_angle_gamma   91.85452505
_symmetry_Int_Tables_number   1
_chemical_formula_structural   Ir2Pt(RhS2)6
_chemical_formula_sum   'Ir2 Pt1 Rh6 S12'
_cell_volume   346.08381699
_cell_formula_units_Z   1
loop_
 _symmetry_equiv_pos_site_id
 _symmetry_equiv_pos_as_xyz
  1  'x, y, z'
loop_
 _atom_site_type_symbol
 _atom_site_label
 _atom_site_symmetry_multiplicity
 _atom_site_fract_x
 _atom_site_fract_y
 _atom_site_fract_z
 _atom_site_occupancy
  Ir  Ir0  1  0.162868  0.838458  0.999143  1
  Ir  Ir1  1  0.838155  0.161293  0.000388  1
  Pt  Pt2  1  0.775928  0.490545  0.452262  1
  Rh  Rh3  1  0.001211  0.001274  0.499072  1
  Rh  Rh4  1  0.349029  0.349098  0.946243  1
  Rh  Rh5  1  0.649857  0.648462  0.055060  1
  Rh  Rh6  1  0.508806  0.219602  0.548797  1
  Rh  Rh7  1  0.219521  0.510371  0.549574  1
  Rh  Rh8  1  0.489309  0.780274  0.451535  1
  S  S9  1  0.857175  0.439319  0.094652  1
  S  S10  1  0.559848  0.141909  0.901087  1
  S  S11  1  0.145645  0.561274  0.898526  1
  S  S12  1  0.439489  0.855537  0.101441  1
  S  S13  1  0.115690  0.115744  0.108654  1
  S  S14  1  0.885238  0.884296  0.890241  1
  S  S15  1  0.035250  0.718159  0.386865  1
  S  S16  1  0.287293  0.969835  0.611297  1
  S  S17  1  0.971020  0.283318  0.613576  1
  S  S18  1  0.579200  0.585540  0.734070  1
  S  S19  1  0.413810  0.414777  0.270154  1
  S  S20  1  0.715657  0.030915  0.387363  1
