# generated using pymatgen
data_YbEuY2(Ga2Ag)4
_symmetry_space_group_name_H-M   'P 1'
_cell_length_a   4.39164700
_cell_length_b   7.03027681
_cell_length_c   10.43216615
_cell_angle_alpha   90.00116589
_cell_angle_beta   90.00000000
_cell_angle_gamma   90.00000000
_symmetry_Int_Tables_number   1
_chemical_formula_structural   YbEuY2(Ga2Ag)4
_chemical_formula_sum   'Yb1 Eu1 Y2 Ga8 Ag4'
_cell_volume   322.08785172
_cell_formula_units_Z   1
loop_
 _symmetry_equiv_pos_site_id
 _symmetry_equiv_pos_as_xyz
  1  'x, y, z'
loop_
 _atom_site_type_symbol
 _atom_site_label
 _atom_site_symmetry_multiplicity
 _atom_site_fract_x
 _atom_site_fract_y
 _atom_site_fract_z
 _atom_site_occupancy
  Yb  Yb0  1  0.250000  0.275927  0.671290  1
  Eu  Eu1  1  0.250000  0.778942  0.826008  1
  Y  Y2  1  0.750000  0.221018  0.171645  1
  Y  Y3  1  0.750000  0.720949  0.329416  1
  Ga  Ga4  1  0.250000  0.700898  0.532552  1
  Ga  Ga5  1  0.750000  0.298545  0.464162  1
  Ga  Ga6  1  0.750000  0.795036  0.038567  1
  Ga  Ga7  1  0.250000  0.204891  0.965485  1
  Ga  Ga8  1  0.250000  0.925792  0.155801  1
  Ga  Ga9  1  0.750000  0.077045  0.851077  1
  Ga  Ga10  1  0.750000  0.570675  0.647748  1
  Ga  Ga11  1  0.250000  0.425763  0.344048  1
  Ag  Ag12  1  0.250000  0.542374  0.099770  1
  Ag  Ag13  1  0.750000  0.455454  0.901613  1
  Ag  Ag14  1  0.750000  0.961486  0.597629  1
  Ag  Ag15  1  0.250000  0.045206  0.403186  1
