# generated using pymatgen
data_DyCd3(Ru2O7)2
_symmetry_space_group_name_H-M   'P 1'
_cell_length_a   7.28837146
_cell_length_b   7.28837111
_cell_length_c   7.28837101
_cell_angle_alpha   59.19680888
_cell_angle_beta   59.19680690
_cell_angle_gamma   59.19681013
_symmetry_Int_Tables_number   1
_chemical_formula_structural   DyCd3(Ru2O7)2
_chemical_formula_sum   'Dy1 Cd3 Ru4 O14'
_cell_volume   268.75419654
_cell_formula_units_Z   1
loop_
 _symmetry_equiv_pos_site_id
 _symmetry_equiv_pos_as_xyz
  1  'x, y, z'
loop_
 _atom_site_type_symbol
 _atom_site_label
 _atom_site_symmetry_multiplicity
 _atom_site_fract_x
 _atom_site_fract_y
 _atom_site_fract_z
 _atom_site_occupancy
  Dy  Dy0  1  0.125000  0.125000  0.125000  1
  Cd  Cd1  1  0.125000  0.625000  0.125000  1
  Cd  Cd2  1  0.125000  0.125000  0.625000  1
  Cd  Cd3  1  0.625000  0.125000  0.125000  1
  Ru  Ru4  1  0.625000  0.125000  0.625000  1
  Ru  Ru5  1  0.625000  0.625000  0.125000  1
  Ru  Ru6  1  0.125000  0.625000  0.625000  1
  Ru  Ru7  1  0.625000  0.625000  0.625000  1
  O  O8  1  0.693987  0.693987  0.303853  1
  O  O9  1  0.946147  0.556013  0.556013  1
  O  O10  1  0.542647  0.950407  0.950407  1
  O  O11  1  0.950407  0.950407  0.542647  1
  O  O12  1  0.950407  0.542647  0.950407  1
  O  O13  1  0.556013  0.946147  0.556013  1
  O  O14  1  0.299593  0.707353  0.299593  1
  O  O15  1  0.303853  0.693987  0.693987  1
  O  O16  1  0.707353  0.299593  0.299593  1
  O  O17  1  0.693987  0.303853  0.693987  1
  O  O18  1  0.556013  0.556013  0.946147  1
  O  O19  1  0.299593  0.299593  0.707353  1
  O  O20  1  0.250346  0.250346  0.250346  1
  O  O21  1  0.999654  0.999654  0.999654  1
