# generated using pymatgen
data_Tb3Tl2InAg2Pd
_symmetry_space_group_name_H-M   'P 1'
_cell_length_a   8.04637437
_cell_length_b   8.08331783
_cell_length_c   3.76946600
_cell_angle_alpha   90.00000000
_cell_angle_beta   90.00000000
_cell_angle_gamma   119.94319308
_symmetry_Int_Tables_number   1
_chemical_formula_structural   Tb3Tl2InAg2Pd
_chemical_formula_sum   'Tb3 Tl2 In1 Ag2 Pd1'
_cell_volume   212.44605376
_cell_formula_units_Z   1
loop_
 _symmetry_equiv_pos_site_id
 _symmetry_equiv_pos_as_xyz
  1  'x, y, z'
loop_
 _atom_site_type_symbol
 _atom_site_label
 _atom_site_symmetry_multiplicity
 _atom_site_fract_x
 _atom_site_fract_y
 _atom_site_fract_z
 _atom_site_occupancy
  Tb  Tb0  1  0.978931  0.589007  0.500000  1
  Tb  Tb1  1  0.409111  0.390233  0.500000  1
  Tb  Tb2  1  0.611676  0.020135  0.500000  1
  Tl  Tl3  1  0.721506  0.727332  0.000000  1
  Tl  Tl4  1  0.008498  0.279137  0.000000  1
  In  In5  1  0.271120  0.994739  0.000000  1
  Ag  Ag6  1  0.332203  0.672587  0.000000  1
  Ag  Ag7  1  0.006618  0.999256  0.500000  1
  Pd  Pd8  1  0.660338  0.327574  0.000000  1
