# generated using pymatgen
data_K5RbTa4(Ag3Te8)2
_symmetry_space_group_name_H-M   'P 1'
_cell_length_a   13.93541350
_cell_length_b   13.91774362
_cell_length_c   15.92041602
_cell_angle_alpha   61.31328387
_cell_angle_beta   61.28938994
_cell_angle_gamma   26.64039199
_symmetry_Int_Tables_number   1
_chemical_formula_structural   K5RbTa4(Ag3Te8)2
_chemical_formula_sum   'K5 Rb1 Ta4 Ag6 Te16'
_cell_volume   1204.19428194
_cell_formula_units_Z   1
loop_
 _symmetry_equiv_pos_site_id
 _symmetry_equiv_pos_as_xyz
  1  'x, y, z'
loop_
 _atom_site_type_symbol
 _atom_site_label
 _atom_site_symmetry_multiplicity
 _atom_site_fract_x
 _atom_site_fract_y
 _atom_site_fract_z
 _atom_site_occupancy
  K  K0  1  0.772496  0.620553  0.392041  1
  K  K1  1  0.379647  0.227324  0.107910  1
  K  K2  1  0.000069  0.000060  0.499963  1
  K  K3  1  0.620149  0.772705  0.892352  1
  K  K4  1  0.999877  0.999997  0.000061  1
  Rb  Rb5  1  0.233590  0.376849  0.607262  1
  Ta  Ta6  1  0.179089  0.568787  0.279677  1
  Ta  Ta7  1  0.568353  0.179689  0.781407  1
  Ta  Ta8  1  0.431771  0.820510  0.219299  1
  Ta  Ta9  1  0.819398  0.432040  0.719878  1
  Ag  Ag10  1  0.302524  0.697584  0.249992  1
  Ag  Ag11  1  0.068230  0.677316  0.786964  1
  Ag  Ag12  1  0.697676  0.302340  0.749880  1
  Ag  Ag13  1  0.677611  0.067838  0.286171  1
  Ag  Ag14  1  0.321640  0.932681  0.713571  1
  Ag  Ag15  1  0.932272  0.322504  0.213592  1
  Te  Te16  1  0.740436  0.690063  0.099970  1
  Te  Te17  1  0.579107  0.504627  0.350657  1
  Te  Te18  1  0.178902  0.013177  0.110393  1
  Te  Te19  1  0.420895  0.495307  0.649509  1
  Te  Te20  1  0.013404  0.178193  0.610518  1
  Te  Te21  1  0.083909  0.232193  0.821566  1
  Te  Te22  1  0.688468  0.741294  0.600256  1
  Te  Te23  1  0.494974  0.421337  0.148886  1
  Te  Te24  1  0.503756  0.579557  0.850918  1
  Te  Te25  1  0.310201  0.258895  0.397534  1
  Te  Te26  1  0.769678  0.912010  0.681320  1
  Te  Te27  1  0.821372  0.987016  0.890124  1
  Te  Te28  1  0.259579  0.309850  0.900192  1
  Te  Te29  1  0.985690  0.822803  0.388722  1
  Te  Te30  1  0.913211  0.767916  0.179662  1
  Te  Te31  1  0.232028  0.086984  0.319752  1
