# generated using pymatgen
data_Rb2CaTa6Cl18
_symmetry_space_group_name_H-M   'P 1'
_cell_length_a   10.33482811
_cell_length_b   10.33482775
_cell_length_c   10.33482689
_cell_angle_alpha   55.04267218
_cell_angle_beta   55.04267392
_cell_angle_gamma   55.04267545
_symmetry_Int_Tables_number   1
_chemical_formula_structural   Rb2CaTa6Cl18
_chemical_formula_sum   'Rb2 Ca1 Ta6 Cl18'
_cell_volume   690.52594016
_cell_formula_units_Z   1
loop_
 _symmetry_equiv_pos_site_id
 _symmetry_equiv_pos_as_xyz
  1  'x, y, z'
loop_
 _atom_site_type_symbol
 _atom_site_label
 _atom_site_symmetry_multiplicity
 _atom_site_fract_x
 _atom_site_fract_y
 _atom_site_fract_z
 _atom_site_occupancy
  Rb  Rb0  1  0.276584  0.276584  0.276584  1
  Rb  Rb1  1  0.723416  0.723416  0.723416  1
  Ca  Ca2  1  0.000000  0.000000  0.000000  1
  Ta  Ta3  1  0.417810  0.300828  0.646451  1
  Ta  Ta4  1  0.353549  0.582190  0.699172  1
  Ta  Ta5  1  0.699172  0.353549  0.582190  1
  Ta  Ta6  1  0.646451  0.417810  0.300828  1
  Ta  Ta7  1  0.582190  0.699172  0.353549  1
  Ta  Ta8  1  0.300828  0.646451  0.417810  1
  Cl  Cl9  1  0.640474  0.088593  0.770544  1
  Cl  Cl10  1  0.770544  0.640474  0.088593  1
  Cl  Cl11  1  0.088593  0.770544  0.640474  1
  Cl  Cl12  1  0.829654  0.313845  0.042593  1
  Cl  Cl13  1  0.164665  0.436095  0.576401  1
  Cl  Cl14  1  0.686155  0.957407  0.170346  1
  Cl  Cl15  1  0.911407  0.229456  0.359526  1
  Cl  Cl16  1  0.563905  0.423599  0.835335  1
  Cl  Cl17  1  0.423599  0.835335  0.563905  1
  Cl  Cl18  1  0.957407  0.170346  0.686155  1
  Cl  Cl19  1  0.170346  0.686155  0.957407  1
  Cl  Cl20  1  0.042593  0.829654  0.313845  1
  Cl  Cl21  1  0.313845  0.042593  0.829654  1
  Cl  Cl22  1  0.229456  0.359526  0.911407  1
  Cl  Cl23  1  0.576401  0.164665  0.436095  1
  Cl  Cl24  1  0.436095  0.576401  0.164665  1
  Cl  Cl25  1  0.359526  0.911407  0.229456  1
  Cl  Cl26  1  0.835335  0.563905  0.423599  1
