# generated using pymatgen
data_Ti8Al14GeIr5Rh2
_symmetry_space_group_name_H-M   'P 1'
_cell_length_a   8.64746258
_cell_length_b   8.64746439
_cell_length_c   8.64746352
_cell_angle_alpha   119.97425859
_cell_angle_beta   119.74981408
_cell_angle_gamma   90.23923212
_symmetry_Int_Tables_number   1
_chemical_formula_structural   Ti8Al14GeIr5Rh2
_chemical_formula_sum   'Ti8 Al14 Ge1 Ir5 Rh2'
_cell_volume   458.19437907
_cell_formula_units_Z   1
loop_
 _symmetry_equiv_pos_site_id
 _symmetry_equiv_pos_as_xyz
  1  'x, y, z'
loop_
 _atom_site_type_symbol
 _atom_site_label
 _atom_site_symmetry_multiplicity
 _atom_site_fract_x
 _atom_site_fract_y
 _atom_site_fract_z
 _atom_site_occupancy
  Ti  Ti0  1  0.794565  0.294841  0.081742  1
  Ti  Ti1  1  0.213099  0.294841  0.500276  1
  Ti  Ti2  1  0.205197  0.705197  0.500000  1
  Ti  Ti3  1  0.213099  0.712823  0.918258  1
  Ti  Ti4  1  0.794565  0.712823  0.499724  1
  Ti  Ti5  1  0.787954  0.287954  0.500000  1
  Ti  Ti6  1  0.379065  0.122325  0.743260  1
  Ti  Ti7  1  0.379065  0.635804  0.256740  1
  Al  Al8  1  0.155866  0.338653  0.182787  1
  Al  Al9  1  0.155866  0.973079  0.817213  1
  Al  Al10  1  0.153162  0.343543  0.809618  1
  Al  Al11  1  0.533924  0.343543  0.190382  1
  Al  Al12  1  0.843147  0.657570  0.814424  1
  Al  Al13  1  0.843147  0.028721  0.185576  1
  Al  Al14  1  0.840390  0.657864  0.182526  1
  Al  Al15  1  0.475336  0.657864  0.817474  1
  Al  Al16  1  0.380520  0.120530  0.259990  1
  Al  Al17  1  0.860541  0.120530  0.740010  1
  Al  Al18  1  0.620614  0.878695  0.258080  1
  Al  Al19  1  0.620614  0.362533  0.741920  1
  Al  Al20  1  0.620121  0.878898  0.741224  1
  Al  Al21  1  0.137674  0.878898  0.258776  1
  Ge  Ge22  1  0.996928  0.496928  0.500000  1
  Ir  Ir23  1  0.001385  0.000029  0.501735  1
  Ir  Ir24  1  0.498294  0.000029  0.998645  1
  Ir  Ir25  1  0.497621  0.497621  0.000000  1
  Ir  Ir26  1  0.498294  0.499650  0.498265  1
  Ir  Ir27  1  0.001385  0.499650  0.001355  1
  Rh  Rh28  1  0.999449  0.999449  0.000000  1
  Rh  Rh29  1  0.499113  0.999113  0.500000  1
