# generated using pymatgen
data_Tm9Sc(InBi)4
_symmetry_space_group_name_H-M   'P 1'
_cell_length_a   8.94475547
_cell_length_b   8.94475606
_cell_length_c   8.17019300
_cell_angle_alpha   89.98135995
_cell_angle_beta   89.98135995
_cell_angle_gamma   125.78535172
_symmetry_Int_Tables_number   1
_chemical_formula_structural   Tm9Sc(InBi)4
_chemical_formula_sum   'Tm9 Sc1 In4 Bi4'
_cell_volume   530.27879909
_cell_formula_units_Z   1
loop_
 _symmetry_equiv_pos_site_id
 _symmetry_equiv_pos_as_xyz
  1  'x, y, z'
loop_
 _atom_site_type_symbol
 _atom_site_label
 _atom_site_symmetry_multiplicity
 _atom_site_fract_x
 _atom_site_fract_y
 _atom_site_fract_z
 _atom_site_occupancy
  Tm  Tm0  1  0.535606  0.797953  0.168096  1
  Tm  Tm1  1  0.300621  0.036065  0.333714  1
  Tm  Tm2  1  0.202047  0.464394  0.831904  1
  Tm  Tm3  1  0.963935  0.699379  0.666286  1
  Tm  Tm4  1  0.699379  0.963935  0.666286  1
  Tm  Tm5  1  0.464394  0.202047  0.831904  1
  Tm  Tm6  1  0.797953  0.535606  0.168096  1
  Tm  Tm7  1  0.036065  0.300621  0.333714  1
  Tm  Tm8  1  0.000000  0.000000  0.000000  1
  Sc  Sc9  1  0.500000  0.500000  0.500000  1
  In  In10  1  0.630232  0.630232  0.864805  1
  In  In11  1  0.134794  0.134794  0.628983  1
  In  In12  1  0.865206  0.865206  0.371017  1
  In  In13  1  0.369768  0.369768  0.135195  1
  Bi  Bi14  1  0.295938  0.704062  0.500000  1
  Bi  Bi15  1  0.206233  0.793767  0.000000  1
  Bi  Bi16  1  0.704062  0.295938  0.500000  1
  Bi  Bi17  1  0.793767  0.206233  0.000000  1
