# generated using pymatgen
data_Ho8Be(Si5Mo4)3
_symmetry_space_group_name_H-M   'P 1'
_cell_length_a   6.73316502
_cell_length_b   6.92089377
_cell_length_c   12.88765300
_cell_angle_alpha   90.00000000
_cell_angle_beta   90.00000000
_cell_angle_gamma   89.86620035
_symmetry_Int_Tables_number   1
_chemical_formula_structural   Ho8Be(Si5Mo4)3
_chemical_formula_sum   'Ho8 Be1 Si15 Mo12'
_cell_volume   600.55680389
_cell_formula_units_Z   1
loop_
 _symmetry_equiv_pos_site_id
 _symmetry_equiv_pos_as_xyz
  1  'x, y, z'
loop_
 _atom_site_type_symbol
 _atom_site_label
 _atom_site_symmetry_multiplicity
 _atom_site_fract_x
 _atom_site_fract_y
 _atom_site_fract_z
 _atom_site_occupancy
  Ho  Ho0  1  0.996835  0.166951  0.093278  1
  Ho  Ho1  1  0.000921  0.834057  0.904596  1
  Ho  Ho2  1  0.499888  0.669970  0.903955  1
  Ho  Ho3  1  0.000921  0.834057  0.595404  1
  Ho  Ho4  1  0.496030  0.333223  0.093161  1
  Ho  Ho5  1  0.996835  0.166951  0.406722  1
  Ho  Ho6  1  0.496030  0.333223  0.406839  1
  Ho  Ho7  1  0.499888  0.669970  0.596045  1
  Be  Be8  1  0.041485  0.135028  0.750000  1
  Si  Si9  1  0.964880  0.866590  0.250000  1
  Si  Si10  1  0.465052  0.633843  0.250000  1
  Si  Si11  1  0.536846  0.366439  0.750000  1
  Si  Si12  1  0.296873  0.881617  0.750000  1
  Si  Si13  1  0.695887  0.130628  0.250000  1
  Si  Si14  1  0.196599  0.368903  0.250000  1
  Si  Si15  1  0.804181  0.626949  0.750000  1
  Si  Si16  1  0.160259  0.456674  0.546877  1
  Si  Si17  1  0.839440  0.540670  0.454656  1
  Si  Si18  1  0.339826  0.957915  0.453535  1
  Si  Si19  1  0.839440  0.540670  0.045344  1
  Si  Si20  1  0.660663  0.043078  0.546207  1
  Si  Si21  1  0.160259  0.456674  0.953123  1
  Si  Si22  1  0.660663  0.043078  0.953793  1
  Si  Si23  1  0.339826  0.957915  0.046465  1
  Mo  Mo24  1  0.166455  0.493863  0.750000  1
  Mo  Mo25  1  0.833412  0.498560  0.250000  1
  Mo  Mo26  1  0.333419  0.001199  0.250000  1
  Mo  Mo27  1  0.668337  0.003122  0.750000  1
  Mo  Mo28  1  0.330525  0.166557  0.625723  1
  Mo  Mo29  1  0.669900  0.835229  0.375079  1
  Mo  Mo30  1  0.168565  0.664182  0.374940  1
  Mo  Mo31  1  0.669900  0.835229  0.124921  1
  Mo  Mo32  1  0.835432  0.328124  0.627526  1
  Mo  Mo33  1  0.330525  0.166557  0.874277  1
  Mo  Mo34  1  0.835432  0.328124  0.872474  1
  Mo  Mo35  1  0.168565  0.664182  0.125060  1
