# generated using pymatgen
data_Ti2Tc6GeW3
_symmetry_space_group_name_H-M   'P 1'
_cell_length_a   4.38754300
_cell_length_b   6.22978400
_cell_length_c   13.23737800
_cell_angle_alpha   90.00000000
_cell_angle_beta   90.00189254
_cell_angle_gamma   90.00000000
_symmetry_Int_Tables_number   1
_chemical_formula_structural   Ti2Tc6GeW3
_chemical_formula_sum   'Ti4 Tc12 Ge2 W6'
_cell_volume   361.82314580
_cell_formula_units_Z   2
loop_
 _symmetry_equiv_pos_site_id
 _symmetry_equiv_pos_as_xyz
  1  'x, y, z'
loop_
 _atom_site_type_symbol
 _atom_site_label
 _atom_site_symmetry_multiplicity
 _atom_site_fract_x
 _atom_site_fract_y
 _atom_site_fract_z
 _atom_site_occupancy
  Ti  Ti0  1  0.999889  0.000000  0.332950  1
  Ti  Ti1  1  0.500000  0.500000  0.499434  1
  Ti  Ti2  1  0.000105  0.000000  0.667238  1
  Ti  Ti3  1  0.500115  0.500000  0.833717  1
  Tc  Tc4  1  0.500009  0.250998  0.999242  1
  Tc  Tc5  1  0.500009  0.749002  0.999242  1
  Tc  Tc6  1  0.999884  0.249002  0.167422  1
  Tc  Tc7  1  0.999884  0.750998  0.167422  1
  Tc  Tc8  1  0.499904  0.249480  0.333445  1
  Tc  Tc9  1  0.499904  0.750520  0.333445  1
  Tc  Tc10  1  0.000000  0.248980  0.499685  1
  Tc  Tc11  1  0.000000  0.751020  0.499685  1
  Tc  Tc12  1  0.500092  0.251010  0.666985  1
  Tc  Tc13  1  0.500092  0.748990  0.666985  1
  Tc  Tc14  1  0.000108  0.250520  0.833218  1
  Tc  Tc15  1  0.000108  0.749480  0.833218  1
  Ge  Ge16  1  0.000002  0.000000  0.000362  1
  Ge  Ge17  1  0.499869  0.500000  0.166304  1
  W  W18  1  0.000039  0.500000  0.001316  1
  W  W19  1  0.499863  0.000000  0.165357  1
  W  W20  1  0.999904  0.500000  0.331924  1
  W  W21  1  0.500000  0.000000  0.500081  1
  W  W22  1  0.000089  0.500000  0.666589  1
  W  W23  1  0.500126  0.000000  0.834737  1
