# generated using pymatgen
data_TbNd4Y3(ReB6)4
_symmetry_space_group_name_H-M   'P 1'
_cell_length_a   3.73516300
_cell_length_b   9.26861900
_cell_length_c   11.72200300
_cell_angle_alpha   90.00093575
_cell_angle_beta   90.00000000
_cell_angle_gamma   90.00000000
_symmetry_Int_Tables_number   1
_chemical_formula_structural   TbNd4Y3(ReB6)4
_chemical_formula_sum   'Tb1 Nd4 Y3 Re4 B24'
_cell_volume   405.81343179
_cell_formula_units_Z   1
loop_
 _symmetry_equiv_pos_site_id
 _symmetry_equiv_pos_as_xyz
  1  'x, y, z'
loop_
 _atom_site_type_symbol
 _atom_site_label
 _atom_site_symmetry_multiplicity
 _atom_site_fract_x
 _atom_site_fract_y
 _atom_site_fract_z
 _atom_site_occupancy
  Tb  Tb0  1  0.000000  0.442562  0.130415  1
  Nd  Nd1  1  0.000000  0.822703  0.085964  1
  Nd  Nd2  1  0.000000  0.177173  0.914024  1
  Nd  Nd3  1  0.000000  0.322791  0.414094  1
  Nd  Nd4  1  0.000000  0.677262  0.585960  1
  Y  Y5  1  0.000000  0.557473  0.869374  1
  Y  Y6  1  0.000000  0.942606  0.369705  1
  Y  Y7  1  0.000000  0.057424  0.630381  1
  Re  Re8  1  0.000000  0.138684  0.180363  1
  Re  Re9  1  0.000000  0.861182  0.819601  1
  Re  Re10  1  0.000000  0.639029  0.319777  1
  Re  Re11  1  0.000000  0.361107  0.680249  1
  B  B12  1  0.500000  0.054341  0.069291  1
  B  B13  1  0.500000  0.945351  0.930673  1
  B  B14  1  0.500000  0.554681  0.430837  1
  B  B15  1  0.500000  0.445411  0.569282  1
  B  B16  1  0.500000  0.248282  0.083992  1
  B  B17  1  0.500000  0.751226  0.916087  1
  B  B18  1  0.500000  0.748885  0.416254  1
  B  B19  1  0.500000  0.251222  0.583854  1
  B  B20  1  0.500000  0.290261  0.233667  1
  B  B21  1  0.500000  0.709436  0.766262  1
  B  B22  1  0.500000  0.790796  0.266408  1
  B  B23  1  0.500000  0.209378  0.733672  1
  B  B24  1  0.500000  0.129478  0.313308  1
  B  B25  1  0.500000  0.870429  0.686779  1
  B  B26  1  0.500000  0.629853  0.187071  1
  B  B27  1  0.500000  0.370379  0.813173  1
  B  B28  1  0.500000  0.484083  0.287367  1
  B  B29  1  0.500000  0.516224  0.712724  1
  B  B30  1  0.500000  0.983597  0.212856  1
  B  B31  1  0.500000  0.016283  0.787210  1
  B  B32  1  0.500000  0.097060  0.472914  1
  B  B33  1  0.500000  0.902990  0.527145  1
  B  B34  1  0.500000  0.597350  0.026774  1
  B  B35  1  0.500000  0.403012  0.972491  1
