# generated using pymatgen
data_Ho5Ga2Te
_symmetry_space_group_name_H-M   'P 1'
_cell_length_a   8.67154609
_cell_length_b   8.67167552
_cell_length_c   6.43434000
_cell_angle_alpha   90.00000000
_cell_angle_beta   90.00000000
_cell_angle_gamma   120.00049862
_symmetry_Int_Tables_number   1
_chemical_formula_structural   Ho5Ga2Te
_chemical_formula_sum   'Ho10 Ga4 Te2'
_cell_volume   419.01735516
_cell_formula_units_Z   2
loop_
 _symmetry_equiv_pos_site_id
 _symmetry_equiv_pos_as_xyz
  1  'x, y, z'
loop_
 _atom_site_type_symbol
 _atom_site_label
 _atom_site_symmetry_multiplicity
 _atom_site_fract_x
 _atom_site_fract_y
 _atom_site_fract_z
 _atom_site_occupancy
  Ho  Ho0  1  0.986309  0.751639  0.750000  1
  Ho  Ho1  1  0.986309  0.234670  0.250000  1
  Ho  Ho2  1  0.767439  0.766018  0.250000  1
  Ho  Ho3  1  0.767439  0.001420  0.750000  1
  Ho  Ho4  1  0.233542  0.250002  0.750000  1
  Ho  Ho5  1  0.233542  0.983540  0.250000  1
  Ho  Ho6  1  0.330096  0.665048  0.500000  1
  Ho  Ho7  1  0.686212  0.343106  0.000000  1
  Ho  Ho8  1  0.686212  0.343106  0.500000  1
  Ho  Ho9  1  0.330096  0.665048  0.000000  1
  Ga  Ga10  1  0.003584  0.602890  0.250000  1
  Ga  Ga11  1  0.003584  0.400695  0.750000  1
  Ga  Ga12  1  0.600374  0.603926  0.750000  1
  Ga  Ga13  1  0.600374  0.996448  0.250000  1
  Te  Te14  1  0.392445  0.004612  0.750000  1
  Te  Te15  1  0.392445  0.387833  0.250000  1
