# generated using pymatgen
data_CsSc(SeO4)2
_symmetry_space_group_name_H-M   'P 1'
_cell_length_a   5.31708300
_cell_length_b   5.31708279
_cell_length_c   9.27857800
_cell_angle_alpha   90.00000000
_cell_angle_beta   90.00000000
_cell_angle_gamma   119.99999508
_symmetry_Int_Tables_number   1
_chemical_formula_structural   CsSc(SeO4)2
_chemical_formula_sum   'Cs1 Sc1 Se2 O8'
_cell_volume   227.17416407
_cell_formula_units_Z   1
loop_
 _symmetry_equiv_pos_site_id
 _symmetry_equiv_pos_as_xyz
  1  'x, y, z'
loop_
 _atom_site_type_symbol
 _atom_site_label
 _atom_site_symmetry_multiplicity
 _atom_site_fract_x
 _atom_site_fract_y
 _atom_site_fract_z
 _atom_site_occupancy
  Cs  Cs0  1  0.000000  0.000000  0.500000  1
  Sc  Sc1  1  0.000000  0.000000  0.000000  1
  Se  Se2  1  0.333333  0.666667  0.196526  1
  Se  Se3  1  0.666666  0.333333  0.803473  1
  O  O4  1  0.066477  0.345466  0.136123  1
  O  O5  1  0.654534  0.721012  0.136123  1
  O  O6  1  0.278989  0.933524  0.136123  1
  O  O7  1  0.333333  0.666667  0.374052  1
  O  O8  1  0.666666  0.333333  0.625948  1
  O  O9  1  0.721012  0.066477  0.863876  1
  O  O10  1  0.345465  0.278988  0.863876  1
  O  O11  1  0.933523  0.654535  0.863876  1
