# generated using pymatgen
data_NdDyIr5Rh
_symmetry_space_group_name_H-M   'P 1'
_cell_length_a   5.35217400
_cell_length_b   5.35215022
_cell_length_c   17.53713900
_cell_angle_alpha   89.99969664
_cell_angle_beta   90.00027639
_cell_angle_gamma   119.99980840
_symmetry_Int_Tables_number   1
_chemical_formula_structural   NdDyIr5Rh
_chemical_formula_sum   'Nd3 Dy3 Ir15 Rh3'
_cell_volume   435.05957608
_cell_formula_units_Z   3
loop_
 _symmetry_equiv_pos_site_id
 _symmetry_equiv_pos_as_xyz
  1  'x, y, z'
loop_
 _atom_site_type_symbol
 _atom_site_label
 _atom_site_symmetry_multiplicity
 _atom_site_fract_x
 _atom_site_fract_y
 _atom_site_fract_z
 _atom_site_occupancy
  Nd  Nd0  1  0.333333  0.666668  0.960301  1
  Nd  Nd1  1  0.333337  0.666674  0.749318  1
  Nd  Nd2  1  0.666668  0.333327  0.250256  1
  Dy  Dy3  1  0.333332  0.666667  0.540721  1
  Dy  Dy4  1  0.666668  0.333334  0.042057  1
  Dy  Dy5  1  0.666667  0.333334  0.459248  1
  Ir  Ir6  1  0.167069  0.334131  0.126774  1
  Ir  Ir7  1  0.832368  0.664738  0.624827  1
  Ir  Ir8  1  0.665871  0.832936  0.126776  1
  Ir  Ir9  1  0.167067  0.832935  0.126772  1
  Ir  Ir10  1  0.832368  0.167639  0.624821  1
  Ir  Ir11  1  0.335265  0.167638  0.624826  1
  Ir  Ir12  1  0.832704  0.665413  0.873211  1
  Ir  Ir13  1  0.832705  0.167298  0.873217  1
  Ir  Ir14  1  0.334586  0.167299  0.873212  1
  Ir  Ir15  1  0.664835  0.832414  0.374533  1
  Ir  Ir16  1  0.167587  0.832414  0.374539  1
  Ir  Ir17  1  0.167587  0.335165  0.374535  1
  Ir  Ir18  1  0.000016  0.999988  0.250866  1
  Ir  Ir19  1  0.000001  0.999997  0.000152  1
  Ir  Ir20  1  0.999997  0.000004  0.499974  1
  Rh  Rh21  1  0.999989  0.000022  0.749275  1
  Rh  Rh22  1  0.333331  0.666672  0.250369  1
  Rh  Rh23  1  0.666654  0.333294  0.749420  1
