# generated using pymatgen
data_Yb3InHg2Au3
_symmetry_space_group_name_H-M   'P 1'
_cell_length_a   8.03791923
_cell_length_b   8.03792029
_cell_length_c   3.83746900
_cell_angle_alpha   90.00000000
_cell_angle_beta   90.00000000
_cell_angle_gamma   120.53078063
_symmetry_Int_Tables_number   1
_chemical_formula_structural   Yb3InHg2Au3
_chemical_formula_sum   'Yb3 In1 Hg2 Au3'
_cell_volume   213.55762618
_cell_formula_units_Z   1
loop_
 _symmetry_equiv_pos_site_id
 _symmetry_equiv_pos_as_xyz
  1  'x, y, z'
loop_
 _atom_site_type_symbol
 _atom_site_label
 _atom_site_symmetry_multiplicity
 _atom_site_fract_x
 _atom_site_fract_y
 _atom_site_fract_z
 _atom_site_occupancy
  Yb  Yb0  1  0.010236  0.605026  0.500000  1
  Yb  Yb1  1  0.605026  0.010236  0.500000  1
  Yb  Yb2  1  0.377936  0.377936  0.500000  1
  In  In3  1  0.729805  0.729805  0.000000  1
  Hg  Hg4  1  0.994869  0.275721  0.000000  1
  Hg  Hg5  1  0.275721  0.994869  0.000000  1
  Au  Au6  1  0.990220  0.990220  0.500000  1
  Au  Au7  1  0.668034  0.348154  0.000000  1
  Au  Au8  1  0.348154  0.668034  0.000000  1
