# generated using pymatgen
data_Na2Se2O5
_symmetry_space_group_name_H-M   'P 1'
_cell_length_a   14.08897900
_cell_length_b   5.26640762
_cell_length_c   7.16681653
_cell_angle_alpha   85.77097610
_cell_angle_beta   90.00000000
_cell_angle_gamma   90.00000000
_symmetry_Int_Tables_number   1
_chemical_formula_structural   Na2Se2O5
_chemical_formula_sum   'Na8 Se8 O20'
_cell_volume   530.31778341
_cell_formula_units_Z   4
loop_
 _symmetry_equiv_pos_site_id
 _symmetry_equiv_pos_as_xyz
  1  'x, y, z'
loop_
 _atom_site_type_symbol
 _atom_site_label
 _atom_site_symmetry_multiplicity
 _atom_site_fract_x
 _atom_site_fract_y
 _atom_site_fract_z
 _atom_site_occupancy
  Na  Na0  1  0.429140  0.277333  0.633792  1
  Na  Na1  1  0.929140  0.222667  0.366208  1
  Na  Na2  1  0.570860  0.722667  0.366208  1
  Na  Na3  1  0.070860  0.777333  0.633792  1
  Na  Na4  1  0.318951  0.754051  0.893476  1
  Na  Na5  1  0.818951  0.745949  0.106524  1
  Na  Na6  1  0.681049  0.245949  0.106524  1
  Na  Na7  1  0.181049  0.254051  0.893476  1
  Se  Se8  1  0.319131  0.809360  0.444799  1
  Se  Se9  1  0.819131  0.690640  0.555201  1
  Se  Se10  1  0.680869  0.190640  0.555201  1
  Se  Se11  1  0.180869  0.309360  0.444799  1
  Se  Se12  1  0.428096  0.256439  0.123535  1
  Se  Se13  1  0.928096  0.243561  0.876465  1
  Se  Se14  1  0.571904  0.743561  0.876465  1
  Se  Se15  1  0.071904  0.756439  0.123535  1
  O  O16  1  0.349127  0.207244  0.947182  1
  O  O17  1  0.849127  0.292756  0.052818  1
  O  O18  1  0.650873  0.792756  0.052818  1
  O  O19  1  0.150873  0.707244  0.947182  1
  O  O20  1  0.361388  0.163717  0.332610  1
  O  O21  1  0.861388  0.336283  0.667390  1
  O  O22  1  0.638612  0.836283  0.667390  1
  O  O23  1  0.138612  0.663717  0.332610  1
  O  O24  1  0.424275  0.577868  0.142855  1
  O  O25  1  0.924275  0.922132  0.857145  1
  O  O26  1  0.575725  0.422132  0.857145  1
  O  O27  1  0.075725  0.077868  0.142855  1
  O  O28  1  0.252905  0.476885  0.591094  1
  O  O29  1  0.752905  0.023115  0.408906  1
  O  O30  1  0.747095  0.523115  0.408906  1
  O  O31  1  0.247095  0.976885  0.591094  1
  O  O32  1  0.083795  0.257556  0.581930  1
  O  O33  1  0.583795  0.242444  0.418070  1
  O  O34  1  0.916205  0.742444  0.418070  1
  O  O35  1  0.416205  0.757556  0.581930  1
