# generated using pymatgen
data_LiLa2Be2(AsPd5)4
_symmetry_space_group_name_H-M   'P 1'
_cell_length_a   8.72081789
_cell_length_b   8.72583998
_cell_length_c   8.86303027
_cell_angle_alpha   59.43775641
_cell_angle_beta   59.49271171
_cell_angle_gamma   61.05713501
_symmetry_Int_Tables_number   1
_chemical_formula_structural   LiLa2Be2(AsPd5)4
_chemical_formula_sum   'Li1 La2 Be2 As4 Pd20'
_cell_volume   476.61180330
_cell_formula_units_Z   1
loop_
 _symmetry_equiv_pos_site_id
 _symmetry_equiv_pos_as_xyz
  1  'x, y, z'
loop_
 _atom_site_type_symbol
 _atom_site_label
 _atom_site_symmetry_multiplicity
 _atom_site_fract_x
 _atom_site_fract_y
 _atom_site_fract_z
 _atom_site_occupancy
  Li  Li0  1  0.000000  0.000000  0.000000  1
  La  La1  1  0.249992  0.249990  0.250011  1
  La  La2  1  0.750008  0.750010  0.749989  1
  Be  Be3  1  0.267239  0.267238  0.732774  1
  Be  Be4  1  0.732761  0.732762  0.267226  1
  As  As5  1  0.736580  0.263358  0.263447  1
  As  As6  1  0.263420  0.736642  0.736553  1
  As  As7  1  0.263645  0.736301  0.263711  1
  As  As8  1  0.736355  0.263699  0.736289  1
  Pd  Pd9  1  0.380444  0.380412  0.393648  1
  Pd  Pd10  1  0.619556  0.619588  0.606352  1
  Pd  Pd11  1  0.380415  0.380447  0.845513  1
  Pd  Pd12  1  0.393619  0.845443  0.380456  1
  Pd  Pd13  1  0.619585  0.619553  0.154487  1
  Pd  Pd14  1  0.606381  0.154557  0.619544  1
  Pd  Pd15  1  0.845443  0.393617  0.380430  1
  Pd  Pd16  1  0.154557  0.606383  0.619570  1
  Pd  Pd17  1  0.343583  0.012393  0.987619  1
  Pd  Pd18  1  0.656417  0.987607  0.012381  1
  Pd  Pd19  1  0.012433  0.343586  0.656376  1
  Pd  Pd20  1  0.987567  0.656414  0.343624  1
  Pd  Pd21  1  0.012624  0.343582  0.987394  1
  Pd  Pd22  1  0.656405  0.987345  0.343628  1
  Pd  Pd23  1  0.987376  0.656418  0.012606  1
  Pd  Pd24  1  0.343595  0.012655  0.656372  1
  Pd  Pd25  1  0.000231  0.999769  0.345276  1
  Pd  Pd26  1  0.999769  0.000231  0.654724  1
  Pd  Pd27  1  0.654711  0.345288  0.999772  1
  Pd  Pd28  1  0.345289  0.654712  0.000228  1
