# generated using pymatgen
data_Y2Th(Ni3P2)3
_symmetry_space_group_name_H-M   'P 1'
_cell_length_a   3.81283000
_cell_length_b   10.53603800
_cell_length_c   12.36066400
_cell_angle_alpha   90.00000000
_cell_angle_beta   90.00000000
_cell_angle_gamma   90.00000000
_symmetry_Int_Tables_number   1
_chemical_formula_structural   Y2Th(Ni3P2)3
_chemical_formula_sum   'Y4 Th2 Ni18 P12'
_cell_volume   496.55409934
_cell_formula_units_Z   2
loop_
 _symmetry_equiv_pos_site_id
 _symmetry_equiv_pos_as_xyz
  1  'x, y, z'
loop_
 _atom_site_type_symbol
 _atom_site_label
 _atom_site_symmetry_multiplicity
 _atom_site_fract_x
 _atom_site_fract_y
 _atom_site_fract_z
 _atom_site_occupancy
  Y  Y0  1  0.500000  0.815144  0.204131  1
  Y  Y1  1  0.500000  0.184856  0.204131  1
  Y  Y2  1  0.000000  0.684856  0.795869  1
  Y  Y3  1  0.000000  0.315144  0.795869  1
  Th  Th4  1  0.000000  0.500000  0.521804  1
  Th  Th5  1  0.500000  0.000000  0.478196  1
  Ni  Ni6  1  0.500000  0.500000  0.154246  1
  Ni  Ni7  1  0.000000  0.000000  0.845754  1
  Ni  Ni8  1  0.500000  0.500000  0.699359  1
  Ni  Ni9  1  0.000000  0.000000  0.300641  1
  Ni  Ni10  1  0.000000  0.500000  0.983269  1
  Ni  Ni11  1  0.500000  0.000000  0.016731  1
  Ni  Ni12  1  0.500000  0.333053  0.994813  1
  Ni  Ni13  1  0.500000  0.666947  0.994813  1
  Ni  Ni14  1  0.000000  0.166947  0.005187  1
  Ni  Ni15  1  0.000000  0.833053  0.005187  1
  Ni  Ni16  1  0.500000  0.302554  0.426862  1
  Ni  Ni17  1  0.500000  0.697446  0.426862  1
  Ni  Ni18  1  0.000000  0.197446  0.573138  1
  Ni  Ni19  1  0.000000  0.802554  0.573138  1
  Ni  Ni20  1  0.500000  0.879727  0.714667  1
  Ni  Ni21  1  0.500000  0.120273  0.714667  1
  Ni  Ni22  1  0.000000  0.620273  0.285333  1
  Ni  Ni23  1  0.000000  0.379727  0.285333  1
  P  P24  1  0.500000  0.500000  0.876517  1
  P  P25  1  0.000000  0.000000  0.123483  1
  P  P26  1  0.500000  0.500000  0.336610  1
  P  P27  1  0.000000  0.000000  0.663390  1
  P  P28  1  0.500000  0.308036  0.616010  1
  P  P29  1  0.500000  0.691964  0.616010  1
  P  P30  1  0.000000  0.191964  0.383990  1
  P  P31  1  0.000000  0.808036  0.383990  1
  P  P32  1  0.500000  0.847839  0.895046  1
  P  P33  1  0.500000  0.152161  0.895046  1
  P  P34  1  0.000000  0.652161  0.104954  1
  P  P35  1  0.000000  0.347839  0.104954  1
