# generated using pymatgen
data_Dy6Tm4Cd3Ru
_symmetry_space_group_name_H-M   'P 1'
_cell_length_a   9.54014000
_cell_length_b   9.54014035
_cell_length_c   9.80433400
_cell_angle_alpha   90.00000000
_cell_angle_beta   90.00000000
_cell_angle_gamma   119.99999879
_symmetry_Int_Tables_number   1
_chemical_formula_structural   Dy6Tm4Cd3Ru
_chemical_formula_sum   'Dy12 Tm8 Cd6 Ru2'
_cell_volume   772.78422224
_cell_formula_units_Z   2
loop_
 _symmetry_equiv_pos_site_id
 _symmetry_equiv_pos_as_xyz
  1  'x, y, z'
loop_
 _atom_site_type_symbol
 _atom_site_label
 _atom_site_symmetry_multiplicity
 _atom_site_fract_x
 _atom_site_fract_y
 _atom_site_fract_z
 _atom_site_occupancy
  Dy  Dy0  1  0.209585  0.790415  0.439993  1
  Dy  Dy1  1  0.209585  0.419170  0.439993  1
  Dy  Dy2  1  0.580830  0.790415  0.439993  1
  Dy  Dy3  1  0.790415  0.209585  0.560007  1
  Dy  Dy4  1  0.790415  0.580830  0.560007  1
  Dy  Dy5  1  0.419170  0.209585  0.560007  1
  Dy  Dy6  1  0.540567  0.459433  0.248086  1
  Dy  Dy7  1  0.540567  0.081133  0.248086  1
  Dy  Dy8  1  0.918867  0.459433  0.248086  1
  Dy  Dy9  1  0.459433  0.540567  0.751914  1
  Dy  Dy10  1  0.459433  0.918867  0.751914  1
  Dy  Dy11  1  0.081133  0.540567  0.751914  1
  Tm  Tm12  1  0.000000  0.000000  0.500000  1
  Tm  Tm13  1  0.000000  0.000000  0.000000  1
  Tm  Tm14  1  0.789621  0.210379  0.941143  1
  Tm  Tm15  1  0.789621  0.579241  0.941143  1
  Tm  Tm16  1  0.420759  0.210379  0.941143  1
  Tm  Tm17  1  0.210379  0.789621  0.058857  1
  Tm  Tm18  1  0.210379  0.420759  0.058857  1
  Tm  Tm19  1  0.579241  0.789621  0.058857  1
  Cd  Cd20  1  0.886268  0.113732  0.249071  1
  Cd  Cd21  1  0.886268  0.772537  0.249071  1
  Cd  Cd22  1  0.227463  0.113732  0.249071  1
  Cd  Cd23  1  0.113732  0.886268  0.750929  1
  Cd  Cd24  1  0.113732  0.227463  0.750929  1
  Cd  Cd25  1  0.772537  0.886268  0.750929  1
  Ru  Ru26  1  0.333333  0.666667  0.248355  1
  Ru  Ru27  1  0.666667  0.333333  0.751645  1
