# generated using pymatgen
data_TmLu15(HfIr3)4
_symmetry_space_group_name_H-M   'P 1'
_cell_length_a   10.59294800
_cell_length_b   10.59707724
_cell_length_c   6.18473600
_cell_angle_alpha   89.98865663
_cell_angle_beta   90.00061661
_cell_angle_gamma   90.00463371
_symmetry_Int_Tables_number   1
_chemical_formula_structural   TmLu15(HfIr3)4
_chemical_formula_sum   'Tm1 Lu15 Hf4 Ir12'
_cell_volume   694.26312138
_cell_formula_units_Z   1
loop_
 _symmetry_equiv_pos_site_id
 _symmetry_equiv_pos_as_xyz
  1  'x, y, z'
loop_
 _atom_site_type_symbol
 _atom_site_label
 _atom_site_symmetry_multiplicity
 _atom_site_fract_x
 _atom_site_fract_y
 _atom_site_fract_z
 _atom_site_occupancy
  Tm  Tm0  1  0.086121  0.289326  0.125896  1
  Lu  Lu1  1  0.290119  0.085450  0.374926  1
  Lu  Lu2  1  0.289827  0.914163  0.874926  1
  Lu  Lu3  1  0.710179  0.085838  0.874622  1
  Lu  Lu4  1  0.710161  0.914138  0.374771  1
  Lu  Lu5  1  0.585827  0.789809  0.874815  1
  Lu  Lu6  1  0.585883  0.210204  0.374870  1
  Lu  Lu7  1  0.414200  0.789779  0.374787  1
  Lu  Lu8  1  0.414234  0.210207  0.874663  1
  Lu  Lu9  1  0.210288  0.414395  0.625264  1
  Lu  Lu10  1  0.210222  0.586169  0.125247  1
  Lu  Lu11  1  0.789586  0.414301  0.125207  1
  Lu  Lu12  1  0.789652  0.585912  0.625328  1
  Lu  Lu13  1  0.914090  0.710253  0.125313  1
  Lu  Lu14  1  0.913889  0.289905  0.625207  1
  Lu  Lu15  1  0.085912  0.710300  0.625254  1
  Hf  Hf16  1  0.999859  0.999910  0.499865  1
  Hf  Hf17  1  0.999815  0.999554  0.999718  1
  Hf  Hf18  1  0.499980  0.500076  0.999824  1
  Hf  Hf19  1  0.500111  0.500131  0.499971  1
  Ir  Ir20  1  0.852800  0.146324  0.250234  1
  Ir  Ir21  1  0.853309  0.853216  0.750012  1
  Ir  Ir22  1  0.146854  0.146271  0.748925  1
  Ir  Ir23  1  0.146688  0.853330  0.249968  1
  Ir  Ir24  1  0.646720  0.353339  0.750010  1
  Ir  Ir25  1  0.646671  0.646668  0.249935  1
  Ir  Ir26  1  0.354001  0.353373  0.250411  1
  Ir  Ir27  1  0.353337  0.646735  0.749970  1
  Ir  Ir28  1  0.500105  0.999987  0.122852  1
  Ir  Ir29  1  0.500028  0.999946  0.623011  1
  Ir  Ir30  1  0.999766  0.500487  0.876744  1
  Ir  Ir31  1  0.999767  0.500509  0.377449  1
