# generated using pymatgen
data_Cs6SmYBr12
_symmetry_space_group_name_H-M   'P 1'
_cell_length_a   10.05525505
_cell_length_b   10.05984917
_cell_length_c   8.35936200
_cell_angle_alpha   90.00000000
_cell_angle_beta   90.00000000
_cell_angle_gamma   89.96338882
_symmetry_Int_Tables_number   1
_chemical_formula_structural   Cs6SmYBr12
_chemical_formula_sum   'Cs6 Sm1 Y1 Br12'
_cell_volume   845.58564961
_cell_formula_units_Z   1
loop_
 _symmetry_equiv_pos_site_id
 _symmetry_equiv_pos_as_xyz
  1  'x, y, z'
loop_
 _atom_site_type_symbol
 _atom_site_label
 _atom_site_symmetry_multiplicity
 _atom_site_fract_x
 _atom_site_fract_y
 _atom_site_fract_z
 _atom_site_occupancy
  Cs  Cs0  1  0.000000  0.000000  0.500000  1
  Cs  Cs1  1  0.000000  0.000000  0.000000  1
  Cs  Cs2  1  0.236380  0.585011  0.500000  1
  Cs  Cs3  1  0.763620  0.414989  0.500000  1
  Cs  Cs4  1  0.414987  0.233368  0.000000  1
  Cs  Cs5  1  0.585013  0.766632  0.000000  1
  Sm  Sm6  1  0.000000  0.500000  0.000000  1
  Y  Y7  1  0.500000  0.000000  0.500000  1
  Br  Br8  1  0.691122  0.057412  0.739363  1
  Br  Br9  1  0.308878  0.942588  0.739363  1
  Br  Br10  1  0.941430  0.694505  0.243032  1
  Br  Br11  1  0.058570  0.305495  0.243032  1
  Br  Br12  1  0.308878  0.942588  0.260637  1
  Br  Br13  1  0.691122  0.057412  0.260637  1
  Br  Br14  1  0.058570  0.305495  0.756968  1
  Br  Br15  1  0.941430  0.694505  0.756968  1
  Br  Br16  1  0.570036  0.730436  0.500000  1
  Br  Br17  1  0.429964  0.269564  0.500000  1
  Br  Br18  1  0.275180  0.569885  0.000000  1
  Br  Br19  1  0.724820  0.430115  0.000000  1
