# generated using pymatgen
data_SmCo4ReP3
_symmetry_space_group_name_H-M   'P 1'
_cell_length_a   3.74022900
_cell_length_b   10.40693700
_cell_length_c   11.84678900
_cell_angle_alpha   90.00000000
_cell_angle_beta   90.00000000
_cell_angle_gamma   90.00000000
_symmetry_Int_Tables_number   1
_chemical_formula_structural   SmCo4ReP3
_chemical_formula_sum   'Sm4 Co16 Re4 P12'
_cell_volume   461.12829567
_cell_formula_units_Z   4
loop_
 _symmetry_equiv_pos_site_id
 _symmetry_equiv_pos_as_xyz
  1  'x, y, z'
loop_
 _atom_site_type_symbol
 _atom_site_label
 _atom_site_symmetry_multiplicity
 _atom_site_fract_x
 _atom_site_fract_y
 _atom_site_fract_z
 _atom_site_occupancy
  Sm  Sm0  1  0.250000  0.583917  0.704292  1
  Sm  Sm1  1  0.250000  0.916083  0.204292  1
  Sm  Sm2  1  0.750000  0.416083  0.295708  1
  Sm  Sm3  1  0.750000  0.083917  0.795708  1
  Co  Co4  1  0.250000  0.404695  0.489742  1
  Co  Co5  1  0.250000  0.095305  0.989742  1
  Co  Co6  1  0.750000  0.595305  0.510258  1
  Co  Co7  1  0.750000  0.904695  0.010258  1
  Co  Co8  1  0.250000  0.222490  0.175566  1
  Co  Co9  1  0.250000  0.277510  0.675566  1
  Co  Co10  1  0.750000  0.777510  0.824434  1
  Co  Co11  1  0.750000  0.722490  0.324434  1
  Co  Co12  1  0.250000  0.885383  0.701555  1
  Co  Co13  1  0.250000  0.614617  0.201555  1
  Co  Co14  1  0.750000  0.114617  0.298445  1
  Co  Co15  1  0.750000  0.385383  0.798445  1
  Co  Co16  1  0.250000  0.464043  0.933104  1
  Co  Co17  1  0.250000  0.035957  0.433104  1
  Co  Co18  1  0.750000  0.535957  0.066896  1
  Co  Co19  1  0.750000  0.964043  0.566896  1
  Re  Re20  1  0.250000  0.708749  0.989114  1
  Re  Re21  1  0.250000  0.791251  0.489114  1
  Re  Re22  1  0.750000  0.291251  0.010886  1
  Re  Re23  1  0.750000  0.208749  0.510886  1
  P  P24  1  0.250000  0.420329  0.112262  1
  P  P25  1  0.250000  0.079671  0.612262  1
  P  P26  1  0.750000  0.579671  0.887738  1
  P  P27  1  0.750000  0.920329  0.387738  1
  P  P28  1  0.250000  0.272290  0.865279  1
  P  P29  1  0.250000  0.227710  0.365279  1
  P  P30  1  0.750000  0.727710  0.134721  1
  P  P31  1  0.750000  0.772290  0.634721  1
  P  P32  1  0.250000  0.597894  0.392031  1
  P  P33  1  0.250000  0.902106  0.892031  1
  P  P34  1  0.750000  0.402106  0.607969  1
  P  P35  1  0.750000  0.097894  0.107969  1
