# generated using pymatgen
data_Pr2Cd3Hg(IrO7)2
_symmetry_space_group_name_H-M   'P 1'
_cell_length_a   6.50795544
_cell_length_b   6.63541730
_cell_length_c   7.72841900
_cell_angle_alpha   90.00000000
_cell_angle_beta   90.00000000
_cell_angle_gamma   113.65522370
_symmetry_Int_Tables_number   1
_chemical_formula_structural   Pr2Cd3Hg(IrO7)2
_chemical_formula_sum   'Pr2 Cd3 Hg1 Ir2 O14'
_cell_volume   305.69460290
_cell_formula_units_Z   1
loop_
 _symmetry_equiv_pos_site_id
 _symmetry_equiv_pos_as_xyz
  1  'x, y, z'
loop_
 _atom_site_type_symbol
 _atom_site_label
 _atom_site_symmetry_multiplicity
 _atom_site_fract_x
 _atom_site_fract_y
 _atom_site_fract_z
 _atom_site_occupancy
  Pr  Pr0  1  0.000894  0.000116  0.004349  1
  Pr  Pr1  1  0.000894  0.000116  0.495651  1
  Cd  Cd2  1  0.511072  0.007149  0.250000  1
  Cd  Cd3  1  0.961706  0.494520  0.750000  1
  Cd  Cd4  1  0.034016  0.506479  0.250000  1
  Hg  Hg5  1  0.487983  0.990932  0.750000  1
  Ir  Ir6  1  0.499715  0.499951  0.000963  1
  Ir  Ir7  1  0.499715  0.499951  0.499037  1
  O  O8  1  0.587278  0.507380  0.750000  1
  O  O9  1  0.407141  0.494340  0.250000  1
  O  O10  1  0.838508  0.123155  0.750000  1
  O  O11  1  0.145414  0.867549  0.250000  1
  O  O12  1  0.135216  0.865912  0.750000  1
  O  O13  1  0.878975  0.145157  0.250000  1
  O  O14  1  0.431385  0.194742  0.014169  1
  O  O15  1  0.572126  0.806866  0.494277  1
  O  O16  1  0.189420  0.423947  0.958796  1
  O  O17  1  0.812806  0.573090  0.468184  1
  O  O18  1  0.431385  0.194742  0.485831  1
  O  O19  1  0.572126  0.806866  0.005723  1
  O  O20  1  0.812806  0.573090  0.031816  1
  O  O21  1  0.189420  0.423947  0.541204  1
