# generated using pymatgen
data_Eu2In2Cu7Ni3
_symmetry_space_group_name_H-M   'P 1'
_cell_length_a   5.09119598
_cell_length_b   8.28031360
_cell_length_c   10.50261179
_cell_angle_alpha   90.06092024
_cell_angle_beta   90.02745299
_cell_angle_gamma   90.06649429
_symmetry_Int_Tables_number   1
_chemical_formula_structural   Eu2In2Cu7Ni3
_chemical_formula_sum   'Eu4 In4 Cu14 Ni6'
_cell_volume   442.75484776
_cell_formula_units_Z   2
loop_
 _symmetry_equiv_pos_site_id
 _symmetry_equiv_pos_as_xyz
  1  'x, y, z'
loop_
 _atom_site_type_symbol
 _atom_site_label
 _atom_site_symmetry_multiplicity
 _atom_site_fract_x
 _atom_site_fract_y
 _atom_site_fract_z
 _atom_site_occupancy
  Eu  Eu0  1  0.750365  0.746262  0.439704  1
  Eu  Eu1  1  0.249635  0.253738  0.560296  1
  Eu  Eu2  1  0.248931  0.756481  0.938216  1
  Eu  Eu3  1  0.751069  0.243519  0.061784  1
  In  In4  1  0.745045  0.862486  0.141619  1
  In  In5  1  0.254955  0.137514  0.858381  1
  In  In6  1  0.251392  0.643269  0.639465  1
  In  In7  1  0.748608  0.356731  0.360535  1
  Cu  Cu8  1  0.999570  0.432553  0.813490  1
  Cu  Cu9  1  0.000430  0.567447  0.186510  1
  Cu  Cu10  1  0.743109  0.581997  0.983876  1
  Cu  Cu11  1  0.256891  0.418003  0.016124  1
  Cu  Cu12  1  0.249339  0.919444  0.483933  1
  Cu  Cu13  1  0.750661  0.080556  0.516067  1
  Cu  Cu14  1  0.750776  0.941959  0.890688  1
  Cu  Cu15  1  0.249224  0.058041  0.109312  1
  Cu  Cu16  1  0.253256  0.557281  0.391592  1
  Cu  Cu17  1  0.746744  0.442719  0.608408  1
  Cu  Cu18  1  0.747987  0.685926  0.755623  1
  Cu  Cu19  1  0.252013  0.314074  0.244377  1
  Cu  Cu20  1  0.251422  0.816741  0.256808  1
  Cu  Cu21  1  0.748578  0.183259  0.743192  1
  Ni  Ni22  1  0.500625  0.932699  0.686984  1
  Ni  Ni23  1  0.499375  0.067301  0.313016  1
  Ni  Ni24  1  0.501268  0.567352  0.188361  1
  Ni  Ni25  1  0.999678  0.067374  0.312401  1
  Ni  Ni26  1  0.498732  0.432648  0.811639  1
  Ni  Ni27  1  0.000322  0.932626  0.687599  1
