# generated using pymatgen
data_Pr4Tm6Si7Ni
_symmetry_space_group_name_H-M   'P 1'
_cell_length_a   7.49904400
_cell_length_b   7.76648963
_cell_length_c   14.80902000
_cell_angle_alpha   90.00000000
_cell_angle_beta   90.00000000
_cell_angle_gamma   90.30303906
_symmetry_Int_Tables_number   1
_chemical_formula_structural   Pr4Tm6Si7Ni
_chemical_formula_sum   'Pr8 Tm12 Si14 Ni2'
_cell_volume   862.48373473
_cell_formula_units_Z   2
loop_
 _symmetry_equiv_pos_site_id
 _symmetry_equiv_pos_as_xyz
  1  'x, y, z'
loop_
 _atom_site_type_symbol
 _atom_site_label
 _atom_site_symmetry_multiplicity
 _atom_site_fract_x
 _atom_site_fract_y
 _atom_site_fract_z
 _atom_site_occupancy
  Pr  Pr0  1  0.023622  0.180767  0.401827  1
  Pr  Pr1  1  0.524837  0.319612  0.398607  1
  Pr  Pr2  1  0.475163  0.680388  0.898607  1
  Pr  Pr3  1  0.473367  0.672020  0.598321  1
  Pr  Pr4  1  0.979940  0.820360  0.598113  1
  Pr  Pr5  1  0.976378  0.819233  0.901827  1
  Pr  Pr6  1  0.526633  0.327980  0.098321  1
  Pr  Pr7  1  0.020060  0.179640  0.098113  1
  Tm  Tm8  1  0.320977  0.189362  0.619052  1
  Tm  Tm9  1  0.677420  0.820158  0.377412  1
  Tm  Tm10  1  0.655268  0.997349  0.748442  1
  Tm  Tm11  1  0.175652  0.665942  0.381642  1
  Tm  Tm12  1  0.824348  0.334058  0.881642  1
  Tm  Tm13  1  0.828536  0.327107  0.621303  1
  Tm  Tm14  1  0.843487  0.494545  0.247273  1
  Tm  Tm15  1  0.344732  0.002651  0.248442  1
  Tm  Tm16  1  0.322580  0.179842  0.877412  1
  Tm  Tm17  1  0.171464  0.672893  0.121303  1
  Tm  Tm18  1  0.679023  0.810638  0.119052  1
  Tm  Tm19  1  0.156513  0.505455  0.747273  1
  Si  Si20  1  0.273268  0.885429  0.749169  1
  Si  Si21  1  0.466826  0.615368  0.250931  1
  Si  Si22  1  0.027757  0.117868  0.752251  1
  Si  Si23  1  0.533174  0.384632  0.750931  1
  Si  Si24  1  0.972243  0.882132  0.252251  1
  Si  Si25  1  0.726732  0.114571  0.249169  1
  Si  Si26  1  0.354320  0.967603  0.039266  1
  Si  Si27  1  0.148063  0.468458  0.960674  1
  Si  Si28  1  0.645680  0.032397  0.539266  1
  Si  Si29  1  0.353031  0.965289  0.460960  1
  Si  Si30  1  0.851937  0.531542  0.460674  1
  Si  Si31  1  0.771452  0.622144  0.750904  1
  Si  Si32  1  0.228548  0.377856  0.250904  1
  Si  Si33  1  0.646969  0.034711  0.960960  1
  Ni  Ni34  1  0.132806  0.473470  0.543853  1
  Ni  Ni35  1  0.867194  0.526530  0.043853  1
