# generated using pymatgen
data_Tb5ThFeTe2
_symmetry_space_group_name_H-M   'P 1'
_cell_length_a   8.48937097
_cell_length_b   8.48295490
_cell_length_c   3.87544700
_cell_angle_alpha   90.00000000
_cell_angle_beta   90.00000000
_cell_angle_gamma   119.97500279
_symmetry_Int_Tables_number   1
_chemical_formula_structural   Tb5ThFeTe2
_chemical_formula_sum   'Tb5 Th1 Fe1 Te2'
_cell_volume   241.75999724
_cell_formula_units_Z   1
loop_
 _symmetry_equiv_pos_site_id
 _symmetry_equiv_pos_as_xyz
  1  'x, y, z'
loop_
 _atom_site_type_symbol
 _atom_site_label
 _atom_site_symmetry_multiplicity
 _atom_site_fract_x
 _atom_site_fract_y
 _atom_site_fract_z
 _atom_site_occupancy
  Tb  Tb0  1  0.000000  0.421664  0.500000  1
  Tb  Tb1  1  0.605814  0.598643  0.500000  1
  Tb  Tb2  1  0.394186  0.992829  0.500000  1
  Tb  Tb3  1  0.233978  0.240712  0.000000  1
  Tb  Tb4  1  0.766022  0.006734  0.000000  1
  Th  Th5  1  0.000000  0.769104  0.000000  1
  Fe  Fe6  1  0.000000  0.979863  0.500000  1
  Te  Te7  1  0.344705  0.667579  0.000000  1
  Te  Te8  1  0.655295  0.322873  0.000000  1
