# generated using pymatgen
data_Ti6Mn5Si6Ru
_symmetry_space_group_name_H-M   'P 1'
_cell_length_a   7.29768569
_cell_length_b   7.33218678
_cell_length_c   7.29742199
_cell_angle_alpha   126.63747822
_cell_angle_beta   128.01131395
_cell_angle_gamma   77.62158459
_symmetry_Int_Tables_number   1
_chemical_formula_structural   Ti6Mn5Si6Ru
_chemical_formula_sum   'Ti6 Mn5 Si6 Ru1'
_cell_volume   239.51493064
_cell_formula_units_Z   1
loop_
 _symmetry_equiv_pos_site_id
 _symmetry_equiv_pos_as_xyz
  1  'x, y, z'
loop_
 _atom_site_type_symbol
 _atom_site_label
 _atom_site_symmetry_multiplicity
 _atom_site_fract_x
 _atom_site_fract_y
 _atom_site_fract_z
 _atom_site_occupancy
  Ti  Ti0  1  0.249780  0.902487  0.154385  1
  Ti  Ti1  1  0.949994  0.494939  0.039022  1
  Ti  Ti2  1  0.048831  0.098722  0.545632  1
  Ti  Ti3  1  0.455772  0.494868  0.545024  1
  Ti  Ti4  1  0.748205  0.902578  0.652679  1
  Ti  Ti5  1  0.553182  0.099050  0.050069  1
  Mn  Mn6  1  0.499831  0.237311  0.737508  1
  Mn  Mn7  1  0.999454  0.240057  0.240619  1
  Mn  Mn8  1  0.871261  0.495523  0.624001  1
  Mn  Mn9  1  0.628523  0.753262  0.124700  1
  Mn  Mn10  1  0.370641  0.496526  0.126079  1
  Si  Si11  1  0.742629  0.493068  0.239381  1
  Si  Si12  1  0.167155  0.167465  0.000447  1
  Si  Si13  1  0.666265  0.160535  0.494147  1
  Si  Si14  1  0.334332  0.830243  0.496140  1
  Si  Si15  1  0.253578  0.492946  0.750467  1
  Si  Si16  1  0.832960  0.830326  0.997102  1
  Ru  Ru17  1  0.127608  0.752304  0.624808  1
