# generated using pymatgen
data_Tb3Er2P12Pd3Ru16
_symmetry_space_group_name_H-M   'P 1'
_cell_length_a   12.61109600
_cell_length_b   12.61109693
_cell_length_c   3.97339500
_cell_angle_alpha   90.00000000
_cell_angle_beta   90.00000000
_cell_angle_gamma   120.00000281
_symmetry_Int_Tables_number   1
_chemical_formula_structural   Tb3Er2P12Pd3Ru16
_chemical_formula_sum   'Tb3 Er2 P12 Pd3 Ru16'
_cell_volume   547.26548100
_cell_formula_units_Z   1
loop_
 _symmetry_equiv_pos_site_id
 _symmetry_equiv_pos_as_xyz
  1  'x, y, z'
loop_
 _atom_site_type_symbol
 _atom_site_label
 _atom_site_symmetry_multiplicity
 _atom_site_fract_x
 _atom_site_fract_y
 _atom_site_fract_z
 _atom_site_occupancy
  Tb  Tb0  1  0.181414  0.181414  0.500000  1
  Tb  Tb1  1  0.818586  0.000000  0.500000  1
  Tb  Tb2  1  0.000000  0.818586  0.500000  1
  Er  Er3  1  0.333333  0.666667  0.000000  1
  Er  Er4  1  0.666667  0.333333  0.000000  1
  P  P5  1  0.813999  0.813999  0.000000  1
  P  P6  1  0.186001  0.000000  0.000000  1
  P  P7  1  0.000000  0.186001  0.000000  1
  P  P8  1  0.179430  0.480543  0.500000  1
  P  P9  1  0.519457  0.698886  0.500000  1
  P  P10  1  0.301114  0.820570  0.500000  1
  P  P11  1  0.698886  0.519457  0.500000  1
  P  P12  1  0.820570  0.301114  0.500000  1
  P  P13  1  0.480543  0.179430  0.500000  1
  P  P14  1  0.366896  0.366896  0.000000  1
  P  P15  1  0.633104  0.000000  0.000000  1
  P  P16  1  0.000000  0.633104  0.000000  1
  Pd  Pd17  1  0.553592  0.553592  0.000000  1
  Pd  Pd18  1  0.446408  0.000000  0.000000  1
  Pd  Pd19  1  0.000000  0.446408  0.000000  1
  Ru  Ru20  1  0.712502  0.712502  0.500000  1
  Ru  Ru21  1  0.287498  0.000000  0.500000  1
  Ru  Ru22  1  0.000000  0.287498  0.500000  1
  Ru  Ru23  1  0.185962  0.379387  0.000000  1
  Ru  Ru24  1  0.620613  0.806574  0.000000  1
  Ru  Ru25  1  0.193426  0.814038  0.000000  1
  Ru  Ru26  1  0.806574  0.620613  0.000000  1
  Ru  Ru27  1  0.814038  0.193426  0.000000  1
  Ru  Ru28  1  0.379387  0.185962  0.000000  1
  Ru  Ru29  1  0.368933  0.493497  0.500000  1
  Ru  Ru30  1  0.506503  0.875437  0.500000  1
  Ru  Ru31  1  0.124563  0.631067  0.500000  1
  Ru  Ru32  1  0.875437  0.506503  0.500000  1
  Ru  Ru33  1  0.631067  0.124563  0.500000  1
  Ru  Ru34  1  0.493497  0.368933  0.500000  1
  Ru  Ru35  1  0.000000  0.000000  0.000000  1
