# generated using pymatgen
data_PaCrFeB6
_symmetry_space_group_name_H-M   'P 1'
_cell_length_a   5.41239431
_cell_length_b   5.41239486
_cell_length_c   5.41239533
_cell_angle_alpha   146.42152110
_cell_angle_beta   109.10731904
_cell_angle_gamma   80.76595952
_symmetry_Int_Tables_number   1
_chemical_formula_structural   PaCrFeB6
_chemical_formula_sum   'Pa1 Cr1 Fe1 B6'
_cell_volume   80.92608963
_cell_formula_units_Z   1
loop_
 _symmetry_equiv_pos_site_id
 _symmetry_equiv_pos_as_xyz
  1  'x, y, z'
loop_
 _atom_site_type_symbol
 _atom_site_label
 _atom_site_symmetry_multiplicity
 _atom_site_fract_x
 _atom_site_fract_y
 _atom_site_fract_z
 _atom_site_occupancy
  Pa  Pa0  1  0.002347  0.002347  0.000000  1
  Cr  Cr1  1  0.343906  0.843907  0.500000  1
  Fe  Fe2  1  0.652328  0.152328  0.500000  1
  B  B3  1  0.547627  0.304330  0.243297  1
  B  B4  1  0.463083  0.696183  0.766900  1
  B  B5  1  0.929282  0.696183  0.233100  1
  B  B6  1  0.356681  0.500197  0.856484  1
  B  B7  1  0.643713  0.500197  0.143516  1
  B  B8  1  0.061034  0.304330  0.756703  1
