# generated using pymatgen
data_Tb4Ce5Tm7(CdRu)4
_symmetry_space_group_name_H-M   'P 1'
_cell_length_a   9.50877563
_cell_length_b   9.58398761
_cell_length_c   9.59124352
_cell_angle_alpha   59.86067463
_cell_angle_beta   60.25106131
_cell_angle_gamma   60.29621493
_symmetry_Int_Tables_number   1
_chemical_formula_structural   Tb4Ce5Tm7(CdRu)4
_chemical_formula_sum   'Tb4 Ce5 Tm7 Cd4 Ru4'
_cell_volume   619.94255606
_cell_formula_units_Z   1
loop_
 _symmetry_equiv_pos_site_id
 _symmetry_equiv_pos_as_xyz
  1  'x, y, z'
loop_
 _atom_site_type_symbol
 _atom_site_label
 _atom_site_symmetry_multiplicity
 _atom_site_fract_x
 _atom_site_fract_y
 _atom_site_fract_z
 _atom_site_occupancy
  Tb  Tb0  1  0.561254  0.562247  0.936279  1
  Tb  Tb1  1  0.940950  0.561333  0.936584  1
  Tb  Tb2  1  0.562467  0.937089  0.935720  1
  Tb  Tb3  1  0.939734  0.936650  0.561439  1
  Ce  Ce4  1  0.814712  0.184712  0.185188  1
  Ce  Ce5  1  0.347983  0.347517  0.957874  1
  Ce  Ce6  1  0.347949  0.957149  0.347584  1
  Ce  Ce7  1  0.956866  0.350156  0.350631  1
  Ce  Ce8  1  0.342172  0.349366  0.349941  1
  Tm  Tm9  1  0.560189  0.937954  0.560861  1
  Tm  Tm10  1  0.935491  0.565090  0.563808  1
  Tm  Tm11  1  0.191661  0.186589  0.808368  1
  Tm  Tm12  1  0.813871  0.185571  0.809491  1
  Tm  Tm13  1  0.186414  0.814120  0.813817  1
  Tm  Tm14  1  0.812780  0.809645  0.186719  1
  Tm  Tm15  1  0.190794  0.808977  0.187229  1
  Cd  Cd16  1  0.579982  0.583101  0.256033  1
  Cd  Cd17  1  0.579831  0.255282  0.582848  1
  Cd  Cd18  1  0.256266  0.579839  0.579975  1
  Cd  Cd19  1  0.581830  0.581687  0.579980  1
  Ru  Ru20  1  0.148169  0.142423  0.564637  1
  Ru  Ru21  1  0.145546  0.565337  0.144007  1
  Ru  Ru22  1  0.582695  0.149344  0.152095  1
  Ru  Ru23  1  0.120392  0.148825  0.148896  1
