# generated using pymatgen
data_Pr8Cd3SnAu8
_symmetry_space_group_name_H-M   'P 1'
_cell_length_a   8.22564700
_cell_length_b   8.22564700
_cell_length_c   7.78092600
_cell_angle_alpha   90.00000000
_cell_angle_beta   90.00000000
_cell_angle_gamma   90.00000000
_symmetry_Int_Tables_number   1
_chemical_formula_structural   Pr8Cd3SnAu8
_chemical_formula_sum   'Pr8 Cd3 Sn1 Au8'
_cell_volume   526.46732380
_cell_formula_units_Z   1
loop_
 _symmetry_equiv_pos_site_id
 _symmetry_equiv_pos_as_xyz
  1  'x, y, z'
loop_
 _atom_site_type_symbol
 _atom_site_label
 _atom_site_symmetry_multiplicity
 _atom_site_fract_x
 _atom_site_fract_y
 _atom_site_fract_z
 _atom_site_occupancy
  Pr  Pr0  1  0.833232  0.173800  0.500342  1
  Pr  Pr1  1  0.166768  0.826200  0.500342  1
  Pr  Pr2  1  0.326200  0.333232  0.999658  1
  Pr  Pr3  1  0.673800  0.666768  0.999658  1
  Pr  Pr4  1  0.680567  0.673441  0.500471  1
  Pr  Pr5  1  0.319433  0.326559  0.500471  1
  Pr  Pr6  1  0.173441  0.819433  0.999529  1
  Pr  Pr7  1  0.826559  0.180567  0.999529  1
  Cd  Cd8  1  0.500000  0.000000  0.250000  1
  Cd  Cd9  1  0.000000  0.500000  0.750000  1
  Cd  Cd10  1  0.500000  0.000000  0.750000  1
  Sn  Sn11  1  0.000000  0.500000  0.250000  1
  Au  Au12  1  0.619378  0.367857  0.257062  1
  Au  Au13  1  0.380622  0.632143  0.257062  1
  Au  Au14  1  0.129518  0.123292  0.756852  1
  Au  Au15  1  0.870482  0.876708  0.756852  1
  Au  Au16  1  0.376708  0.629518  0.743148  1
  Au  Au17  1  0.623292  0.370482  0.743148  1
  Au  Au18  1  0.867857  0.880622  0.242938  1
  Au  Au19  1  0.132143  0.119378  0.242938  1
