# generated using pymatgen
data_Li2La3Si2AgPb
_symmetry_space_group_name_H-M   'P 1'
_cell_length_a   7.56688900
_cell_length_b   7.52563952
_cell_length_c   4.49454300
_cell_angle_alpha   90.00000000
_cell_angle_beta   90.00000000
_cell_angle_gamma   120.18147825
_symmetry_Int_Tables_number   1
_chemical_formula_structural   Li2La3Si2AgPb
_chemical_formula_sum   'Li2 La3 Si2 Ag1 Pb1'
_cell_volume   221.24825076
_cell_formula_units_Z   1
loop_
 _symmetry_equiv_pos_site_id
 _symmetry_equiv_pos_as_xyz
  1  'x, y, z'
loop_
 _atom_site_type_symbol
 _atom_site_label
 _atom_site_symmetry_multiplicity
 _atom_site_fract_x
 _atom_site_fract_y
 _atom_site_fract_z
 _atom_site_occupancy
  Li  Li0  1  0.756944  0.751977  0.500000  1
  Li  Li1  1  0.004967  0.248023  0.500000  1
  La  La2  1  0.002038  0.567971  0.000000  1
  La  La3  1  0.559388  0.000000  0.000000  1
  La  La4  1  0.434066  0.432029  0.000000  1
  Si  Si5  1  0.328539  0.665068  0.500000  1
  Si  Si6  1  0.663472  0.334932  0.500000  1
  Ag  Ag7  1  0.258629  0.000000  0.500000  1
  Pb  Pb8  1  0.991958  0.000000  0.000000  1
