# generated using pymatgen
data_Hf8Tc4NiOs3
_symmetry_space_group_name_H-M   'P 1'
_cell_length_a   6.49089600
_cell_length_b   6.49073600
_cell_length_c   6.52801500
_cell_angle_alpha   89.99992963
_cell_angle_beta   90.00075692
_cell_angle_gamma   90.00015889
_symmetry_Int_Tables_number   1
_chemical_formula_structural   Hf8Tc4NiOs3
_chemical_formula_sum   'Hf8 Tc4 Ni1 Os3'
_cell_volume   275.02979154
_cell_formula_units_Z   1
loop_
 _symmetry_equiv_pos_site_id
 _symmetry_equiv_pos_as_xyz
  1  'x, y, z'
loop_
 _atom_site_type_symbol
 _atom_site_label
 _atom_site_symmetry_multiplicity
 _atom_site_fract_x
 _atom_site_fract_y
 _atom_site_fract_z
 _atom_site_occupancy
  Hf  Hf0  1  0.499903  0.000018  0.250887  1
  Hf  Hf1  1  0.499900  0.499970  0.250887  1
  Hf  Hf2  1  0.999940  0.000034  0.250878  1
  Hf  Hf3  1  0.999936  0.499981  0.250880  1
  Hf  Hf4  1  0.000101  0.000024  0.749112  1
  Hf  Hf5  1  0.000097  0.499969  0.749114  1
  Hf  Hf6  1  0.500061  0.000031  0.749111  1
  Hf  Hf7  1  0.500059  0.499973  0.749110  1
  Tc  Tc8  1  0.250012  0.750000  0.000026  1
  Tc  Tc9  1  0.750011  0.250000  0.499971  1
  Tc  Tc10  1  0.249986  0.750000  0.500025  1
  Tc  Tc11  1  0.749986  0.250000  0.999975  1
  Ni  Ni12  1  0.250005  0.250000  0.000062  1
  Os  Os13  1  0.749993  0.750000  0.499977  1
  Os  Os14  1  0.250005  0.250000  0.500007  1
  Os  Os15  1  0.750006  0.750000  0.999979  1
