# generated using pymatgen
data_Zr8Ti11Si16W
_symmetry_space_group_name_H-M   'P 1'
_cell_length_a   6.65559402
_cell_length_b   6.80995079
_cell_length_c   12.96610800
_cell_angle_alpha   90.00000000
_cell_angle_beta   90.00000000
_cell_angle_gamma   89.97729410
_symmetry_Int_Tables_number   1
_chemical_formula_structural   Zr8Ti11Si16W
_chemical_formula_sum   'Zr8 Ti11 Si16 W1'
_cell_volume   587.67930514
_cell_formula_units_Z   1
loop_
 _symmetry_equiv_pos_site_id
 _symmetry_equiv_pos_as_xyz
  1  'x, y, z'
loop_
 _atom_site_type_symbol
 _atom_site_label
 _atom_site_symmetry_multiplicity
 _atom_site_fract_x
 _atom_site_fract_y
 _atom_site_fract_z
 _atom_site_occupancy
  Zr  Zr0  1  0.999447  0.174092  0.094636  1
  Zr  Zr1  1  0.001856  0.827223  0.903521  1
  Zr  Zr2  1  0.501527  0.674657  0.904138  1
  Zr  Zr3  1  0.001856  0.827223  0.596479  1
  Zr  Zr4  1  0.500399  0.326219  0.094959  1
  Zr  Zr5  1  0.999447  0.174092  0.405364  1
  Zr  Zr6  1  0.500399  0.326219  0.405041  1
  Zr  Zr7  1  0.501527  0.674657  0.595862  1
  Ti  Ti8  1  0.164198  0.493399  0.750000  1
  Ti  Ti9  1  0.835224  0.505193  0.250000  1
  Ti  Ti10  1  0.335762  0.995298  0.250000  1
  Ti  Ti11  1  0.336611  0.171630  0.625302  1
  Ti  Ti12  1  0.662817  0.827587  0.374288  1
  Ti  Ti13  1  0.162717  0.672218  0.374402  1
  Ti  Ti14  1  0.662817  0.827587  0.125712  1
  Ti  Ti15  1  0.835294  0.326657  0.625475  1
  Ti  Ti16  1  0.336611  0.171630  0.874698  1
  Ti  Ti17  1  0.835294  0.326657  0.874525  1
  Ti  Ti18  1  0.162717  0.672218  0.125598  1
  Si  Si19  1  0.038456  0.119367  0.750000  1
  Si  Si20  1  0.961147  0.880567  0.250000  1
  Si  Si21  1  0.460941  0.619405  0.250000  1
  Si  Si22  1  0.537291  0.381143  0.750000  1
  Si  Si23  1  0.296824  0.864767  0.750000  1
  Si  Si24  1  0.704086  0.133187  0.250000  1
  Si  Si25  1  0.203598  0.366368  0.250000  1
  Si  Si26  1  0.797655  0.632895  0.750000  1
  Si  Si27  1  0.168746  0.461827  0.539018  1
  Si  Si28  1  0.831297  0.539194  0.460988  1
  Si  Si29  1  0.330733  0.961182  0.460842  1
  Si  Si30  1  0.831297  0.539194  0.039012  1
  Si  Si31  1  0.669116  0.038389  0.539344  1
  Si  Si32  1  0.168746  0.461827  0.960982  1
  Si  Si33  1  0.669116  0.038389  0.960656  1
  Si  Si34  1  0.330733  0.961182  0.039158  1
  W  W35  1  0.663694  0.006660  0.750000  1
