# generated using pymatgen
data_Tb4Al18Pd3PtRh2
_symmetry_space_group_name_H-M   'P 1'
_cell_length_a   7.62666601
_cell_length_b   7.62666473
_cell_length_c   9.46744201
_cell_angle_alpha   90.00191038
_cell_angle_beta   90.00190417
_cell_angle_gamma   119.61696961
_symmetry_Int_Tables_number   1
_chemical_formula_structural   Tb4Al18Pd3PtRh2
_chemical_formula_sum   'Tb4 Al18 Pd3 Pt1 Rh2'
_cell_volume   478.73589708
_cell_formula_units_Z   1
loop_
 _symmetry_equiv_pos_site_id
 _symmetry_equiv_pos_as_xyz
  1  'x, y, z'
loop_
 _atom_site_type_symbol
 _atom_site_label
 _atom_site_symmetry_multiplicity
 _atom_site_fract_x
 _atom_site_fract_y
 _atom_site_fract_z
 _atom_site_occupancy
  Tb  Tb0  1  0.993718  0.667322  0.250008  1
  Tb  Tb1  1  0.006344  0.332625  0.749972  1
  Tb  Tb2  1  0.667375  0.993656  0.250028  1
  Tb  Tb3  1  0.332678  0.006282  0.749992  1
  Al  Al4  1  0.125434  0.125472  0.250001  1
  Al  Al5  1  0.874528  0.874566  0.749999  1
  Al  Al6  1  0.999841  0.330608  0.076291  1
  Al  Al7  1  0.000152  0.669336  0.923705  1
  Al  Al8  1  0.000220  0.669388  0.576213  1
  Al  Al9  1  0.330612  0.999780  0.423787  1
  Al  Al10  1  0.999827  0.330603  0.423752  1
  Al  Al11  1  0.669397  0.000173  0.576248  1
  Al  Al12  1  0.669392  0.000159  0.923709  1
  Al  Al13  1  0.330664  0.999848  0.076295  1
  Al  Al14  1  0.329411  0.329495  0.554446  1
  Al  Al15  1  0.670505  0.670589  0.445554  1
  Al  Al16  1  0.670473  0.670460  0.054518  1
  Al  Al17  1  0.329540  0.329527  0.945482  1
  Al  Al18  1  0.340764  0.546455  0.250011  1
  Al  Al19  1  0.659220  0.453718  0.750123  1
  Al  Al20  1  0.546282  0.340780  0.249877  1
  Al  Al21  1  0.453545  0.659236  0.749989  1
  Pd  Pd22  1  0.672404  0.327596  0.000000  1
  Pd  Pd23  1  0.327629  0.672371  0.000000  1
  Pd  Pd24  1  0.327605  0.672395  0.500000  1
  Pt  Pt25  1  0.672378  0.327622  0.500000  1
  Rh  Rh26  1  0.000036  0.999964  0.000000  1
  Rh  Rh27  1  0.000025  0.999975  0.500000  1
