# generated using pymatgen
data_Tb16MgCo(NiHg)3
_symmetry_space_group_name_H-M   'P 1'
_cell_length_a   9.52503649
_cell_length_b   9.54917034
_cell_length_c   9.54916921
_cell_angle_alpha   59.96102630
_cell_angle_beta   60.09319454
_cell_angle_gamma   60.09319004
_symmetry_Int_Tables_number   1
_chemical_formula_structural   Tb16MgCo(NiHg)3
_chemical_formula_sum   'Tb16 Mg1 Co1 Ni3 Hg3'
_cell_volume   614.84373583
_cell_formula_units_Z   1
loop_
 _symmetry_equiv_pos_site_id
 _symmetry_equiv_pos_as_xyz
  1  'x, y, z'
loop_
 _atom_site_type_symbol
 _atom_site_label
 _atom_site_symmetry_multiplicity
 _atom_site_fract_x
 _atom_site_fract_y
 _atom_site_fract_z
 _atom_site_occupancy
  Tb  Tb0  1  0.186572  0.814705  0.814705  1
  Tb  Tb1  1  0.808202  0.187996  0.187996  1
  Tb  Tb2  1  0.811096  0.188322  0.814245  1
  Tb  Tb3  1  0.186618  0.811749  0.186529  1
  Tb  Tb4  1  0.811096  0.814245  0.188322  1
  Tb  Tb5  1  0.186618  0.186529  0.811749  1
  Tb  Tb6  1  0.062105  0.440949  0.440949  1
  Tb  Tb7  1  0.434801  0.063130  0.063130  1
  Tb  Tb8  1  0.435263  0.066722  0.439188  1
  Tb  Tb9  1  0.058188  0.440357  0.059467  1
  Tb  Tb10  1  0.435263  0.439188  0.066722  1
  Tb  Tb11  1  0.058188  0.059467  0.440357  1
  Tb  Tb12  1  0.596487  0.596862  0.596862  1
  Tb  Tb13  1  0.598740  0.596947  0.205572  1
  Tb  Tb14  1  0.598740  0.205572  0.596947  1
  Tb  Tb15  1  0.199235  0.600112  0.600112  1
  Mg  Mg16  1  0.535082  0.820651  0.820651  1
  Co  Co17  1  0.391958  0.393282  0.393282  1
  Ni  Ni18  1  0.390865  0.391999  0.824152  1
  Ni  Ni19  1  0.390865  0.824152  0.391999  1
  Ni  Ni20  1  0.823579  0.392356  0.392356  1
  Hg  Hg21  1  0.833058  0.835399  0.835399  1
  Hg  Hg22  1  0.833693  0.835542  0.493767  1
  Hg  Hg23  1  0.833693  0.493767  0.835542  1
