# generated using pymatgen
data_CeDy2(HoAl6)3
_symmetry_space_group_name_H-M   'P 1'
_cell_length_a   14.54105105
_cell_length_b   14.54105110
_cell_length_c   14.54105200
_cell_angle_alpha   24.50204597
_cell_angle_beta   24.50204554
_cell_angle_gamma   24.50204804
_symmetry_Int_Tables_number   1
_chemical_formula_structural   CeDy2(HoAl6)3
_chemical_formula_sum   'Ce1 Dy2 Ho3 Al18'
_cell_volume   464.94816081
_cell_formula_units_Z   1
loop_
 _symmetry_equiv_pos_site_id
 _symmetry_equiv_pos_as_xyz
  1  'x, y, z'
loop_
 _atom_site_type_symbol
 _atom_site_label
 _atom_site_symmetry_multiplicity
 _atom_site_fract_x
 _atom_site_fract_y
 _atom_site_fract_z
 _atom_site_occupancy
  Ce  Ce0  1  0.108850  0.108850  0.108850  1
  Dy  Dy1  1  0.891192  0.891192  0.891192  1
  Dy  Dy2  1  0.390804  0.390804  0.390804  1
  Ho  Ho3  1  0.999599  0.999599  0.999599  1
  Ho  Ho4  1  0.500045  0.500045  0.500045  1
  Ho  Ho5  1  0.609083  0.609083  0.609083  1
  Al  Al6  1  0.924336  0.371083  0.371083  1
  Al  Al7  1  0.422465  0.870479  0.870479  1
  Al  Al8  1  0.371083  0.371083  0.924336  1
  Al  Al9  1  0.870479  0.870479  0.422465  1
  Al  Al10  1  0.371083  0.924336  0.371083  1
  Al  Al11  1  0.870479  0.422465  0.870479  1
  Al  Al12  1  0.575631  0.129781  0.129781  1
  Al  Al13  1  0.077625  0.628895  0.628895  1
  Al  Al14  1  0.129781  0.129781  0.575631  1
  Al  Al15  1  0.628895  0.628895  0.077625  1
  Al  Al16  1  0.129781  0.575631  0.129781  1
  Al  Al17  1  0.628895  0.077625  0.628895  1
  Al  Al18  1  0.499506  0.499506  0.999790  1
  Al  Al19  1  0.002419  0.002419  0.496256  1
  Al  Al20  1  0.499506  0.999790  0.499506  1
  Al  Al21  1  0.002419  0.496256  0.002419  1
  Al  Al22  1  0.999790  0.499506  0.499506  1
  Al  Al23  1  0.496256  0.002419  0.002419  1
