# generated using pymatgen
data_YbLu3ReOs7
_symmetry_space_group_name_H-M   'P 1'
_cell_length_a   5.38877000
_cell_length_b   5.24147645
_cell_length_c   8.75944811
_cell_angle_alpha   89.95027927
_cell_angle_beta   90.00000000
_cell_angle_gamma   120.93402818
_symmetry_Int_Tables_number   1
_chemical_formula_structural   YbLu3ReOs7
_chemical_formula_sum   'Yb1 Lu3 Re1 Os7'
_cell_volume   212.21959277
_cell_formula_units_Z   1
loop_
 _symmetry_equiv_pos_site_id
 _symmetry_equiv_pos_as_xyz
  1  'x, y, z'
loop_
 _atom_site_type_symbol
 _atom_site_label
 _atom_site_symmetry_multiplicity
 _atom_site_fract_x
 _atom_site_fract_y
 _atom_site_fract_z
 _atom_site_occupancy
  Yb  Yb0  1  0.334549  0.669099  0.435985  1
  Lu  Lu1  1  0.669595  0.339189  0.561702  1
  Lu  Lu2  1  0.669715  0.339429  0.934922  1
  Lu  Lu3  1  0.333888  0.667776  0.069569  1
  Re  Re4  1  0.167098  0.334197  0.750218  1
  Os  Os5  1  0.171936  0.822005  0.751320  1
  Os  Os6  1  0.339264  0.168153  0.248858  1
  Os  Os7  1  0.822718  0.645436  0.248336  1
  Os  Os8  1  0.650067  0.822005  0.751320  1
  Os  Os9  1  0.006788  0.013576  0.000309  1
  Os  Os10  1  0.828890  0.168153  0.248858  1
  Os  Os11  1  0.005492  0.010985  0.498602  1
