# generated using pymatgen
data_UPbF6
_symmetry_space_group_name_H-M   'P 1'
_cell_length_a   7.08625871
_cell_length_b   7.08625845
_cell_length_c   5.62362300
_cell_angle_alpha   90.00000000
_cell_angle_beta   90.00000000
_cell_angle_gamma   110.38068065
_symmetry_Int_Tables_number   1
_chemical_formula_structural   UPbF6
_chemical_formula_sum   'U2 Pb2 F12'
_cell_volume   264.71277090
_cell_formula_units_Z   2
loop_
 _symmetry_equiv_pos_site_id
 _symmetry_equiv_pos_as_xyz
  1  'x, y, z'
loop_
 _atom_site_type_symbol
 _atom_site_label
 _atom_site_symmetry_multiplicity
 _atom_site_fract_x
 _atom_site_fract_y
 _atom_site_fract_z
 _atom_site_occupancy
  U  U0  1  0.750000  0.750000  0.000000  1
  U  U1  1  0.250000  0.250000  0.000000  1
  Pb  Pb2  1  0.250000  0.750000  0.520349  1
  Pb  Pb3  1  0.750000  0.250000  0.479651  1
  F  F4  1  0.182083  0.445701  0.268116  1
  F  F5  1  0.317917  0.054299  0.268116  1
  F  F6  1  0.445701  0.182083  0.731884  1
  F  F7  1  0.054299  0.317917  0.731884  1
  F  F8  1  0.579243  0.420757  0.165703  1
  F  F9  1  0.920757  0.079243  0.165703  1
  F  F10  1  0.420757  0.579243  0.834297  1
  F  F11  1  0.079243  0.920757  0.834297  1
  F  F12  1  0.945701  0.682083  0.268116  1
  F  F13  1  0.554299  0.817917  0.268116  1
  F  F14  1  0.682083  0.945701  0.731884  1
  F  F15  1  0.817917  0.554299  0.731884  1
