# generated using pymatgen
data_DyHo15In6CoPt
_symmetry_space_group_name_H-M   'P 1'
_cell_length_a   10.41473900
_cell_length_b   10.41432227
_cell_length_c   6.97783905
_cell_angle_alpha   90.01159413
_cell_angle_beta   90.00000000
_cell_angle_gamma   120.00132686
_symmetry_Int_Tables_number   1
_chemical_formula_structural   DyHo15In6CoPt
_chemical_formula_sum   'Dy1 Ho15 In6 Co1 Pt1'
_cell_volume   655.42826221
_cell_formula_units_Z   1
loop_
 _symmetry_equiv_pos_site_id
 _symmetry_equiv_pos_as_xyz
  1  'x, y, z'
loop_
 _atom_site_type_symbol
 _atom_site_label
 _atom_site_symmetry_multiplicity
 _atom_site_fract_x
 _atom_site_fract_y
 _atom_site_fract_z
 _atom_site_occupancy
  Dy  Dy0  1  0.530372  0.060743  0.507681  1
  Ho  Ho1  1  0.939082  0.469559  0.507815  1
  Ho  Ho2  1  0.530478  0.469559  0.507815  1
  Ho  Ho3  1  0.464473  0.928948  0.005379  1
  Ho  Ho4  1  0.070951  0.535454  0.005373  1
  Ho  Ho5  1  0.464501  0.535454  0.005373  1
  Ho  Ho6  1  0.178042  0.356084  0.714214  1
  Ho  Ho7  1  0.643979  0.821842  0.714330  1
  Ho  Ho8  1  0.177863  0.821842  0.714330  1
  Ho  Ho9  1  0.824605  0.649209  0.212883  1
  Ho  Ho10  1  0.350713  0.175433  0.212776  1
  Ho  Ho11  1  0.824720  0.175433  0.212776  1
  Ho  Ho12  1  0.666747  0.333494  0.883896  1
  Ho  Ho13  1  0.333250  0.666501  0.395794  1
  Ho  Ho14  1  0.999988  0.999975  0.491948  1
  Ho  Ho15  1  0.000004  0.000008  0.990480  1
  In  In16  1  0.837581  0.675163  0.751361  1
  In  In17  1  0.324698  0.162447  0.751445  1
  In  In18  1  0.837748  0.162447  0.751445  1
  In  In19  1  0.162859  0.325719  0.252345  1
  In  In20  1  0.674282  0.837140  0.252255  1
  In  In21  1  0.162858  0.837140  0.252255  1
  Co  Co22  1  0.333345  0.666691  0.781920  1
  Pt  Pt23  1  0.666860  0.333719  0.282150  1
