# generated using pymatgen
data_Tb10(TlBi)3
_symmetry_space_group_name_H-M   'P 1'
_cell_length_a   9.12006700
_cell_length_b   9.08444990
_cell_length_c   6.65208900
_cell_angle_alpha   90.00000000
_cell_angle_beta   90.00000000
_cell_angle_gamma   120.12977594
_symmetry_Int_Tables_number   1
_chemical_formula_structural   Tb10(TlBi)3
_chemical_formula_sum   'Tb10 Tl3 Bi3'
_cell_volume   476.66792422
_cell_formula_units_Z   1
loop_
 _symmetry_equiv_pos_site_id
 _symmetry_equiv_pos_as_xyz
  1  'x, y, z'
loop_
 _atom_site_type_symbol
 _atom_site_label
 _atom_site_symmetry_multiplicity
 _atom_site_fract_x
 _atom_site_fract_y
 _atom_site_fract_z
 _atom_site_occupancy
  Tb  Tb0  1  0.005944  0.766645  0.750000  1
  Tb  Tb1  1  0.007269  0.241815  0.250000  1
  Tb  Tb2  1  0.765454  0.758185  0.250000  1
  Tb  Tb3  1  0.760522  0.000000  0.750000  1
  Tb  Tb4  1  0.239299  0.233355  0.750000  1
  Tb  Tb5  1  0.235573  0.000000  0.250000  1
  Tb  Tb6  1  0.328771  0.665973  0.498495  1
  Tb  Tb7  1  0.662800  0.334027  0.001505  1
  Tb  Tb8  1  0.662800  0.334027  0.498495  1
  Tb  Tb9  1  0.328771  0.665973  0.001505  1
  Tl  Tl10  1  0.397772  0.000000  0.750000  1
  Tl  Tl11  1  0.395240  0.396935  0.250000  1
  Tl  Tl12  1  0.998305  0.603065  0.250000  1
  Bi  Bi13  1  0.997561  0.392450  0.750000  1
  Bi  Bi14  1  0.605113  0.607550  0.750000  1
  Bi  Bi15  1  0.608808  0.000000  0.250000  1
