# generated using pymatgen
data_PaCuP2Pd
_symmetry_space_group_name_H-M   'P 1'
_cell_length_a   4.00999800
_cell_length_b   4.00999702
_cell_length_c   6.35142900
_cell_angle_alpha   90.00000000
_cell_angle_beta   90.00000000
_cell_angle_gamma   120.00000812
_symmetry_Int_Tables_number   1
_chemical_formula_structural   PaCuP2Pd
_chemical_formula_sum   'Pa1 Cu1 P2 Pd1'
_cell_volume   88.44845460
_cell_formula_units_Z   1
loop_
 _symmetry_equiv_pos_site_id
 _symmetry_equiv_pos_as_xyz
  1  'x, y, z'
loop_
 _atom_site_type_symbol
 _atom_site_label
 _atom_site_symmetry_multiplicity
 _atom_site_fract_x
 _atom_site_fract_y
 _atom_site_fract_z
 _atom_site_occupancy
  Pa  Pa0  1  0.000000  0.000000  0.002744  1
  Cu  Cu1  1  0.333333  0.666667  0.635594  1
  P  P2  1  0.666667  0.333333  0.750603  1
  P  P3  1  0.333333  0.666667  0.243626  1
  Pd  Pd4  1  0.666667  0.333333  0.367432  1
