# generated using pymatgen
data_Ho7Er9(Ga3Ir)2
_symmetry_space_group_name_H-M   'P 1'
_cell_length_a   9.99471102
_cell_length_b   9.99499864
_cell_length_c   6.99001301
_cell_angle_alpha   90.00541931
_cell_angle_beta   89.99565001
_cell_angle_gamma   119.98657549
_symmetry_Int_Tables_number   1
_chemical_formula_structural   Ho7Er9(Ga3Ir)2
_chemical_formula_sum   'Ho7 Er9 Ga6 Ir2'
_cell_volume   604.81190002
_cell_formula_units_Z   1
loop_
 _symmetry_equiv_pos_site_id
 _symmetry_equiv_pos_as_xyz
  1  'x, y, z'
loop_
 _atom_site_type_symbol
 _atom_site_label
 _atom_site_symmetry_multiplicity
 _atom_site_fract_x
 _atom_site_fract_y
 _atom_site_fract_z
 _atom_site_occupancy
  Ho  Ho0  1  0.069024  0.534465  0.205425  1
  Ho  Ho1  1  0.465538  0.930968  0.205417  1
  Ho  Ho2  1  0.534386  0.465629  0.705443  1
  Ho  Ho3  1  0.931087  0.465548  0.705461  1
  Ho  Ho4  1  0.534469  0.068924  0.705463  1
  Ho  Ho5  1  0.999999  0.000011  0.232547  1
  Ho  Ho6  1  0.000023  0.999953  0.732569  1
  Er  Er7  1  0.171217  0.828743  0.510460  1
  Er  Er8  1  0.657497  0.828633  0.510282  1
  Er  Er9  1  0.171363  0.342514  0.510275  1
  Er  Er10  1  0.828803  0.171188  0.010520  1
  Er  Er11  1  0.342554  0.171487  0.010704  1
  Er  Er12  1  0.828522  0.657445  0.010702  1
  Er  Er13  1  0.333460  0.666549  0.836442  1
  Er  Er14  1  0.666562  0.333440  0.336416  1
  Er  Er15  1  0.465275  0.534725  0.205421  1
  Ga  Ga16  1  0.163426  0.836580  0.958597  1
  Ga  Ga17  1  0.672924  0.836375  0.958884  1
  Ga  Ga18  1  0.163627  0.327106  0.958851  1
  Ga  Ga19  1  0.836562  0.163452  0.458769  1
  Ga  Ga20  1  0.326914  0.163428  0.458558  1
  Ga  Ga21  1  0.836551  0.673067  0.458555  1
  Ir  Ir22  1  0.333536  0.666434  0.444051  1
  Ir  Ir23  1  0.666680  0.333335  0.944228  1
