# generated using pymatgen
data_Nd6Sb7Pd16S
_symmetry_space_group_name_H-M   'P 1'
_cell_length_a   9.45643530
_cell_length_b   9.45643548
_cell_length_c   9.45643500
_cell_angle_alpha   59.99999818
_cell_angle_beta   59.99999756
_cell_angle_gamma   59.99999697
_symmetry_Int_Tables_number   1
_chemical_formula_structural   Nd6Sb7Pd16S
_chemical_formula_sum   'Nd6 Sb7 Pd16 S1'
_cell_volume   597.95339947
_cell_formula_units_Z   1
loop_
 _symmetry_equiv_pos_site_id
 _symmetry_equiv_pos_as_xyz
  1  'x, y, z'
loop_
 _atom_site_type_symbol
 _atom_site_label
 _atom_site_symmetry_multiplicity
 _atom_site_fract_x
 _atom_site_fract_y
 _atom_site_fract_z
 _atom_site_occupancy
  Nd  Nd0  1  0.715581  0.284419  0.284419  1
  Nd  Nd1  1  0.284419  0.715581  0.715581  1
  Nd  Nd2  1  0.284419  0.715581  0.284419  1
  Nd  Nd3  1  0.715581  0.284419  0.715581  1
  Nd  Nd4  1  0.284419  0.284419  0.715581  1
  Nd  Nd5  1  0.715581  0.715581  0.284419  1
  Sb  Sb6  1  0.000000  0.000000  0.000000  1
  Sb  Sb7  1  0.500000  0.000000  0.000000  1
  Sb  Sb8  1  0.000000  0.500000  0.500000  1
  Sb  Sb9  1  0.000000  0.500000  0.000000  1
  Sb  Sb10  1  0.500000  0.000000  0.500000  1
  Sb  Sb11  1  0.000000  0.000000  0.500000  1
  Sb  Sb12  1  0.500000  0.500000  0.000000  1
  Pd  Pd13  1  0.118117  0.118117  0.118117  1
  Pd  Pd14  1  0.881883  0.881883  0.881883  1
  Pd  Pd15  1  0.118117  0.118117  0.645649  1
  Pd  Pd16  1  0.118117  0.645649  0.118117  1
  Pd  Pd17  1  0.881883  0.881883  0.354351  1
  Pd  Pd18  1  0.881883  0.354351  0.881883  1
  Pd  Pd19  1  0.645649  0.118117  0.118117  1
  Pd  Pd20  1  0.354351  0.881883  0.881883  1
  Pd  Pd21  1  0.330623  0.330623  0.330623  1
  Pd  Pd22  1  0.669377  0.669377  0.669377  1
  Pd  Pd23  1  0.330623  0.330623  0.008132  1
  Pd  Pd24  1  0.330623  0.008132  0.330623  1
  Pd  Pd25  1  0.669377  0.669377  0.991868  1
  Pd  Pd26  1  0.669377  0.991868  0.669377  1
  Pd  Pd27  1  0.008132  0.330623  0.330623  1
  Pd  Pd28  1  0.991868  0.669377  0.669377  1
  S  S29  1  0.500000  0.500000  0.500000  1
