# generated using pymatgen
data_Lu4Ga5Tc3
_symmetry_space_group_name_H-M   'P 1'
_cell_length_a   5.42055471
_cell_length_b   5.45313697
_cell_length_c   8.63429900
_cell_angle_alpha   90.00000000
_cell_angle_beta   90.00000000
_cell_angle_gamma   120.19904325
_symmetry_Int_Tables_number   1
_chemical_formula_structural   Lu4Ga5Tc3
_chemical_formula_sum   'Lu4 Ga5 Tc3'
_cell_volume   220.58363742
_cell_formula_units_Z   1
loop_
 _symmetry_equiv_pos_site_id
 _symmetry_equiv_pos_as_xyz
  1  'x, y, z'
loop_
 _atom_site_type_symbol
 _atom_site_label
 _atom_site_symmetry_multiplicity
 _atom_site_fract_x
 _atom_site_fract_y
 _atom_site_fract_z
 _atom_site_occupancy
  Lu  Lu0  1  0.334227  0.667113  0.443328  1
  Lu  Lu1  1  0.662192  0.331095  0.552488  1
  Lu  Lu2  1  0.662192  0.331095  0.947512  1
  Lu  Lu3  1  0.334227  0.667113  0.056672  1
  Ga  Ga4  1  0.835371  0.166096  0.250000  1
  Ga  Ga5  1  0.835371  0.669275  0.250000  1
  Ga  Ga6  1  0.328473  0.164236  0.250000  1
  Ga  Ga7  1  0.188929  0.840010  0.750000  1
  Ga  Ga8  1  0.188929  0.348919  0.750000  1
  Tc  Tc9  1  0.976365  0.988183  0.509725  1
  Tc  Tc10  1  0.976365  0.988183  0.990275  1
  Tc  Tc11  1  0.677359  0.838679  0.750000  1
