# generated using pymatgen
data_Zr4MnS8
_symmetry_space_group_name_H-M   'P 1'
_cell_length_a   7.05218520
_cell_length_b   7.05218500
_cell_length_c   8.74278703
_cell_angle_alpha   53.47823515
_cell_angle_beta   53.47823305
_cell_angle_gamma   62.05896087
_symmetry_Int_Tables_number   1
_chemical_formula_structural   Zr4MnS8
_chemical_formula_sum   'Zr4 Mn1 S8'
_cell_volume   276.36908816
_cell_formula_units_Z   1
loop_
 _symmetry_equiv_pos_site_id
 _symmetry_equiv_pos_as_xyz
  1  'x, y, z'
loop_
 _atom_site_type_symbol
 _atom_site_label
 _atom_site_symmetry_multiplicity
 _atom_site_fract_x
 _atom_site_fract_y
 _atom_site_fract_z
 _atom_site_occupancy
  Zr  Zr0  1  0.255114  0.255114  0.003550  1
  Zr  Zr1  1  0.744886  0.744886  0.996450  1
  Zr  Zr2  1  0.244229  0.755771  0.500000  1
  Zr  Zr3  1  0.755771  0.244229  0.500000  1
  Mn  Mn4  1  0.000000  0.000000  0.000000  1
  S  S5  1  0.290447  0.290447  0.673121  1
  S  S6  1  0.791678  0.791678  0.663337  1
  S  S7  1  0.282240  0.795459  0.166524  1
  S  S8  1  0.795459  0.282240  0.166524  1
  S  S9  1  0.204541  0.717760  0.833476  1
  S  S10  1  0.717760  0.204541  0.833476  1
  S  S11  1  0.208322  0.208322  0.336663  1
  S  S12  1  0.709553  0.709553  0.326879  1
