# generated using pymatgen
data_La16Mg3Cd(TcNi)2
_symmetry_space_group_name_H-M   'P 1'
_cell_length_a   10.09710870
_cell_length_b   10.11351998
_cell_length_c   10.25183100
_cell_angle_alpha   59.54656250
_cell_angle_beta   59.49179395
_cell_angle_gamma   59.14383079
_symmetry_Int_Tables_number   1
_chemical_formula_structural   La16Mg3Cd(TcNi)2
_chemical_formula_sum   'La16 Mg3 Cd1 Tc2 Ni2'
_cell_volume   730.03320804
_cell_formula_units_Z   1
loop_
 _symmetry_equiv_pos_site_id
 _symmetry_equiv_pos_as_xyz
  1  'x, y, z'
loop_
 _atom_site_type_symbol
 _atom_site_label
 _atom_site_symmetry_multiplicity
 _atom_site_fract_x
 _atom_site_fract_y
 _atom_site_fract_z
 _atom_site_occupancy
  La  La0  1  0.596670  0.597183  0.593539  1
  La  La1  1  0.596670  0.597183  0.212610  1
  La  La2  1  0.597083  0.214843  0.594037  1
  La  La3  1  0.216927  0.597236  0.592919  1
  La  La4  1  0.064332  0.436973  0.436727  1
  La  La5  1  0.438230  0.063101  0.060436  1
  La  La6  1  0.438230  0.063101  0.438234  1
  La  La7  1  0.064332  0.436973  0.061969  1
  La  La8  1  0.437208  0.437952  0.062420  1
  La  La9  1  0.058971  0.058782  0.441123  1
  La  La10  1  0.191806  0.803421  0.814526  1
  La  La11  1  0.804043  0.189763  0.191335  1
  La  La12  1  0.804043  0.189763  0.814859  1
  La  La13  1  0.191806  0.803421  0.190246  1
  La  La14  1  0.813030  0.813241  0.186865  1
  La  La15  1  0.194485  0.190881  0.807317  1
  Mg  Mg16  1  0.825520  0.827712  0.829488  1
  Mg  Mg17  1  0.825520  0.827712  0.517281  1
  Mg  Mg18  1  0.824871  0.517120  0.829005  1
  Cd  Cd19  1  0.511981  0.828419  0.829801  1
  Tc  Tc20  1  0.389537  0.390176  0.382842  1
  Tc  Tc21  1  0.389537  0.390176  0.837445  1
  Ni  Ni22  1  0.394583  0.830295  0.387562  1
  Ni  Ni23  1  0.830590  0.394575  0.387418  1
