# generated using pymatgen
data_YbTm3(BeSi3)2
_symmetry_space_group_name_H-M   'P 1'
_cell_length_a   7.88229856
_cell_length_b   7.81940301
_cell_length_c   5.59131279
_cell_angle_alpha   69.74285526
_cell_angle_beta   68.53830459
_cell_angle_gamma   41.71884937
_symmetry_Int_Tables_number   1
_chemical_formula_structural   YbTm3(BeSi3)2
_chemical_formula_sum   'Yb1 Tm3 Be2 Si6'
_cell_volume   211.94125280
_cell_formula_units_Z   1
loop_
 _symmetry_equiv_pos_site_id
 _symmetry_equiv_pos_as_xyz
  1  'x, y, z'
loop_
 _atom_site_type_symbol
 _atom_site_label
 _atom_site_symmetry_multiplicity
 _atom_site_fract_x
 _atom_site_fract_y
 _atom_site_fract_z
 _atom_site_occupancy
  Yb  Yb0  1  0.750001  0.749999  0.750000  1
  Tm  Tm1  1  0.250000  0.250000  0.250001  1
  Tm  Tm2  1  0.244776  0.755224  0.244777  1
  Tm  Tm3  1  0.755224  0.244777  0.755225  1
  Be  Be4  1  0.666316  0.666317  0.333684  1
  Be  Be5  1  0.333683  0.333684  0.666317  1
  Si  Si6  1  0.822960  0.348377  0.174565  1
  Si  Si7  1  0.827605  0.827605  0.172396  1
  Si  Si8  1  0.654099  0.174565  0.348377  1
  Si  Si9  1  0.348377  0.822960  0.654100  1
  Si  Si10  1  0.172395  0.172396  0.827606  1
  Si  Si11  1  0.174564  0.654100  0.822960  1
