# generated using pymatgen
data_Th2Sc3(Hg2Ir)2
_symmetry_space_group_name_H-M   'P 1'
_cell_length_a   3.65229300
_cell_length_b   7.81024900
_cell_length_c   17.50844600
_cell_angle_alpha   90.00000000
_cell_angle_beta   90.00000000
_cell_angle_gamma   90.00000000
_symmetry_Int_Tables_number   1
_chemical_formula_structural   Th2Sc3(Hg2Ir)2
_chemical_formula_sum   'Th4 Sc6 Hg8 Ir4'
_cell_volume   499.43398548
_cell_formula_units_Z   2
loop_
 _symmetry_equiv_pos_site_id
 _symmetry_equiv_pos_as_xyz
  1  'x, y, z'
loop_
 _atom_site_type_symbol
 _atom_site_label
 _atom_site_symmetry_multiplicity
 _atom_site_fract_x
 _atom_site_fract_y
 _atom_site_fract_z
 _atom_site_occupancy
  Th  Th0  1  0.000000  0.766277  0.784065  1
  Th  Th1  1  0.000000  0.233723  0.215935  1
  Th  Th2  1  0.000000  0.266277  0.715935  1
  Th  Th3  1  0.000000  0.733723  0.284065  1
  Sc  Sc4  1  0.000000  0.000000  0.000000  1
  Sc  Sc5  1  0.000000  0.500000  0.500000  1
  Sc  Sc6  1  0.000000  0.892959  0.585672  1
  Sc  Sc7  1  0.000000  0.107041  0.414328  1
  Sc  Sc8  1  0.000000  0.392959  0.914328  1
  Sc  Sc9  1  0.000000  0.607041  0.085672  1
  Hg  Hg10  1  0.500000  0.791316  0.449162  1
  Hg  Hg11  1  0.500000  0.208684  0.550838  1
  Hg  Hg12  1  0.500000  0.291316  0.050838  1
  Hg  Hg13  1  0.500000  0.708684  0.949162  1
  Hg  Hg14  1  0.500000  0.909123  0.135337  1
  Hg  Hg15  1  0.500000  0.090877  0.864663  1
  Hg  Hg16  1  0.500000  0.409123  0.364663  1
  Hg  Hg17  1  0.500000  0.590877  0.635337  1
  Ir  Ir18  1  0.500000  0.979083  0.695108  1
  Ir  Ir19  1  0.500000  0.020917  0.304892  1
  Ir  Ir20  1  0.500000  0.479083  0.804892  1
  Ir  Ir21  1  0.500000  0.520917  0.195108  1
