# generated using pymatgen
data_HoEr15In4OsRh3
_symmetry_space_group_name_H-M   'P 1'
_cell_length_a   9.56803525
_cell_length_b   9.60189206
_cell_length_c   9.58055300
_cell_angle_alpha   60.07349201
_cell_angle_beta   59.95671617
_cell_angle_gamma   60.06950458
_symmetry_Int_Tables_number   1
_chemical_formula_structural   HoEr15In4OsRh3
_chemical_formula_sum   'Ho1 Er15 In4 Os1 Rh3'
_cell_volume   622.84658601
_cell_formula_units_Z   1
loop_
 _symmetry_equiv_pos_site_id
 _symmetry_equiv_pos_as_xyz
  1  'x, y, z'
loop_
 _atom_site_type_symbol
 _atom_site_label
 _atom_site_symmetry_multiplicity
 _atom_site_fract_x
 _atom_site_fract_y
 _atom_site_fract_z
 _atom_site_occupancy
  Ho  Ho0  1  0.189356  0.192615  0.809015  1
  Er  Er1  1  0.438201  0.061145  0.062642  1
  Er  Er2  1  0.438201  0.061145  0.438013  1
  Er  Er3  1  0.058809  0.437011  0.059059  1
  Er  Er4  1  0.649471  0.049022  0.650753  1
  Er  Er5  1  0.191537  0.809025  0.808856  1
  Er  Er6  1  0.061987  0.060976  0.438519  1
  Er  Er7  1  0.809552  0.193012  0.188939  1
  Er  Er8  1  0.809939  0.808843  0.190609  1
  Er  Er9  1  0.650666  0.650133  0.046933  1
  Er  Er10  1  0.650666  0.650133  0.652267  1
  Er  Er11  1  0.058809  0.437011  0.445121  1
  Er  Er12  1  0.047740  0.649840  0.651209  1
  Er  Er13  1  0.809552  0.193012  0.808498  1
  Er  Er14  1  0.444441  0.436402  0.059578  1
  Er  Er15  1  0.191537  0.809025  0.190582  1
  In  In16  1  0.417258  0.747771  0.417485  1
  In  In17  1  0.417707  0.416317  0.748768  1
  In  In18  1  0.748715  0.416292  0.417497  1
  In  In19  1  0.417707  0.416317  0.417208  1
  Os  Os20  1  0.857769  0.425300  0.858466  1
  Rh  Rh21  1  0.858394  0.860222  0.423075  1
  Rh  Rh22  1  0.423591  0.859211  0.858599  1
  Rh  Rh23  1  0.858394  0.860222  0.858307  1
