# generated using pymatgen
data_HfTh6P12Rh17
_symmetry_space_group_name_H-M   'P 1'
_cell_length_a   3.96433600
_cell_length_b   11.27360900
_cell_length_c   12.93040100
_cell_angle_alpha   90.00000000
_cell_angle_beta   90.00000000
_cell_angle_gamma   90.00000000
_symmetry_Int_Tables_number   1
_chemical_formula_structural   HfTh6P12Rh17
_chemical_formula_sum   'Hf1 Th6 P12 Rh17'
_cell_volume   577.89031757
_cell_formula_units_Z   1
loop_
 _symmetry_equiv_pos_site_id
 _symmetry_equiv_pos_as_xyz
  1  'x, y, z'
loop_
 _atom_site_type_symbol
 _atom_site_label
 _atom_site_symmetry_multiplicity
 _atom_site_fract_x
 _atom_site_fract_y
 _atom_site_fract_z
 _atom_site_occupancy
  Hf  Hf0  1  0.500000  0.500000  0.155015  1
  Th  Th1  1  0.000000  0.500000  0.524680  1
  Th  Th2  1  0.500000  0.000000  0.480079  1
  Th  Th3  1  0.500000  0.818167  0.207488  1
  Th  Th4  1  0.500000  0.181833  0.207488  1
  Th  Th5  1  0.000000  0.682314  0.797034  1
  Th  Th6  1  0.000000  0.317686  0.797034  1
  P  P7  1  0.500000  0.500000  0.878286  1
  P  P8  1  0.000000  0.000000  0.117716  1
  P  P9  1  0.500000  0.500000  0.354704  1
  P  P10  1  0.000000  0.000000  0.655648  1
  P  P11  1  0.500000  0.312372  0.616564  1
  P  P12  1  0.500000  0.687628  0.616564  1
  P  P13  1  0.000000  0.185408  0.385313  1
  P  P14  1  0.000000  0.814592  0.385313  1
  P  P15  1  0.500000  0.852287  0.888692  1
  P  P16  1  0.500000  0.147713  0.888692  1
  P  P17  1  0.000000  0.657157  0.106704  1
  P  P18  1  0.000000  0.342843  0.106704  1
  Rh  Rh19  1  0.000000  0.000000  0.836740  1
  Rh  Rh20  1  0.500000  0.500000  0.699063  1
  Rh  Rh21  1  0.000000  0.000000  0.297399  1
  Rh  Rh22  1  0.000000  0.500000  0.987002  1
  Rh  Rh23  1  0.500000  0.000000  0.017015  1
  Rh  Rh24  1  0.500000  0.331463  0.988388  1
  Rh  Rh25  1  0.500000  0.668537  0.988388  1
  Rh  Rh26  1  0.000000  0.166072  0.007569  1
  Rh  Rh27  1  0.000000  0.833928  0.007569  1
  Rh  Rh28  1  0.500000  0.296879  0.433357  1
  Rh  Rh29  1  0.500000  0.703121  0.433357  1
  Rh  Rh30  1  0.000000  0.201102  0.567825  1
  Rh  Rh31  1  0.000000  0.798898  0.567825  1
  Rh  Rh32  1  0.500000  0.872942  0.708675  1
  Rh  Rh33  1  0.500000  0.127058  0.708675  1
  Rh  Rh34  1  0.000000  0.626187  0.290716  1
  Rh  Rh35  1  0.000000  0.373813  0.290716  1
