# generated using pymatgen
data_SrPa2Ni3Sb4
_symmetry_space_group_name_H-M   'P 1'
_cell_length_a   8.26973807
_cell_length_b   8.27142145
_cell_length_c   8.25497752
_cell_angle_alpha   109.34182998
_cell_angle_beta   109.47966096
_cell_angle_gamma   109.56011302
_symmetry_Int_Tables_number   1
_chemical_formula_structural   SrPa2Ni3Sb4
_chemical_formula_sum   'Sr2 Pa4 Ni6 Sb8'
_cell_volume   434.84692522
_cell_formula_units_Z   2
loop_
 _symmetry_equiv_pos_site_id
 _symmetry_equiv_pos_as_xyz
  1  'x, y, z'
loop_
 _atom_site_type_symbol
 _atom_site_label
 _atom_site_symmetry_multiplicity
 _atom_site_fract_x
 _atom_site_fract_y
 _atom_site_fract_z
 _atom_site_occupancy
  Sr  Sr0  1  0.620593  0.373624  0.249751  1
  Sr  Sr1  1  0.379407  0.253030  0.629158  1
  Pa  Pa2  1  0.123378  0.750041  0.871460  1
  Pa  Pa3  1  0.747853  0.872493  0.124778  1
  Pa  Pa4  1  0.252147  0.624641  0.376925  1
  Pa  Pa5  1  0.876622  0.126663  0.748083  1
  Ni  Ni6  1  0.881166  0.242826  0.110301  1
  Ni  Ni7  1  0.367516  0.638693  0.756182  1
  Ni  Ni8  1  0.632484  0.771177  0.388666  1
  Ni  Ni9  1  0.785893  0.384050  0.650698  1
  Ni  Ni10  1  0.214107  0.098157  0.864806  1
  Ni  Ni11  1  0.118834  0.861660  0.229135  1
  Sb  Sb12  1  0.500887  0.998464  0.838048  1
  Sb  Sb13  1  0.157044  0.159589  0.161422  1
  Sb  Sb14  1  0.842956  0.502545  0.004378  1
  Sb  Sb15  1  0.000538  0.837459  0.494826  1
  Sb  Sb16  1  0.334523  0.502456  0.002228  1
  Sb  Sb17  1  0.999462  0.336922  0.494288  1
  Sb  Sb18  1  0.499113  0.997577  0.337161  1
  Sb  Sb19  1  0.665477  0.667933  0.667705  1
