# generated using pymatgen
data_Ho3CdIn3HgIr
_symmetry_space_group_name_H-M   'P 1'
_cell_length_a   8.01433800
_cell_length_b   8.01433810
_cell_length_c   3.85048000
_cell_angle_alpha   90.00000000
_cell_angle_beta   90.00000000
_cell_angle_gamma   119.99999132
_symmetry_Int_Tables_number   1
_chemical_formula_structural   Ho3CdIn3HgIr
_chemical_formula_sum   'Ho3 Cd1 In3 Hg1 Ir1'
_cell_volume   214.18095785
_cell_formula_units_Z   1
loop_
 _symmetry_equiv_pos_site_id
 _symmetry_equiv_pos_as_xyz
  1  'x, y, z'
loop_
 _atom_site_type_symbol
 _atom_site_label
 _atom_site_symmetry_multiplicity
 _atom_site_fract_x
 _atom_site_fract_y
 _atom_site_fract_z
 _atom_site_occupancy
  Ho  Ho0  1  0.581417  0.619642  0.000000  1
  Ho  Ho1  1  0.380358  0.961775  0.000000  1
  Ho  Ho2  1  0.038225  0.418583  0.000000  1
  Cd  Cd3  1  0.000000  0.000000  0.000000  1
  In  In4  1  0.997459  0.722672  0.500000  1
  In  In5  1  0.277328  0.274787  0.500000  1
  In  In6  1  0.725213  0.002541  0.500000  1
  Hg  Hg7  1  0.666667  0.333333  0.500000  1
  Ir  Ir8  1  0.333333  0.666667  0.500000  1
