# generated using pymatgen
data_Er7Lu3Si5Sn
_symmetry_space_group_name_H-M   'P 1'
_cell_length_a   8.40550809
_cell_length_b   8.43293284
_cell_length_c   6.27017421
_cell_angle_alpha   90.02579762
_cell_angle_beta   89.99983375
_cell_angle_gamma   119.90954032
_symmetry_Int_Tables_number   1
_chemical_formula_structural   Er7Lu3Si5Sn
_chemical_formula_sum   'Er7 Lu3 Si5 Sn1'
_cell_volume   385.25469949
_cell_formula_units_Z   1
loop_
 _symmetry_equiv_pos_site_id
 _symmetry_equiv_pos_as_xyz
  1  'x, y, z'
loop_
 _atom_site_type_symbol
 _atom_site_label
 _atom_site_symmetry_multiplicity
 _atom_site_fract_x
 _atom_site_fract_y
 _atom_site_fract_z
 _atom_site_occupancy
  Er  Er0  1  0.989663  0.749031  0.749858  1
  Er  Er1  1  0.998072  0.242210  0.250215  1
  Er  Er2  1  0.756012  0.757593  0.250188  1
  Er  Er3  1  0.765762  0.000141  0.749819  1
  Er  Er4  1  0.240750  0.250801  0.749750  1
  Er  Er5  1  0.241241  0.000149  0.250194  1
  Er  Er6  1  0.331260  0.657471  0.002972  1
  Lu  Lu7  1  0.331215  0.657346  0.497068  1
  Lu  Lu8  1  0.673872  0.342656  0.002939  1
  Lu  Lu9  1  0.673884  0.342587  0.497077  1
  Si  Si10  1  0.394043  0.392075  0.250597  1
  Si  Si11  1  0.000840  0.607383  0.250514  1
  Si  Si12  1  0.998029  0.394345  0.749445  1
  Si  Si13  1  0.604251  0.605152  0.749448  1
  Si  Si14  1  0.604951  0.000472  0.250444  1
  Sn  Sn15  1  0.396155  0.000588  0.749472  1
