# generated using pymatgen
data_Tb6ReB14Os
_symmetry_space_group_name_H-M   'P 1'
_cell_length_a   8.11974417
_cell_length_b   8.11974454
_cell_length_c   9.37305000
_cell_angle_alpha   90.00000000
_cell_angle_beta   90.00000000
_cell_angle_gamma   154.76315971
_symmetry_Int_Tables_number   1
_chemical_formula_structural   Tb6ReB14Os
_chemical_formula_sum   'Tb6 Re1 B14 Os1'
_cell_volume   263.47724323
_cell_formula_units_Z   1
loop_
 _symmetry_equiv_pos_site_id
 _symmetry_equiv_pos_as_xyz
  1  'x, y, z'
loop_
 _atom_site_type_symbol
 _atom_site_label
 _atom_site_symmetry_multiplicity
 _atom_site_fract_x
 _atom_site_fract_y
 _atom_site_fract_z
 _atom_site_occupancy
  Tb  Tb0  1  0.894694  0.105306  0.060507  1
  Tb  Tb1  1  0.105409  0.894591  0.561522  1
  Tb  Tb2  1  0.105409  0.894591  0.938478  1
  Tb  Tb3  1  0.894694  0.105306  0.439493  1
  Tb  Tb4  1  0.243290  0.756710  0.250000  1
  Tb  Tb5  1  0.757099  0.242901  0.750000  1
  Re  Re6  1  0.946850  0.053150  0.750000  1
  B  B7  1  0.458472  0.541528  0.250000  1
  B  B8  1  0.542039  0.457961  0.750000  1
  B  B9  1  0.726814  0.273186  0.034498  1
  B  B10  1  0.272579  0.727421  0.533286  1
  B  B11  1  0.272579  0.727421  0.966714  1
  B  B12  1  0.726814  0.273186  0.465502  1
  B  B13  1  0.631695  0.368305  0.348551  1
  B  B14  1  0.367746  0.632254  0.848858  1
  B  B15  1  0.367746  0.632254  0.651142  1
  B  B16  1  0.631695  0.368305  0.151449  1
  B  B17  1  0.521225  0.478775  0.403364  1
  B  B18  1  0.478798  0.521202  0.904027  1
  B  B19  1  0.478798  0.521202  0.595973  1
  B  B20  1  0.521225  0.478775  0.096636  1
  Os  Os21  1  0.054331  0.945668  0.250000  1
