# generated using pymatgen
data_Hf6Al16Co2NiPd4
_symmetry_space_group_name_H-M   'P 1'
_cell_length_a   8.64805293
_cell_length_b   8.64475186
_cell_length_c   8.64213367
_cell_angle_alpha   60.04437696
_cell_angle_beta   59.96895375
_cell_angle_gamma   60.07171361
_symmetry_Int_Tables_number   1
_chemical_formula_structural   Hf6Al16Co2NiPd4
_chemical_formula_sum   'Hf6 Al16 Co2 Ni1 Pd4'
_cell_volume   457.14617982
_cell_formula_units_Z   1
loop_
 _symmetry_equiv_pos_site_id
 _symmetry_equiv_pos_as_xyz
  1  'x, y, z'
loop_
 _atom_site_type_symbol
 _atom_site_label
 _atom_site_symmetry_multiplicity
 _atom_site_fract_x
 _atom_site_fract_y
 _atom_site_fract_z
 _atom_site_occupancy
  Hf  Hf0  1  0.683409  0.681325  0.318528  1
  Hf  Hf1  1  0.313766  0.684042  0.314975  1
  Hf  Hf2  1  0.685937  0.314238  0.312981  1
  Hf  Hf3  1  0.316591  0.318675  0.681472  1
  Hf  Hf4  1  0.686234  0.315958  0.685025  1
  Hf  Hf5  1  0.314063  0.685762  0.687019  1
  Al  Al6  1  0.886437  0.871958  0.351938  1
  Al  Al7  1  0.883171  0.351615  0.876006  1
  Al  Al8  1  0.349956  0.876661  0.885006  1
  Al  Al9  1  0.884400  0.881730  0.884188  1
  Al  Al10  1  0.113563  0.128042  0.648062  1
  Al  Al11  1  0.116829  0.648385  0.123994  1
  Al  Al12  1  0.650044  0.123339  0.114994  1
  Al  Al13  1  0.115600  0.118270  0.115812  1
  Al  Al14  1  0.661397  0.660672  0.003486  1
  Al  Al15  1  0.665720  0.003455  0.665079  1
  Al  Al16  1  0.003985  0.660315  0.660279  1
  Al  Al17  1  0.670668  0.656887  0.668072  1
  Al  Al18  1  0.338603  0.339328  0.996514  1
  Al  Al19  1  0.334280  0.996545  0.334921  1
  Al  Al20  1  0.996015  0.339685  0.339721  1
  Al  Al21  1  0.329332  0.343113  0.331928  1
  Co  Co22  1  0.000000  0.000000  0.000000  1
  Co  Co23  1  0.000000  0.500000  0.500000  1
  Ni  Ni24  1  0.500000  0.500000  0.000000  1
  Pd  Pd25  1  0.000000  0.000000  0.500000  1
  Pd  Pd26  1  0.500000  0.000000  0.500000  1
  Pd  Pd27  1  0.000000  0.500000  0.000000  1
  Pd  Pd28  1  0.500000  0.000000  0.000000  1
