# generated using pymatgen
data_Lu12Co4SbRu
_symmetry_space_group_name_H-M   'P 1'
_cell_length_a   8.08908502
_cell_length_b   8.08908535
_cell_length_c   8.08908519
_cell_angle_alpha   111.47959989
_cell_angle_beta   110.74903056
_cell_angle_gamma   106.23364628
_symmetry_Int_Tables_number   1
_chemical_formula_structural   Lu12Co4SbRu
_chemical_formula_sum   'Lu12 Co4 Sb1 Ru1'
_cell_volume   406.46559888
_cell_formula_units_Z   1
loop_
 _symmetry_equiv_pos_site_id
 _symmetry_equiv_pos_as_xyz
  1  'x, y, z'
loop_
 _atom_site_type_symbol
 _atom_site_label
 _atom_site_symmetry_multiplicity
 _atom_site_fract_x
 _atom_site_fract_y
 _atom_site_fract_z
 _atom_site_occupancy
  Lu  Lu0  1  0.416210  0.219860  0.196350  1
  Lu  Lu1  1  0.583790  0.780140  0.803650  1
  Lu  Lu2  1  0.023508  0.219860  0.803650  1
  Lu  Lu3  1  0.976492  0.780140  0.196350  1
  Lu  Lu4  1  0.182281  0.279307  0.461588  1
  Lu  Lu5  1  0.817719  0.720693  0.538412  1
  Lu  Lu6  1  0.182281  0.720693  0.902975  1
  Lu  Lu7  1  0.817719  0.279307  0.097025  1
  Lu  Lu8  1  0.312910  0.620626  0.307715  1
  Lu  Lu9  1  0.687090  0.379374  0.692285  1
  Lu  Lu10  1  0.312910  0.005195  0.692285  1
  Lu  Lu11  1  0.687090  0.994805  0.307715  1
  Co  Co12  1  0.371573  0.000000  0.371573  1
  Co  Co13  1  0.628427  0.000000  0.628427  1
  Co  Co14  1  0.112657  0.612657  0.500000  1
  Co  Co15  1  0.887343  0.387343  0.500000  1
  Sb  Sb16  1  0.500000  0.500000  0.000000  1
  Ru  Ru17  1  0.000000  0.000000  0.000000  1
