# generated using pymatgen
data_TbMnCrB6
_symmetry_space_group_name_H-M   'P 1'
_cell_length_a   5.46390837
_cell_length_b   5.46390834
_cell_length_c   5.46390888
_cell_angle_alpha   147.11597873
_cell_angle_beta   107.84622003
_cell_angle_gamma   81.59122822
_symmetry_Int_Tables_number   1
_chemical_formula_structural   TbMnCrB6
_chemical_formula_sum   'Tb1 Mn1 Cr1 B6'
_cell_volume   82.33165763
_cell_formula_units_Z   1
loop_
 _symmetry_equiv_pos_site_id
 _symmetry_equiv_pos_as_xyz
  1  'x, y, z'
loop_
 _atom_site_type_symbol
 _atom_site_label
 _atom_site_symmetry_multiplicity
 _atom_site_fract_x
 _atom_site_fract_y
 _atom_site_fract_z
 _atom_site_occupancy
  Tb  Tb0  1  0.000391  0.000391  0.000000  1
  Mn  Mn1  1  0.653479  0.153479  0.500000  1
  Cr  Cr2  1  0.344259  0.844260  0.500000  1
  B  B3  1  0.543332  0.303888  0.239444  1
  B  B4  1  0.461084  0.696532  0.764551  1
  B  B5  1  0.931981  0.696532  0.235449  1
  B  B6  1  0.359345  0.500515  0.858829  1
  B  B7  1  0.641686  0.500515  0.141171  1
  B  B8  1  0.064446  0.303888  0.760556  1
