# generated using pymatgen
data_PmSm(ZnGe)2
_symmetry_space_group_name_H-M   'P 1'
_cell_length_a   5.92161719
_cell_length_b   5.92161782
_cell_length_c   5.92161800
_cell_angle_alpha   138.34163035
_cell_angle_beta   105.37012816
_cell_angle_gamma   89.30242118
_symmetry_Int_Tables_number   1
_chemical_formula_structural   PmSm(ZnGe)2
_chemical_formula_sum   'Pm1 Sm1 Zn2 Ge2'
_cell_volume   127.36433032
_cell_formula_units_Z   1
loop_
 _symmetry_equiv_pos_site_id
 _symmetry_equiv_pos_as_xyz
  1  'x, y, z'
loop_
 _atom_site_type_symbol
 _atom_site_label
 _atom_site_symmetry_multiplicity
 _atom_site_fract_x
 _atom_site_fract_y
 _atom_site_fract_z
 _atom_site_occupancy
  Pm  Pm0  1  0.000517  0.000000  0.000517  1
  Sm  Sm1  1  0.499939  0.500000  0.999939  1
  Zn  Zn2  1  0.582354  0.250282  0.332074  1
  Zn  Zn3  1  0.081792  0.749717  0.332074  1
  Ge  Ge4  1  0.918217  0.250518  0.667699  1
  Ge  Ge5  1  0.417179  0.749481  0.667698  1
