# generated using pymatgen
data_CaYbY(Si3Pd10)2
_symmetry_space_group_name_H-M   'P 1'
_cell_length_a   8.71916441
_cell_length_b   8.71916438
_cell_length_c   8.71916400
_cell_angle_alpha   60.00000143
_cell_angle_beta   60.00000156
_cell_angle_gamma   60.00000091
_symmetry_Int_Tables_number   1
_chemical_formula_structural   CaYbY(Si3Pd10)2
_chemical_formula_sum   'Ca1 Yb1 Y1 Si6 Pd20'
_cell_volume   468.71580019
_cell_formula_units_Z   1
loop_
 _symmetry_equiv_pos_site_id
 _symmetry_equiv_pos_as_xyz
  1  'x, y, z'
loop_
 _atom_site_type_symbol
 _atom_site_label
 _atom_site_symmetry_multiplicity
 _atom_site_fract_x
 _atom_site_fract_y
 _atom_site_fract_z
 _atom_site_occupancy
  Ca  Ca0  1  0.750000  0.750000  0.750000  1
  Yb  Yb1  1  0.000000  0.000000  0.000000  1
  Y  Y2  1  0.250000  0.250000  0.250000  1
  Si  Si3  1  0.732729  0.267271  0.267271  1
  Si  Si4  1  0.267271  0.732729  0.732729  1
  Si  Si5  1  0.267271  0.732729  0.267271  1
  Si  Si6  1  0.732729  0.267271  0.732729  1
  Si  Si7  1  0.267271  0.267271  0.732729  1
  Si  Si8  1  0.732729  0.732729  0.267271  1
  Pd  Pd9  1  0.383610  0.383610  0.383610  1
  Pd  Pd10  1  0.615293  0.615293  0.615293  1
  Pd  Pd11  1  0.383610  0.383610  0.849171  1
  Pd  Pd12  1  0.383610  0.849171  0.383610  1
  Pd  Pd13  1  0.615293  0.615293  0.154120  1
  Pd  Pd14  1  0.615293  0.154120  0.615293  1
  Pd  Pd15  1  0.849171  0.383610  0.383610  1
  Pd  Pd16  1  0.154120  0.615293  0.615293  1
  Pd  Pd17  1  0.343263  0.001279  0.001279  1
  Pd  Pd18  1  0.654179  0.001279  0.001279  1
  Pd  Pd19  1  0.001279  0.343263  0.654179  1
  Pd  Pd20  1  0.001279  0.654179  0.343263  1
  Pd  Pd21  1  0.001279  0.343263  0.001279  1
  Pd  Pd22  1  0.654179  0.001279  0.343263  1
  Pd  Pd23  1  0.001279  0.654179  0.001279  1
  Pd  Pd24  1  0.343263  0.001279  0.654179  1
  Pd  Pd25  1  0.001279  0.001279  0.343263  1
  Pd  Pd26  1  0.001279  0.001279  0.654179  1
  Pd  Pd27  1  0.654179  0.343263  0.001279  1
  Pd  Pd28  1  0.343263  0.654179  0.001279  1
