# generated using pymatgen
data_Sc12Re5Si16Tc3
_symmetry_space_group_name_H-M   'P 1'
_cell_length_a   10.22099941
_cell_length_b   10.21935828
_cell_length_c   13.84735500
_cell_angle_alpha   55.19884218
_cell_angle_beta   55.19696917
_cell_angle_gamma   30.69410061
_symmetry_Int_Tables_number   1
_chemical_formula_structural   Sc12Re5Si16Tc3
_chemical_formula_sum   'Sc12 Re5 Si16 Tc3'
_cell_volume   595.11685259
_cell_formula_units_Z   1
loop_
 _symmetry_equiv_pos_site_id
 _symmetry_equiv_pos_as_xyz
  1  'x, y, z'
loop_
 _atom_site_type_symbol
 _atom_site_label
 _atom_site_symmetry_multiplicity
 _atom_site_fract_x
 _atom_site_fract_y
 _atom_site_fract_z
 _atom_site_occupancy
  Sc  Sc0  1  0.752336  0.482676  0.046540  1
  Sc  Sc1  1  0.536275  0.303932  0.154764  1
  Sc  Sc2  1  0.517296  0.246965  0.453279  1
  Sc  Sc3  1  0.463901  0.696433  0.845429  1
  Sc  Sc4  1  0.290621  0.037854  0.139442  1
  Sc  Sc5  1  0.962648  0.708199  0.360533  1
  Sc  Sc6  1  0.708549  0.962425  0.860622  1
  Sc  Sc7  1  0.037420  0.291997  0.639297  1
  Sc  Sc8  1  0.247303  0.516641  0.953760  1
  Sc  Sc9  1  0.482242  0.753225  0.546958  1
  Sc  Sc10  1  0.303183  0.536083  0.654822  1
  Sc  Sc11  1  0.697488  0.463853  0.344370  1
  Re  Re12  1  0.173642  0.353838  0.216794  1
  Re  Re13  1  0.138725  0.912174  0.077621  1
  Re  Re14  1  0.087793  0.861840  0.422241  1
  Re  Re15  1  0.861702  0.087827  0.922558  1
  Re  Re16  1  0.912810  0.137096  0.577946  1
  Si  Si17  1  0.889416  0.110508  0.250005  1
  Si  Si18  1  0.110442  0.889260  0.750429  1
  Si  Si19  1  0.357544  0.642227  0.250176  1
  Si  Si20  1  0.642450  0.357503  0.750102  1
  Si  Si21  1  0.999255  0.232410  0.875454  1
  Si  Si22  1  0.767404  0.001128  0.624436  1
  Si  Si23  1  0.002148  0.768074  0.123599  1
  Si  Si24  1  0.231877  0.998876  0.375972  1
  Si  Si25  1  0.602511  0.047876  0.073476  1
  Si  Si26  1  0.951438  0.397443  0.427739  1
  Si  Si27  1  0.398141  0.952206  0.925874  1
  Si  Si28  1  0.047976  0.602232  0.573748  1
  Si  Si29  1  0.391733  0.156417  0.384820  1
  Si  Si30  1  0.844535  0.607952  0.113351  1
  Si  Si31  1  0.608187  0.843597  0.615582  1
  Si  Si32  1  0.155167  0.392578  0.885275  1
  Tc  Tc33  1  0.646050  0.826113  0.283084  1
  Tc  Tc34  1  0.825907  0.646195  0.783633  1
  Tc  Tc35  1  0.353887  0.174345  0.716269  1
