# generated using pymatgen
data_Sr14Cd51
_symmetry_space_group_name_H-M   'P 1'
_cell_length_a   13.81818800
_cell_length_b   13.81818864
_cell_length_c   10.11326600
_cell_angle_alpha   90.00000000
_cell_angle_beta   90.00000000
_cell_angle_gamma   120.00000326
_symmetry_Int_Tables_number   1
_chemical_formula_structural   Sr14Cd51
_chemical_formula_sum   'Sr14 Cd51'
_cell_volume   1672.33878402
_cell_formula_units_Z   1
loop_
 _symmetry_equiv_pos_site_id
 _symmetry_equiv_pos_as_xyz
  1  'x, y, z'
loop_
 _atom_site_type_symbol
 _atom_site_label
 _atom_site_symmetry_multiplicity
 _atom_site_fract_x
 _atom_site_fract_y
 _atom_site_fract_z
 _atom_site_occupancy
  Sr  Sr0  1  0.801838  0.991944  0.500000  1
  Sr  Sr1  1  0.190106  0.198162  0.500000  1
  Sr  Sr2  1  0.008056  0.809894  0.500000  1
  Sr  Sr3  1  0.861057  0.337286  0.500000  1
  Sr  Sr4  1  0.476229  0.138943  0.500000  1
  Sr  Sr5  1  0.662714  0.523771  0.500000  1
  Sr  Sr6  1  0.449906  0.402685  0.000000  1
  Sr  Sr7  1  0.952779  0.550094  0.000000  1
  Sr  Sr8  1  0.597315  0.047221  0.000000  1
  Sr  Sr9  1  0.212295  0.947038  0.000000  1
  Sr  Sr10  1  0.734742  0.787705  0.000000  1
  Sr  Sr11  1  0.052962  0.265258  0.000000  1
  Sr  Sr12  1  0.333333  0.666667  0.699409  1
  Sr  Sr13  1  0.333333  0.666667  0.300591  1
  Cd  Cd14  1  0.822504  0.043407  0.850967  1
  Cd  Cd15  1  0.220903  0.177496  0.850967  1
  Cd  Cd16  1  0.956593  0.779097  0.850967  1
  Cd  Cd17  1  0.838582  0.285245  0.850891  1
  Cd  Cd18  1  0.446664  0.161418  0.850891  1
  Cd  Cd19  1  0.714755  0.553336  0.850891  1
  Cd  Cd20  1  0.838582  0.285245  0.149109  1
  Cd  Cd21  1  0.446664  0.161418  0.149109  1
  Cd  Cd22  1  0.714755  0.553336  0.149109  1
  Cd  Cd23  1  0.822504  0.043407  0.149033  1
  Cd  Cd24  1  0.220903  0.177496  0.149033  1
  Cd  Cd25  1  0.956593  0.779097  0.149033  1
  Cd  Cd26  1  0.393379  0.491398  0.500000  1
  Cd  Cd27  1  0.098019  0.606621  0.500000  1
  Cd  Cd28  1  0.508602  0.901981  0.500000  1
  Cd  Cd29  1  0.273767  0.843413  0.500000  1
  Cd  Cd30  1  0.569646  0.726233  0.500000  1
  Cd  Cd31  1  0.156587  0.430354  0.500000  1
  Cd  Cd32  1  0.000000  0.000000  0.000000  1
  Cd  Cd33  1  0.666667  0.333333  0.000000  1
  Cd  Cd34  1  0.441455  0.336390  0.669910  1
  Cd  Cd35  1  0.894933  0.558545  0.669910  1
  Cd  Cd36  1  0.663610  0.105067  0.669910  1
  Cd  Cd37  1  0.224629  0.001704  0.668137  1
  Cd  Cd38  1  0.777076  0.775371  0.668137  1
  Cd  Cd39  1  0.998296  0.222924  0.668137  1
  Cd  Cd40  1  0.224629  0.001704  0.331863  1
  Cd  Cd41  1  0.777076  0.775371  0.331863  1
  Cd  Cd42  1  0.998296  0.222924  0.331863  1
  Cd  Cd43  1  0.441455  0.336390  0.330090  1
  Cd  Cd44  1  0.894933  0.558545  0.330090  1
  Cd  Cd45  1  0.663610  0.105067  0.330090  1
  Cd  Cd46  1  0.534670  0.599321  0.760146  1
  Cd  Cd47  1  0.064651  0.465330  0.760146  1
  Cd  Cd48  1  0.400679  0.935349  0.760146  1
  Cd  Cd49  1  0.142141  0.742469  0.764574  1
  Cd  Cd50  1  0.600328  0.857859  0.764574  1
  Cd  Cd51  1  0.257531  0.399672  0.764574  1
  Cd  Cd52  1  0.142141  0.742469  0.235426  1
  Cd  Cd53  1  0.600328  0.857859  0.235426  1
  Cd  Cd54  1  0.257531  0.399672  0.235426  1
  Cd  Cd55  1  0.534670  0.599321  0.239854  1
  Cd  Cd56  1  0.064651  0.465330  0.239854  1
  Cd  Cd57  1  0.400679  0.935349  0.239854  1
  Cd  Cd58  1  0.000000  0.000000  0.711379  1
  Cd  Cd59  1  0.666667  0.333333  0.709492  1
  Cd  Cd60  1  0.666667  0.333333  0.290508  1
  Cd  Cd61  1  0.000000  0.000000  0.288621  1
  Cd  Cd62  1  0.463133  0.683901  0.000000  1
  Cd  Cd63  1  0.220769  0.536867  0.000000  1
  Cd  Cd64  1  0.316099  0.779231  0.000000  1
