# generated using pymatgen
data_Tb4Hf3TiF28
_symmetry_space_group_name_H-M   'P 1'
_cell_length_a   5.67102885
_cell_length_b   9.03916831
_cell_length_c   12.09756300
_cell_angle_alpha   62.54642826
_cell_angle_beta   90.05741674
_cell_angle_gamma   90.00459628
_symmetry_Int_Tables_number   1
_chemical_formula_structural   Tb4Hf3TiF28
_chemical_formula_sum   'Tb4 Hf3 Ti1 F28'
_cell_volume   550.30049658
_cell_formula_units_Z   1
loop_
 _symmetry_equiv_pos_site_id
 _symmetry_equiv_pos_as_xyz
  1  'x, y, z'
loop_
 _atom_site_type_symbol
 _atom_site_label
 _atom_site_symmetry_multiplicity
 _atom_site_fract_x
 _atom_site_fract_y
 _atom_site_fract_z
 _atom_site_occupancy
  Tb  Tb0  1  0.256436  0.813227  0.261773  1
  Tb  Tb1  1  0.742893  0.183921  0.735478  1
  Tb  Tb2  1  0.756986  0.186733  0.233681  1
  Tb  Tb3  1  0.241255  0.813162  0.769366  1
  Hf  Hf4  1  0.245906  0.273851  0.956857  1
  Hf  Hf5  1  0.255834  0.274259  0.455893  1
  Hf  Hf6  1  0.743052  0.726421  0.543991  1
  Ti  Ti7  1  0.755361  0.724497  0.044642  1
  F  F8  1  0.957065  0.709231  0.418677  1
  F  F9  1  0.041059  0.293024  0.579729  1
  F  F10  1  0.460614  0.290404  0.081583  1
  F  F11  1  0.544208  0.712207  0.928264  1
  F  F12  1  0.498760  0.733668  0.141378  1
  F  F13  1  0.524180  0.263262  0.858917  1
  F  F14  1  0.981541  0.271388  0.351970  1
  F  F15  1  0.017688  0.731359  0.647032  1
  F  F16  1  0.961196  0.742313  0.163845  1
  F  F17  1  0.038965  0.252789  0.829198  1
  F  F18  1  0.460647  0.254031  0.327226  1
  F  F19  1  0.538421  0.748072  0.672799  1
  F  F20  1  0.765377  0.490065  0.135661  1
  F  F21  1  0.237129  0.522625  0.859824  1
  F  F22  1  0.274664  0.523499  0.357165  1
  F  F23  1  0.724627  0.477420  0.641827  1
  F  F24  1  0.953840  0.283906  0.047930  1
  F  F25  1  0.026332  0.716682  0.952975  1
  F  F26  1  0.449550  0.722521  0.450852  1
  F  F27  1  0.550444  0.278734  0.547953  1
  F  F28  1  0.742094  0.975270  0.443514  1
  F  F29  1  0.258206  0.026403  0.557071  1
  F  F30  1  0.238710  0.025175  0.055737  1
  F  F31  1  0.760925  0.958870  0.949063  1
  F  F32  1  0.576775  0.971824  0.232327  1
  F  F33  1  0.419820  0.029370  0.768512  1
  F  F34  1  0.076158  0.026979  0.265614  1
  F  F35  1  0.923286  0.972840  0.731674  1
