# generated using pymatgen
data_Nd3Cd3Ge2Pt
_symmetry_space_group_name_H-M   'P 1'
_cell_length_a   7.40214400
_cell_length_b   7.40214285
_cell_length_c   4.49102200
_cell_angle_alpha   90.00000000
_cell_angle_beta   90.00000000
_cell_angle_gamma   119.99999619
_symmetry_Int_Tables_number   1
_chemical_formula_structural   Nd3Cd3Ge2Pt
_chemical_formula_sum   'Nd3 Cd3 Ge2 Pt1'
_cell_volume   213.10361782
_cell_formula_units_Z   1
loop_
 _symmetry_equiv_pos_site_id
 _symmetry_equiv_pos_as_xyz
  1  'x, y, z'
loop_
 _atom_site_type_symbol
 _atom_site_label
 _atom_site_symmetry_multiplicity
 _atom_site_fract_x
 _atom_site_fract_y
 _atom_site_fract_z
 _atom_site_occupancy
  Nd  Nd0  1  0.593462  0.000000  0.000000  1
  Nd  Nd1  1  0.000000  0.593462  0.000000  1
  Nd  Nd2  1  0.406538  0.406538  0.000000  1
  Cd  Cd3  1  0.242781  0.000000  0.500000  1
  Cd  Cd4  1  0.000000  0.242781  0.500000  1
  Cd  Cd5  1  0.757219  0.757219  0.500000  1
  Ge  Ge6  1  0.333333  0.666667  0.500000  1
  Ge  Ge7  1  0.666667  0.333333  0.500000  1
  Pt  Pt8  1  0.000000  0.000000  0.000000  1
