# generated using pymatgen
data_GdDyCI
_symmetry_space_group_name_H-M   'P 1'
_cell_length_a   3.78240000
_cell_length_b   3.78239958
_cell_length_c   14.92698000
_cell_angle_alpha   90.00000000
_cell_angle_beta   90.00000000
_cell_angle_gamma   120.00000369
_symmetry_Int_Tables_number   1
_chemical_formula_structural   GdDyCI
_chemical_formula_sum   'Gd2 Dy2 C2 I2'
_cell_volume   184.94279969
_cell_formula_units_Z   2
loop_
 _symmetry_equiv_pos_site_id
 _symmetry_equiv_pos_as_xyz
  1  'x, y, z'
loop_
 _atom_site_type_symbol
 _atom_site_label
 _atom_site_symmetry_multiplicity
 _atom_site_fract_x
 _atom_site_fract_y
 _atom_site_fract_z
 _atom_site_occupancy
  Gd  Gd0  1  0.666667  0.333333  0.585196  1
  Gd  Gd1  1  0.333333  0.666667  0.085196  1
  Dy  Dy2  1  0.333333  0.666667  0.415006  1
  Dy  Dy3  1  0.666667  0.333333  0.915006  1
  C  C4  1  0.000000  0.000000  0.497759  1
  C  C5  1  0.000000  0.000000  0.997759  1
  I  I6  1  0.666667  0.333333  0.252040  1
  I  I7  1  0.333333  0.666667  0.752040  1
