# generated using pymatgen
data_TiMn4Al
_symmetry_space_group_name_H-M   'P 1'
_cell_length_a   4.69790500
_cell_length_b   4.69790469
_cell_length_c   7.74747400
_cell_angle_alpha   90.00000000
_cell_angle_beta   90.00000000
_cell_angle_gamma   119.99999517
_symmetry_Int_Tables_number   1
_chemical_formula_structural   TiMn4Al
_chemical_formula_sum   'Ti2 Mn8 Al2'
_cell_volume   148.08095679
_cell_formula_units_Z   2
loop_
 _symmetry_equiv_pos_site_id
 _symmetry_equiv_pos_as_xyz
  1  'x, y, z'
loop_
 _atom_site_type_symbol
 _atom_site_label
 _atom_site_symmetry_multiplicity
 _atom_site_fract_x
 _atom_site_fract_y
 _atom_site_fract_z
 _atom_site_occupancy
  Ti  Ti0  1  0.666667  0.333333  0.565873  1
  Ti  Ti1  1  0.333333  0.666667  0.065873  1
  Mn  Mn2  1  0.651906  0.825953  0.750985  1
  Mn  Mn3  1  0.348094  0.174047  0.250985  1
  Mn  Mn4  1  0.825953  0.174047  0.250985  1
  Mn  Mn5  1  0.174047  0.348094  0.750985  1
  Mn  Mn6  1  0.174047  0.825953  0.750985  1
  Mn  Mn7  1  0.825953  0.651906  0.250985  1
  Mn  Mn8  1  0.000000  0.000000  0.494919  1
  Mn  Mn9  1  0.000000  0.000000  0.994919  1
  Al  Al10  1  0.333333  0.666667  0.436253  1
  Al  Al11  1  0.666667  0.333333  0.936253  1
