# generated using pymatgen
data_Tb15Sm(C2Br3)4
_symmetry_space_group_name_H-M   'P 1'
_cell_length_a   3.71345900
_cell_length_b   10.84270741
_cell_length_c   20.60979967
_cell_angle_alpha   90.05839728
_cell_angle_beta   90.00000000
_cell_angle_gamma   90.00000000
_symmetry_Int_Tables_number   1
_chemical_formula_structural   Tb15Sm(C2Br3)4
_chemical_formula_sum   'Tb15 Sm1 C8 Br12'
_cell_volume   829.83150046
_cell_formula_units_Z   1
loop_
 _symmetry_equiv_pos_site_id
 _symmetry_equiv_pos_as_xyz
  1  'x, y, z'
loop_
 _atom_site_type_symbol
 _atom_site_label
 _atom_site_symmetry_multiplicity
 _atom_site_fract_x
 _atom_site_fract_y
 _atom_site_fract_z
 _atom_site_occupancy
  Tb  Tb0  1  0.750000  0.135989  0.419815  1
  Tb  Tb1  1  0.750000  0.635257  0.080116  1
  Tb  Tb2  1  0.250000  0.364738  0.920191  1
  Tb  Tb3  1  0.250000  0.863878  0.744688  1
  Tb  Tb4  1  0.750000  0.135811  0.255548  1
  Tb  Tb5  1  0.750000  0.636311  0.244240  1
  Tb  Tb6  1  0.250000  0.364027  0.755791  1
  Tb  Tb7  1  0.250000  0.870057  0.168454  1
  Tb  Tb8  1  0.750000  0.129759  0.831607  1
  Tb  Tb9  1  0.750000  0.629436  0.668863  1
  Tb  Tb10  1  0.250000  0.370108  0.331267  1
  Tb  Tb11  1  0.250000  0.901633  0.328219  1
  Tb  Tb12  1  0.750000  0.098376  0.671721  1
  Tb  Tb13  1  0.750000  0.598579  0.828930  1
  Tb  Tb14  1  0.250000  0.401652  0.171311  1
  Sm  Sm15  1  0.250000  0.864632  0.578641  1
  C  C16  1  0.250000  0.611621  0.750785  1
  C  C17  1  0.750000  0.386792  0.249584  1
  C  C18  1  0.750000  0.887625  0.250085  1
  C  C19  1  0.250000  0.113844  0.750011  1
  C  C20  1  0.250000  0.634398  0.156248  1
  C  C21  1  0.750000  0.365572  0.844316  1
  C  C22  1  0.750000  0.865133  0.657670  1
  C  C23  1  0.250000  0.134934  0.343680  1
  Br  Br24  1  0.250000  0.606949  0.555639  1
  Br  Br25  1  0.750000  0.388858  0.444524  1
  Br  Br26  1  0.750000  0.888225  0.055049  1
  Br  Br27  1  0.250000  0.111894  0.945136  1
  Br  Br28  1  0.250000  0.626193  0.952910  1
  Br  Br29  1  0.750000  0.373669  0.047344  1
  Br  Br30  1  0.750000  0.873637  0.450162  1
  Br  Br31  1  0.250000  0.130714  0.546755  1
  Br  Br32  1  0.250000  0.637559  0.356404  1
  Br  Br33  1  0.750000  0.362019  0.643819  1
  Br  Br34  1  0.750000  0.862549  0.857233  1
  Br  Br35  1  0.250000  0.137569  0.143241  1
