# generated using pymatgen
data_Ba4YWO8
_symmetry_space_group_name_H-M   'P 1'
_cell_length_a   7.48865841
_cell_length_b   7.48865762
_cell_length_c   6.05461800
_cell_angle_alpha   90.00000000
_cell_angle_beta   90.00000000
_cell_angle_gamma   133.06950041
_symmetry_Int_Tables_number   1
_chemical_formula_structural   Ba4YWO8
_chemical_formula_sum   'Ba4 Y1 W1 O8'
_cell_volume   248.04493152
_cell_formula_units_Z   1
loop_
 _symmetry_equiv_pos_site_id
 _symmetry_equiv_pos_as_xyz
  1  'x, y, z'
loop_
 _atom_site_type_symbol
 _atom_site_label
 _atom_site_symmetry_multiplicity
 _atom_site_fract_x
 _atom_site_fract_y
 _atom_site_fract_z
 _atom_site_occupancy
  Ba  Ba0  1  0.352112  0.647888  0.000000  1
  Ba  Ba1  1  0.851659  0.148341  0.500000  1
  Ba  Ba2  1  0.148341  0.851659  0.500000  1
  Ba  Ba3  1  0.647888  0.352112  0.000000  1
  Y  Y4  1  0.000000  0.000000  0.000000  1
  W  W5  1  0.500000  0.500000  0.500000  1
  O  O6  1  0.165077  0.834923  0.000000  1
  O  O7  1  0.652099  0.347901  0.500000  1
  O  O8  1  0.347901  0.652099  0.500000  1
  O  O9  1  0.834923  0.165077  0.000000  1
  O  O10  1  0.265960  0.265960  0.264433  1
  O  O11  1  0.734040  0.734040  0.735567  1
  O  O12  1  0.265960  0.265960  0.735567  1
  O  O13  1  0.734040  0.734040  0.264433  1
