# generated using pymatgen
data_Tb6Al24NiRu5Pt2
_symmetry_space_group_name_H-M   'P 1'
_cell_length_a   8.83093112
_cell_length_b   8.82436264
_cell_length_c   9.50777654
_cell_angle_alpha   90.29978271
_cell_angle_beta   89.90405898
_cell_angle_gamma   119.65064712
_symmetry_Int_Tables_number   1
_chemical_formula_structural   Tb6Al24NiRu5Pt2
_chemical_formula_sum   'Tb6 Al24 Ni1 Ru5 Pt2'
_cell_volume   643.88954110
_cell_formula_units_Z   1
loop_
 _symmetry_equiv_pos_site_id
 _symmetry_equiv_pos_as_xyz
  1  'x, y, z'
loop_
 _atom_site_type_symbol
 _atom_site_label
 _atom_site_symmetry_multiplicity
 _atom_site_fract_x
 _atom_site_fract_y
 _atom_site_fract_z
 _atom_site_occupancy
  Tb  Tb0  1  0.384039  0.190436  0.248843  1
  Tb  Tb1  1  0.808764  0.193175  0.248356  1
  Tb  Tb2  1  0.810543  0.615860  0.247648  1
  Tb  Tb3  1  0.615961  0.809564  0.751157  1
  Tb  Tb4  1  0.191236  0.806825  0.751644  1
  Tb  Tb5  1  0.189457  0.384140  0.752352  1
  Al  Al6  1  0.437539  0.873455  0.246116  1
  Al  Al7  1  0.123214  0.560553  0.250272  1
  Al  Al8  1  0.438674  0.560999  0.244206  1
  Al  Al9  1  0.562461  0.126545  0.753884  1
  Al  Al10  1  0.876786  0.439447  0.749728  1
  Al  Al11  1  0.561326  0.439001  0.755794  1
  Al  Al12  1  0.157821  0.832489  0.423247  1
  Al  Al13  1  0.158936  0.324937  0.423829  1
  Al  Al14  1  0.677116  0.837053  0.422134  1
  Al  Al15  1  0.842179  0.167511  0.576753  1
  Al  Al16  1  0.841064  0.675063  0.576171  1
  Al  Al17  1  0.322884  0.162947  0.577866  1
  Al  Al18  1  0.836719  0.164585  0.924730  1
  Al  Al19  1  0.837237  0.673524  0.924145  1
  Al  Al20  1  0.326032  0.162793  0.924185  1
  Al  Al21  1  0.163281  0.835415  0.075270  1
  Al  Al22  1  0.162763  0.326476  0.075855  1
  Al  Al23  1  0.673968  0.837207  0.075815  1
  Al  Al24  1  0.327689  0.663346  0.525565  1
  Al  Al25  1  0.672311  0.336654  0.474435  1
  Al  Al26  1  0.665787  0.334138  0.023003  1
  Al  Al27  1  0.334213  0.665862  0.976997  1
  Al  Al28  1  0.002714  0.999744  0.249788  1
  Al  Al29  1  0.997286  0.000256  0.750212  1
  Ni  Ni30  1  0.500000  0.500000  0.000000  1
  Ru  Ru31  1  0.000000  0.000000  0.500000  1
  Ru  Ru32  1  0.000000  0.000000  0.000000  1
  Ru  Ru33  1  0.000000  0.500000  0.500000  1
  Ru  Ru34  1  0.500000  0.000000  0.000000  1
  Ru  Ru35  1  0.000000  0.500000  0.000000  1
  Pt  Pt36  1  0.500000  0.000000  0.500000  1
  Pt  Pt37  1  0.500000  0.500000  0.500000  1
