# generated using pymatgen
data_Ho20AsIrRu10
_symmetry_space_group_name_H-M   'P 1'
_cell_length_a   10.79383824
_cell_length_b   10.79383834
_cell_length_c   6.36542581
_cell_angle_alpha   89.89208111
_cell_angle_beta   89.89208552
_cell_angle_gamma   89.74470239
_symmetry_Int_Tables_number   1
_chemical_formula_structural   Ho20AsIrRu10
_chemical_formula_sum   'Ho20 As1 Ir1 Ru10'
_cell_volume   741.60633389
_cell_formula_units_Z   1
loop_
 _symmetry_equiv_pos_site_id
 _symmetry_equiv_pos_as_xyz
  1  'x, y, z'
loop_
 _atom_site_type_symbol
 _atom_site_label
 _atom_site_symmetry_multiplicity
 _atom_site_fract_x
 _atom_site_fract_y
 _atom_site_fract_z
 _atom_site_occupancy
  Ho  Ho0  1  0.291145  0.086706  0.376511  1
  Ho  Ho1  1  0.294216  0.914178  0.876190  1
  Ho  Ho2  1  0.702999  0.084894  0.871640  1
  Ho  Ho3  1  0.705620  0.908251  0.377208  1
  Ho  Ho4  1  0.587605  0.792413  0.878186  1
  Ho  Ho5  1  0.581132  0.206749  0.374075  1
  Ho  Ho6  1  0.413487  0.791667  0.377822  1
  Ho  Ho7  1  0.413352  0.208985  0.877974  1
  Ho  Ho8  1  0.207587  0.412395  0.621814  1
  Ho  Ho9  1  0.208333  0.586513  0.122178  1
  Ho  Ho10  1  0.793251  0.418868  0.125925  1
  Ho  Ho11  1  0.791015  0.586648  0.622026  1
  Ho  Ho12  1  0.913294  0.708855  0.123489  1
  Ho  Ho13  1  0.915106  0.297001  0.628360  1
  Ho  Ho14  1  0.085822  0.705784  0.623810  1
  Ho  Ho15  1  0.091749  0.294380  0.122792  1
  Ho  Ho16  1  0.003367  0.997727  0.502871  1
  Ho  Ho17  1  0.002273  0.996633  0.997129  1
  Ho  Ho18  1  0.501383  0.499617  0.000394  1
  Ho  Ho19  1  0.500383  0.498617  0.499606  1
  As  As20  1  0.845008  0.154992  0.250000  1
  Ir  Ir21  1  0.346077  0.653923  0.750000  1
  Ru  Ru22  1  0.849148  0.850802  0.751300  1
  Ru  Ru23  1  0.149198  0.150852  0.748700  1
  Ru  Ru24  1  0.153406  0.846594  0.250000  1
  Ru  Ru25  1  0.653459  0.346541  0.750000  1
  Ru  Ru26  1  0.651879  0.653269  0.251899  1
  Ru  Ru27  1  0.346731  0.348121  0.248101  1
  Ru  Ru28  1  0.499071  0.998640  0.124366  1
  Ru  Ru29  1  0.501552  0.000009  0.622201  1
  Ru  Ru30  1  0.999991  0.498448  0.877799  1
  Ru  Ru31  1  0.001360  0.500929  0.375634  1
