# generated using pymatgen
data_Er3Co2Sn3Au
_symmetry_space_group_name_H-M   'P 1'
_cell_length_a   7.53570800
_cell_length_b   7.53570888
_cell_length_c   3.75101100
_cell_angle_alpha   90.00000000
_cell_angle_beta   90.00000000
_cell_angle_gamma   120.00000493
_symmetry_Int_Tables_number   1
_chemical_formula_structural   Er3Co2Sn3Au
_chemical_formula_sum   'Er3 Co2 Sn3 Au1'
_cell_volume   184.47058367
_cell_formula_units_Z   1
loop_
 _symmetry_equiv_pos_site_id
 _symmetry_equiv_pos_as_xyz
  1  'x, y, z'
loop_
 _atom_site_type_symbol
 _atom_site_label
 _atom_site_symmetry_multiplicity
 _atom_site_fract_x
 _atom_site_fract_y
 _atom_site_fract_z
 _atom_site_occupancy
  Er  Er0  1  0.391459  0.412316  0.500000  1
  Er  Er1  1  0.587684  0.979144  0.500000  1
  Er  Er2  1  0.020856  0.608541  0.500000  1
  Co  Co3  1  0.333333  0.666667  0.000000  1
  Co  Co4  1  0.000000  0.000000  0.500000  1
  Sn  Sn5  1  0.744058  0.748556  0.000000  1
  Sn  Sn6  1  0.251444  0.995502  0.000000  1
  Sn  Sn7  1  0.004498  0.255942  0.000000  1
  Au  Au8  1  0.666667  0.333333  0.000000  1
