# generated using pymatgen
data_NdDyTh3Ge3C
_symmetry_space_group_name_H-M   'P 1'
_cell_length_a   6.46163200
_cell_length_b   8.88948407
_cell_length_c   8.88932300
_cell_angle_alpha   120.00059982
_cell_angle_beta   89.99984285
_cell_angle_gamma   90.00032390
_symmetry_Int_Tables_number   1
_chemical_formula_structural   NdDyTh3Ge3C
_chemical_formula_sum   'Nd2 Dy2 Th6 Ge6 C2'
_cell_volume   442.19667255
_cell_formula_units_Z   2
loop_
 _symmetry_equiv_pos_site_id
 _symmetry_equiv_pos_as_xyz
  1  'x, y, z'
loop_
 _atom_site_type_symbol
 _atom_site_label
 _atom_site_symmetry_multiplicity
 _atom_site_fract_x
 _atom_site_fract_y
 _atom_site_fract_z
 _atom_site_occupancy
  Nd  Nd0  1  0.499990  0.333330  0.666664  1
  Nd  Nd1  1  0.499990  0.666668  0.333336  1
  Dy  Dy2  1  0.999990  0.666681  0.333349  1
  Dy  Dy3  1  0.999990  0.333330  0.666651  1
  Th  Th4  1  0.751194  0.229513  0.000000  1
  Th  Th5  1  0.751205  0.770473  0.770477  1
  Th  Th6  1  0.751205  0.999996  0.229523  1
  Th  Th7  1  0.248759  0.770486  0.000000  1
  Th  Th8  1  0.248777  0.229527  0.229521  1
  Th  Th9  1  0.248777  0.000006  0.770479  1
  Ge  Ge10  1  0.757654  0.599788  0.000000  1
  Ge  Ge11  1  0.757757  0.400189  0.400198  1
  Ge  Ge12  1  0.757757  0.999991  0.599802  1
  Ge  Ge13  1  0.242235  0.400237  0.000000  1
  Ge  Ge14  1  0.242381  0.599788  0.599784  1
  Ge  Ge15  1  0.242381  0.000004  0.400216  1
  C  C16  1  0.499976  0.999986  0.000000  1
  C  C17  1  0.999983  0.000010  0.000000  1
