# generated using pymatgen
data_La3TmLuIn3Br
_symmetry_space_group_name_H-M   'P 1'
_cell_length_a   9.56843100
_cell_length_b   9.56843097
_cell_length_c   6.76220700
_cell_angle_alpha   90.00000000
_cell_angle_beta   90.00000000
_cell_angle_gamma   120.00000355
_symmetry_Int_Tables_number   1
_chemical_formula_structural   La3TmLuIn3Br
_chemical_formula_sum   'La6 Tm2 Lu2 In6 Br2'
_cell_volume   536.16756074
_cell_formula_units_Z   2
loop_
 _symmetry_equiv_pos_site_id
 _symmetry_equiv_pos_as_xyz
  1  'x, y, z'
loop_
 _atom_site_type_symbol
 _atom_site_label
 _atom_site_symmetry_multiplicity
 _atom_site_fract_x
 _atom_site_fract_y
 _atom_site_fract_z
 _atom_site_occupancy
  La  La0  1  0.730277  0.730277  0.250000  1
  La  La1  1  0.000000  0.730277  0.750000  1
  La  La2  1  0.730277  0.000000  0.750000  1
  La  La3  1  0.269723  0.269723  0.750000  1
  La  La4  1  0.000000  0.269723  0.250000  1
  La  La5  1  0.269723  0.000000  0.250000  1
  Tm  Tm6  1  0.333333  0.666667  0.500000  1
  Tm  Tm7  1  0.666667  0.333333  0.500000  1
  Lu  Lu8  1  0.333333  0.666667  0.000000  1
  Lu  Lu9  1  0.666667  0.333333  0.000000  1
  In  In10  1  0.393310  0.000000  0.750000  1
  In  In11  1  0.000000  0.606690  0.250000  1
  In  In12  1  0.606690  0.000000  0.250000  1
  In  In13  1  0.000000  0.393310  0.750000  1
  In  In14  1  0.393310  0.393310  0.250000  1
  In  In15  1  0.606690  0.606690  0.750000  1
  Br  Br16  1  0.000000  0.000000  0.500000  1
  Br  Br17  1  0.000000  0.000000  0.000000  1
