# generated using pymatgen
data_Cs8In11
_symmetry_space_group_name_H-M   'P 1'
_cell_length_a   10.84426600
_cell_length_b   10.84426572
_cell_length_c   19.44487573
_cell_angle_alpha   106.19136465
_cell_angle_beta   90.00000000
_cell_angle_gamma   120.00000086
_symmetry_Int_Tables_number   1
_chemical_formula_structural   Cs8In11
_chemical_formula_sum   'Cs16 In22'
_cell_volume   1874.86142646
_cell_formula_units_Z   2
loop_
 _symmetry_equiv_pos_site_id
 _symmetry_equiv_pos_as_xyz
  1  'x, y, z'
loop_
 _atom_site_type_symbol
 _atom_site_label
 _atom_site_symmetry_multiplicity
 _atom_site_fract_x
 _atom_site_fract_y
 _atom_site_fract_z
 _atom_site_occupancy
  Cs  Cs0  1  0.320961  0.411680  0.065997  1
  Cs  Cs1  1  0.090718  0.745037  0.065997  1
  Cs  Cs2  1  0.654318  0.975279  0.065997  1
  Cs  Cs3  1  0.079731  0.159462  0.239193  1
  Cs  Cs4  1  0.420269  0.840538  0.260807  1
  Cs  Cs5  1  0.179039  0.024721  0.434003  1
  Cs  Cs6  1  0.845682  0.254963  0.434003  1
  Cs  Cs7  1  0.409282  0.588320  0.434003  1
  Cs  Cs8  1  0.590719  0.411680  0.565997  1
  Cs  Cs9  1  0.154318  0.745037  0.565997  1
  Cs  Cs10  1  0.820961  0.975279  0.565997  1
  Cs  Cs11  1  0.579731  0.159462  0.739193  1
  Cs  Cs12  1  0.920269  0.840538  0.760807  1
  Cs  Cs13  1  0.345681  0.024721  0.934002  1
  Cs  Cs14  1  0.909281  0.254963  0.934002  1
  Cs  Cs15  1  0.679039  0.588320  0.934002  1
  In  In16  1  0.703333  0.406668  0.110002  1
  In  In17  1  0.445623  0.173780  0.163544  1
  In  In18  1  0.989764  0.435386  0.163544  1
  In  In19  1  0.728158  0.717922  0.163544  1
  In  In20  1  0.750000  0.305591  0.250000  1
  In  In21  1  0.555590  0.500000  0.250000  1
  In  In22  1  0.944410  0.694410  0.250000  1
  In  In23  1  0.510236  0.282078  0.336456  1
  In  In24  1  0.054378  0.564614  0.336456  1
  In  In25  1  0.771843  0.826220  0.336456  1
  In  In26  1  0.796666  0.593332  0.389999  1
  In  In27  1  0.203334  0.406668  0.610002  1
  In  In28  1  0.228158  0.173780  0.663544  1
  In  In29  1  0.945622  0.435386  0.663544  1
  In  In30  1  0.489763  0.717922  0.663544  1
  In  In31  1  0.055590  0.305590  0.750000  1
  In  In32  1  0.444410  0.500000  0.750000  1
  In  In33  1  0.250000  0.694410  0.750000  1
  In  In34  1  0.271842  0.282078  0.836456  1
  In  In35  1  0.010236  0.564614  0.836456  1
  In  In36  1  0.554378  0.826220  0.836456  1
  In  In37  1  0.296667  0.593332  0.889999  1
