# generated using pymatgen
data_Y5Ho11Cd2(HgIr2)2
_symmetry_space_group_name_H-M   'P 1'
_cell_length_a   9.60875122
_cell_length_b   9.60464208
_cell_length_c   9.60887330
_cell_angle_alpha   59.99247170
_cell_angle_beta   59.97599935
_cell_angle_gamma   59.99263388
_symmetry_Int_Tables_number   1
_chemical_formula_structural   Y5Ho11Cd2(HgIr2)2
_chemical_formula_sum   'Y5 Ho11 Cd2 Hg2 Ir4'
_cell_volume   626.87058214
_cell_formula_units_Z   1
loop_
 _symmetry_equiv_pos_site_id
 _symmetry_equiv_pos_as_xyz
  1  'x, y, z'
loop_
 _atom_site_type_symbol
 _atom_site_label
 _atom_site_symmetry_multiplicity
 _atom_site_fract_x
 _atom_site_fract_y
 _atom_site_fract_z
 _atom_site_occupancy
  Y  Y0  1  0.560496  0.938684  0.939214  1
  Y  Y1  1  0.561209  0.938130  0.561718  1
  Y  Y2  1  0.938513  0.560621  0.938540  1
  Y  Y3  1  0.561585  0.560991  0.938545  1
  Y  Y4  1  0.938677  0.938241  0.561237  1
  Ho  Ho5  1  0.349264  0.349569  0.347927  1
  Ho  Ho6  1  0.349402  0.349592  0.953240  1
  Ho  Ho7  1  0.351111  0.949921  0.349582  1
  Ho  Ho8  1  0.949973  0.351256  0.349531  1
  Ho  Ho9  1  0.809756  0.188512  0.191086  1
  Ho  Ho10  1  0.188404  0.809834  0.810758  1
  Ho  Ho11  1  0.188159  0.809663  0.191468  1
  Ho  Ho12  1  0.809808  0.188807  0.810585  1
  Ho  Ho13  1  0.188775  0.189478  0.810809  1
  Ho  Ho14  1  0.809346  0.809204  0.191035  1
  Ho  Ho15  1  0.938783  0.560220  0.561349  1
  Cd  Cd16  1  0.579913  0.259208  0.580428  1
  Cd  Cd17  1  0.258816  0.579926  0.580497  1
  Hg  Hg18  1  0.583928  0.583475  0.585493  1
  Hg  Hg19  1  0.583467  0.583429  0.247624  1
  Ir  Ir20  1  0.142132  0.142056  0.141664  1
  Ir  Ir21  1  0.141902  0.142464  0.574104  1
  Ir  Ir22  1  0.141777  0.574781  0.141978  1
  Ir  Ir23  1  0.574804  0.141940  0.141591  1
