# generated using pymatgen
data_Mn3B2Rh5
_symmetry_space_group_name_H-M   'P 1'
_cell_length_a   9.36275900
_cell_length_b   9.36275900
_cell_length_c   2.93945500
_cell_angle_alpha   90.00000000
_cell_angle_beta   90.00000000
_cell_angle_gamma   90.00000000
_symmetry_Int_Tables_number   1
_chemical_formula_structural   Mn3B2Rh5
_chemical_formula_sum   'Mn6 B4 Rh10'
_cell_volume   257.67631753
_cell_formula_units_Z   2
loop_
 _symmetry_equiv_pos_site_id
 _symmetry_equiv_pos_as_xyz
  1  'x, y, z'
loop_
 _atom_site_type_symbol
 _atom_site_label
 _atom_site_symmetry_multiplicity
 _atom_site_fract_x
 _atom_site_fract_y
 _atom_site_fract_z
 _atom_site_occupancy
  Mn  Mn0  1  0.677931  0.177931  0.000000  1
  Mn  Mn1  1  0.322069  0.822069  0.000000  1
  Mn  Mn2  1  0.177931  0.322069  0.000000  1
  Mn  Mn3  1  0.822069  0.677931  0.000000  1
  Mn  Mn4  1  0.000000  0.000000  0.000000  1
  Mn  Mn5  1  0.500000  0.500000  0.000000  1
  B  B6  1  0.126255  0.626255  0.000000  1
  B  B7  1  0.873745  0.373745  0.000000  1
  B  B8  1  0.626255  0.873745  0.000000  1
  B  B9  1  0.373745  0.126255  0.000000  1
  Rh  Rh10  1  0.500000  0.000000  0.500000  1
  Rh  Rh11  1  0.000000  0.500000  0.500000  1
  Rh  Rh12  1  0.217216  0.069494  0.500000  1
  Rh  Rh13  1  0.782784  0.930506  0.500000  1
  Rh  Rh14  1  0.069494  0.782784  0.500000  1
  Rh  Rh15  1  0.717216  0.430506  0.500000  1
  Rh  Rh16  1  0.930506  0.217216  0.500000  1
  Rh  Rh17  1  0.282784  0.569494  0.500000  1
  Rh  Rh18  1  0.569494  0.717216  0.500000  1
  Rh  Rh19  1  0.430506  0.282784  0.500000  1
