# generated using pymatgen
data_La3Tb2Bi3O14
_symmetry_space_group_name_H-M   'P 1'
_cell_length_a   6.71449223
_cell_length_b   6.78567274
_cell_length_c   7.89594700
_cell_angle_alpha   106.73648671
_cell_angle_beta   89.75933882
_cell_angle_gamma   98.55156611
_symmetry_Int_Tables_number   1
_chemical_formula_structural   La3Tb2Bi3O14
_chemical_formula_sum   'La3 Tb2 Bi3 O14'
_cell_volume   340.40464225
_cell_formula_units_Z   1
loop_
 _symmetry_equiv_pos_site_id
 _symmetry_equiv_pos_as_xyz
  1  'x, y, z'
loop_
 _atom_site_type_symbol
 _atom_site_label
 _atom_site_symmetry_multiplicity
 _atom_site_fract_x
 _atom_site_fract_y
 _atom_site_fract_z
 _atom_site_occupancy
  La  La0  1  0.268431  0.533531  0.882236  1
  La  La1  1  0.741610  0.461347  0.116345  1
  La  La2  1  0.751670  0.483437  0.618259  1
  Tb  Tb3  1  0.457988  0.009514  0.255686  1
  Tb  Tb4  1  0.537052  0.000028  0.748306  1
  Bi  Bi5  1  0.994531  0.998169  0.499644  1
  Bi  Bi6  1  0.998737  0.996527  0.997871  1
  Bi  Bi7  1  0.285882  0.541274  0.389012  1
  O  O8  1  0.446900  0.660369  0.177907  1
  O  O9  1  0.557164  0.347489  0.832894  1
  O  O10  1  0.301629  0.936025  0.952422  1
  O  O11  1  0.697324  0.060148  0.049234  1
  O  O12  1  0.296276  0.935706  0.517472  1
  O  O13  1  0.698378  0.072115  0.485857  1
  O  O14  1  0.537399  0.356387  0.342072  1
  O  O15  1  0.460097  0.648930  0.651984  1
  O  O16  1  0.925941  0.666219  0.941373  1
  O  O17  1  0.071294  0.320234  0.036954  1
  O  O18  1  0.070902  0.327805  0.620496  1
  O  O19  1  0.913215  0.668542  0.389768  1
  O  O20  1  0.873535  0.920798  0.730385  1
  O  O21  1  0.114047  0.055406  0.263822  1
