# generated using pymatgen
data_Lu5Tl3Cl
_symmetry_space_group_name_H-M   'P 1'
_cell_length_a   8.92787100
_cell_length_b   8.92787117
_cell_length_c   6.57890900
_cell_angle_alpha   90.00000000
_cell_angle_beta   90.00000000
_cell_angle_gamma   120.00000306
_symmetry_Int_Tables_number   1
_chemical_formula_structural   Lu5Tl3Cl
_chemical_formula_sum   'Lu10 Tl6 Cl2'
_cell_volume   454.13013220
_cell_formula_units_Z   2
loop_
 _symmetry_equiv_pos_site_id
 _symmetry_equiv_pos_as_xyz
  1  'x, y, z'
loop_
 _atom_site_type_symbol
 _atom_site_label
 _atom_site_symmetry_multiplicity
 _atom_site_fract_x
 _atom_site_fract_y
 _atom_site_fract_z
 _atom_site_occupancy
  Lu  Lu0  1  0.739508  0.739508  0.250000  1
  Lu  Lu1  1  0.000000  0.739508  0.750000  1
  Lu  Lu2  1  0.739508  0.000000  0.750000  1
  Lu  Lu3  1  0.333333  0.666667  0.500000  1
  Lu  Lu4  1  0.260492  0.260492  0.750000  1
  Lu  Lu5  1  0.000000  0.260492  0.250000  1
  Lu  Lu6  1  0.666667  0.333333  0.500000  1
  Lu  Lu7  1  0.260492  0.000000  0.250000  1
  Lu  Lu8  1  0.333333  0.666667  0.000000  1
  Lu  Lu9  1  0.666667  0.333333  0.000000  1
  Tl  Tl10  1  0.392214  0.000000  0.750000  1
  Tl  Tl11  1  0.000000  0.607786  0.250000  1
  Tl  Tl12  1  0.607786  0.000000  0.250000  1
  Tl  Tl13  1  0.000000  0.392214  0.750000  1
  Tl  Tl14  1  0.392214  0.392214  0.250000  1
  Tl  Tl15  1  0.607786  0.607786  0.750000  1
  Cl  Cl16  1  0.000000  0.000000  0.500000  1
  Cl  Cl17  1  0.000000  0.000000  0.000000  1
