# generated using pymatgen
data_Th2Ni2Sb
_symmetry_space_group_name_H-M   'P 1'
_cell_length_a   7.18196603
_cell_length_b   7.18196656
_cell_length_c   3.78070400
_cell_angle_alpha   90.00000000
_cell_angle_beta   90.00000000
_cell_angle_gamma   145.49228932
_symmetry_Int_Tables_number   1
_chemical_formula_structural   Th2Ni2Sb
_chemical_formula_sum   'Th2 Ni2 Sb1'
_cell_volume   110.47714847
_cell_formula_units_Z   1
loop_
 _symmetry_equiv_pos_site_id
 _symmetry_equiv_pos_as_xyz
  1  'x, y, z'
loop_
 _atom_site_type_symbol
 _atom_site_label
 _atom_site_symmetry_multiplicity
 _atom_site_fract_x
 _atom_site_fract_y
 _atom_site_fract_z
 _atom_site_occupancy
  Th  Th0  1  0.362699  0.637301  0.500000  1
  Th  Th1  1  0.637301  0.362699  0.500000  1
  Ni  Ni2  1  0.801486  0.198514  0.000000  1
  Ni  Ni3  1  0.198514  0.801486  0.000000  1
  Sb  Sb4  1  0.000000  0.000000  0.000000  1
