# generated using pymatgen
data_Y5Ho5(Bi2Rh)2
_symmetry_space_group_name_H-M   'P 1'
_cell_length_a   8.01421106
_cell_length_b   9.00017800
_cell_length_c   12.50003210
_cell_angle_alpha   90.00000000
_cell_angle_beta   90.01449758
_cell_angle_gamma   90.00000000
_symmetry_Int_Tables_number   1
_chemical_formula_structural   Y5Ho5(Bi2Rh)2
_chemical_formula_sum   'Y10 Ho10 Bi8 Rh4'
_cell_volume   901.61886283
_cell_formula_units_Z   2
loop_
 _symmetry_equiv_pos_site_id
 _symmetry_equiv_pos_as_xyz
  1  'x, y, z'
loop_
 _atom_site_type_symbol
 _atom_site_label
 _atom_site_symmetry_multiplicity
 _atom_site_fract_x
 _atom_site_fract_y
 _atom_site_fract_z
 _atom_site_occupancy
  Y  Y0  1  0.839073  0.750000  0.792360  1
  Y  Y1  1  0.160927  0.250000  0.207640  1
  Y  Y2  1  0.339326  0.250000  0.708483  1
  Y  Y3  1  0.660674  0.750000  0.291517  1
  Y  Y4  1  0.372892  0.750000  0.693622  1
  Y  Y5  1  0.627108  0.250000  0.306378  1
  Y  Y6  1  0.873105  0.250000  0.806584  1
  Y  Y7  1  0.126895  0.750000  0.193416  1
  Y  Y8  1  0.952942  0.750000  0.500957  1
  Y  Y9  1  0.047058  0.250000  0.499043  1
  Ho  Ho10  1  0.450653  0.250000  0.999063  1
  Ho  Ho11  1  0.549347  0.750000  0.000937  1
  Ho  Ho12  1  0.675157  0.042199  0.566753  1
  Ho  Ho13  1  0.324843  0.957801  0.433247  1
  Ho  Ho14  1  0.176054  0.956919  0.934089  1
  Ho  Ho15  1  0.324843  0.542199  0.433247  1
  Ho  Ho16  1  0.823946  0.043081  0.065911  1
  Ho  Ho17  1  0.675157  0.457801  0.566753  1
  Ho  Ho18  1  0.823946  0.456919  0.065911  1
  Ho  Ho19  1  0.176054  0.543081  0.934089  1
  Bi  Bi20  1  0.566717  0.492021  0.827515  1
  Bi  Bi21  1  0.433283  0.507979  0.172485  1
  Bi  Bi22  1  0.066873  0.507882  0.673752  1
  Bi  Bi23  1  0.433283  0.992021  0.172485  1
  Bi  Bi24  1  0.933127  0.492118  0.326248  1
  Bi  Bi25  1  0.566717  0.007979  0.827515  1
  Bi  Bi26  1  0.933127  0.007882  0.326248  1
  Bi  Bi27  1  0.066873  0.992118  0.673752  1
  Rh  Rh28  1  0.570225  0.750000  0.509183  1
  Rh  Rh29  1  0.429775  0.250000  0.490817  1
  Rh  Rh30  1  0.073562  0.250000  0.989739  1
  Rh  Rh31  1  0.926438  0.750000  0.010261  1
