# generated using pymatgen
data_Tb2Lu3Sn4
_symmetry_space_group_name_H-M   'P 1'
_cell_length_a   7.95628900
_cell_length_b   8.08874900
_cell_length_c   15.27532900
_cell_angle_alpha   90.00000000
_cell_angle_beta   90.00000000
_cell_angle_gamma   90.00000000
_symmetry_Int_Tables_number   1
_chemical_formula_structural   Tb2Lu3Sn4
_chemical_formula_sum   'Tb8 Lu12 Sn16'
_cell_volume   983.06556044
_cell_formula_units_Z   4
loop_
 _symmetry_equiv_pos_site_id
 _symmetry_equiv_pos_as_xyz
  1  'x, y, z'
loop_
 _atom_site_type_symbol
 _atom_site_label
 _atom_site_symmetry_multiplicity
 _atom_site_fract_x
 _atom_site_fract_y
 _atom_site_fract_z
 _atom_site_occupancy
  Tb  Tb0  1  0.521067  0.319837  0.902716  1
  Tb  Tb1  1  0.021067  0.180163  0.597284  1
  Tb  Tb2  1  0.478933  0.680163  0.402716  1
  Tb  Tb3  1  0.978933  0.819837  0.097284  1
  Tb  Tb4  1  0.478933  0.680163  0.097284  1
  Tb  Tb5  1  0.978933  0.819837  0.402716  1
  Tb  Tb6  1  0.521067  0.319837  0.597284  1
  Tb  Tb7  1  0.021067  0.180163  0.902716  1
  Lu  Lu8  1  0.367565  0.835724  0.877726  1
  Lu  Lu9  1  0.867565  0.664276  0.622274  1
  Lu  Lu10  1  0.632435  0.164276  0.377726  1
  Lu  Lu11  1  0.132435  0.335724  0.122274  1
  Lu  Lu12  1  0.632435  0.164276  0.122274  1
  Lu  Lu13  1  0.132435  0.335724  0.377726  1
  Lu  Lu14  1  0.367565  0.835724  0.622274  1
  Lu  Lu15  1  0.867565  0.664276  0.877726  1
  Lu  Lu16  1  0.197434  0.504278  0.750000  1
  Lu  Lu17  1  0.697434  0.995722  0.750000  1
  Lu  Lu18  1  0.802566  0.495722  0.250000  1
  Lu  Lu19  1  0.302566  0.004278  0.250000  1
  Sn  Sn20  1  0.294164  0.036208  0.041989  1
  Sn  Sn21  1  0.794164  0.463792  0.458011  1
  Sn  Sn22  1  0.705836  0.963792  0.541989  1
  Sn  Sn23  1  0.205836  0.536208  0.958011  1
  Sn  Sn24  1  0.705836  0.963792  0.958011  1
  Sn  Sn25  1  0.205836  0.536208  0.541989  1
  Sn  Sn26  1  0.294164  0.036208  0.458011  1
  Sn  Sn27  1  0.794164  0.463792  0.041989  1
  Sn  Sn28  1  0.564029  0.621892  0.750000  1
  Sn  Sn29  1  0.064029  0.878108  0.750000  1
  Sn  Sn30  1  0.435971  0.378108  0.250000  1
  Sn  Sn31  1  0.935971  0.121892  0.250000  1
  Sn  Sn32  1  0.329502  0.145833  0.750000  1
  Sn  Sn33  1  0.829502  0.354167  0.750000  1
  Sn  Sn34  1  0.670498  0.854167  0.250000  1
  Sn  Sn35  1  0.170498  0.645833  0.250000  1
