# generated using pymatgen
data_Dy2Ho6Cd2RuPt
_symmetry_space_group_name_H-M   'P 1'
_cell_length_a   9.61249485
_cell_length_b   9.61147187
_cell_length_c   9.63800705
_cell_angle_alpha   59.91565629
_cell_angle_beta   59.90513050
_cell_angle_gamma   59.83754028
_symmetry_Int_Tables_number   1
_chemical_formula_structural   Dy2Ho6Cd2RuPt
_chemical_formula_sum   'Dy4 Ho12 Cd4 Ru2 Pt2'
_cell_volume   628.02090319
_cell_formula_units_Z   2
loop_
 _symmetry_equiv_pos_site_id
 _symmetry_equiv_pos_as_xyz
  1  'x, y, z'
loop_
 _atom_site_type_symbol
 _atom_site_label
 _atom_site_symmetry_multiplicity
 _atom_site_fract_x
 _atom_site_fract_y
 _atom_site_fract_z
 _atom_site_occupancy
  Dy  Dy0  1  0.559483  0.937235  0.566430  1
  Dy  Dy1  1  0.937235  0.559482  0.936852  1
  Dy  Dy2  1  0.564053  0.564053  0.935947  1
  Dy  Dy3  1  0.938063  0.938063  0.561936  1
  Ho  Ho4  1  0.349092  0.349117  0.352277  1
  Ho  Ho5  1  0.349117  0.349092  0.949515  1
  Ho  Ho6  1  0.346640  0.953198  0.350022  1
  Ho  Ho7  1  0.953198  0.346640  0.350142  1
  Ho  Ho8  1  0.815535  0.187892  0.189288  1
  Ho  Ho9  1  0.187892  0.815535  0.807285  1
  Ho  Ho10  1  0.187941  0.815509  0.189344  1
  Ho  Ho11  1  0.815509  0.187941  0.807207  1
  Ho  Ho12  1  0.187748  0.187748  0.812252  1
  Ho  Ho13  1  0.809145  0.809145  0.190855  1
  Ho  Ho14  1  0.937473  0.559237  0.566137  1
  Ho  Ho15  1  0.559237  0.937473  0.937153  1
  Cd  Cd16  1  0.580313  0.580038  0.581223  1
  Cd  Cd17  1  0.580038  0.580313  0.258425  1
  Cd  Cd18  1  0.581163  0.255663  0.581675  1
  Cd  Cd19  1  0.255663  0.581163  0.581498  1
  Ru  Ru20  1  0.144136  0.143926  0.138603  1
  Ru  Ru21  1  0.143926  0.144136  0.573335  1
  Pt  Pt22  1  0.143970  0.573431  0.141439  1
  Pt  Pt23  1  0.573431  0.143970  0.141161  1
