# generated using pymatgen
data_Sc3Zn3Si2Pt
_symmetry_space_group_name_H-M   'P 1'
_cell_length_a   6.62878100
_cell_length_b   6.62878097
_cell_length_c   4.05858200
_cell_angle_alpha   90.00000000
_cell_angle_beta   90.00000000
_cell_angle_gamma   119.99999514
_symmetry_Int_Tables_number   1
_chemical_formula_structural   Sc3Zn3Si2Pt
_chemical_formula_sum   'Sc3 Zn3 Si2 Pt1'
_cell_volume   154.44445426
_cell_formula_units_Z   1
loop_
 _symmetry_equiv_pos_site_id
 _symmetry_equiv_pos_as_xyz
  1  'x, y, z'
loop_
 _atom_site_type_symbol
 _atom_site_label
 _atom_site_symmetry_multiplicity
 _atom_site_fract_x
 _atom_site_fract_y
 _atom_site_fract_z
 _atom_site_occupancy
  Sc  Sc0  1  0.419775  0.419775  0.500000  1
  Sc  Sc1  1  0.580225  0.000000  0.500000  1
  Sc  Sc2  1  0.000000  0.580225  0.500000  1
  Zn  Zn3  1  0.750888  0.750888  0.000000  1
  Zn  Zn4  1  0.249112  0.000000  0.000000  1
  Zn  Zn5  1  0.000000  0.249112  0.000000  1
  Si  Si6  1  0.666667  0.333333  0.000000  1
  Si  Si7  1  0.333333  0.666667  0.000000  1
  Pt  Pt8  1  0.000000  0.000000  0.500000  1
