# generated using pymatgen
data_Zn8Pd3RhO16
_symmetry_space_group_name_H-M   'P 1'
_cell_length_a   6.11640500
_cell_length_b   6.12579291
_cell_length_c   8.58264932
_cell_angle_alpha   90.06263225
_cell_angle_beta   90.00000000
_cell_angle_gamma   90.00000000
_symmetry_Int_Tables_number   1
_chemical_formula_structural   Zn8Pd3RhO16
_chemical_formula_sum   'Zn8 Pd3 Rh1 O16'
_cell_volume   321.57305651
_cell_formula_units_Z   1
loop_
 _symmetry_equiv_pos_site_id
 _symmetry_equiv_pos_as_xyz
  1  'x, y, z'
loop_
 _atom_site_type_symbol
 _atom_site_label
 _atom_site_symmetry_multiplicity
 _atom_site_fract_x
 _atom_site_fract_y
 _atom_site_fract_z
 _atom_site_occupancy
  Zn  Zn0  1  0.999583  0.237626  0.000555  1
  Zn  Zn1  1  0.999583  0.762374  0.499445  1
  Zn  Zn2  1  0.252955  0.248217  0.624200  1
  Zn  Zn3  1  0.252955  0.751783  0.875800  1
  Zn  Zn4  1  0.235470  0.000000  0.250000  1
  Zn  Zn5  1  0.761779  0.000000  0.750000  1
  Zn  Zn6  1  0.747942  0.252629  0.375705  1
  Zn  Zn7  1  0.747942  0.747371  0.124295  1
  Pd  Pd8  1  0.247206  0.500000  0.250000  1
  Pd  Pd9  1  0.500230  0.749761  0.500253  1
  Pd  Pd10  1  0.500230  0.250239  0.999747  1
  Rh  Rh11  1  0.755517  0.500000  0.750000  1
  O  O12  1  0.520885  0.736920  0.737379  1
  O  O13  1  0.520885  0.263080  0.762621  1
  O  O14  1  0.739263  0.981796  0.508118  1
  O  O15  1  0.739263  0.018204  0.991882  1
  O  O16  1  0.745941  0.520735  0.511587  1
  O  O17  1  0.745941  0.479265  0.988413  1
  O  O18  1  0.980540  0.736135  0.747965  1
  O  O19  1  0.980540  0.263865  0.752035  1
  O  O20  1  0.018025  0.740131  0.254166  1
  O  O21  1  0.018025  0.259869  0.245834  1
  O  O22  1  0.255729  0.518859  0.487327  1
  O  O23  1  0.255729  0.481141  0.012673  1
  O  O24  1  0.260119  0.978795  0.496180  1
  O  O25  1  0.260119  0.021205  0.003820  1
  O  O26  1  0.478801  0.744250  0.262516  1
  O  O27  1  0.478801  0.255750  0.237484  1
