# generated using pymatgen
data_Lu5In4IrRh
_symmetry_space_group_name_H-M   'P 1'
_cell_length_a   3.51582200
_cell_length_b   7.96816665
_cell_length_c   18.11642027
_cell_angle_alpha   89.89640221
_cell_angle_beta   90.00000000
_cell_angle_gamma   90.00000000
_symmetry_Int_Tables_number   1
_chemical_formula_structural   Lu5In4IrRh
_chemical_formula_sum   'Lu10 In8 Ir2 Rh2'
_cell_volume   507.52444512
_cell_formula_units_Z   2
loop_
 _symmetry_equiv_pos_site_id
 _symmetry_equiv_pos_as_xyz
  1  'x, y, z'
loop_
 _atom_site_type_symbol
 _atom_site_label
 _atom_site_symmetry_multiplicity
 _atom_site_fract_x
 _atom_site_fract_y
 _atom_site_fract_z
 _atom_site_occupancy
  Lu  Lu0  1  0.000000  0.000000  0.000000  1
  Lu  Lu1  1  0.000000  0.500000  0.500000  1
  Lu  Lu2  1  0.000000  0.751441  0.777684  1
  Lu  Lu3  1  0.000000  0.248559  0.222316  1
  Lu  Lu4  1  0.000000  0.247611  0.722102  1
  Lu  Lu5  1  0.000000  0.752389  0.277898  1
  Lu  Lu6  1  0.000000  0.879448  0.586918  1
  Lu  Lu7  1  0.000000  0.120552  0.413082  1
  Lu  Lu8  1  0.000000  0.379286  0.912972  1
  Lu  Lu9  1  0.000000  0.620714  0.087028  1
  In  In10  1  0.500000  0.794239  0.433052  1
  In  In11  1  0.500000  0.205761  0.566948  1
  In  In12  1  0.500000  0.295504  0.066696  1
  In  In13  1  0.500000  0.704496  0.933304  1
  In  In14  1  0.500000  0.933149  0.148096  1
  In  In15  1  0.500000  0.066851  0.851904  1
  In  In16  1  0.500000  0.434023  0.350988  1
  In  In17  1  0.500000  0.565977  0.649012  1
  Ir  Ir18  1  0.500000  0.970707  0.696516  1
  Ir  Ir19  1  0.500000  0.029293  0.303484  1
  Rh  Rh20  1  0.500000  0.470080  0.804851  1
  Rh  Rh21  1  0.500000  0.529920  0.195149  1
