# generated using pymatgen
data_Hf18Re8RuAu
_symmetry_space_group_name_H-M   'P 1'
_cell_length_a   8.65699500
_cell_length_b   8.65699474
_cell_length_c   8.57840200
_cell_angle_alpha   90.00000000
_cell_angle_beta   90.00000000
_cell_angle_gamma   120.00000482
_symmetry_Int_Tables_number   1
_chemical_formula_structural   Hf18Re8RuAu
_chemical_formula_sum   'Hf18 Re8 Ru1 Au1'
_cell_volume   556.76422920
_cell_formula_units_Z   1
loop_
 _symmetry_equiv_pos_site_id
 _symmetry_equiv_pos_as_xyz
  1  'x, y, z'
loop_
 _atom_site_type_symbol
 _atom_site_label
 _atom_site_symmetry_multiplicity
 _atom_site_fract_x
 _atom_site_fract_y
 _atom_site_fract_z
 _atom_site_occupancy
  Hf  Hf0  1  0.197781  0.802219  0.445128  1
  Hf  Hf1  1  0.197781  0.395562  0.445128  1
  Hf  Hf2  1  0.604438  0.802219  0.445128  1
  Hf  Hf3  1  0.808882  0.191118  0.550556  1
  Hf  Hf4  1  0.808882  0.617764  0.550556  1
  Hf  Hf5  1  0.382236  0.191118  0.550556  1
  Hf  Hf6  1  0.808882  0.191118  0.949444  1
  Hf  Hf7  1  0.808882  0.617764  0.949444  1
  Hf  Hf8  1  0.382236  0.191118  0.949444  1
  Hf  Hf9  1  0.197781  0.802219  0.054872  1
  Hf  Hf10  1  0.197781  0.395562  0.054872  1
  Hf  Hf11  1  0.604438  0.802219  0.054872  1
  Hf  Hf12  1  0.542125  0.457875  0.250000  1
  Hf  Hf13  1  0.542125  0.084251  0.250000  1
  Hf  Hf14  1  0.915749  0.457875  0.250000  1
  Hf  Hf15  1  0.457421  0.542579  0.750000  1
  Hf  Hf16  1  0.457421  0.914841  0.750000  1
  Hf  Hf17  1  0.085159  0.542579  0.750000  1
  Re  Re18  1  0.890395  0.109605  0.250000  1
  Re  Re19  1  0.890395  0.780789  0.250000  1
  Re  Re20  1  0.219211  0.109605  0.250000  1
  Re  Re21  1  0.110563  0.889437  0.750000  1
  Re  Re22  1  0.110563  0.221126  0.750000  1
  Re  Re23  1  0.778874  0.889437  0.750000  1
  Re  Re24  1  0.000000  0.000000  0.499822  1
  Re  Re25  1  0.000000  0.000000  0.000178  1
  Ru  Ru26  1  0.333333  0.666667  0.250000  1
  Au  Au27  1  0.666667  0.333333  0.750000  1
