# generated using pymatgen
data_Pr7Dy(GeO5)4
_symmetry_space_group_name_H-M   'P 1'
_cell_length_a   8.44652229
_cell_length_b   8.48491747
_cell_length_c   11.03965742
_cell_angle_alpha   61.66614547
_cell_angle_beta   61.33115367
_cell_angle_gamma   49.94918979
_symmetry_Int_Tables_number   1
_chemical_formula_structural   Pr7Dy(GeO5)4
_chemical_formula_sum   'Pr7 Dy1 Ge4 O20'
_cell_volume   514.92160648
_cell_formula_units_Z   1
loop_
 _symmetry_equiv_pos_site_id
 _symmetry_equiv_pos_as_xyz
  1  'x, y, z'
loop_
 _atom_site_type_symbol
 _atom_site_label
 _atom_site_symmetry_multiplicity
 _atom_site_fract_x
 _atom_site_fract_y
 _atom_site_fract_z
 _atom_site_occupancy
  Pr  Pr0  1  0.715301  0.211428  0.966032  1
  Pr  Pr1  1  0.789986  0.274568  0.538145  1
  Pr  Pr2  1  0.276948  0.794990  0.035455  1
  Pr  Pr3  1  0.208635  0.718482  0.463353  1
  Pr  Pr4  1  0.988463  0.732637  0.836472  1
  Pr  Pr5  1  0.269571  0.020065  0.657604  1
  Pr  Pr6  1  0.005334  0.269455  0.168398  1
  Dy  Dy7  1  0.746107  0.973906  0.336578  1
  Ge  Ge8  1  0.776350  0.593196  0.688029  1
  Ge  Ge9  1  0.406230  0.225561  0.809954  1
  Ge  Ge10  1  0.229785  0.405267  0.305024  1
  Ge  Ge11  1  0.589937  0.778334  0.195986  1
  O  O12  1  0.770009  0.639368  0.059705  1
  O  O13  1  0.390306  0.221119  0.427934  1
  O  O14  1  0.224909  0.365147  0.945367  1
  O  O15  1  0.640435  0.779813  0.551601  1
  O  O16  1  0.591512  0.582270  0.359834  1
  O  O17  1  0.398931  0.424764  0.130320  1
  O  O18  1  0.408993  0.414141  0.642874  1
  O  O19  1  0.586380  0.589414  0.855873  1
  O  O20  1  0.954729  0.645182  0.675687  1
  O  O21  1  0.348080  0.050878  0.825834  1
  O  O22  1  0.054310  0.339468  0.330844  1
  O  O23  1  0.650151  0.950076  0.183990  1
  O  O24  1  0.883862  0.070288  0.398993  1
  O  O25  1  0.912567  0.106711  0.113372  1
  O  O26  1  0.111843  0.921872  0.602753  1
  O  O27  1  0.075840  0.897728  0.893392  1
  O  O28  1  0.087855  0.671460  0.321052  1
  O  O29  1  0.323063  0.910312  0.185248  1
  O  O30  1  0.909974  0.329418  0.674503  1
  O  O31  1  0.673604  0.092681  0.819793  1
