# generated using pymatgen
data_CdSb3(SO4)8
_symmetry_space_group_name_H-M   'P 1'
_cell_length_a   9.37954500
_cell_length_b   9.54857400
_cell_length_c   14.13305300
_cell_angle_alpha   90.00000000
_cell_angle_beta   90.00000000
_cell_angle_gamma   90.00000000
_symmetry_Int_Tables_number   1
_chemical_formula_structural   CdSb3(SO4)8
_chemical_formula_sum   'Cd2 Sb6 S16 O64'
_cell_volume   1265.77431019
_cell_formula_units_Z   2
loop_
 _symmetry_equiv_pos_site_id
 _symmetry_equiv_pos_as_xyz
  1  'x, y, z'
loop_
 _atom_site_type_symbol
 _atom_site_label
 _atom_site_symmetry_multiplicity
 _atom_site_fract_x
 _atom_site_fract_y
 _atom_site_fract_z
 _atom_site_occupancy
  Cd  Cd0  1  0.891525  0.858531  0.128766  1
  Cd  Cd1  1  0.608475  0.858531  0.628766  1
  Sb  Sb2  1  0.387881  0.647673  0.127852  1
  Sb  Sb3  1  0.112119  0.647673  0.627852  1
  Sb  Sb4  1  0.896437  0.360492  0.372534  1
  Sb  Sb5  1  0.603563  0.360492  0.872534  1
  Sb  Sb6  1  0.393349  0.138777  0.377124  1
  Sb  Sb7  1  0.106651  0.138777  0.877124  1
  S  S8  1  0.944853  0.929903  0.722610  1
  S  S9  1  0.555147  0.929903  0.222610  1
  S  S10  1  0.065289  0.573827  0.224324  1
  S  S11  1  0.434711  0.573827  0.724324  1
  S  S12  1  0.569370  0.414652  0.283861  1
  S  S13  1  0.930630  0.414652  0.783861  1
  S  S14  1  0.428771  0.088865  0.782681  1
  S  S15  1  0.071229  0.088865  0.282681  1
  S  S16  1  0.316441  0.841282  0.480681  1
  S  S17  1  0.183559  0.841282  0.980681  1
  S  S18  1  0.818121  0.650049  0.487192  1
  S  S19  1  0.681879  0.650049  0.987192  1
  S  S20  1  0.312779  0.338711  0.010223  1
  S  S21  1  0.187221  0.338711  0.510223  1
  S  S22  1  0.809677  0.160215  0.006060  1
  S  S23  1  0.690323  0.160215  0.506060  1
  O  O24  1  0.305204  0.007695  0.474066  1
  O  O25  1  0.194796  0.007695  0.974066  1
  O  O26  1  0.029868  0.014371  0.365567  1
  O  O27  1  0.470132  0.014371  0.865567  1
  O  O28  1  0.509198  0.980553  0.324985  1
  O  O29  1  0.990802  0.980553  0.824985  1
  O  O30  1  0.789648  0.920327  0.729196  1
  O  O31  1  0.710352  0.920327  0.229196  1
  O  O32  1  0.272067  0.818533  0.072349  1
  O  O33  1  0.227933  0.818533  0.572349  1
  O  O34  1  0.035809  0.805490  0.002485  1
  O  O35  1  0.464191  0.805490  0.502485  1
  O  O36  1  0.004319  0.778681  0.724433  1
  O  O37  1  0.495681  0.778681  0.224433  1
  O  O38  1  0.255563  0.776552  0.399244  1
  O  O39  1  0.244437  0.776552  0.899244  1
  O  O40  1  0.779629  0.723067  0.402709  1
  O  O41  1  0.720371  0.723067  0.902709  1
  O  O42  1  0.019774  0.720291  0.226280  1
  O  O43  1  0.480226  0.720291  0.726280  1
  O  O44  1  0.974441  0.684767  0.510409  1
  O  O45  1  0.525559  0.684767  0.010409  1
  O  O46  1  0.766796  0.668633  0.072683  1
  O  O47  1  0.733204  0.668633  0.572683  1
  O  O48  1  0.229298  0.570002  0.231800  1
  O  O49  1  0.270702  0.570002  0.731800  1
  O  O50  1  0.477265  0.516609  0.826577  1
  O  O51  1  0.022735  0.516609  0.326577  1
  O  O52  1  0.528578  0.494569  0.364485  1
  O  O53  1  0.971422  0.494569  0.864485  1
  O  O54  1  0.812281  0.486378  0.472125  1
  O  O55  1  0.687719  0.486378  0.972125  1
  O  O56  1  0.300468  0.493774  0.019061  1
  O  O57  1  0.199532  0.493774  0.519061  1
  O  O58  1  0.488871  0.485458  0.651135  1
  O  O59  1  0.011129  0.485458  0.151135  1
  O  O60  1  0.532562  0.471823  0.188668  1
  O  O61  1  0.967438  0.471823  0.688668  1
  O  O62  1  0.734137  0.393481  0.275362  1
  O  O63  1  0.765863  0.393481  0.775362  1
  O  O64  1  0.279961  0.308582  0.421747  1
  O  O65  1  0.220039  0.308582  0.921747  1
  O  O66  1  0.465607  0.301739  0.978912  1
  O  O67  1  0.034393  0.301739  0.478912  1
  O  O68  1  0.504597  0.264604  0.282965  1
  O  O69  1  0.995403  0.264604  0.782965  1
  O  O70  1  0.276830  0.257835  0.091081  1
  O  O71  1  0.223170  0.257835  0.591081  1
  O  O72  1  0.771726  0.245715  0.084650  1
  O  O73  1  0.728274  0.245715  0.584650  1
  O  O74  1  0.495796  0.239996  0.779575  1
  O  O75  1  0.004204  0.239996  0.279575  1
  O  O76  1  0.534145  0.201036  0.477804  1
  O  O77  1  0.965855  0.201036  0.977804  1
  O  O78  1  0.778044  0.194968  0.414426  1
  O  O79  1  0.721956  0.194968  0.914426  1
  O  O80  1  0.263133  0.116709  0.778172  1
  O  O81  1  0.236867  0.116709  0.278172  1
  O  O82  1  0.459348  0.032002  0.689426  1
  O  O83  1  0.040652  0.032002  0.189426  1
  O  O84  1  0.005000  0.013951  0.649372  1
  O  O85  1  0.495000  0.013951  0.149372  1
  O  O86  1  0.799291  0.008830  0.014347  1
  O  O87  1  0.700709  0.008830  0.514347  1
