# generated using pymatgen
data_DyY9(Bi2Te)2
_symmetry_space_group_name_H-M   'P 1'
_cell_length_a   8.20743000
_cell_length_b   9.51129805
_cell_length_c   11.97618000
_cell_angle_alpha   89.99437964
_cell_angle_beta   90.00000000
_cell_angle_gamma   90.00000000
_symmetry_Int_Tables_number   1
_chemical_formula_structural   DyY9(Bi2Te)2
_chemical_formula_sum   'Dy2 Y18 Bi8 Te4'
_cell_volume   934.90028242
_cell_formula_units_Z   2
loop_
 _symmetry_equiv_pos_site_id
 _symmetry_equiv_pos_as_xyz
  1  'x, y, z'
loop_
 _atom_site_type_symbol
 _atom_site_label
 _atom_site_symmetry_multiplicity
 _atom_site_fract_x
 _atom_site_fract_y
 _atom_site_fract_z
 _atom_site_occupancy
  Dy  Dy0  1  0.689626  0.938077  0.057379  1
  Dy  Dy1  1  0.189626  0.561923  0.442621  1
  Y  Y2  1  0.353661  0.749915  0.212928  1
  Y  Y3  1  0.853661  0.750085  0.287072  1
  Y  Y4  1  0.646243  0.249987  0.787156  1
  Y  Y5  1  0.146243  0.250013  0.712844  1
  Y  Y6  1  0.689364  0.561309  0.057386  1
  Y  Y7  1  0.189364  0.938691  0.442614  1
  Y  Y8  1  0.310708  0.061219  0.942655  1
  Y  Y9  1  0.810708  0.438781  0.557345  1
  Y  Y10  1  0.310633  0.438749  0.942642  1
  Y  Y11  1  0.810633  0.061251  0.557358  1
  Y  Y12  1  0.475764  0.249991  0.488531  1
  Y  Y13  1  0.975764  0.250009  0.011469  1
  Y  Y14  1  0.524076  0.749844  0.511454  1
  Y  Y15  1  0.024076  0.750156  0.988546  1
  Y  Y16  1  0.319431  0.250032  0.217948  1
  Y  Y17  1  0.819431  0.249968  0.282052  1
  Y  Y18  1  0.680592  0.750053  0.782121  1
  Y  Y19  1  0.180592  0.749947  0.717879  1
  Bi  Bi20  1  0.568743  0.995619  0.325335  1
  Bi  Bi21  1  0.068743  0.504381  0.174665  1
  Bi  Bi22  1  0.431209  0.495569  0.674535  1
  Bi  Bi23  1  0.931209  0.004431  0.825465  1
  Bi  Bi24  1  0.431248  0.004441  0.674609  1
  Bi  Bi25  1  0.931248  0.495559  0.825391  1
  Bi  Bi26  1  0.568614  0.504328  0.325416  1
  Bi  Bi27  1  0.068614  0.995672  0.174584  1
  Te  Te28  1  0.406851  0.750057  0.957868  1
  Te  Te29  1  0.906851  0.749943  0.542132  1
  Te  Te30  1  0.593237  0.249868  0.042195  1
  Te  Te31  1  0.093237  0.250132  0.457805  1
