# generated using pymatgen
data_Ca2Co2RhN3
_symmetry_space_group_name_H-M   'P 1'
_cell_length_a   6.23811254
_cell_length_b   6.23811362
_cell_length_c   6.24202166
_cell_angle_alpha   89.24116363
_cell_angle_beta   89.24116163
_cell_angle_gamma   116.22721685
_symmetry_Int_Tables_number   1
_chemical_formula_structural   Ca2Co2RhN3
_chemical_formula_sum   'Ca4 Co4 Rh2 N6'
_cell_volume   217.82672502
_cell_formula_units_Z   2
loop_
 _symmetry_equiv_pos_site_id
 _symmetry_equiv_pos_as_xyz
  1  'x, y, z'
loop_
 _atom_site_type_symbol
 _atom_site_label
 _atom_site_symmetry_multiplicity
 _atom_site_fract_x
 _atom_site_fract_y
 _atom_site_fract_z
 _atom_site_occupancy
  Ca  Ca0  1  0.830813  0.676721  0.893102  1
  Ca  Ca1  1  0.323279  0.169187  0.606898  1
  Ca  Ca2  1  0.169187  0.323279  0.106898  1
  Ca  Ca3  1  0.676721  0.830813  0.393102  1
  Co  Co4  1  0.561730  0.167901  0.105074  1
  Co  Co5  1  0.438270  0.832099  0.894926  1
  Co  Co6  1  0.832099  0.438270  0.394926  1
  Co  Co7  1  0.167901  0.561730  0.605074  1
  Rh  Rh8  1  0.814269  0.185731  0.750000  1
  Rh  Rh9  1  0.185731  0.814269  0.250000  1
  N  N10  1  0.419105  0.580895  0.750000  1
  N  N11  1  0.580895  0.419105  0.250000  1
  N  N12  1  0.999822  0.733484  0.524310  1
  N  N13  1  0.733484  0.999822  0.024310  1
  N  N14  1  0.000178  0.266516  0.475690  1
  N  N15  1  0.266516  0.000178  0.975690  1
