# generated using pymatgen
data_Ba3LuCrS6
_symmetry_space_group_name_H-M   'P 1'
_cell_length_a   8.25268011
_cell_length_b   8.25268061
_cell_length_c   8.25268100
_cell_angle_alpha   93.45297327
_cell_angle_beta   93.45296652
_cell_angle_gamma   93.45298344
_symmetry_Int_Tables_number   1
_chemical_formula_structural   Ba3LuCrS6
_chemical_formula_sum   'Ba6 Lu2 Cr2 S12'
_cell_volume   558.87290188
_cell_formula_units_Z   2
loop_
 _symmetry_equiv_pos_site_id
 _symmetry_equiv_pos_as_xyz
  1  'x, y, z'
loop_
 _atom_site_type_symbol
 _atom_site_label
 _atom_site_symmetry_multiplicity
 _atom_site_fract_x
 _atom_site_fract_y
 _atom_site_fract_z
 _atom_site_occupancy
  Ba  Ba0  1  0.369107  0.750000  0.130893  1
  Ba  Ba1  1  0.130893  0.369107  0.750000  1
  Ba  Ba2  1  0.750000  0.130893  0.369107  1
  Ba  Ba3  1  0.630893  0.250000  0.869107  1
  Ba  Ba4  1  0.869107  0.630893  0.250000  1
  Ba  Ba5  1  0.250000  0.869107  0.630893  1
  Lu  Lu6  1  0.250000  0.250000  0.250000  1
  Lu  Lu7  1  0.750000  0.750000  0.750000  1
  Cr  Cr8  1  0.500000  0.500000  0.500000  1
  Cr  Cr9  1  0.000000  0.000000  0.000000  1
  S  S10  1  0.534293  0.413755  0.212484  1
  S  S11  1  0.212484  0.534293  0.413755  1
  S  S12  1  0.413755  0.212484  0.534293  1
  S  S13  1  0.965707  0.287516  0.086245  1
  S  S14  1  0.086245  0.965707  0.287516  1
  S  S15  1  0.287516  0.086245  0.965707  1
  S  S16  1  0.465707  0.586245  0.787516  1
  S  S17  1  0.787516  0.465707  0.586245  1
  S  S18  1  0.586245  0.787516  0.465707  1
  S  S19  1  0.034293  0.712484  0.913755  1
  S  S20  1  0.712484  0.913755  0.034293  1
  S  S21  1  0.913755  0.034293  0.712484  1
