# generated using pymatgen
data_Mo(S2F3)2
_symmetry_space_group_name_H-M   'P 1'
_cell_length_a   6.43455618
_cell_length_b   6.71197193
_cell_length_c   6.88802717
_cell_angle_alpha   60.56304834
_cell_angle_beta   67.16884509
_cell_angle_gamma   59.17617432
_symmetry_Int_Tables_number   1
_chemical_formula_structural   Mo(S2F3)2
_chemical_formula_sum   'Mo1 S4 F6'
_cell_volume   218.76240362
_cell_formula_units_Z   1
loop_
 _symmetry_equiv_pos_site_id
 _symmetry_equiv_pos_as_xyz
  1  'x, y, z'
loop_
 _atom_site_type_symbol
 _atom_site_label
 _atom_site_symmetry_multiplicity
 _atom_site_fract_x
 _atom_site_fract_y
 _atom_site_fract_z
 _atom_site_occupancy
  Mo  Mo0  1  0.000000  0.000000  0.000000  1
  S  S1  1  0.690309  0.539865  0.308647  1
  S  S2  1  0.418409  0.747112  0.488001  1
  S  S3  1  0.581591  0.252888  0.511999  1
  S  S4  1  0.309692  0.460134  0.691353  1
  F  F5  1  0.667532  0.971880  0.169571  1
  F  F6  1  0.970251  0.139436  0.212517  1
  F  F7  1  0.162587  0.661054  0.206633  1
  F  F8  1  0.837413  0.338947  0.793367  1
  F  F9  1  0.029750  0.860565  0.787482  1
  F  F10  1  0.332469  0.028118  0.830428  1
