# generated using pymatgen
data_Hf2Co4Si3Mo2As
_symmetry_space_group_name_H-M   'P 1'
_cell_length_a   3.70965500
_cell_length_b   6.22996220
_cell_length_c   7.05887374
_cell_angle_alpha   90.22645634
_cell_angle_beta   90.00000000
_cell_angle_gamma   90.00000000
_symmetry_Int_Tables_number   1
_chemical_formula_structural   Hf2Co4Si3Mo2As
_chemical_formula_sum   'Hf2 Co4 Si3 Mo2 As1'
_cell_volume   163.13643047
_cell_formula_units_Z   1
loop_
 _symmetry_equiv_pos_site_id
 _symmetry_equiv_pos_as_xyz
  1  'x, y, z'
loop_
 _atom_site_type_symbol
 _atom_site_label
 _atom_site_symmetry_multiplicity
 _atom_site_fract_x
 _atom_site_fract_y
 _atom_site_fract_z
 _atom_site_occupancy
  Hf  Hf0  1  0.750000  0.970454  0.680074  1
  Hf  Hf1  1  0.750000  0.480230  0.824850  1
  Co  Co2  1  0.250000  0.142374  0.941340  1
  Co  Co3  1  0.250000  0.650971  0.563535  1
  Co  Co4  1  0.750000  0.859700  0.061199  1
  Co  Co5  1  0.750000  0.361731  0.432517  1
  Si  Si6  1  0.250000  0.774607  0.898417  1
  Si  Si7  1  0.750000  0.724915  0.366771  1
  Si  Si8  1  0.750000  0.223910  0.128577  1
  Mo  Mo9  1  0.250000  0.018312  0.314330  1
  Mo  Mo10  1  0.250000  0.520649  0.180965  1
  As  As11  1  0.250000  0.272149  0.607426  1
