# generated using pymatgen
data_La3Nd(RuO6)2
_symmetry_space_group_name_H-M   'P 1'
_cell_length_a   10.26678992
_cell_length_b   10.26678931
_cell_length_c   5.68824943
_cell_angle_alpha   75.12157730
_cell_angle_beta   75.12158407
_cell_angle_gamma   69.56876024
_symmetry_Int_Tables_number   1
_chemical_formula_structural   La3Nd(RuO6)2
_chemical_formula_sum   'La6 Nd2 Ru4 O24'
_cell_volume   533.69822591
_cell_formula_units_Z   2
loop_
 _symmetry_equiv_pos_site_id
 _symmetry_equiv_pos_as_xyz
  1  'x, y, z'
loop_
 _atom_site_type_symbol
 _atom_site_label
 _atom_site_symmetry_multiplicity
 _atom_site_fract_x
 _atom_site_fract_y
 _atom_site_fract_z
 _atom_site_occupancy
  La  La0  1  0.067649  0.287437  0.622955  1
  La  La1  1  0.712563  0.932351  0.877045  1
  La  La2  1  0.932351  0.712563  0.377045  1
  La  La3  1  0.287437  0.067649  0.122955  1
  La  La4  1  0.633350  0.366650  0.750000  1
  La  La5  1  0.366650  0.633350  0.250000  1
  Nd  Nd6  1  0.108025  0.891975  0.750000  1
  Nd  Nd7  1  0.891975  0.108025  0.250000  1
  Ru  Ru8  1  0.500355  0.798791  0.549312  1
  Ru  Ru9  1  0.201209  0.499645  0.950688  1
  Ru  Ru10  1  0.499645  0.201209  0.450688  1
  Ru  Ru11  1  0.798791  0.500355  0.049312  1
  O  O12  1  0.614855  0.169409  0.154890  1
  O  O13  1  0.830591  0.385145  0.345110  1
  O  O14  1  0.385145  0.830591  0.845110  1
  O  O15  1  0.169409  0.614855  0.654890  1
  O  O16  1  0.472812  0.072214  0.732345  1
  O  O17  1  0.927786  0.527188  0.767655  1
  O  O18  1  0.527188  0.927786  0.267655  1
  O  O19  1  0.072214  0.472812  0.232345  1
  O  O20  1  0.327728  0.214864  0.371102  1
  O  O21  1  0.785136  0.672272  0.128898  1
  O  O22  1  0.672272  0.785136  0.628898  1
  O  O23  1  0.214864  0.327728  0.871102  1
  O  O24  1  0.891859  0.923568  0.070427  1
  O  O25  1  0.076432  0.108141  0.429573  1
  O  O26  1  0.108141  0.076432  0.929573  1
  O  O27  1  0.923568  0.891859  0.570427  1
  O  O28  1  0.163702  0.689020  0.085299  1
  O  O29  1  0.310980  0.836298  0.414701  1
  O  O30  1  0.836298  0.310980  0.914701  1
  O  O31  1  0.689020  0.163702  0.585299  1
  O  O32  1  0.382646  0.457932  0.983595  1
  O  O33  1  0.542068  0.617354  0.516405  1
  O  O34  1  0.617354  0.542068  0.016405  1
  O  O35  1  0.457932  0.382646  0.483595  1
