# generated using pymatgen
data_Tb11(Yb3Ir4)3
_symmetry_space_group_name_H-M   'P 1'
_cell_length_a   10.89586417
_cell_length_b   11.01261906
_cell_length_c   6.27745742
_cell_angle_alpha   90.08729382
_cell_angle_beta   89.89876204
_cell_angle_gamma   90.00643371
_symmetry_Int_Tables_number   1
_chemical_formula_structural   Tb11(Yb3Ir4)3
_chemical_formula_sum   'Tb11 Yb9 Ir12'
_cell_volume   753.24262489
_cell_formula_units_Z   1
loop_
 _symmetry_equiv_pos_site_id
 _symmetry_equiv_pos_as_xyz
  1  'x, y, z'
loop_
 _atom_site_type_symbol
 _atom_site_label
 _atom_site_symmetry_multiplicity
 _atom_site_fract_x
 _atom_site_fract_y
 _atom_site_fract_z
 _atom_site_occupancy
  Tb  Tb0  1  0.586904  0.203305  0.379188  1
  Tb  Tb1  1  0.412819  0.796808  0.380534  1
  Tb  Tb2  1  0.411529  0.205192  0.880735  1
  Tb  Tb3  1  0.211223  0.412830  0.624104  1
  Tb  Tb4  1  0.211872  0.587964  0.125187  1
  Tb  Tb5  1  0.787001  0.412343  0.126293  1
  Tb  Tb6  1  0.787565  0.588266  0.625864  1
  Tb  Tb7  1  0.911704  0.711010  0.128240  1
  Tb  Tb8  1  0.910532  0.288900  0.627286  1
  Tb  Tb9  1  0.087950  0.711387  0.626487  1
  Tb  Tb10  1  0.088064  0.289608  0.126378  1
  Yb  Yb11  1  0.289547  0.086682  0.376874  1
  Yb  Yb12  1  0.290950  0.912610  0.876892  1
  Yb  Yb13  1  0.710946  0.082865  0.876655  1
  Yb  Yb14  1  0.710349  0.913457  0.377503  1
  Yb  Yb15  1  0.588593  0.793951  0.875765  1
  Yb  Yb16  1  0.000692  0.000202  0.494942  1
  Yb  Yb17  1  0.001138  0.999614  0.994849  1
  Yb  Yb18  1  0.500201  0.503343  0.990327  1
  Yb  Yb19  1  0.500629  0.499370  0.490436  1
  Ir  Ir20  1  0.849450  0.165310  0.249067  1
  Ir  Ir21  1  0.856527  0.833413  0.747107  1
  Ir  Ir22  1  0.149867  0.166166  0.750344  1
  Ir  Ir23  1  0.152190  0.834388  0.249290  1
  Ir  Ir24  1  0.657113  0.346046  0.746686  1
  Ir  Ir25  1  0.659645  0.652240  0.250414  1
  Ir  Ir26  1  0.341902  0.348236  0.242904  1
  Ir  Ir27  1  0.336758  0.649693  0.738541  1
  Ir  Ir28  1  0.498962  0.002833  0.123492  1
  Ir  Ir29  1  0.499001  0.002722  0.625270  1
  Ir  Ir30  1  0.999248  0.499637  0.886971  1
  Ir  Ir31  1  0.999128  0.499612  0.385375  1
