# generated using pymatgen
data_Th14Tc4PtRh
_symmetry_space_group_name_H-M   'P 1'
_cell_length_a   9.98672719
_cell_length_b   10.00926791
_cell_length_c   6.32764919
_cell_angle_alpha   89.80564153
_cell_angle_beta   90.05740058
_cell_angle_gamma   119.63031459
_symmetry_Int_Tables_number   1
_chemical_formula_structural   Th14Tc4PtRh
_chemical_formula_sum   'Th14 Tc4 Pt1 Rh1'
_cell_volume   549.79616168
_cell_formula_units_Z   1
loop_
 _symmetry_equiv_pos_site_id
 _symmetry_equiv_pos_as_xyz
  1  'x, y, z'
loop_
 _atom_site_type_symbol
 _atom_site_label
 _atom_site_symmetry_multiplicity
 _atom_site_fract_x
 _atom_site_fract_y
 _atom_site_fract_z
 _atom_site_occupancy
  Th  Th0  1  0.670391  0.336944  0.552865  1
  Th  Th1  1  0.333890  0.666380  0.034597  1
  Th  Th2  1  0.876922  0.753249  0.752491  1
  Th  Th3  1  0.245711  0.123741  0.758884  1
  Th  Th4  1  0.876764  0.124681  0.752817  1
  Th  Th5  1  0.126114  0.260499  0.253385  1
  Th  Th6  1  0.748902  0.871606  0.253592  1
  Th  Th7  1  0.120702  0.866148  0.253107  1
  Th  Th8  1  0.458099  0.917082  0.547924  1
  Th  Th9  1  0.080926  0.542798  0.547972  1
  Th  Th10  1  0.461452  0.543715  0.547883  1
  Th  Th11  1  0.541686  0.074655  0.039622  1
  Th  Th12  1  0.917298  0.459703  0.043405  1
  Th  Th13  1  0.543630  0.466463  0.044470  1
  Tc  Tc14  1  0.186542  0.368636  0.797139  1
  Tc  Tc15  1  0.631136  0.817113  0.798707  1
  Tc  Tc16  1  0.186981  0.818551  0.798169  1
  Tc  Tc17  1  0.809081  0.620174  0.301627  1
  Pt  Pt18  1  0.375668  0.184573  0.304506  1
  Rh  Rh19  1  0.808104  0.183290  0.299345  1
