# generated using pymatgen
data_LaPrPaSn7
_symmetry_space_group_name_H-M   'P 1'
_cell_length_a   12.93973026
_cell_length_b   12.93972898
_cell_length_c   4.57816600
_cell_angle_alpha   90.00000000
_cell_angle_beta   90.00000000
_cell_angle_gamma   158.88606633
_symmetry_Int_Tables_number   1
_chemical_formula_structural   LaPrPaSn7
_chemical_formula_sum   'La1 Pr1 Pa1 Sn7'
_cell_volume   276.13038515
_cell_formula_units_Z   1
loop_
 _symmetry_equiv_pos_site_id
 _symmetry_equiv_pos_as_xyz
  1  'x, y, z'
loop_
 _atom_site_type_symbol
 _atom_site_label
 _atom_site_symmetry_multiplicity
 _atom_site_fract_x
 _atom_site_fract_y
 _atom_site_fract_z
 _atom_site_occupancy
  La  La0  1  0.817800  0.182200  0.000000  1
  Pr  Pr1  1  0.181777  0.818223  0.000000  1
  Pa  Pa2  1  0.000550  0.999450  0.000000  1
  Sn  Sn3  1  0.288811  0.711189  0.500000  1
  Sn  Sn4  1  0.709518  0.290482  0.500000  1
  Sn  Sn5  1  0.408067  0.591933  0.000000  1
  Sn  Sn6  1  0.592378  0.407622  0.000000  1
  Sn  Sn7  1  0.091594  0.908406  0.500000  1
  Sn  Sn8  1  0.909462  0.090538  0.500000  1
  Sn  Sn9  1  0.500044  0.499956  0.500000  1
