# generated using pymatgen
data_Sr4Li2Cd(HgAs3)2
_symmetry_space_group_name_H-M   'P 1'
_cell_length_a   10.33541123
_cell_length_b   10.33541140
_cell_length_c   16.49528600
_cell_angle_alpha   90.00000000
_cell_angle_beta   90.00000000
_cell_angle_gamma   154.46344138
_symmetry_Int_Tables_number   1
_chemical_formula_structural   Sr4Li2Cd(HgAs3)2
_chemical_formula_sum   'Sr8 Li4 Cd2 Hg4 As12'
_cell_volume   759.59172609
_cell_formula_units_Z   2
loop_
 _symmetry_equiv_pos_site_id
 _symmetry_equiv_pos_as_xyz
  1  'x, y, z'
loop_
 _atom_site_type_symbol
 _atom_site_label
 _atom_site_symmetry_multiplicity
 _atom_site_fract_x
 _atom_site_fract_y
 _atom_site_fract_z
 _atom_site_occupancy
  Sr  Sr0  1  0.983087  0.016913  0.378374  1
  Sr  Sr1  1  0.016913  0.983087  0.621626  1
  Sr  Sr2  1  0.983087  0.016913  0.121626  1
  Sr  Sr3  1  0.016913  0.983087  0.878374  1
  Sr  Sr4  1  0.827125  0.172875  0.930354  1
  Sr  Sr5  1  0.172875  0.827125  0.069646  1
  Sr  Sr6  1  0.827125  0.172875  0.569646  1
  Sr  Sr7  1  0.172875  0.827125  0.430354  1
  Li  Li8  1  0.849083  0.150917  0.250000  1
  Li  Li9  1  0.150917  0.849083  0.750000  1
  Li  Li10  1  0.563430  0.436570  0.250000  1
  Li  Li11  1  0.436570  0.563430  0.750000  1
  Cd  Cd12  1  0.701003  0.298997  0.250000  1
  Cd  Cd13  1  0.298997  0.701003  0.750000  1
  Hg  Hg14  1  0.352146  0.647854  0.382626  1
  Hg  Hg15  1  0.647854  0.352146  0.617374  1
  Hg  Hg16  1  0.352146  0.647854  0.117374  1
  Hg  Hg17  1  0.647854  0.352146  0.882626  1
  As  As18  1  0.775336  0.224664  0.387918  1
  As  As19  1  0.224664  0.775336  0.612082  1
  As  As20  1  0.775336  0.224664  0.112082  1
  As  As21  1  0.224664  0.775336  0.887918  1
  As  As22  1  0.560417  0.439583  0.477568  1
  As  As23  1  0.439583  0.560417  0.522432  1
  As  As24  1  0.560417  0.439583  0.022432  1
  As  As25  1  0.439583  0.560417  0.977568  1
  As  As26  1  0.435729  0.564271  0.250000  1
  As  As27  1  0.564271  0.435729  0.750000  1
  As  As28  1  0.115668  0.884332  0.250000  1
  As  As29  1  0.884332  0.115668  0.750000  1
