# generated using pymatgen
data_Dy2Tm4Al24FeRu7
_symmetry_space_group_name_H-M   'P 1'
_cell_length_a   8.76444803
_cell_length_b   8.76444711
_cell_length_c   9.54926505
_cell_angle_alpha   90.00983055
_cell_angle_beta   89.99017104
_cell_angle_gamma   119.92689004
_symmetry_Int_Tables_number   1
_chemical_formula_structural   Dy2Tm4Al24FeRu7
_chemical_formula_sum   'Dy2 Tm4 Al24 Fe1 Ru7'
_cell_volume   635.72478176
_cell_formula_units_Z   1
loop_
 _symmetry_equiv_pos_site_id
 _symmetry_equiv_pos_as_xyz
  1  'x, y, z'
loop_
 _atom_site_type_symbol
 _atom_site_label
 _atom_site_symmetry_multiplicity
 _atom_site_fract_x
 _atom_site_fract_y
 _atom_site_fract_z
 _atom_site_occupancy
  Dy  Dy0  1  0.807246  0.192754  0.749935  1
  Dy  Dy1  1  0.192754  0.807246  0.250065  1
  Tm  Tm2  1  0.388687  0.194250  0.749828  1
  Tm  Tm3  1  0.611313  0.805750  0.250172  1
  Tm  Tm4  1  0.805750  0.611313  0.749828  1
  Tm  Tm5  1  0.194250  0.388687  0.250172  1
  Al  Al6  1  0.666618  0.333382  0.982495  1
  Al  Al7  1  0.333382  0.666618  0.017505  1
  Al  Al8  1  0.333344  0.666656  0.481482  1
  Al  Al9  1  0.666656  0.333344  0.518518  1
  Al  Al10  1  0.837594  0.162406  0.422277  1
  Al  Al11  1  0.162406  0.837594  0.577723  1
  Al  Al12  1  0.324999  0.162976  0.422965  1
  Al  Al13  1  0.159905  0.840095  0.923325  1
  Al  Al14  1  0.675001  0.837024  0.577035  1
  Al  Al15  1  0.840095  0.159905  0.076675  1
  Al  Al16  1  0.837024  0.675001  0.422965  1
  Al  Al17  1  0.680016  0.839540  0.923995  1
  Al  Al18  1  0.162976  0.324999  0.577035  1
  Al  Al19  1  0.319984  0.160460  0.076005  1
  Al  Al20  1  0.160460  0.319984  0.923995  1
  Al  Al21  1  0.839540  0.680016  0.076005  1
  Al  Al22  1  0.438936  0.561064  0.750433  1
  Al  Al23  1  0.561064  0.438936  0.249567  1
  Al  Al24  1  0.123044  0.561723  0.750409  1
  Al  Al25  1  0.876956  0.438277  0.249591  1
  Al  Al26  1  0.438277  0.876956  0.750409  1
  Al  Al27  1  0.561723  0.123044  0.249591  1
  Al  Al28  1  0.001232  0.998768  0.756058  1
  Al  Al29  1  0.998768  0.001232  0.243942  1
  Fe  Fe30  1  0.000000  0.000000  0.000000  1
  Ru  Ru31  1  0.500000  0.500000  0.000000  1
  Ru  Ru32  1  0.000000  0.500000  0.000000  1
  Ru  Ru33  1  0.500000  0.500000  0.500000  1
  Ru  Ru34  1  0.500000  0.000000  0.000000  1
  Ru  Ru35  1  0.000000  0.500000  0.500000  1
  Ru  Ru36  1  0.500000  0.000000  0.500000  1
  Ru  Ru37  1  0.000000  0.000000  0.500000  1
