# generated using pymatgen
data_Dy3YMn16(CoP3)4
_symmetry_space_group_name_H-M   'P 1'
_cell_length_a   3.59598700
_cell_length_b   10.55157604
_cell_length_c   12.17682605
_cell_angle_alpha   90.01051612
_cell_angle_beta   90.00000000
_cell_angle_gamma   90.00000000
_symmetry_Int_Tables_number   1
_chemical_formula_structural   Dy3YMn16(CoP3)4
_chemical_formula_sum   'Dy3 Y1 Mn16 Co4 P12'
_cell_volume   462.02932491
_cell_formula_units_Z   1
loop_
 _symmetry_equiv_pos_site_id
 _symmetry_equiv_pos_as_xyz
  1  'x, y, z'
loop_
 _atom_site_type_symbol
 _atom_site_label
 _atom_site_symmetry_multiplicity
 _atom_site_fract_x
 _atom_site_fract_y
 _atom_site_fract_z
 _atom_site_occupancy
  Dy  Dy0  1  0.250000  0.915928  0.207912  1
  Dy  Dy1  1  0.750000  0.083972  0.792062  1
  Dy  Dy2  1  0.750000  0.416001  0.291989  1
  Y  Y3  1  0.250000  0.584163  0.707946  1
  Mn  Mn4  1  0.250000  0.787729  0.487867  1
  Mn  Mn5  1  0.750000  0.212221  0.512063  1
  Mn  Mn6  1  0.750000  0.287703  0.012098  1
  Mn  Mn7  1  0.250000  0.712301  0.987957  1
  Mn  Mn8  1  0.250000  0.092559  0.992718  1
  Mn  Mn9  1  0.750000  0.907388  0.007276  1
  Mn  Mn10  1  0.750000  0.592576  0.507097  1
  Mn  Mn11  1  0.250000  0.407402  0.492626  1
  Mn  Mn12  1  0.250000  0.283176  0.676277  1
  Mn  Mn13  1  0.750000  0.716731  0.323658  1
  Mn  Mn14  1  0.750000  0.783363  0.823810  1
  Mn  Mn15  1  0.250000  0.216758  0.176314  1
  Mn  Mn16  1  0.250000  0.621667  0.197577  1
  Mn  Mn17  1  0.750000  0.378228  0.802464  1
  Mn  Mn18  1  0.750000  0.121618  0.302458  1
  Mn  Mn19  1  0.250000  0.878531  0.697601  1
  Co  Co20  1  0.250000  0.035613  0.433972  1
  Co  Co21  1  0.750000  0.964450  0.566061  1
  Co  Co22  1  0.750000  0.535652  0.066150  1
  Co  Co23  1  0.250000  0.464313  0.934048  1
  P  P24  1  0.250000  0.079584  0.611671  1
  P  P25  1  0.750000  0.920421  0.388317  1
  P  P26  1  0.750000  0.579652  0.888553  1
  P  P27  1  0.250000  0.420458  0.111745  1
  P  P28  1  0.250000  0.233790  0.371987  1
  P  P29  1  0.750000  0.766473  0.627897  1
  P  P30  1  0.750000  0.733770  0.128038  1
  P  P31  1  0.250000  0.266167  0.871972  1
  P  P32  1  0.250000  0.906848  0.886345  1
  P  P33  1  0.750000  0.093084  0.113693  1
  P  P34  1  0.750000  0.406537  0.613542  1
  P  P35  1  0.250000  0.593173  0.386237  1
