# generated using pymatgen
data_Tb3Dy(CI)2
_symmetry_space_group_name_H-M   'P 1'
_cell_length_a   3.77679000
_cell_length_b   3.77678993
_cell_length_c   14.85488500
_cell_angle_alpha   90.00000000
_cell_angle_beta   90.00000000
_cell_angle_gamma   120.00000064
_symmetry_Int_Tables_number   1
_chemical_formula_structural   Tb3Dy(CI)2
_chemical_formula_sum   'Tb3 Dy1 C2 I2'
_cell_volume   183.50402287
_cell_formula_units_Z   1
loop_
 _symmetry_equiv_pos_site_id
 _symmetry_equiv_pos_as_xyz
  1  'x, y, z'
loop_
 _atom_site_type_symbol
 _atom_site_label
 _atom_site_symmetry_multiplicity
 _atom_site_fract_x
 _atom_site_fract_y
 _atom_site_fract_z
 _atom_site_occupancy
  Tb  Tb0  1  0.666667  0.333333  0.414297  1
  Tb  Tb1  1  0.666667  0.333333  0.085935  1
  Tb  Tb2  1  0.333333  0.666667  0.914044  1
  Dy  Dy3  1  0.333333  0.666667  0.585421  1
  C  C4  1  0.000000  0.000000  0.999972  1
  C  C5  1  0.000000  0.000000  0.500855  1
  I  I6  1  0.333333  0.666667  0.250125  1
  I  I7  1  0.666667  0.333333  0.749350  1
