# generated using pymatgen
data_Th2SnPdRh
_symmetry_space_group_name_H-M   'P 1'
_cell_length_a   7.85223471
_cell_length_b   7.85223532
_cell_length_c   3.85545700
_cell_angle_alpha   90.00000000
_cell_angle_beta   90.00000000
_cell_angle_gamma   90.34039888
_symmetry_Int_Tables_number   1
_chemical_formula_structural   Th2SnPdRh
_chemical_formula_sum   'Th4 Sn2 Pd2 Rh2'
_cell_volume   237.71400989
_cell_formula_units_Z   2
loop_
 _symmetry_equiv_pos_site_id
 _symmetry_equiv_pos_as_xyz
  1  'x, y, z'
loop_
 _atom_site_type_symbol
 _atom_site_label
 _atom_site_symmetry_multiplicity
 _atom_site_fract_x
 _atom_site_fract_y
 _atom_site_fract_z
 _atom_site_occupancy
  Th  Th0  1  0.680624  0.180624  0.500000  1
  Th  Th1  1  0.319376  0.819376  0.500000  1
  Th  Th2  1  0.169749  0.330251  0.500000  1
  Th  Th3  1  0.830251  0.669749  0.500000  1
  Sn  Sn4  1  0.000000  0.000000  0.000000  1
  Sn  Sn5  1  0.500000  0.500000  0.000000  1
  Pd  Pd6  1  0.627913  0.872087  0.000000  1
  Pd  Pd7  1  0.372087  0.127913  0.000000  1
  Rh  Rh8  1  0.132148  0.632148  0.000000  1
  Rh  Rh9  1  0.867852  0.367852  0.000000  1
