# generated using pymatgen
data_Nb12Al7Fe5C4
_symmetry_space_group_name_H-M   'P 1'
_cell_length_a   8.24431252
_cell_length_b   8.24431247
_cell_length_c   8.24431376
_cell_angle_alpha   60.01158757
_cell_angle_beta   60.01158829
_cell_angle_gamma   60.01158941
_symmetry_Int_Tables_number   1
_chemical_formula_structural   Nb12Al7Fe5C4
_chemical_formula_sum   'Nb12 Al7 Fe5 C4'
_cell_volume   396.33505481
_cell_formula_units_Z   1
loop_
 _symmetry_equiv_pos_site_id
 _symmetry_equiv_pos_as_xyz
  1  'x, y, z'
loop_
 _atom_site_type_symbol
 _atom_site_label
 _atom_site_symmetry_multiplicity
 _atom_site_fract_x
 _atom_site_fract_y
 _atom_site_fract_z
 _atom_site_occupancy
  Nb  Nb0  1  0.807833  0.807833  0.189251  1
  Nb  Nb1  1  0.192903  0.192903  0.807245  1
  Nb  Nb2  1  0.807833  0.189251  0.807833  1
  Nb  Nb3  1  0.192903  0.807245  0.192903  1
  Nb  Nb4  1  0.189251  0.807833  0.807833  1
  Nb  Nb5  1  0.807245  0.192903  0.192903  1
  Nb  Nb6  1  0.442613  0.442613  0.056912  1
  Nb  Nb7  1  0.055805  0.055805  0.444463  1
  Nb  Nb8  1  0.442613  0.056912  0.442613  1
  Nb  Nb9  1  0.055805  0.444463  0.055805  1
  Nb  Nb10  1  0.056912  0.442613  0.442613  1
  Nb  Nb11  1  0.444463  0.055805  0.055805  1
  Al  Al12  1  0.747481  0.417844  0.417844  1
  Al  Al13  1  0.417844  0.747481  0.417844  1
  Al  Al14  1  0.417844  0.417844  0.747481  1
  Al  Al15  1  0.417696  0.417696  0.417696  1
  Al  Al16  1  0.505070  0.831998  0.831998  1
  Al  Al17  1  0.831998  0.505070  0.831998  1
  Al  Al18  1  0.831998  0.831998  0.505070  1
  Fe  Fe19  1  0.121065  0.629871  0.629871  1
  Fe  Fe20  1  0.629871  0.121065  0.629871  1
  Fe  Fe21  1  0.629871  0.629871  0.121065  1
  Fe  Fe22  1  0.624794  0.624794  0.624794  1
  Fe  Fe23  1  0.828028  0.828028  0.828028  1
  C  C24  1  0.625344  0.124547  0.124547  1
  C  C25  1  0.124547  0.625344  0.124547  1
  C  C26  1  0.124547  0.124547  0.625344  1
  C  C27  1  0.125821  0.125821  0.125821  1
