# generated using pymatgen
data_YbDyZn19Cu3
_symmetry_space_group_name_H-M   'P 1'
_cell_length_a   8.17723910
_cell_length_b   8.18015032
_cell_length_c   8.18014934
_cell_angle_alpha   99.73735057
_cell_angle_beta   99.53459456
_cell_angle_gamma   131.72229021
_symmetry_Int_Tables_number   1
_chemical_formula_structural   YbDyZn19Cu3
_chemical_formula_sum   'Yb1 Dy1 Zn19 Cu3'
_cell_volume   372.62391007
_cell_formula_units_Z   1
loop_
 _symmetry_equiv_pos_site_id
 _symmetry_equiv_pos_as_xyz
  1  'x, y, z'
loop_
 _atom_site_type_symbol
 _atom_site_label
 _atom_site_symmetry_multiplicity
 _atom_site_fract_x
 _atom_site_fract_y
 _atom_site_fract_z
 _atom_site_occupancy
  Yb  Yb0  1  0.750656  0.250224  0.500432  1
  Dy  Dy1  1  0.500247  0.500313  0.999935  1
  Zn  Zn2  1  0.398042  0.074184  0.079069  1
  Zn  Zn3  1  0.990069  0.314336  0.917592  1
  Zn  Zn4  1  0.260531  0.677699  0.825371  1
  Zn  Zn5  1  0.850974  0.430409  0.174934  1
  Zn  Zn6  1  0.924392  0.597700  0.912138  1
  Zn  Zn7  1  0.685602  0.008577  0.080887  1
  Zn  Zn8  1  0.325222  0.737048  0.172158  1
  Zn  Zn9  1  0.565043  0.146258  0.824098  1
  Zn  Zn10  1  0.850974  0.676041  0.420565  1
  Zn  Zn11  1  0.260531  0.435159  0.582831  1
  Zn  Zn12  1  0.990069  0.072478  0.675734  1
  Zn  Zn13  1  0.398042  0.318973  0.323857  1
  Zn  Zn14  1  0.325222  0.153064  0.588174  1
  Zn  Zn15  1  0.565043  0.740944  0.418785  1
  Zn  Zn16  1  0.924392  0.012254  0.326692  1
  Zn  Zn17  1  0.685602  0.604716  0.677025  1
  Zn  Zn18  1  0.250918  0.746673  0.504246  1
  Zn  Zn19  1  0.998922  0.003114  0.995807  1
  Zn  Zn20  1  0.125307  0.874917  0.250390  1
  Cu  Cu21  1  0.124975  0.874157  0.749229  1
  Cu  Cu22  1  0.124975  0.375746  0.250818  1
  Cu  Cu23  1  0.624252  0.875017  0.749235  1
