# generated using pymatgen
data_Pr5NdPd10
_symmetry_space_group_name_H-M   'P 1'
_cell_length_a   6.00708299
_cell_length_b   6.00708359
_cell_length_c   10.04658400
_cell_angle_alpha   90.00000000
_cell_angle_beta   90.00000000
_cell_angle_gamma   104.32349099
_symmetry_Int_Tables_number   1
_chemical_formula_structural   Pr5NdPd10
_chemical_formula_sum   'Pr5 Nd1 Pd10'
_cell_volume   351.26196673
_cell_formula_units_Z   1
loop_
 _symmetry_equiv_pos_site_id
 _symmetry_equiv_pos_as_xyz
  1  'x, y, z'
loop_
 _atom_site_type_symbol
 _atom_site_label
 _atom_site_symmetry_multiplicity
 _atom_site_fract_x
 _atom_site_fract_y
 _atom_site_fract_z
 _atom_site_occupancy
  Pr  Pr0  1  0.798535  0.201546  0.000291  1
  Pr  Pr1  1  0.201546  0.798535  0.499709  1
  Pr  Pr2  1  0.201546  0.798535  0.000291  1
  Pr  Pr3  1  0.372644  0.372644  0.750000  1
  Pr  Pr4  1  0.798535  0.201546  0.499709  1
  Nd  Nd5  1  0.627961  0.627961  0.250000  1
  Pd  Pd6  1  0.932510  0.494422  0.750000  1
  Pd  Pd7  1  0.066523  0.505834  0.250000  1
  Pd  Pd8  1  0.681990  0.681990  0.550632  1
  Pd  Pd9  1  0.966129  0.966129  0.750000  1
  Pd  Pd10  1  0.318552  0.318552  0.052135  1
  Pd  Pd11  1  0.494422  0.932510  0.750000  1
  Pd  Pd12  1  0.505834  0.066523  0.250000  1
  Pd  Pd13  1  0.032730  0.032730  0.250000  1
  Pd  Pd14  1  0.681990  0.681990  0.949368  1
  Pd  Pd15  1  0.318552  0.318552  0.447865  1
