# generated using pymatgen
data_Ac2BrNCl2
_symmetry_space_group_name_H-M   'P 1'
_cell_length_a   8.93618695
_cell_length_b   8.67180346
_cell_length_c   8.67180383
_cell_angle_alpha   136.58520778
_cell_angle_beta   131.31719125
_cell_angle_gamma   66.75155017
_symmetry_Int_Tables_number   1
_chemical_formula_structural   Ac2BrNCl2
_chemical_formula_sum   'Ac4 Br2 N2 Cl4'
_cell_volume   342.15998558
_cell_formula_units_Z   2
loop_
 _symmetry_equiv_pos_site_id
 _symmetry_equiv_pos_as_xyz
  1  'x, y, z'
loop_
 _atom_site_type_symbol
 _atom_site_label
 _atom_site_symmetry_multiplicity
 _atom_site_fract_x
 _atom_site_fract_y
 _atom_site_fract_z
 _atom_site_occupancy
  Ac  Ac0  1  0.093397  0.908145  0.185253  1
  Ac  Ac1  1  0.906603  0.091855  0.814747  1
  Ac  Ac2  1  0.262192  0.591091  0.671101  1
  Ac  Ac3  1  0.737808  0.408909  0.328899  1
  Br  Br4  1  0.377779  0.197601  0.180179  1
  Br  Br5  1  0.622221  0.802399  0.819821  1
  N  N6  1  0.000000  0.750815  0.750815  1
  N  N7  1  0.000000  0.249185  0.249185  1
  Cl  Cl8  1  0.500000  0.250081  0.750081  1
  Cl  Cl9  1  0.500000  0.749919  0.249919  1
  Cl  Cl10  1  0.020433  0.700423  0.320010  1
  Cl  Cl11  1  0.979567  0.299577  0.679990  1
