# generated using pymatgen
data_Dy2HoSc2(In2Rh)2
_symmetry_space_group_name_H-M   'P 1'
_cell_length_a   3.54691800
_cell_length_b   7.89657097
_cell_length_c   17.95811322
_cell_angle_alpha   90.05682375
_cell_angle_beta   90.00000000
_cell_angle_gamma   90.00000000
_symmetry_Int_Tables_number   1
_chemical_formula_structural   Dy2HoSc2(In2Rh)2
_chemical_formula_sum   'Dy4 Ho2 Sc4 In8 Rh4'
_cell_volume   502.97938172
_cell_formula_units_Z   2
loop_
 _symmetry_equiv_pos_site_id
 _symmetry_equiv_pos_as_xyz
  1  'x, y, z'
loop_
 _atom_site_type_symbol
 _atom_site_label
 _atom_site_symmetry_multiplicity
 _atom_site_fract_x
 _atom_site_fract_y
 _atom_site_fract_z
 _atom_site_occupancy
  Dy  Dy0  1  0.000000  0.000000  0.000000  1
  Dy  Dy1  1  0.000000  0.500000  0.500000  1
  Dy  Dy2  1  0.000000  0.748903  0.782154  1
  Dy  Dy3  1  0.000000  0.251097  0.217846  1
  Ho  Ho4  1  0.000000  0.248763  0.717889  1
  Ho  Ho5  1  0.000000  0.751237  0.282111  1
  Sc  Sc6  1  0.000000  0.877818  0.588922  1
  Sc  Sc7  1  0.000000  0.122182  0.411078  1
  Sc  Sc8  1  0.000000  0.377584  0.911011  1
  Sc  Sc9  1  0.000000  0.622416  0.088989  1
  In  In10  1  0.500000  0.810129  0.438393  1
  In  In11  1  0.500000  0.189871  0.561607  1
  In  In12  1  0.500000  0.310596  0.061428  1
  In  In13  1  0.500000  0.689404  0.938572  1
  In  In14  1  0.500000  0.924224  0.149964  1
  In  In15  1  0.500000  0.075776  0.850036  1
  In  In16  1  0.500000  0.425621  0.350243  1
  In  In17  1  0.500000  0.574379  0.649757  1
  Rh  Rh18  1  0.500000  0.963987  0.692203  1
  Rh  Rh19  1  0.500000  0.036013  0.307797  1
  Rh  Rh20  1  0.500000  0.462642  0.807500  1
  Rh  Rh21  1  0.500000  0.537358  0.192500  1
