# generated using pymatgen
data_CaHo6Sn23Ir6
_symmetry_space_group_name_H-M   'P 1'
_cell_length_a   9.87657500
_cell_length_b   9.87657488
_cell_length_c   10.09510500
_cell_angle_alpha   90.00000000
_cell_angle_beta   90.00000000
_cell_angle_gamma   119.99999706
_symmetry_Int_Tables_number   1
_chemical_formula_structural   CaHo6Sn23Ir6
_chemical_formula_sum   'Ca1 Ho6 Sn23 Ir6'
_cell_volume   852.81378477
_cell_formula_units_Z   1
loop_
 _symmetry_equiv_pos_site_id
 _symmetry_equiv_pos_as_xyz
  1  'x, y, z'
loop_
 _atom_site_type_symbol
 _atom_site_label
 _atom_site_symmetry_multiplicity
 _atom_site_fract_x
 _atom_site_fract_y
 _atom_site_fract_z
 _atom_site_occupancy
  Ca  Ca0  1  0.000000  0.000000  0.000000  1
  Ho  Ho1  1  0.519003  0.480997  0.692961  1
  Ho  Ho2  1  0.519003  0.038006  0.692961  1
  Ho  Ho3  1  0.961994  0.480997  0.692961  1
  Ho  Ho4  1  0.038006  0.519003  0.307039  1
  Ho  Ho5  1  0.480997  0.961994  0.307039  1
  Ho  Ho6  1  0.480997  0.519003  0.307039  1
  Sn  Sn7  1  0.666667  0.333333  0.177052  1
  Sn  Sn8  1  0.666667  0.333333  0.878262  1
  Sn  Sn9  1  0.333333  0.666667  0.121738  1
  Sn  Sn10  1  0.352174  0.352174  0.000000  1
  Sn  Sn11  1  0.000000  0.647826  0.000000  1
  Sn  Sn12  1  0.647826  0.000000  0.000000  1
  Sn  Sn13  1  0.647826  0.647826  0.000000  1
  Sn  Sn14  1  0.333333  0.666667  0.822948  1
  Sn  Sn15  1  0.443052  0.221527  0.457978  1
  Sn  Sn16  1  0.221527  0.778473  0.542022  1
  Sn  Sn17  1  0.221527  0.443052  0.542022  1
  Sn  Sn18  1  0.556948  0.778473  0.542022  1
  Sn  Sn19  1  0.118195  0.881805  0.281614  1
  Sn  Sn20  1  0.778473  0.556948  0.457978  1
  Sn  Sn21  1  0.778473  0.221527  0.457978  1
  Sn  Sn22  1  0.352174  0.000000  0.000000  1
  Sn  Sn23  1  0.118195  0.236391  0.281614  1
  Sn  Sn24  1  0.763609  0.881805  0.281614  1
  Sn  Sn25  1  0.236391  0.118195  0.718386  1
  Sn  Sn26  1  0.881805  0.763609  0.718386  1
  Sn  Sn27  1  0.881805  0.118195  0.718386  1
  Sn  Sn28  1  0.000000  0.000000  0.500000  1
  Sn  Sn29  1  0.000000  0.352174  0.000000  1
  Ir  Ir30  1  0.170392  0.829608  0.799644  1
  Ir  Ir31  1  0.170392  0.340783  0.799644  1
  Ir  Ir32  1  0.659217  0.829608  0.799644  1
  Ir  Ir33  1  0.340783  0.170392  0.200356  1
  Ir  Ir34  1  0.829608  0.659217  0.200356  1
  Ir  Ir35  1  0.829608  0.170392  0.200356  1
