# generated using pymatgen
data_Li3Y4ScPt4
_symmetry_space_group_name_H-M   'P 1'
_cell_length_a   4.05769400
_cell_length_b   7.10714272
_cell_length_c   8.64217214
_cell_angle_alpha   91.39952946
_cell_angle_beta   90.00000000
_cell_angle_gamma   90.00000000
_symmetry_Int_Tables_number   1
_chemical_formula_structural   Li3Y4ScPt4
_chemical_formula_sum   'Li3 Y4 Sc1 Pt4'
_cell_volume   249.15388789
_cell_formula_units_Z   1
loop_
 _symmetry_equiv_pos_site_id
 _symmetry_equiv_pos_as_xyz
  1  'x, y, z'
loop_
 _atom_site_type_symbol
 _atom_site_label
 _atom_site_symmetry_multiplicity
 _atom_site_fract_x
 _atom_site_fract_y
 _atom_site_fract_z
 _atom_site_occupancy
  Li  Li0  1  0.250000  0.130952  0.058190  1
  Li  Li1  1  0.250000  0.641480  0.430580  1
  Li  Li2  1  0.750000  0.873128  0.944889  1
  Y  Y3  1  0.250000  0.025441  0.690300  1
  Y  Y4  1  0.250000  0.550457  0.831453  1
  Y  Y5  1  0.750000  0.950669  0.318139  1
  Y  Y6  1  0.750000  0.462018  0.175145  1
  Sc  Sc7  1  0.750000  0.372245  0.556923  1
  Pt  Pt8  1  0.250000  0.243812  0.382898  1
  Pt  Pt9  1  0.250000  0.752326  0.123081  1
  Pt  Pt10  1  0.750000  0.741399  0.621741  1
  Pt  Pt11  1  0.750000  0.256072  0.866662  1
