# generated using pymatgen
data_Tb8Be3Si12Pd
_symmetry_space_group_name_H-M   'P 1'
_cell_length_a   7.95205500
_cell_length_b   7.95205469
_cell_length_c   8.13267400
_cell_angle_alpha   90.00000000
_cell_angle_beta   90.00000000
_cell_angle_gamma   120.00000543
_symmetry_Int_Tables_number   1
_chemical_formula_structural   Tb8Be3Si12Pd
_chemical_formula_sum   'Tb8 Be3 Si12 Pd1'
_cell_volume   445.37179020
_cell_formula_units_Z   1
loop_
 _symmetry_equiv_pos_site_id
 _symmetry_equiv_pos_as_xyz
  1  'x, y, z'
loop_
 _atom_site_type_symbol
 _atom_site_label
 _atom_site_symmetry_multiplicity
 _atom_site_fract_x
 _atom_site_fract_y
 _atom_site_fract_z
 _atom_site_occupancy
  Tb  Tb0  1  0.500692  0.001384  0.247925  1
  Tb  Tb1  1  0.502154  0.004310  0.752118  1
  Tb  Tb2  1  0.998616  0.499308  0.247925  1
  Tb  Tb3  1  0.995690  0.497846  0.752118  1
  Tb  Tb4  1  0.500692  0.499308  0.247925  1
  Tb  Tb5  1  0.502154  0.497846  0.752118  1
  Tb  Tb6  1  0.000000  0.000000  0.249033  1
  Tb  Tb7  1  0.000000  0.000000  0.750316  1
  Be  Be8  1  0.333333  0.666667  0.002032  1
  Be  Be9  1  0.666667  0.333333  0.001401  1
  Be  Be10  1  0.666667  0.333333  0.497175  1
  Si  Si11  1  0.172246  0.344491  0.999306  1
  Si  Si12  1  0.826889  0.653779  0.999826  1
  Si  Si13  1  0.655509  0.827754  0.999306  1
  Si  Si14  1  0.828243  0.656486  0.500258  1
  Si  Si15  1  0.346221  0.173111  0.999826  1
  Si  Si16  1  0.166051  0.332101  0.499297  1
  Si  Si17  1  0.172246  0.827754  0.999306  1
  Si  Si18  1  0.343514  0.171757  0.500258  1
  Si  Si19  1  0.826889  0.173111  0.999826  1
  Si  Si20  1  0.667899  0.833949  0.499297  1
  Si  Si21  1  0.828243  0.171757  0.500258  1
  Si  Si22  1  0.166051  0.833949  0.499297  1
  Pd  Pd23  1  0.333333  0.666667  0.503854  1
