# generated using pymatgen
data_La5Tb5Nd6(CdPd)4
_symmetry_space_group_name_H-M   'P 1'
_cell_length_a   9.98940568
_cell_length_b   10.00603214
_cell_length_c   10.00603228
_cell_angle_alpha   59.79648999
_cell_angle_beta   60.05494826
_cell_angle_gamma   60.05494948
_symmetry_Int_Tables_number   1
_chemical_formula_structural   La5Tb5Nd6(CdPd)4
_chemical_formula_sum   'La5 Tb5 Nd6 Cd4 Pd4'
_cell_volume   706.70007537
_cell_formula_units_Z   1
loop_
 _symmetry_equiv_pos_site_id
 _symmetry_equiv_pos_as_xyz
  1  'x, y, z'
loop_
 _atom_site_type_symbol
 _atom_site_label
 _atom_site_symmetry_multiplicity
 _atom_site_fract_x
 _atom_site_fract_y
 _atom_site_fract_z
 _atom_site_occupancy
  La  La0  1  0.349099  0.353892  0.353892  1
  La  La1  1  0.353589  0.355230  0.937591  1
  La  La2  1  0.353589  0.937591  0.355230  1
  La  La3  1  0.943117  0.353892  0.353892  1
  La  La4  1  0.813459  0.186541  0.186541  1
  Tb  Tb5  1  0.185864  0.814136  0.814136  1
  Tb  Tb6  1  0.190241  0.811510  0.185706  1
  Tb  Tb7  1  0.812543  0.185706  0.811510  1
  Tb  Tb8  1  0.190241  0.185706  0.811510  1
  Tb  Tb9  1  0.812543  0.811510  0.185706  1
  Nd  Nd10  1  0.933424  0.566576  0.566576  1
  Nd  Nd11  1  0.564511  0.935489  0.935489  1
  Nd  Nd12  1  0.564148  0.934912  0.566304  1
  Nd  Nd13  1  0.934636  0.566304  0.934912  1
  Nd  Nd14  1  0.564148  0.566304  0.934912  1
  Nd  Nd15  1  0.934636  0.934912  0.566304  1
  Cd  Cd16  1  0.582272  0.580914  0.580914  1
  Cd  Cd17  1  0.580605  0.582008  0.256783  1
  Cd  Cd18  1  0.580605  0.256783  0.582008  1
  Cd  Cd19  1  0.255901  0.580914  0.580914  1
  Pd  Pd20  1  0.146930  0.140670  0.140670  1
  Pd  Pd21  1  0.141084  0.141355  0.576476  1
  Pd  Pd22  1  0.141084  0.576476  0.141355  1
  Pd  Pd23  1  0.571729  0.140670  0.140670  1
