# generated using pymatgen
data_Bi2PdPtF14
_symmetry_space_group_name_H-M   'P 1'
_cell_length_a   5.64656529
_cell_length_b   9.16754308
_cell_length_c   12.15980200
_cell_angle_alpha   61.96588930
_cell_angle_beta   90.01830521
_cell_angle_gamma   90.07198940
_symmetry_Int_Tables_number   1
_chemical_formula_structural   Bi2PdPtF14
_chemical_formula_sum   'Bi4 Pd2 Pt2 F28'
_cell_volume   555.59816866
_cell_formula_units_Z   2
loop_
 _symmetry_equiv_pos_site_id
 _symmetry_equiv_pos_as_xyz
  1  'x, y, z'
loop_
 _atom_site_type_symbol
 _atom_site_label
 _atom_site_symmetry_multiplicity
 _atom_site_fract_x
 _atom_site_fract_y
 _atom_site_fract_z
 _atom_site_occupancy
  Bi  Bi0  1  0.261956  0.815190  0.260266  1
  Bi  Bi1  1  0.738044  0.184810  0.739734  1
  Bi  Bi2  1  0.763139  0.185756  0.236109  1
  Bi  Bi3  1  0.236861  0.814244  0.763891  1
  Pd  Pd4  1  0.757162  0.728795  0.040846  1
  Pd  Pd5  1  0.242838  0.271205  0.959154  1
  Pt  Pt6  1  0.258791  0.271818  0.458348  1
  Pt  Pt7  1  0.741209  0.728182  0.541652  1
  F  F8  1  0.930511  0.706099  0.414081  1
  F  F9  1  0.069489  0.293901  0.585919  1
  F  F10  1  0.435369  0.291001  0.085354  1
  F  F11  1  0.564631  0.708999  0.914646  1
  F  F12  1  0.469873  0.730659  0.129912  1
  F  F13  1  0.530127  0.269341  0.870088  1
  F  F14  1  0.967316  0.273140  0.368571  1
  F  F15  1  0.032684  0.726860  0.631429  1
  F  F16  1  0.944009  0.743875  0.171276  1
  F  F17  1  0.055991  0.256125  0.828724  1
  F  F18  1  0.442805  0.257727  0.325375  1
  F  F19  1  0.557195  0.742273  0.674625  1
  F  F20  1  0.766144  0.488959  0.137336  1
  F  F21  1  0.233856  0.511041  0.862664  1
  F  F22  1  0.269606  0.513760  0.360494  1
  F  F23  1  0.730394  0.486240  0.639506  1
  F  F24  1  0.948604  0.280302  0.042223  1
  F  F25  1  0.051396  0.719698  0.957777  1
  F  F26  1  0.442756  0.720366  0.459032  1
  F  F27  1  0.557244  0.279634  0.540968  1
  F  F28  1  0.742361  0.973358  0.448857  1
  F  F29  1  0.257639  0.026642  0.551143  1
  F  F30  1  0.240849  0.027940  0.051628  1
  F  F31  1  0.759151  0.972060  0.948372  1
  F  F32  1  0.596323  0.968397  0.229418  1
  F  F33  1  0.403677  0.031603  0.770582  1
  F  F34  1  0.094503  0.029432  0.271313  1
  F  F35  1  0.905497  0.970568  0.728687  1
