# generated using pymatgen
data_Nd3Sm(Ni2I)2
_symmetry_space_group_name_H-M   'P 1'
_cell_length_a   4.06335400
_cell_length_b   4.06335282
_cell_length_c   17.41505100
_cell_angle_alpha   90.00000000
_cell_angle_beta   90.00000000
_cell_angle_gamma   119.99999335
_symmetry_Int_Tables_number   1
_chemical_formula_structural   Nd3Sm(Ni2I)2
_chemical_formula_sum   'Nd3 Sm1 Ni4 I2'
_cell_volume   249.01448162
_cell_formula_units_Z   1
loop_
 _symmetry_equiv_pos_site_id
 _symmetry_equiv_pos_as_xyz
  1  'x, y, z'
loop_
 _atom_site_type_symbol
 _atom_site_label
 _atom_site_symmetry_multiplicity
 _atom_site_fract_x
 _atom_site_fract_y
 _atom_site_fract_z
 _atom_site_occupancy
  Nd  Nd0  1  0.000000  0.000000  0.895387  1
  Nd  Nd1  1  0.000000  0.000000  0.605376  1
  Nd  Nd2  1  0.000000  0.000000  0.393585  1
  Sm  Sm3  1  0.000000  0.000000  0.104448  1
  Ni  Ni4  1  0.333333  0.666667  0.500241  1
  Ni  Ni5  1  0.666667  0.333333  0.498596  1
  Ni  Ni6  1  0.666667  0.333333  0.003012  1
  Ni  Ni7  1  0.333333  0.666667  0.001150  1
  I  I8  1  0.333333  0.666667  0.247634  1
  I  I9  1  0.666667  0.333333  0.750571  1
