# generated using pymatgen
data_Ti3V2Si3H
_symmetry_space_group_name_H-M   'P 1'
_cell_length_a   7.33982800
_cell_length_b   7.33982756
_cell_length_c   4.96227300
_cell_angle_alpha   90.00000000
_cell_angle_beta   90.00000000
_cell_angle_gamma   120.00000198
_symmetry_Int_Tables_number   1
_chemical_formula_structural   Ti3V2Si3H
_chemical_formula_sum   'Ti6 V4 Si6 H2'
_cell_volume   231.51706925
_cell_formula_units_Z   2
loop_
 _symmetry_equiv_pos_site_id
 _symmetry_equiv_pos_as_xyz
  1  'x, y, z'
loop_
 _atom_site_type_symbol
 _atom_site_label
 _atom_site_symmetry_multiplicity
 _atom_site_fract_x
 _atom_site_fract_y
 _atom_site_fract_z
 _atom_site_occupancy
  Ti  Ti0  1  0.243545  0.000000  0.250000  1
  Ti  Ti1  1  0.756455  0.000000  0.750000  1
  Ti  Ti2  1  0.000000  0.243545  0.250000  1
  Ti  Ti3  1  0.000000  0.756455  0.750000  1
  Ti  Ti4  1  0.756455  0.756455  0.250000  1
  Ti  Ti5  1  0.243545  0.243545  0.750000  1
  V  V6  1  0.333333  0.666667  0.000000  1
  V  V7  1  0.666667  0.333333  0.000000  1
  V  V8  1  0.666667  0.333333  0.500000  1
  V  V9  1  0.333333  0.666667  0.500000  1
  Si  Si10  1  0.598127  0.000000  0.250000  1
  Si  Si11  1  0.401873  0.000000  0.750000  1
  Si  Si12  1  0.000000  0.598127  0.250000  1
  Si  Si13  1  0.000000  0.401873  0.750000  1
  Si  Si14  1  0.401873  0.401873  0.250000  1
  Si  Si15  1  0.598127  0.598127  0.750000  1
  H  H16  1  0.000000  0.000000  0.000000  1
  H  H17  1  0.000000  0.000000  0.500000  1
