# generated using pymatgen
data_Cs4KGa3S7
_symmetry_space_group_name_H-M   'P 1'
_cell_length_a   10.87931335
_cell_length_b   10.87931373
_cell_length_c   9.07236600
_cell_angle_alpha   75.67111581
_cell_angle_beta   104.32887927
_cell_angle_gamma   108.13562156
_symmetry_Int_Tables_number   1
_chemical_formula_structural   Cs4KGa3S7
_chemical_formula_sum   'Cs8 K2 Ga6 S14'
_cell_volume   971.62193400
_cell_formula_units_Z   2
loop_
 _symmetry_equiv_pos_site_id
 _symmetry_equiv_pos_as_xyz
  1  'x, y, z'
loop_
 _atom_site_type_symbol
 _atom_site_label
 _atom_site_symmetry_multiplicity
 _atom_site_fract_x
 _atom_site_fract_y
 _atom_site_fract_z
 _atom_site_occupancy
  Cs  Cs0  1  0.436770  0.973848  0.281157  1
  Cs  Cs1  1  0.973847  0.436770  0.718842  1
  Cs  Cs2  1  0.563229  0.026153  0.718842  1
  Cs  Cs3  1  0.026152  0.563230  0.281157  1
  Cs  Cs4  1  0.154048  0.154049  0.500000  1
  Cs  Cs5  1  0.845950  0.845951  0.500000  1
  Cs  Cs6  1  0.709744  0.709744  0.000000  1
  Cs  Cs7  1  0.290255  0.290255  0.000000  1
  K  K8  1  0.435563  0.564437  0.319272  1
  K  K9  1  0.564437  0.435562  0.680727  1
  Ga  Ga10  1  0.350422  0.649578  0.667307  1
  Ga  Ga11  1  0.649578  0.350422  0.332693  1
  Ga  Ga12  1  0.072008  0.927992  0.942941  1
  Ga  Ga13  1  0.927992  0.072008  0.057060  1
  Ga  Ga14  1  0.216699  0.783300  0.823814  1
  Ga  Ga15  1  0.783300  0.216700  0.176185  1
  S  S16  1  0.550094  0.739376  0.601588  1
  S  S17  1  0.739376  0.550094  0.398411  1
  S  S18  1  0.449905  0.260623  0.398411  1
  S  S19  1  0.260623  0.449905  0.601588  1
  S  S20  1  0.352055  0.647945  0.937109  1
  S  S21  1  0.647944  0.352055  0.062890  1
  S  S22  1  0.062274  0.937726  0.190909  1
  S  S23  1  0.937726  0.062274  0.809092  1
  S  S24  1  0.210137  0.789862  0.569226  1
  S  S25  1  0.789862  0.210137  0.430775  1
  S  S26  1  0.281089  0.992259  0.887113  1
  S  S27  1  0.992259  0.281089  0.112886  1
  S  S28  1  0.718911  0.007741  0.112886  1
  S  S29  1  0.007741  0.718911  0.887113  1
