# generated using pymatgen
data_Ho3ZrIn2Ir3
_symmetry_space_group_name_H-M   'P 1'
_cell_length_a   7.45754576
_cell_length_b   7.20096954
_cell_length_c   4.16614700
_cell_angle_alpha   90.00000000
_cell_angle_beta   90.00000000
_cell_angle_gamma   118.86826260
_symmetry_Int_Tables_number   1
_chemical_formula_structural   Ho3ZrIn2Ir3
_chemical_formula_sum   'Ho3 Zr1 In2 Ir3'
_cell_volume   195.92630884
_cell_formula_units_Z   1
loop_
 _symmetry_equiv_pos_site_id
 _symmetry_equiv_pos_as_xyz
  1  'x, y, z'
loop_
 _atom_site_type_symbol
 _atom_site_label
 _atom_site_symmetry_multiplicity
 _atom_site_fract_x
 _atom_site_fract_y
 _atom_site_fract_z
 _atom_site_occupancy
  Ho  Ho0  1  0.583923  0.588520  0.000000  1
  Ho  Ho1  1  0.416077  0.004597  0.000000  1
  Ho  Ho2  1  0.000000  0.393219  0.000000  1
  Zr  Zr3  1  0.000000  0.751545  0.500000  1
  In  In4  1  0.256320  0.254609  0.500000  1
  In  In5  1  0.743680  0.998288  0.500000  1
  Ir  Ir6  1  0.000000  0.982070  0.000000  1
  Ir  Ir7  1  0.678057  0.352604  0.500000  1
  Ir  Ir8  1  0.321943  0.674548  0.500000  1
