# generated using pymatgen
data_Dy6Y2Co17Si10Ir
_symmetry_space_group_name_H-M   'P 1'
_cell_length_a   5.22473617
_cell_length_b   5.22473571
_cell_length_c   21.94989202
_cell_angle_alpha   89.89167614
_cell_angle_beta   90.10832484
_cell_angle_gamma   120.37106176
_symmetry_Int_Tables_number   1
_chemical_formula_structural   Dy6Y2Co17Si10Ir
_chemical_formula_sum   'Dy6 Y2 Co17 Si10 Ir1'
_cell_volume   516.95727583
_cell_formula_units_Z   1
loop_
 _symmetry_equiv_pos_site_id
 _symmetry_equiv_pos_as_xyz
  1  'x, y, z'
loop_
 _atom_site_type_symbol
 _atom_site_label
 _atom_site_symmetry_multiplicity
 _atom_site_fract_x
 _atom_site_fract_y
 _atom_site_fract_z
 _atom_site_occupancy
  Dy  Dy0  1  0.332965  0.667035  0.530040  1
  Dy  Dy1  1  0.665443  0.334557  0.474241  1
  Dy  Dy2  1  0.666749  0.333251  0.027588  1
  Dy  Dy3  1  0.333408  0.666592  0.972021  1
  Dy  Dy4  1  0.333010  0.666990  0.675334  1
  Dy  Dy5  1  0.667473  0.332527  0.325773  1
  Y  Y6  1  0.666776  0.333224  0.173744  1
  Y  Y7  1  0.333410  0.666590  0.826076  1
  Co  Co8  1  0.166391  0.332637  0.087379  1
  Co  Co9  1  0.833376  0.667258  0.911930  1
  Co  Co10  1  0.667363  0.833609  0.087379  1
  Co  Co11  1  0.833026  0.667857  0.589413  1
  Co  Co12  1  0.332742  0.166624  0.911930  1
  Co  Co13  1  0.165198  0.331114  0.412383  1
  Co  Co14  1  0.166032  0.833968  0.087514  1
  Co  Co15  1  0.332143  0.166974  0.589413  1
  Co  Co16  1  0.834125  0.165875  0.911362  1
  Co  Co17  1  0.668886  0.834802  0.412383  1
  Co  Co18  1  0.832784  0.167216  0.589936  1
  Co  Co19  1  0.167847  0.334689  0.247817  1
  Co  Co20  1  0.832657  0.664933  0.750370  1
  Co  Co21  1  0.665311  0.832153  0.247817  1
  Co  Co22  1  0.335067  0.167343  0.750370  1
  Co  Co23  1  0.167611  0.832389  0.249746  1
  Co  Co24  1  0.832672  0.167328  0.750527  1
  Si  Si25  1  0.999734  0.000266  0.999691  1
  Si  Si26  1  0.996866  0.003134  0.502741  1
  Si  Si27  1  0.332463  0.667537  0.166819  1
  Si  Si28  1  0.666002  0.333998  0.832058  1
  Si  Si29  1  0.666076  0.333924  0.668980  1
  Si  Si30  1  0.343557  0.656443  0.329077  1
  Si  Si31  1  0.000944  0.999056  0.167812  1
  Si  Si32  1  0.001002  0.998998  0.831078  1
  Si  Si33  1  0.000077  0.999923  0.669824  1
  Si  Si34  1  0.991950  0.008050  0.328425  1
  Ir  Ir35  1  0.168866  0.831134  0.411006  1
