# generated using pymatgen
data_CaAc3(SiPt)4
_symmetry_space_group_name_H-M   'P 1'
_cell_length_a   6.55416444
_cell_length_b   6.55416444
_cell_length_c   6.55416444
_cell_angle_alpha   90.93887989
_cell_angle_beta   89.06112011
_cell_angle_gamma   90.93887989
_symmetry_Int_Tables_number   1
_chemical_formula_structural   CaAc3(SiPt)4
_chemical_formula_sum   'Ca1 Ac3 Si4 Pt4'
_cell_volume   281.43553621
_cell_formula_units_Z   1
loop_
 _symmetry_equiv_pos_site_id
 _symmetry_equiv_pos_as_xyz
  1  'x, y, z'
loop_
 _atom_site_type_symbol
 _atom_site_label
 _atom_site_symmetry_multiplicity
 _atom_site_fract_x
 _atom_site_fract_y
 _atom_site_fract_z
 _atom_site_occupancy
  Ca  Ca0  1  0.879438  0.620562  0.379438  1
  Ac  Ac1  1  0.625599  0.380139  0.878827  1
  Ac  Ac2  1  0.378827  0.874401  0.619861  1
  Ac  Ac3  1  0.119861  0.121173  0.125599  1
  Si  Si4  1  0.164539  0.335461  0.664539  1
  Si  Si5  1  0.668226  0.172423  0.334767  1
  Si  Si6  1  0.327577  0.665233  0.168226  1
  Si  Si7  1  0.834767  0.831774  0.827577  1
  Pt  Pt8  1  0.588952  0.911048  0.088952  1
  Pt  Pt9  1  0.080995  0.586254  0.917474  1
  Pt  Pt10  1  0.417474  0.419005  0.413746  1
  Pt  Pt11  1  0.913746  0.082526  0.580995  1
