# generated using pymatgen
data_Ba3YInO6
_symmetry_space_group_name_H-M   'P 1'
_cell_length_a   7.32130079
_cell_length_b   7.32130056
_cell_length_c   7.32130185
_cell_angle_alpha   92.99003562
_cell_angle_beta   92.99003328
_cell_angle_gamma   92.99004068
_symmetry_Int_Tables_number   1
_chemical_formula_structural   Ba3YInO6
_chemical_formula_sum   'Ba6 Y2 In2 O12'
_cell_volume   390.77147879
_cell_formula_units_Z   2
loop_
 _symmetry_equiv_pos_site_id
 _symmetry_equiv_pos_as_xyz
  1  'x, y, z'
loop_
 _atom_site_type_symbol
 _atom_site_label
 _atom_site_symmetry_multiplicity
 _atom_site_fract_x
 _atom_site_fract_y
 _atom_site_fract_z
 _atom_site_occupancy
  Ba  Ba0  1  0.250000  0.887808  0.612192  1
  Ba  Ba1  1  0.887808  0.612192  0.250000  1
  Ba  Ba2  1  0.750000  0.112192  0.387808  1
  Ba  Ba3  1  0.387808  0.750000  0.112192  1
  Ba  Ba4  1  0.112192  0.387808  0.750000  1
  Ba  Ba5  1  0.612192  0.250000  0.887808  1
  Y  Y6  1  0.750000  0.750000  0.750000  1
  Y  Y7  1  0.250000  0.250000  0.250000  1
  In  In8  1  0.500000  0.500000  0.500000  1
  In  In9  1  0.000000  0.000000  0.000000  1
  O  O10  1  0.598137  0.790307  0.467738  1
  O  O11  1  0.467738  0.598137  0.790307  1
  O  O12  1  0.790307  0.467738  0.598137  1
  O  O13  1  0.901863  0.032262  0.709693  1
  O  O14  1  0.709693  0.901863  0.032262  1
  O  O15  1  0.032262  0.709693  0.901863  1
  O  O16  1  0.401863  0.209693  0.532262  1
  O  O17  1  0.532262  0.401863  0.209693  1
  O  O18  1  0.209693  0.532262  0.401863  1
  O  O19  1  0.098137  0.967738  0.290307  1
  O  O20  1  0.967738  0.290307  0.098137  1
  O  O21  1  0.290307  0.098137  0.967738  1
