# generated using pymatgen
data_Hf9Sc3Si12(RuRh)2
_symmetry_space_group_name_H-M   'P 1'
_cell_length_a   3.92833800
_cell_length_b   10.24382422
_cell_length_c   11.66675102
_cell_angle_alpha   90.05992495
_cell_angle_beta   90.00000000
_cell_angle_gamma   90.00000000
_symmetry_Int_Tables_number   1
_chemical_formula_structural   Hf9Sc3Si12(RuRh)2
_chemical_formula_sum   'Hf9 Sc3 Si12 Ru2 Rh2'
_cell_volume   469.48385039
_cell_formula_units_Z   1
loop_
 _symmetry_equiv_pos_site_id
 _symmetry_equiv_pos_as_xyz
  1  'x, y, z'
loop_
 _atom_site_type_symbol
 _atom_site_label
 _atom_site_symmetry_multiplicity
 _atom_site_fract_x
 _atom_site_fract_y
 _atom_site_fract_z
 _atom_site_occupancy
  Hf  Hf0  1  0.250000  0.873582  0.020137  1
  Hf  Hf1  1  0.250000  0.626319  0.521314  1
  Hf  Hf2  1  0.750000  0.124313  0.976934  1
  Hf  Hf3  1  0.750000  0.374839  0.477485  1
  Hf  Hf4  1  0.250000  0.924300  0.597289  1
  Hf  Hf5  1  0.250000  0.576594  0.094955  1
  Hf  Hf6  1  0.750000  0.076666  0.405101  1
  Hf  Hf7  1  0.750000  0.424943  0.903665  1
  Hf  Hf8  1  0.250000  0.658353  0.801355  1
  Sc  Sc9  1  0.250000  0.842171  0.301102  1
  Sc  Sc10  1  0.750000  0.343724  0.198284  1
  Sc  Sc11  1  0.750000  0.156886  0.698710  1
  Si  Si12  1  0.250000  0.015824  0.825960  1
  Si  Si13  1  0.250000  0.484475  0.325707  1
  Si  Si14  1  0.750000  0.983341  0.173774  1
  Si  Si15  1  0.750000  0.517384  0.673734  1
  Si  Si16  1  0.250000  0.250176  0.842009  1
  Si  Si17  1  0.250000  0.249098  0.341811  1
  Si  Si18  1  0.750000  0.748433  0.159918  1
  Si  Si19  1  0.750000  0.751268  0.658888  1
  Si  Si20  1  0.250000  0.190846  0.543855  1
  Si  Si21  1  0.250000  0.308220  0.043392  1
  Si  Si22  1  0.750000  0.808165  0.455571  1
  Si  Si23  1  0.750000  0.691289  0.956360  1
  Ru  Ru24  1  0.750000  0.611617  0.323390  1
  Ru  Ru25  1  0.750000  0.886178  0.823091  1
  Rh  Rh26  1  0.250000  0.387472  0.679092  1
  Rh  Rh27  1  0.250000  0.113522  0.177116  1
