# generated using pymatgen
data_Eu2NbH9
_symmetry_space_group_name_H-M   'P 1'
_cell_length_a   9.00816000
_cell_length_b   9.00815879
_cell_length_c   5.14068600
_cell_angle_alpha   90.00000000
_cell_angle_beta   90.00000000
_cell_angle_gamma   120.00000446
_symmetry_Int_Tables_number   1
_chemical_formula_structural   Eu2NbH9
_chemical_formula_sum   'Eu6 Nb3 H27'
_cell_volume   361.26327429
_cell_formula_units_Z   3
loop_
 _symmetry_equiv_pos_site_id
 _symmetry_equiv_pos_as_xyz
  1  'x, y, z'
loop_
 _atom_site_type_symbol
 _atom_site_label
 _atom_site_symmetry_multiplicity
 _atom_site_fract_x
 _atom_site_fract_y
 _atom_site_fract_z
 _atom_site_occupancy
  Eu  Eu0  1  0.000000  0.264083  0.500000  1
  Eu  Eu1  1  0.735917  0.735917  0.500000  1
  Eu  Eu2  1  0.264083  0.000000  0.500000  1
  Eu  Eu3  1  0.000000  0.601083  0.000000  1
  Eu  Eu4  1  0.398917  0.398917  0.000000  1
  Eu  Eu5  1  0.601083  0.000000  0.000000  1
  Nb  Nb6  1  0.666667  0.333333  0.500000  1
  Nb  Nb7  1  0.333333  0.666667  0.500000  1
  Nb  Nb8  1  0.000000  0.000000  0.000000  1
  H  H9  1  0.814432  0.332267  0.761908  1
  H  H10  1  0.667733  0.482163  0.761908  1
  H  H11  1  0.517837  0.185568  0.761908  1
  H  H12  1  0.185568  0.517837  0.238092  1
  H  H13  1  0.517837  0.185568  0.238092  1
  H  H14  1  0.814432  0.332267  0.238092  1
  H  H15  1  0.667733  0.482163  0.238092  1
  H  H16  1  0.332267  0.814432  0.761908  1
  H  H17  1  0.482163  0.667733  0.761908  1
  H  H18  1  0.207984  0.000000  0.000000  1
  H  H19  1  0.792016  0.792016  0.000000  1
  H  H20  1  0.000000  0.207984  0.000000  1
  H  H21  1  0.848420  0.000000  0.253215  1
  H  H22  1  0.151580  0.151580  0.746785  1
  H  H23  1  0.000000  0.848420  0.746785  1
  H  H24  1  0.000000  0.848420  0.253215  1
  H  H25  1  0.151580  0.151580  0.253215  1
  H  H26  1  0.848420  0.000000  0.746785  1
  H  H27  1  0.134840  0.678972  0.500000  1
  H  H28  1  0.544133  0.865160  0.500000  1
  H  H29  1  0.321028  0.455867  0.500000  1
  H  H30  1  0.455867  0.321028  0.500000  1
  H  H31  1  0.865160  0.544133  0.500000  1
  H  H32  1  0.678972  0.134840  0.500000  1
  H  H33  1  0.185568  0.517837  0.761908  1
  H  H34  1  0.332267  0.814432  0.238092  1
  H  H35  1  0.482163  0.667733  0.238092  1
