# generated using pymatgen
data_CaLa7(Si3Ni)4
_symmetry_space_group_name_H-M   'P 1'
_cell_length_a   8.19934600
_cell_length_b   8.20071886
_cell_length_c   8.51256600
_cell_angle_alpha   90.00000000
_cell_angle_beta   90.00000000
_cell_angle_gamma   120.00553102
_symmetry_Int_Tables_number   1
_chemical_formula_structural   CaLa7(Si3Ni)4
_chemical_formula_sum   'Ca1 La7 Si12 Ni4'
_cell_volume   495.67618414
_cell_formula_units_Z   1
loop_
 _symmetry_equiv_pos_site_id
 _symmetry_equiv_pos_as_xyz
  1  'x, y, z'
loop_
 _atom_site_type_symbol
 _atom_site_label
 _atom_site_symmetry_multiplicity
 _atom_site_fract_x
 _atom_site_fract_y
 _atom_site_fract_z
 _atom_site_occupancy
  Ca  Ca0  1  0.000190  0.500094  0.750000  1
  La  La1  1  0.000082  0.000041  0.250000  1
  La  La2  1  0.000052  0.000026  0.750000  1
  La  La3  1  0.499991  0.499964  0.250000  1
  La  La4  1  0.499991  0.000028  0.250000  1
  La  La5  1  0.999412  0.499706  0.250000  1
  La  La6  1  0.499735  0.500410  0.750000  1
  La  La7  1  0.499735  0.999324  0.750000  1
  Si  Si8  1  0.169398  0.828471  0.500738  1
  Si  Si9  1  0.169398  0.340929  0.500738  1
  Si  Si10  1  0.661562  0.830782  0.499780  1
  Si  Si11  1  0.830632  0.171612  0.501059  1
  Si  Si12  1  0.830632  0.659020  0.501059  1
  Si  Si13  1  0.338658  0.169329  0.500245  1
  Si  Si14  1  0.830632  0.171612  0.998941  1
  Si  Si15  1  0.830632  0.659020  0.998941  1
  Si  Si16  1  0.338658  0.169329  0.999755  1
  Si  Si17  1  0.169398  0.828471  0.999262  1
  Si  Si18  1  0.169398  0.340929  0.999262  1
  Si  Si19  1  0.661562  0.830782  0.000220  1
  Ni  Ni20  1  0.333992  0.666997  0.500356  1
  Ni  Ni21  1  0.666134  0.333065  0.503501  1
  Ni  Ni22  1  0.666134  0.333065  0.996499  1
  Ni  Ni23  1  0.333992  0.666997  0.999644  1
