# generated using pymatgen
data_TiNb3Ge3BMo
_symmetry_space_group_name_H-M   'P 1'
_cell_length_a   7.73664700
_cell_length_b   7.73664825
_cell_length_c   5.23276600
_cell_angle_alpha   90.00000000
_cell_angle_beta   90.00000000
_cell_angle_gamma   119.99999892
_symmetry_Int_Tables_number   1
_chemical_formula_structural   TiNb3Ge3BMo
_chemical_formula_sum   'Ti2 Nb6 Ge6 B2 Mo2'
_cell_volume   271.24864948
_cell_formula_units_Z   2
loop_
 _symmetry_equiv_pos_site_id
 _symmetry_equiv_pos_as_xyz
  1  'x, y, z'
loop_
 _atom_site_type_symbol
 _atom_site_label
 _atom_site_symmetry_multiplicity
 _atom_site_fract_x
 _atom_site_fract_y
 _atom_site_fract_z
 _atom_site_occupancy
  Ti  Ti0  1  0.333333  0.666667  0.000000  1
  Ti  Ti1  1  0.666667  0.333333  0.000000  1
  Nb  Nb2  1  0.754892  0.754892  0.247015  1
  Nb  Nb3  1  0.245108  0.000000  0.247015  1
  Nb  Nb4  1  0.000000  0.245108  0.247015  1
  Nb  Nb5  1  0.245108  0.245108  0.752985  1
  Nb  Nb6  1  0.754892  0.000000  0.752985  1
  Nb  Nb7  1  0.000000  0.754892  0.752985  1
  Ge  Ge8  1  0.403394  0.403394  0.251664  1
  Ge  Ge9  1  0.596606  0.000000  0.251664  1
  Ge  Ge10  1  0.000000  0.596606  0.251664  1
  Ge  Ge11  1  0.596606  0.596606  0.748336  1
  Ge  Ge12  1  0.403394  0.000000  0.748336  1
  Ge  Ge13  1  0.000000  0.403394  0.748336  1
  B  B14  1  0.000000  0.000000  0.500000  1
  B  B15  1  0.000000  0.000000  0.000000  1
  Mo  Mo16  1  0.666667  0.333333  0.500000  1
  Mo  Mo17  1  0.333333  0.666667  0.500000  1
