# generated using pymatgen
data_La4Si10OsPt5
_symmetry_space_group_name_H-M   'P 1'
_cell_length_a   8.35068300
_cell_length_b   8.35068403
_cell_length_c   8.35068344
_cell_angle_alpha   137.54684886
_cell_angle_beta   105.23788065
_cell_angle_gamma   89.96237889
_symmetry_Int_Tables_number   1
_chemical_formula_structural   La4Si10OsPt5
_chemical_formula_sum   'La4 Si10 Os1 Pt5'
_cell_volume   362.15975341
_cell_formula_units_Z   1
loop_
 _symmetry_equiv_pos_site_id
 _symmetry_equiv_pos_as_xyz
  1  'x, y, z'
loop_
 _atom_site_type_symbol
 _atom_site_label
 _atom_site_symmetry_multiplicity
 _atom_site_fract_x
 _atom_site_fract_y
 _atom_site_fract_z
 _atom_site_occupancy
  La  La0  1  0.862879  0.629912  0.234340  1
  La  La1  1  0.137121  0.371461  0.767033  1
  La  La2  1  0.395572  0.128539  0.265660  1
  La  La3  1  0.604428  0.870088  0.732967  1
  Si  Si4  1  0.500000  0.750000  0.250000  1
  Si  Si5  1  0.500000  0.250000  0.750000  1
  Si  Si6  1  0.224344  0.974344  0.750000  1
  Si  Si7  1  0.775656  0.525656  0.750000  1
  Si  Si8  1  0.770007  0.020007  0.250000  1
  Si  Si9  1  0.229993  0.479993  0.250000  1
  Si  Si10  1  0.039426  0.885525  0.143148  1
  Si  Si11  1  0.960574  0.103722  0.846100  1
  Si  Si12  1  0.742376  0.396278  0.356852  1
  Si  Si13  1  0.257624  0.614475  0.653900  1
  Os  Os14  1  0.000000  0.750000  0.750000  1
  Pt  Pt15  1  0.000000  0.250000  0.250000  1
  Pt  Pt16  1  0.252517  0.865414  0.391324  1
  Pt  Pt17  1  0.747483  0.138806  0.612896  1
  Pt  Pt18  1  0.474090  0.361194  0.108676  1
  Pt  Pt19  1  0.525910  0.634586  0.887104  1
