# generated using pymatgen
data_Tb16Mg2CdAgPt4
_symmetry_space_group_name_H-M   'P 1'
_cell_length_a   9.73160867
_cell_length_b   9.69909787
_cell_length_c   9.69909760
_cell_angle_alpha   60.31126543
_cell_angle_beta   60.30798605
_cell_angle_gamma   60.30799401
_symmetry_Int_Tables_number   1
_chemical_formula_structural   Tb16Mg2CdAgPt4
_chemical_formula_sum   'Tb16 Mg2 Cd1 Ag1 Pt4'
_cell_volume   651.86721175
_cell_formula_units_Z   1
loop_
 _symmetry_equiv_pos_site_id
 _symmetry_equiv_pos_as_xyz
  1  'x, y, z'
loop_
 _atom_site_type_symbol
 _atom_site_label
 _atom_site_symmetry_multiplicity
 _atom_site_fract_x
 _atom_site_fract_y
 _atom_site_fract_z
 _atom_site_occupancy
  Tb  Tb0  1  0.347899  0.348771  0.348771  1
  Tb  Tb1  1  0.352784  0.354119  0.942726  1
  Tb  Tb2  1  0.352784  0.942726  0.354119  1
  Tb  Tb3  1  0.945117  0.352802  0.352802  1
  Tb  Tb4  1  0.812310  0.189657  0.189657  1
  Tb  Tb5  1  0.190050  0.809479  0.809479  1
  Tb  Tb6  1  0.191106  0.811264  0.190270  1
  Tb  Tb7  1  0.810743  0.188529  0.811290  1
  Tb  Tb8  1  0.191106  0.190270  0.811264  1
  Tb  Tb9  1  0.810743  0.811290  0.188529  1
  Tb  Tb10  1  0.933906  0.564017  0.564017  1
  Tb  Tb11  1  0.563903  0.934832  0.934832  1
  Tb  Tb12  1  0.565164  0.931509  0.564401  1
  Tb  Tb13  1  0.936902  0.562980  0.933694  1
  Tb  Tb14  1  0.565164  0.564401  0.931509  1
  Tb  Tb15  1  0.936902  0.933694  0.562980  1
  Mg  Mg16  1  0.577411  0.579883  0.265706  1
  Mg  Mg17  1  0.577411  0.265706  0.579883  1
  Cd  Cd18  1  0.254339  0.581616  0.581616  1
  Ag  Ag19  1  0.584915  0.582903  0.582903  1
  Pt  Pt20  1  0.144976  0.144347  0.144347  1
  Pt  Pt21  1  0.142073  0.141829  0.571383  1
  Pt  Pt22  1  0.142073  0.571383  0.141829  1
  Pt  Pt23  1  0.570221  0.141994  0.141994  1
