# generated using pymatgen
data_SmTmNi7
_symmetry_space_group_name_H-M   'P 1'
_cell_length_a   4.96999617
_cell_length_b   4.96999465
_cell_length_c   12.36923946
_cell_angle_alpha   78.41032334
_cell_angle_beta   78.41032372
_cell_angle_gamma   60.00000398
_symmetry_Int_Tables_number   1
_chemical_formula_structural   SmTmNi7
_chemical_formula_sum   'Sm2 Tm2 Ni14'
_cell_volume   257.37929753
_cell_formula_units_Z   2
loop_
 _symmetry_equiv_pos_site_id
 _symmetry_equiv_pos_as_xyz
  1  'x, y, z'
loop_
 _atom_site_type_symbol
 _atom_site_label
 _atom_site_symmetry_multiplicity
 _atom_site_fract_x
 _atom_site_fract_y
 _atom_site_fract_z
 _atom_site_occupancy
  Sm  Sm0  1  0.948470  0.948470  0.154592  1
  Sm  Sm1  1  0.051530  0.051530  0.845408  1
  Tm  Tm2  1  0.852063  0.852063  0.443813  1
  Tm  Tm3  1  0.147937  0.147937  0.556187  1
  Ni  Ni4  1  0.500000  0.500000  0.500000  1
  Ni  Ni5  1  0.722266  0.722266  0.833205  1
  Ni  Ni6  1  0.277734  0.277734  0.166795  1
  Ni  Ni7  1  0.611274  0.611274  0.166176  1
  Ni  Ni8  1  0.388726  0.388726  0.833824  1
  Ni  Ni9  1  0.000000  0.500000  0.000000  1
  Ni  Ni10  1  0.500000  0.000000  0.000000  1
  Ni  Ni11  1  0.500000  0.500000  0.000000  1
  Ni  Ni12  1  0.388403  0.388403  0.332221  1
  Ni  Ni13  1  0.890971  0.388403  0.332221  1
  Ni  Ni14  1  0.388403  0.890971  0.332221  1
  Ni  Ni15  1  0.611597  0.611597  0.667779  1
  Ni  Ni16  1  0.109029  0.611597  0.667779  1
  Ni  Ni17  1  0.611597  0.109029  0.667779  1
