# generated using pymatgen
data_Tm16InNi4Ag3
_symmetry_space_group_name_H-M   'P 1'
_cell_length_a   9.33942848
_cell_length_b   9.35293360
_cell_length_c   9.35293300
_cell_angle_alpha   60.00000566
_cell_angle_beta   59.95215976
_cell_angle_gamma   59.95216849
_symmetry_Int_Tables_number   1
_chemical_formula_structural   Tm16InNi4Ag3
_chemical_formula_sum   'Tm16 In1 Ni4 Ag3'
_cell_volume   577.28012476
_cell_formula_units_Z   1
loop_
 _symmetry_equiv_pos_site_id
 _symmetry_equiv_pos_as_xyz
  1  'x, y, z'
loop_
 _atom_site_type_symbol
 _atom_site_label
 _atom_site_symmetry_multiplicity
 _atom_site_fract_x
 _atom_site_fract_y
 _atom_site_fract_z
 _atom_site_occupancy
  Tm  Tm0  1  0.349234  0.349274  0.349274  1
  Tm  Tm1  1  0.349234  0.349274  0.952219  1
  Tm  Tm2  1  0.349234  0.952219  0.349274  1
  Tm  Tm3  1  0.949457  0.350181  0.350181  1
  Tm  Tm4  1  0.811306  0.188920  0.188920  1
  Tm  Tm5  1  0.189054  0.810690  0.810690  1
  Tm  Tm6  1  0.189054  0.810690  0.189566  1
  Tm  Tm7  1  0.811306  0.188920  0.810855  1
  Tm  Tm8  1  0.189054  0.189566  0.810690  1
  Tm  Tm9  1  0.811306  0.810855  0.188920  1
  Tm  Tm10  1  0.932846  0.564022  0.564022  1
  Tm  Tm11  1  0.563327  0.936378  0.936378  1
  Tm  Tm12  1  0.563327  0.936378  0.563917  1
  Tm  Tm13  1  0.932846  0.564022  0.939110  1
  Tm  Tm14  1  0.563327  0.563917  0.936378  1
  Tm  Tm15  1  0.932846  0.939110  0.564022  1
  In  In16  1  0.260796  0.579735  0.579735  1
  Ni  Ni17  1  0.142462  0.142741  0.142741  1
  Ni  Ni18  1  0.142462  0.142741  0.572059  1
  Ni  Ni19  1  0.142462  0.572059  0.142741  1
  Ni  Ni20  1  0.572108  0.142631  0.142631  1
  Ag  Ag21  1  0.584320  0.582389  0.582389  1
  Ag  Ag22  1  0.584320  0.582389  0.250903  1
  Ag  Ag23  1  0.584320  0.250903  0.582389  1
