# generated using pymatgen
data_Ho9Er(In2Ir)4
_symmetry_space_group_name_H-M   'P 1'
_cell_length_a   3.63864600
_cell_length_b   7.99680548
_cell_length_c   18.23297152
_cell_angle_alpha   90.03343193
_cell_angle_beta   90.00000000
_cell_angle_gamma   90.00000000
_symmetry_Int_Tables_number   1
_chemical_formula_structural   Ho9Er(In2Ir)4
_chemical_formula_sum   'Ho9 Er1 In8 Ir4'
_cell_volume   530.53460540
_cell_formula_units_Z   1
loop_
 _symmetry_equiv_pos_site_id
 _symmetry_equiv_pos_as_xyz
  1  'x, y, z'
loop_
 _atom_site_type_symbol
 _atom_site_label
 _atom_site_symmetry_multiplicity
 _atom_site_fract_x
 _atom_site_fract_y
 _atom_site_fract_z
 _atom_site_occupancy
  Ho  Ho0  1  0.000000  0.114829  0.411270  1
  Ho  Ho1  1  0.000000  0.884739  0.588444  1
  Ho  Ho2  1  0.000000  0.384886  0.911480  1
  Ho  Ho3  1  0.000000  0.615355  0.088762  1
  Ho  Ho4  1  0.000000  0.243695  0.221565  1
  Ho  Ho5  1  0.000000  0.756569  0.778536  1
  Ho  Ho6  1  0.000000  0.256505  0.721471  1
  Ho  Ho7  1  0.000000  0.000047  0.000084  1
  Ho  Ho8  1  0.000000  0.499905  0.499964  1
  Er  Er9  1  0.000000  0.743512  0.278313  1
  In  In10  1  0.500000  0.425386  0.350318  1
  In  In11  1  0.500000  0.574995  0.649686  1
  In  In12  1  0.500000  0.075021  0.850307  1
  In  In13  1  0.500000  0.924895  0.149770  1
  In  In14  1  0.500000  0.292849  0.067963  1
  In  In15  1  0.500000  0.707367  0.932194  1
  In  In16  1  0.500000  0.207323  0.567819  1
  In  In17  1  0.500000  0.792168  0.431831  1
  Ir  Ir18  1  0.500000  0.020018  0.304299  1
  Ir  Ir19  1  0.500000  0.978761  0.695531  1
  Ir  Ir20  1  0.500000  0.478794  0.804382  1
  Ir  Ir21  1  0.500000  0.522385  0.196014  1
