# generated using pymatgen
data_Li3La4Al(IrRh)2
_symmetry_space_group_name_H-M   'P 1'
_cell_length_a   4.11049100
_cell_length_b   7.18095892
_cell_length_c   8.64465732
_cell_angle_alpha   89.95554336
_cell_angle_beta   90.00000000
_cell_angle_gamma   90.00000000
_symmetry_Int_Tables_number   1
_chemical_formula_structural   Li3La4Al(IrRh)2
_chemical_formula_sum   'Li3 La4 Al1 Ir2 Rh2'
_cell_volume   255.16658135
_cell_formula_units_Z   1
loop_
 _symmetry_equiv_pos_site_id
 _symmetry_equiv_pos_as_xyz
  1  'x, y, z'
loop_
 _atom_site_type_symbol
 _atom_site_label
 _atom_site_symmetry_multiplicity
 _atom_site_fract_x
 _atom_site_fract_y
 _atom_site_fract_z
 _atom_site_occupancy
  Li  Li0  1  0.250000  0.624428  0.548931  1
  Li  Li1  1  0.750000  0.372604  0.446476  1
  Li  Li2  1  0.750000  0.873857  0.055073  1
  La  La3  1  0.250000  0.545889  0.180886  1
  La  La4  1  0.750000  0.459864  0.818765  1
  La  La5  1  0.750000  0.959114  0.684148  1
  La  La6  1  0.250000  0.036552  0.315158  1
  Al  Al7  1  0.250000  0.129260  0.947743  1
  Ir  Ir8  1  0.750000  0.241718  0.102674  1
  Ir  Ir9  1  0.750000  0.756402  0.368771  1
  Rh  Rh10  1  0.250000  0.761783  0.881765  1
  Rh  Rh11  1  0.250000  0.238529  0.649609  1
