# generated using pymatgen
data_CaThGePd14
_symmetry_space_group_name_H-M   'P 1'
_cell_length_a   8.99601000
_cell_length_b   8.97409500
_cell_length_c   7.18903600
_cell_angle_alpha   90.00000000
_cell_angle_beta   90.00000000
_cell_angle_gamma   90.00000000
_symmetry_Int_Tables_number   1
_chemical_formula_structural   CaThGePd14
_chemical_formula_sum   'Ca2 Th2 Ge2 Pd28'
_cell_volume   580.37841298
_cell_formula_units_Z   2
loop_
 _symmetry_equiv_pos_site_id
 _symmetry_equiv_pos_as_xyz
  1  'x, y, z'
loop_
 _atom_site_type_symbol
 _atom_site_label
 _atom_site_symmetry_multiplicity
 _atom_site_fract_x
 _atom_site_fract_y
 _atom_site_fract_z
 _atom_site_occupancy
  Ca  Ca0  1  0.000000  0.500000  0.062669  1
  Ca  Ca1  1  0.500000  0.500000  0.500636  1
  Th  Th2  1  0.500000  0.000000  0.935814  1
  Th  Th3  1  0.000000  0.000000  0.500593  1
  Ge  Ge4  1  0.500000  0.000000  0.450761  1
  Ge  Ge5  1  0.000000  0.500000  0.549459  1
  Pd  Pd6  1  0.330914  0.830262  0.621639  1
  Pd  Pd7  1  0.330914  0.169738  0.621639  1
  Pd  Pd8  1  0.669086  0.830262  0.621639  1
  Pd  Pd9  1  0.669086  0.169738  0.621639  1
  Pd  Pd10  1  0.169738  0.669132  0.377848  1
  Pd  Pd11  1  0.169738  0.330868  0.377848  1
  Pd  Pd12  1  0.830262  0.669132  0.377848  1
  Pd  Pd13  1  0.830262  0.330868  0.377848  1
  Pd  Pd14  1  0.500000  0.768706  0.251308  1
  Pd  Pd15  1  0.500000  0.231294  0.251308  1
  Pd  Pd16  1  0.266376  0.000000  0.254803  1
  Pd  Pd17  1  0.733624  0.000000  0.254803  1
  Pd  Pd18  1  0.000000  0.735568  0.743465  1
  Pd  Pd19  1  0.000000  0.264432  0.743465  1
  Pd  Pd20  1  0.233088  0.500000  0.746868  1
  Pd  Pd21  1  0.766912  0.500000  0.746868  1
  Pd  Pd22  1  0.500000  0.347720  0.857472  1
  Pd  Pd23  1  0.500000  0.652280  0.857472  1
  Pd  Pd24  1  0.849140  0.000000  0.853947  1
  Pd  Pd25  1  0.150860  0.000000  0.853947  1
  Pd  Pd26  1  0.000000  0.150182  0.147381  1
  Pd  Pd27  1  0.000000  0.849818  0.147381  1
  Pd  Pd28  1  0.650402  0.500000  0.143279  1
  Pd  Pd29  1  0.349598  0.500000  0.143279  1
  Pd  Pd30  1  0.250753  0.751234  0.001269  1
  Pd  Pd31  1  0.250753  0.248766  0.001269  1
  Pd  Pd32  1  0.749247  0.751234  0.001269  1
  Pd  Pd33  1  0.749247  0.248766  0.001269  1
