# generated using pymatgen
data_NaSr2PuO6
_symmetry_space_group_name_H-M   'P 1'
_cell_length_a   5.92238597
_cell_length_b   6.15227900
_cell_length_c   8.40091568
_cell_angle_alpha   90.00000000
_cell_angle_beta   89.33622035
_cell_angle_gamma   90.00000000
_symmetry_Int_Tables_number   1
_chemical_formula_structural   NaSr2PuO6
_chemical_formula_sum   'Na2 Sr4 Pu2 O12'
_cell_volume   306.07665778
_cell_formula_units_Z   2
loop_
 _symmetry_equiv_pos_site_id
 _symmetry_equiv_pos_as_xyz
  1  'x, y, z'
loop_
 _atom_site_type_symbol
 _atom_site_label
 _atom_site_symmetry_multiplicity
 _atom_site_fract_x
 _atom_site_fract_y
 _atom_site_fract_z
 _atom_site_occupancy
  Na  Na0  1  0.500000  0.500000  0.000000  1
  Na  Na1  1  0.000000  0.000000  0.500000  1
  Sr  Sr2  1  0.513654  0.056255  0.753723  1
  Sr  Sr3  1  0.986346  0.556255  0.746277  1
  Sr  Sr4  1  0.486346  0.943745  0.246277  1
  Sr  Sr5  1  0.013654  0.443745  0.253723  1
  Pu  Pu6  1  0.500000  0.500000  0.500000  1
  Pu  Pu7  1  0.000000  0.000000  0.000000  1
  O  O8  1  0.670886  0.772265  0.561949  1
  O  O9  1  0.829114  0.272265  0.938051  1
  O  O10  1  0.329114  0.227735  0.438051  1
  O  O11  1  0.170886  0.727735  0.061949  1
  O  O12  1  0.396328  0.455784  0.726932  1
  O  O13  1  0.103672  0.955784  0.773068  1
  O  O14  1  0.603672  0.544216  0.273068  1
  O  O15  1  0.896328  0.044216  0.226932  1
  O  O16  1  0.778156  0.323251  0.545569  1
  O  O17  1  0.721844  0.823251  0.954431  1
  O  O18  1  0.221844  0.676749  0.454431  1
  O  O19  1  0.278156  0.176749  0.045569  1
