# generated using pymatgen
data_TbDyEr8(In2Pd)4
_symmetry_space_group_name_H-M   'P 1'
_cell_length_a   3.60083100
_cell_length_b   8.12930064
_cell_length_c   18.20068010
_cell_angle_alpha   90.01674056
_cell_angle_beta   90.00000000
_cell_angle_gamma   90.00000000
_symmetry_Int_Tables_number   1
_chemical_formula_structural   TbDyEr8(In2Pd)4
_chemical_formula_sum   'Tb1 Dy1 Er8 In8 Pd4'
_cell_volume   532.77461270
_cell_formula_units_Z   1
loop_
 _symmetry_equiv_pos_site_id
 _symmetry_equiv_pos_as_xyz
  1  'x, y, z'
loop_
 _atom_site_type_symbol
 _atom_site_label
 _atom_site_symmetry_multiplicity
 _atom_site_fract_x
 _atom_site_fract_y
 _atom_site_fract_z
 _atom_site_occupancy
  Tb  Tb0  1  0.000000  0.500000  0.500000  1
  Dy  Dy1  1  0.000000  0.000000  0.000000  1
  Er  Er2  1  0.000000  0.739217  0.281052  1
  Er  Er3  1  0.000000  0.260783  0.718948  1
  Er  Er4  1  0.000000  0.760549  0.780948  1
  Er  Er5  1  0.000000  0.239451  0.219052  1
  Er  Er6  1  0.000000  0.617291  0.084032  1
  Er  Er7  1  0.000000  0.382709  0.915968  1
  Er  Er8  1  0.000000  0.882339  0.584041  1
  Er  Er9  1  0.000000  0.117661  0.415959  1
  In  In10  1  0.500000  0.707120  0.932818  1
  In  In11  1  0.500000  0.292880  0.067182  1
  In  In12  1  0.500000  0.793623  0.432843  1
  In  In13  1  0.500000  0.206377  0.567157  1
  In  In14  1  0.500000  0.581040  0.650585  1
  In  In15  1  0.500000  0.418960  0.349415  1
  In  In16  1  0.500000  0.919624  0.150411  1
  In  In17  1  0.500000  0.080376  0.849589  1
  Pd  Pd18  1  0.500000  0.523384  0.195959  1
  Pd  Pd19  1  0.500000  0.476616  0.804041  1
  Pd  Pd20  1  0.500000  0.976562  0.696012  1
  Pd  Pd21  1  0.500000  0.023438  0.303988  1
