# generated using pymatgen
data_Sr2Mg2CdInGa4
_symmetry_space_group_name_H-M   'P 1'
_cell_length_a   4.53401300
_cell_length_b   4.53401300
_cell_length_c   11.86000700
_cell_angle_alpha   90.00000000
_cell_angle_beta   90.00000000
_cell_angle_gamma   90.00000000
_symmetry_Int_Tables_number   1
_chemical_formula_structural   Sr2Mg2CdInGa4
_chemical_formula_sum   'Sr2 Mg2 Cd1 In1 Ga4'
_cell_volume   243.80941217
_cell_formula_units_Z   1
loop_
 _symmetry_equiv_pos_site_id
 _symmetry_equiv_pos_as_xyz
  1  'x, y, z'
loop_
 _atom_site_type_symbol
 _atom_site_label
 _atom_site_symmetry_multiplicity
 _atom_site_fract_x
 _atom_site_fract_y
 _atom_site_fract_z
 _atom_site_occupancy
  Sr  Sr0  1  0.500000  0.000000  0.750854  1
  Sr  Sr1  1  0.000000  0.500000  0.249146  1
  Mg  Mg2  1  0.000000  0.000000  0.500000  1
  Mg  Mg3  1  0.000000  0.000000  0.000000  1
  Cd  Cd4  1  0.500000  0.500000  0.500000  1
  In  In5  1  0.500000  0.500000  0.000000  1
  Ga  Ga6  1  0.500000  0.000000  0.145275  1
  Ga  Ga7  1  0.000000  0.500000  0.642794  1
  Ga  Ga8  1  0.000000  0.500000  0.854725  1
  Ga  Ga9  1  0.500000  0.000000  0.357206  1
