# generated using pymatgen
data_Lu2Be4Ir5
_symmetry_space_group_name_H-M   'P 1'
_cell_length_a   3.34184400
_cell_length_b   8.44442702
_cell_length_c   10.06912100
_cell_angle_alpha   90.00373856
_cell_angle_beta   90.00000000
_cell_angle_gamma   90.00000000
_symmetry_Int_Tables_number   1
_chemical_formula_structural   Lu2Be4Ir5
_chemical_formula_sum   'Lu4 Be8 Ir10'
_cell_volume   284.15016873
_cell_formula_units_Z   2
loop_
 _symmetry_equiv_pos_site_id
 _symmetry_equiv_pos_as_xyz
  1  'x, y, z'
loop_
 _atom_site_type_symbol
 _atom_site_label
 _atom_site_symmetry_multiplicity
 _atom_site_fract_x
 _atom_site_fract_y
 _atom_site_fract_z
 _atom_site_occupancy
  Lu  Lu0  1  0.500000  0.842282  0.180301  1
  Lu  Lu1  1  0.500000  0.157718  0.819699  1
  Lu  Lu2  1  0.500000  0.657730  0.680312  1
  Lu  Lu3  1  0.500000  0.342270  0.319688  1
  Be  Be4  1  0.500000  0.963330  0.595184  1
  Be  Be5  1  0.500000  0.036670  0.404816  1
  Be  Be6  1  0.500000  0.844118  0.902879  1
  Be  Be7  1  0.500000  0.155882  0.097121  1
  Be  Be8  1  0.500000  0.655877  0.402896  1
  Be  Be9  1  0.500000  0.344123  0.597104  1
  Be  Be10  1  0.500000  0.463348  0.904804  1
  Be  Be11  1  0.500000  0.536652  0.095196  1
  Ir  Ir12  1  0.000000  0.659074  0.952264  1
  Ir  Ir13  1  0.000000  0.340926  0.047736  1
  Ir  Ir14  1  0.000000  0.840914  0.452262  1
  Ir  Ir15  1  0.000000  0.159086  0.547738  1
  Ir  Ir16  1  0.000000  0.000000  0.000000  1
  Ir  Ir17  1  0.000000  0.405633  0.759016  1
  Ir  Ir18  1  0.000000  0.594367  0.240984  1
  Ir  Ir19  1  0.000000  0.500000  0.500000  1
  Ir  Ir20  1  0.000000  0.905642  0.740984  1
  Ir  Ir21  1  0.000000  0.094358  0.259016  1
