# generated using pymatgen
data_Cs6MgSe4
_symmetry_space_group_name_H-M   'P 1'
_cell_length_a   11.22972700
_cell_length_b   11.22972601
_cell_length_c   8.78430900
_cell_angle_alpha   90.00000000
_cell_angle_beta   90.00000000
_cell_angle_gamma   119.99999998
_symmetry_Int_Tables_number   1
_chemical_formula_structural   Cs6MgSe4
_chemical_formula_sum   'Cs12 Mg2 Se8'
_cell_volume   959.34892790
_cell_formula_units_Z   2
loop_
 _symmetry_equiv_pos_site_id
 _symmetry_equiv_pos_as_xyz
  1  'x, y, z'
loop_
 _atom_site_type_symbol
 _atom_site_label
 _atom_site_symmetry_multiplicity
 _atom_site_fract_x
 _atom_site_fract_y
 _atom_site_fract_z
 _atom_site_occupancy
  Cs  Cs0  1  0.146531  0.853469  0.543408  1
  Cs  Cs1  1  0.293062  0.146531  0.043408  1
  Cs  Cs2  1  0.853469  0.706938  0.043408  1
  Cs  Cs3  1  0.146531  0.293062  0.543408  1
  Cs  Cs4  1  0.706938  0.853469  0.543408  1
  Cs  Cs5  1  0.853469  0.146531  0.043408  1
  Cs  Cs6  1  0.529038  0.470962  0.365697  1
  Cs  Cs7  1  0.058077  0.529038  0.865697  1
  Cs  Cs8  1  0.470962  0.941923  0.865697  1
  Cs  Cs9  1  0.529038  0.058077  0.365697  1
  Cs  Cs10  1  0.941923  0.470962  0.365697  1
  Cs  Cs11  1  0.470962  0.529038  0.865697  1
  Mg  Mg12  1  0.333333  0.666667  0.252047  1
  Mg  Mg13  1  0.666667  0.333333  0.752047  1
  Se  Se14  1  0.333333  0.666667  0.557191  1
  Se  Se15  1  0.666667  0.333333  0.057191  1
  Se  Se16  1  0.201805  0.798195  0.157717  1
  Se  Se17  1  0.403608  0.201805  0.657717  1
  Se  Se18  1  0.798195  0.596392  0.657717  1
  Se  Se19  1  0.201805  0.403608  0.157717  1
  Se  Se20  1  0.596392  0.798195  0.157717  1
  Se  Se21  1  0.798195  0.201805  0.657717  1
