# generated using pymatgen
data_PrTh3Np4N12
_symmetry_space_group_name_H-M   'P 1'
_cell_length_a   5.87553553
_cell_length_b   6.03662474
_cell_length_c   8.46218600
_cell_angle_alpha   90.00000000
_cell_angle_beta   90.00000000
_cell_angle_gamma   90.22652221
_symmetry_Int_Tables_number   1
_chemical_formula_structural   PrTh3Np4N12
_chemical_formula_sum   'Pr1 Th3 Np4 N12'
_cell_volume   300.13787897
_cell_formula_units_Z   1
loop_
 _symmetry_equiv_pos_site_id
 _symmetry_equiv_pos_as_xyz
  1  'x, y, z'
loop_
 _atom_site_type_symbol
 _atom_site_label
 _atom_site_symmetry_multiplicity
 _atom_site_fract_x
 _atom_site_fract_y
 _atom_site_fract_z
 _atom_site_occupancy
  Pr  Pr0  1  0.510571  0.545303  0.250000  1
  Th  Th1  1  0.988182  0.051107  0.250000  1
  Th  Th2  1  0.488681  0.447794  0.750000  1
  Th  Th3  1  0.010097  0.949985  0.750000  1
  Np  Np4  1  0.999150  0.500851  0.000665  1
  Np  Np5  1  0.500366  0.998254  0.499349  1
  Np  Np6  1  0.999150  0.500851  0.499335  1
  Np  Np7  1  0.500366  0.998254  0.000651  1
  N  N8  1  0.381347  0.961118  0.250000  1
  N  N9  1  0.103822  0.448747  0.250000  1
  N  N10  1  0.615937  0.043982  0.750000  1
  N  N11  1  0.880125  0.547759  0.750000  1
  N  N12  1  0.798044  0.815621  0.056430  1
  N  N13  1  0.712656  0.304407  0.445173  1
  N  N14  1  0.210762  0.191599  0.563111  1
  N  N15  1  0.289641  0.691369  0.934889  1
  N  N16  1  0.210762  0.191599  0.936889  1
  N  N17  1  0.289641  0.691369  0.565111  1
  N  N18  1  0.798044  0.815621  0.443570  1
  N  N19  1  0.712656  0.304407  0.054827  1
