# generated using pymatgen
data_TbZr(TaSe2)8
_symmetry_space_group_name_H-M   'P 1'
_cell_length_a   7.00320300
_cell_length_b   7.00320177
_cell_length_c   14.08439800
_cell_angle_alpha   90.00000000
_cell_angle_beta   90.00000000
_cell_angle_gamma   120.00001052
_symmetry_Int_Tables_number   1
_chemical_formula_structural   TbZr(TaSe2)8
_chemical_formula_sum   'Tb1 Zr1 Ta8 Se16'
_cell_volume   598.22179156
_cell_formula_units_Z   1
loop_
 _symmetry_equiv_pos_site_id
 _symmetry_equiv_pos_as_xyz
  1  'x, y, z'
loop_
 _atom_site_type_symbol
 _atom_site_label
 _atom_site_symmetry_multiplicity
 _atom_site_fract_x
 _atom_site_fract_y
 _atom_site_fract_z
 _atom_site_occupancy
  Tb  Tb0  1  0.000000  0.000000  0.000000  1
  Zr  Zr1  1  0.000000  0.000000  0.500000  1
  Ta  Ta2  1  0.507479  0.492521  0.740709  1
  Ta  Ta3  1  0.014957  0.507479  0.259291  1
  Ta  Ta4  1  0.492521  0.985043  0.259291  1
  Ta  Ta5  1  0.507479  0.014957  0.740709  1
  Ta  Ta6  1  0.985043  0.492521  0.740709  1
  Ta  Ta7  1  0.492521  0.507479  0.259291  1
  Ta  Ta8  1  0.000000  0.000000  0.740606  1
  Ta  Ta9  1  0.000000  0.000000  0.259394  1
  Se  Se10  1  0.830182  0.169818  0.377263  1
  Se  Se11  1  0.830182  0.660363  0.377263  1
  Se  Se12  1  0.339637  0.169818  0.377263  1
  Se  Se13  1  0.660880  0.830440  0.858438  1
  Se  Se14  1  0.169818  0.339637  0.622737  1
  Se  Se15  1  0.169560  0.830440  0.858438  1
  Se  Se16  1  0.169560  0.339120  0.858438  1
  Se  Se17  1  0.830440  0.169560  0.141562  1
  Se  Se18  1  0.339120  0.169560  0.141562  1
  Se  Se19  1  0.660363  0.830182  0.622737  1
  Se  Se20  1  0.333333  0.666667  0.136152  1
  Se  Se21  1  0.666667  0.333333  0.618281  1
  Se  Se22  1  0.666667  0.333333  0.863848  1
  Se  Se23  1  0.333333  0.666667  0.381719  1
  Se  Se24  1  0.830440  0.660880  0.141562  1
  Se  Se25  1  0.169818  0.830182  0.622737  1
