# generated using pymatgen
data_Zr6Si5Tc6Ge
_symmetry_space_group_name_H-M   'P 1'
_cell_length_a   7.81995950
_cell_length_b   7.81950126
_cell_length_c   7.81962791
_cell_angle_alpha   126.63668971
_cell_angle_beta   127.68139585
_cell_angle_gamma   77.99605277
_symmetry_Int_Tables_number   1
_chemical_formula_structural   Zr6Si5Tc6Ge
_chemical_formula_sum   'Zr6 Si5 Tc6 Ge1'
_cell_volume   294.26019773
_cell_formula_units_Z   1
loop_
 _symmetry_equiv_pos_site_id
 _symmetry_equiv_pos_as_xyz
  1  'x, y, z'
loop_
 _atom_site_type_symbol
 _atom_site_label
 _atom_site_symmetry_multiplicity
 _atom_site_fract_x
 _atom_site_fract_y
 _atom_site_fract_z
 _atom_site_occupancy
  Zr  Zr0  1  0.547739  0.506719  0.456630  1
  Zr  Zr1  1  0.050109  0.506622  0.958942  1
  Zr  Zr2  1  0.247364  0.098523  0.348586  1
  Zr  Zr3  1  0.749744  0.098236  0.851145  1
  Zr  Zr4  1  0.953556  0.905957  0.454431  1
  Zr  Zr5  1  0.451606  0.905952  0.952405  1
  Si  Si6  1  0.333515  0.837378  0.503468  1
  Si  Si7  1  0.749882  0.502764  0.252831  1
  Si  Si8  1  0.833161  0.836235  0.003542  1
  Si  Si9  1  0.250060  0.503005  0.752883  1
  Si  Si10  1  0.166617  0.170104  0.003238  1
  Tc  Tc11  1  0.626462  0.507018  0.880293  1
  Tc  Tc12  1  0.999919  0.756360  0.756389  1
  Tc  Tc13  1  0.875266  0.249603  0.374088  1
  Tc  Tc14  1  0.127098  0.503560  0.376664  1
  Tc  Tc15  1  0.497754  0.752725  0.254927  1
  Tc  Tc16  1  0.373383  0.249090  0.875888  1
  Ge  Ge17  1  0.666763  0.170149  0.503649  1
