# generated using pymatgen
data_Hf4InSe8
_symmetry_space_group_name_H-M   'P 1'
_cell_length_a   9.17727936
_cell_length_b   9.17727829
_cell_length_c   9.17727947
_cell_angle_alpha   48.36200753
_cell_angle_beta   48.36199453
_cell_angle_gamma   48.36200271
_symmetry_Int_Tables_number   1
_chemical_formula_structural   Hf4InSe8
_chemical_formula_sum   'Hf4 In1 Se8'
_cell_volume   395.82706517
_cell_formula_units_Z   1
loop_
 _symmetry_equiv_pos_site_id
 _symmetry_equiv_pos_as_xyz
  1  'x, y, z'
loop_
 _atom_site_type_symbol
 _atom_site_label
 _atom_site_symmetry_multiplicity
 _atom_site_fract_x
 _atom_site_fract_y
 _atom_site_fract_z
 _atom_site_occupancy
  Hf  Hf0  1  0.000000  0.500000  0.500000  1
  Hf  Hf1  1  0.500000  0.000000  0.500000  1
  Hf  Hf2  1  0.500000  0.500000  0.000000  1
  Hf  Hf3  1  0.000000  0.000000  0.000000  1
  In  In4  1  0.500000  0.500000  0.500000  1
  Se  Se5  1  0.266252  0.768044  0.768044  1
  Se  Se6  1  0.231956  0.231956  0.733748  1
  Se  Se7  1  0.733748  0.231956  0.231956  1
  Se  Se8  1  0.231956  0.733748  0.231956  1
  Se  Se9  1  0.268097  0.268097  0.268097  1
  Se  Se10  1  0.731903  0.731903  0.731903  1
  Se  Se11  1  0.768044  0.266252  0.768044  1
  Se  Se12  1  0.768044  0.768044  0.266252  1
