# generated using pymatgen
data_FeSbCl8
_symmetry_space_group_name_H-M   'P 1'
_cell_length_a   10.16868637
_cell_length_b   10.16868496
_cell_length_c   9.04963600
_cell_angle_alpha   90.00000000
_cell_angle_beta   90.00000000
_cell_angle_gamma   127.80663465
_symmetry_Int_Tables_number   1
_chemical_formula_structural   FeSbCl8
_chemical_formula_sum   'Fe2 Sb2 Cl16'
_cell_volume   739.32270268
_cell_formula_units_Z   2
loop_
 _symmetry_equiv_pos_site_id
 _symmetry_equiv_pos_as_xyz
  1  'x, y, z'
loop_
 _atom_site_type_symbol
 _atom_site_label
 _atom_site_symmetry_multiplicity
 _atom_site_fract_x
 _atom_site_fract_y
 _atom_site_fract_z
 _atom_site_occupancy
  Fe  Fe0  1  0.314911  0.685089  0.750000  1
  Fe  Fe1  1  0.685089  0.314911  0.250000  1
  Sb  Sb2  1  0.882296  0.117704  0.250000  1
  Sb  Sb3  1  0.117704  0.882296  0.750000  1
  Cl  Cl4  1  0.377332  0.622668  0.550057  1
  Cl  Cl5  1  0.622668  0.377332  0.449943  1
  Cl  Cl6  1  0.417762  0.961216  0.750000  1
  Cl  Cl7  1  0.961216  0.417762  0.250000  1
  Cl  Cl8  1  0.582238  0.038784  0.250000  1
  Cl  Cl9  1  0.038784  0.582238  0.750000  1
  Cl  Cl10  1  0.234339  0.164220  0.750000  1
  Cl  Cl11  1  0.164220  0.234339  0.250000  1
  Cl  Cl12  1  0.765661  0.835780  0.250000  1
  Cl  Cl13  1  0.835780  0.765661  0.750000  1
  Cl  Cl14  1  0.133436  0.866564  0.490767  1
  Cl  Cl15  1  0.866564  0.133436  0.509233  1
  Cl  Cl16  1  0.866564  0.133436  0.990767  1
  Cl  Cl17  1  0.133436  0.866564  0.009233  1
  Cl  Cl18  1  0.377332  0.622668  0.949943  1
  Cl  Cl19  1  0.622668  0.377332  0.050057  1
