# generated using pymatgen
data_Hf3AlPd2C
_symmetry_space_group_name_H-M   'P 1'
_cell_length_a   8.61974178
_cell_length_b   8.61976769
_cell_length_c   8.61970700
_cell_angle_alpha   60.00044458
_cell_angle_beta   60.00059356
_cell_angle_gamma   60.00057091
_symmetry_Int_Tables_number   1
_chemical_formula_structural   Hf3AlPd2C
_chemical_formula_sum   'Hf12 Al4 Pd8 C4'
_cell_volume   452.86901106
_cell_formula_units_Z   4
loop_
 _symmetry_equiv_pos_site_id
 _symmetry_equiv_pos_as_xyz
  1  'x, y, z'
loop_
 _atom_site_type_symbol
 _atom_site_label
 _atom_site_symmetry_multiplicity
 _atom_site_fract_x
 _atom_site_fract_y
 _atom_site_fract_z
 _atom_site_occupancy
  Hf  Hf0  1  0.439968  0.439966  0.060039  1
  Hf  Hf1  1  0.060029  0.439974  0.060025  1
  Hf  Hf2  1  0.439976  0.060027  0.060024  1
  Hf  Hf3  1  0.060024  0.060025  0.439977  1
  Hf  Hf4  1  0.439970  0.060039  0.439968  1
  Hf  Hf5  1  0.060040  0.439968  0.439968  1
  Hf  Hf6  1  0.810032  0.810034  0.189961  1
  Hf  Hf7  1  0.189971  0.810026  0.189975  1
  Hf  Hf8  1  0.810024  0.189973  0.189976  1
  Hf  Hf9  1  0.189976  0.189975  0.810023  1
  Hf  Hf10  1  0.810030  0.189961  0.810032  1
  Hf  Hf11  1  0.189960  0.810032  0.810032  1
  Al  Al12  1  0.625000  0.625000  0.125000  1
  Al  Al13  1  0.625000  0.125000  0.625000  1
  Al  Al14  1  0.125000  0.625000  0.625000  1
  Al  Al15  1  0.625000  0.625000  0.625000  1
  Pd  Pd16  1  0.835967  0.835973  0.492112  1
  Pd  Pd17  1  0.835973  0.492105  0.835968  1
  Pd  Pd18  1  0.492109  0.835975  0.835965  1
  Pd  Pd19  1  0.835958  0.835963  0.835953  1
  Pd  Pd20  1  0.414033  0.414027  0.757888  1
  Pd  Pd21  1  0.414027  0.757895  0.414032  1
  Pd  Pd22  1  0.757891  0.414025  0.414035  1
  Pd  Pd23  1  0.414042  0.414037  0.414047  1
  C  C24  1  0.125000  0.125000  0.625000  1
  C  C25  1  0.125000  0.625000  0.125000  1
  C  C26  1  0.625000  0.125000  0.125000  1
  C  C27  1  0.125000  0.125000  0.125000  1
