# generated using pymatgen
data_TmLu19CoBi11
_symmetry_space_group_name_H-M   'P 1'
_cell_length_a   8.07619966
_cell_length_b   9.37022900
_cell_length_c   11.78518600
_cell_angle_alpha   90.00000000
_cell_angle_beta   89.67659303
_cell_angle_gamma   90.00000000
_symmetry_Int_Tables_number   1
_chemical_formula_structural   TmLu19CoBi11
_chemical_formula_sum   'Tm1 Lu19 Co1 Bi11'
_cell_volume   891.83964531
_cell_formula_units_Z   1
loop_
 _symmetry_equiv_pos_site_id
 _symmetry_equiv_pos_as_xyz
  1  'x, y, z'
loop_
 _atom_site_type_symbol
 _atom_site_label
 _atom_site_symmetry_multiplicity
 _atom_site_fract_x
 _atom_site_fract_y
 _atom_site_fract_z
 _atom_site_occupancy
  Tm  Tm0  1  0.315860  0.750000  0.281671  1
  Lu  Lu1  1  0.049179  0.250000  0.506590  1
  Lu  Lu2  1  0.987786  0.750000  0.493554  1
  Lu  Lu3  1  0.478538  0.750000  0.011644  1
  Lu  Lu4  1  0.527393  0.250000  0.990006  1
  Lu  Lu5  1  0.357181  0.250000  0.308592  1
  Lu  Lu6  1  0.659064  0.750000  0.718927  1
  Lu  Lu7  1  0.143801  0.750000  0.778258  1
  Lu  Lu8  1  0.847309  0.250000  0.215255  1
  Lu  Lu9  1  0.205503  0.250000  0.774844  1
  Lu  Lu10  1  0.808378  0.750000  0.216514  1
  Lu  Lu11  1  0.635718  0.250000  0.697224  1
  Lu  Lu12  1  0.193738  0.067616  0.064991  1
  Lu  Lu13  1  0.807799  0.933087  0.941216  1
  Lu  Lu14  1  0.317761  0.976393  0.558487  1
  Lu  Lu15  1  0.807799  0.566913  0.941216  1
  Lu  Lu16  1  0.676609  0.076392  0.446386  1
  Lu  Lu17  1  0.193738  0.432384  0.064991  1
  Lu  Lu18  1  0.676609  0.423608  0.446386  1
  Lu  Lu19  1  0.317761  0.523607  0.558487  1
  Co  Co20  1  0.416290  0.250000  0.527494  1
  Bi  Bi21  1  0.596691  0.750000  0.460942  1
  Bi  Bi22  1  0.098249  0.750000  0.042253  1
  Bi  Bi23  1  0.910076  0.250000  0.951077  1
  Bi  Bi24  1  0.056436  0.999793  0.322147  1
  Bi  Bi25  1  0.931469  0.003937  0.675271  1
  Bi  Bi26  1  0.434280  0.991120  0.828632  1
  Bi  Bi27  1  0.931469  0.496063  0.675271  1
  Bi  Bi28  1  0.563399  0.005640  0.175445  1
  Bi  Bi29  1  0.056436  0.500207  0.322147  1
  Bi  Bi30  1  0.563399  0.494360  0.175445  1
  Bi  Bi31  1  0.434280  0.508880  0.828632  1
