# generated using pymatgen
data_CsInP3HO10
_symmetry_space_group_name_H-M   'P 1'
_cell_length_a   9.05855303
_cell_length_b   9.62755244
_cell_length_c   12.27674913
_cell_angle_alpha   68.68708663
_cell_angle_beta   90.00045031
_cell_angle_gamma   89.99881400
_symmetry_Int_Tables_number   1
_chemical_formula_structural   CsInP3HO10
_chemical_formula_sum   'Cs4 In4 P12 H4 O40'
_cell_volume   997.45184099
_cell_formula_units_Z   4
loop_
 _symmetry_equiv_pos_site_id
 _symmetry_equiv_pos_as_xyz
  1  'x, y, z'
loop_
 _atom_site_type_symbol
 _atom_site_label
 _atom_site_symmetry_multiplicity
 _atom_site_fract_x
 _atom_site_fract_y
 _atom_site_fract_z
 _atom_site_occupancy
  Cs  Cs0  1  0.564249  0.249967  0.499986  1
  Cs  Cs1  1  0.064408  0.249960  0.999999  1
  Cs  Cs2  1  0.435693  0.750043  0.500017  1
  Cs  Cs3  1  0.935694  0.750004  0.999980  1
  In  In4  1  0.749985  0.500026  0.750002  1
  In  In5  1  0.749971  0.000013  0.249988  1
  In  In6  1  0.250027  0.499968  0.250007  1
  In  In7  1  0.250013  0.000027  0.750015  1
  P  P8  1  0.118920  0.249971  0.499997  1
  P  P9  1  0.618950  0.250018  0.999988  1
  P  P10  1  0.881076  0.750019  0.500013  1
  P  P11  1  0.381079  0.750003  0.000014  1
  P  P12  1  0.935164  0.193398  0.712679  1
  P  P13  1  0.435149  0.193373  0.212654  1
  P  P14  1  0.935183  0.306574  0.287287  1
  P  P15  1  0.435163  0.306675  0.787309  1
  P  P16  1  0.064771  0.806573  0.287316  1
  P  P17  1  0.564846  0.806633  0.787324  1
  P  P18  1  0.064818  0.693384  0.712695  1
  P  P19  1  0.564852  0.693391  0.212717  1
  H  H20  1  0.249786  0.999734  0.250130  1
  H  H21  1  0.750085  0.000096  0.749941  1
  H  H22  1  0.750044  0.499949  0.250033  1
  H  H23  1  0.249930  0.500097  0.749953  1
  O  O24  1  0.012701  0.208657  0.412489  1
  O  O25  1  0.512744  0.208697  0.912469  1
  O  O26  1  0.012691  0.291322  0.587490  1
  O  O27  1  0.512736  0.291357  0.087478  1
  O  O28  1  0.987292  0.791361  0.587511  1
  O  O29  1  0.487321  0.791303  0.087518  1
  O  O30  1  0.987329  0.708661  0.412528  1
  O  O31  1  0.487285  0.708678  0.912503  1
  O  O32  1  0.813639  0.104551  0.679707  1
  O  O33  1  0.313704  0.104493  0.179721  1
  O  O34  1  0.813554  0.395304  0.320239  1
  O  O35  1  0.313692  0.395525  0.820280  1
  O  O36  1  0.186254  0.895504  0.320271  1
  O  O37  1  0.686391  0.895434  0.820279  1
  O  O38  1  0.186295  0.604535  0.679699  1
  O  O39  1  0.686489  0.604668  0.179781  1
  O  O40  1  0.880485  0.308000  0.761208  1
  O  O41  1  0.380458  0.307982  0.261192  1
  O  O42  1  0.880684  0.191924  0.238723  1
  O  O43  1  0.380458  0.192092  0.738743  1
  O  O44  1  0.119544  0.691999  0.238800  1
  O  O45  1  0.619448  0.692031  0.738751  1
  O  O46  1  0.119540  0.807952  0.761257  1
  O  O47  1  0.619360  0.808033  0.261290  1
  O  O48  1  0.207373  0.389072  0.435505  1
  O  O49  1  0.707411  0.389118  0.935493  1
  O  O50  1  0.207314  0.110811  0.564520  1
  O  O51  1  0.707373  0.110866  0.064493  1
  O  O52  1  0.792654  0.610900  0.564509  1
  O  O53  1  0.292630  0.610898  0.064511  1
  O  O54  1  0.792664  0.889157  0.435483  1
  O  O55  1  0.292658  0.889157  0.935514  1
  O  O56  1  0.053911  0.404685  0.206249  1
  O  O57  1  0.553955  0.404662  0.706232  1
  O  O58  1  0.053917  0.095364  0.793762  1
  O  O59  1  0.554012  0.095478  0.293742  1
  O  O60  1  0.946036  0.595393  0.793764  1
  O  O61  1  0.446100  0.595303  0.293762  1
  O  O62  1  0.945977  0.904513  0.206235  1
  O  O63  1  0.446065  0.904669  0.706258  1
