# generated using pymatgen
data_PmZn3Pt2
_symmetry_space_group_name_H-M   'P 1'
_cell_length_a   5.39852400
_cell_length_b   5.39852395
_cell_length_c   4.29191700
_cell_angle_alpha   90.00000000
_cell_angle_beta   90.00000000
_cell_angle_gamma   59.99968405
_symmetry_Int_Tables_number   1
_chemical_formula_structural   PmZn3Pt2
_chemical_formula_sum   'Pm1 Zn3 Pt2'
_cell_volume   108.32548272
_cell_formula_units_Z   1
loop_
 _symmetry_equiv_pos_site_id
 _symmetry_equiv_pos_as_xyz
  1  'x, y, z'
loop_
 _atom_site_type_symbol
 _atom_site_label
 _atom_site_symmetry_multiplicity
 _atom_site_fract_x
 _atom_site_fract_y
 _atom_site_fract_z
 _atom_site_occupancy
  Pm  Pm0  1  0.999999  0.000001  0.000000  1
  Zn  Zn1  1  0.500446  0.000001  0.499999  1
  Zn  Zn2  1  0.999999  0.499553  0.499999  1
  Zn  Zn3  1  0.499553  0.500446  0.499999  1
  Pt  Pt4  1  0.333332  0.333335  0.000000  1
  Pt  Pt5  1  0.666665  0.666668  0.000000  1
