# generated using pymatgen
data_LiY3ThIr
_symmetry_space_group_name_H-M   'P 1'
_cell_length_a   9.79594232
_cell_length_b   9.79594191
_cell_length_c   9.79594200
_cell_angle_alpha   59.99999971
_cell_angle_beta   60.00000109
_cell_angle_gamma   59.99999934
_symmetry_Int_Tables_number   1
_chemical_formula_structural   LiY3ThIr
_chemical_formula_sum   'Li4 Y12 Th4 Ir4'
_cell_volume   664.69686187
_cell_formula_units_Z   4
loop_
 _symmetry_equiv_pos_site_id
 _symmetry_equiv_pos_as_xyz
  1  'x, y, z'
loop_
 _atom_site_type_symbol
 _atom_site_label
 _atom_site_symmetry_multiplicity
 _atom_site_fract_x
 _atom_site_fract_y
 _atom_site_fract_z
 _atom_site_occupancy
  Li  Li0  1  0.580578  0.580578  0.580578  1
  Li  Li1  1  0.580578  0.580578  0.258266  1
  Li  Li2  1  0.580578  0.258266  0.580578  1
  Li  Li3  1  0.258266  0.580578  0.580578  1
  Y  Y4  1  0.814298  0.185702  0.185702  1
  Y  Y5  1  0.185702  0.814298  0.814298  1
  Y  Y6  1  0.185702  0.814298  0.185702  1
  Y  Y7  1  0.814298  0.185702  0.814298  1
  Y  Y8  1  0.185702  0.185702  0.814298  1
  Y  Y9  1  0.814298  0.814298  0.185702  1
  Y  Y10  1  0.934952  0.565048  0.565048  1
  Y  Y11  1  0.565048  0.934952  0.934952  1
  Y  Y12  1  0.565048  0.934952  0.565048  1
  Y  Y13  1  0.934952  0.565048  0.934952  1
  Y  Y14  1  0.565048  0.565048  0.934952  1
  Y  Y15  1  0.934952  0.934952  0.565048  1
  Th  Th16  1  0.347935  0.347935  0.347935  1
  Th  Th17  1  0.347935  0.347935  0.956194  1
  Th  Th18  1  0.347935  0.956194  0.347935  1
  Th  Th19  1  0.956194  0.347935  0.347935  1
  Ir  Ir20  1  0.143982  0.143982  0.143982  1
  Ir  Ir21  1  0.143982  0.143982  0.568054  1
  Ir  Ir22  1  0.143982  0.568054  0.143982  1
  Ir  Ir23  1  0.568054  0.143982  0.143982  1
