# generated using pymatgen
data_Yb4Ga18OsPd5
_symmetry_space_group_name_H-M   'P 1'
_cell_length_a   7.65370629
_cell_length_b   7.65370507
_cell_length_c   9.62113590
_cell_angle_alpha   90.10367363
_cell_angle_beta   90.10367704
_cell_angle_gamma   119.91107772
_symmetry_Int_Tables_number   1
_chemical_formula_structural   Yb4Ga18OsPd5
_chemical_formula_sum   'Yb4 Ga18 Os1 Pd5'
_cell_volume   488.52422899
_cell_formula_units_Z   1
loop_
 _symmetry_equiv_pos_site_id
 _symmetry_equiv_pos_as_xyz
  1  'x, y, z'
loop_
 _atom_site_type_symbol
 _atom_site_label
 _atom_site_symmetry_multiplicity
 _atom_site_fract_x
 _atom_site_fract_y
 _atom_site_fract_z
 _atom_site_occupancy
  Yb  Yb0  1  0.997321  0.668638  0.248773  1
  Yb  Yb1  1  0.002407  0.331603  0.750515  1
  Yb  Yb2  1  0.668397  0.997593  0.249485  1
  Yb  Yb3  1  0.331362  0.002679  0.751227  1
  Ga  Ga4  1  0.128040  0.129085  0.250199  1
  Ga  Ga5  1  0.870915  0.871960  0.749801  1
  Ga  Ga6  1  0.993633  0.333047  0.079327  1
  Ga  Ga7  1  0.998310  0.661918  0.921149  1
  Ga  Ga8  1  0.001017  0.666637  0.582834  1
  Ga  Ga9  1  0.333363  0.998983  0.417166  1
  Ga  Ga10  1  0.999831  0.334588  0.419625  1
  Ga  Ga11  1  0.665412  0.000169  0.580375  1
  Ga  Ga12  1  0.666953  0.006367  0.920673  1
  Ga  Ga13  1  0.338082  0.001690  0.078851  1
  Ga  Ga14  1  0.332923  0.333087  0.566505  1
  Ga  Ga15  1  0.666913  0.667078  0.433495  1
  Ga  Ga16  1  0.668402  0.664337  0.060902  1
  Ga  Ga17  1  0.335664  0.331598  0.939098  1
  Ga  Ga18  1  0.338126  0.545212  0.249674  1
  Ga  Ga19  1  0.660423  0.451938  0.752308  1
  Ga  Ga20  1  0.548062  0.339577  0.247692  1
  Ga  Ga21  1  0.454788  0.661874  0.750326  1
  Os  Os22  1  0.671100  0.328900  0.000000  1
  Pd  Pd23  1  0.329096  0.670904  0.000000  1
  Pd  Pd24  1  0.329504  0.670496  0.500000  1
  Pd  Pd25  1  0.670610  0.329390  0.500000  1
  Pd  Pd26  1  0.999299  0.000701  0.000000  1
  Pd  Pd27  1  0.000051  0.999949  0.500000  1
