# generated using pymatgen
data_Ce8Zn(Si4Ru)3
_symmetry_space_group_name_H-M   'P 1'
_cell_length_a   8.22130400
_cell_length_b   8.22130477
_cell_length_c   8.16507200
_cell_angle_alpha   90.00000000
_cell_angle_beta   90.00000000
_cell_angle_gamma   119.99999692
_symmetry_Int_Tables_number   1
_chemical_formula_structural   Ce8Zn(Si4Ru)3
_chemical_formula_sum   'Ce8 Zn1 Si12 Ru3'
_cell_volume   477.93861337
_cell_formula_units_Z   1
loop_
 _symmetry_equiv_pos_site_id
 _symmetry_equiv_pos_as_xyz
  1  'x, y, z'
loop_
 _atom_site_type_symbol
 _atom_site_label
 _atom_site_symmetry_multiplicity
 _atom_site_fract_x
 _atom_site_fract_y
 _atom_site_fract_z
 _atom_site_occupancy
  Ce  Ce0  1  0.000000  0.000000  0.249926  1
  Ce  Ce1  1  0.000000  0.000000  0.750173  1
  Ce  Ce2  1  0.503812  0.496188  0.255098  1
  Ce  Ce3  1  0.503812  0.007623  0.255098  1
  Ce  Ce4  1  0.992377  0.496188  0.255098  1
  Ce  Ce5  1  0.504680  0.495320  0.745054  1
  Ce  Ce6  1  0.504680  0.009361  0.745054  1
  Ce  Ce7  1  0.990639  0.495320  0.745054  1
  Zn  Zn8  1  0.333333  0.666667  0.997410  1
  Si  Si9  1  0.166201  0.833799  0.500573  1
  Si  Si10  1  0.166201  0.332402  0.500573  1
  Si  Si11  1  0.667598  0.833799  0.500573  1
  Si  Si12  1  0.835842  0.164158  0.499814  1
  Si  Si13  1  0.835842  0.671685  0.499814  1
  Si  Si14  1  0.328315  0.164158  0.499814  1
  Si  Si15  1  0.833602  0.166398  0.000121  1
  Si  Si16  1  0.833602  0.667203  0.000121  1
  Si  Si17  1  0.332797  0.166398  0.000121  1
  Si  Si18  1  0.164725  0.835275  0.999610  1
  Si  Si19  1  0.164725  0.329450  0.999610  1
  Si  Si20  1  0.670550  0.835275  0.999610  1
  Ru  Ru21  1  0.333333  0.666667  0.501343  1
  Ru  Ru22  1  0.666667  0.333333  0.498220  1
  Ru  Ru23  1  0.666667  0.333333  0.002117  1
