# generated using pymatgen
data_Pr4SI6
_symmetry_space_group_name_H-M   'P 1'
_cell_length_a   4.33763300
_cell_length_b   14.50051200
_cell_length_c   15.06070600
_cell_angle_alpha   90.00000000
_cell_angle_beta   90.00000000
_cell_angle_gamma   90.00000000
_symmetry_Int_Tables_number   1
_chemical_formula_structural   Pr4SI6
_chemical_formula_sum   'Pr8 S2 I12'
_cell_volume   947.28677040
_cell_formula_units_Z   2
loop_
 _symmetry_equiv_pos_site_id
 _symmetry_equiv_pos_as_xyz
  1  'x, y, z'
loop_
 _atom_site_type_symbol
 _atom_site_label
 _atom_site_symmetry_multiplicity
 _atom_site_fract_x
 _atom_site_fract_y
 _atom_site_fract_z
 _atom_site_occupancy
  Pr  Pr0  1  0.000000  0.101423  0.077999  1
  Pr  Pr1  1  0.000000  0.898577  0.922001  1
  Pr  Pr2  1  0.000000  0.601423  0.422001  1
  Pr  Pr3  1  0.000000  0.398577  0.577999  1
  Pr  Pr4  1  0.500000  0.121298  0.855783  1
  Pr  Pr5  1  0.500000  0.878702  0.144217  1
  Pr  Pr6  1  0.500000  0.621298  0.644217  1
  Pr  Pr7  1  0.500000  0.378702  0.355783  1
  S  S8  1  0.500000  0.000000  0.000000  1
  S  S9  1  0.500000  0.500000  0.500000  1
  I  I10  1  0.500000  0.263438  0.677885  1
  I  I11  1  0.500000  0.736562  0.322115  1
  I  I12  1  0.500000  0.763438  0.822115  1
  I  I13  1  0.500000  0.236562  0.177885  1
  I  I14  1  0.000000  0.263180  0.931083  1
  I  I15  1  0.000000  0.736820  0.068917  1
  I  I16  1  0.000000  0.486743  0.238815  1
  I  I17  1  0.000000  0.513257  0.761185  1
  I  I18  1  0.000000  0.986743  0.261185  1
  I  I19  1  0.000000  0.013257  0.738815  1
  I  I20  1  0.000000  0.236820  0.431083  1
  I  I21  1  0.000000  0.763180  0.568917  1
