# generated using pymatgen
data_Yb3Ta8Ti4O24
_symmetry_space_group_name_H-M   'P 1'
_cell_length_a   7.03440613
_cell_length_b   7.03440529
_cell_length_c   9.63510724
_cell_angle_alpha   86.56020381
_cell_angle_beta   93.43978327
_cell_angle_gamma   86.65438798
_symmetry_Int_Tables_number   1
_chemical_formula_structural   Yb3Ta8Ti4O24
_chemical_formula_sum   'Yb3 Ta8 Ti4 O24'
_cell_volume   474.13700614
_cell_formula_units_Z   1
loop_
 _symmetry_equiv_pos_site_id
 _symmetry_equiv_pos_as_xyz
  1  'x, y, z'
loop_
 _atom_site_type_symbol
 _atom_site_label
 _atom_site_symmetry_multiplicity
 _atom_site_fract_x
 _atom_site_fract_y
 _atom_site_fract_z
 _atom_site_occupancy
  Yb  Yb0  1  0.626793  0.373207  0.118092  1
  Yb  Yb1  1  0.901945  0.098055  0.398535  1
  Yb  Yb2  1  0.370813  0.629187  0.874028  1
  Ta  Ta3  1  0.101226  0.898774  0.100320  1
  Ta  Ta4  1  0.600950  0.399050  0.603754  1
  Ta  Ta5  1  0.396010  0.603990  0.397115  1
  Ta  Ta6  1  0.898373  0.101627  0.898301  1
  Ta  Ta7  1  0.331916  0.108690  0.883126  1
  Ta  Ta8  1  0.842493  0.601229  0.383217  1
  Ta  Ta9  1  0.398771  0.157507  0.383217  1
  Ta  Ta10  1  0.891310  0.668084  0.883126  1
  Ti  Ti11  1  0.598110  0.841180  0.619054  1
  Ti  Ti12  1  0.111265  0.333565  0.112771  1
  Ti  Ti13  1  0.666435  0.888735  0.112771  1
  Ti  Ti14  1  0.158821  0.401890  0.619054  1
  O  O15  1  0.602672  0.091442  0.253788  1
  O  O16  1  0.082789  0.582220  0.753372  1
  O  O17  1  0.417780  0.917211  0.753372  1
  O  O18  1  0.908558  0.397328  0.253788  1
  O  O19  1  0.811378  0.814923  0.500449  1
  O  O20  1  0.333247  0.335636  0.998833  1
  O  O21  1  0.185077  0.188622  0.500449  1
  O  O22  1  0.664364  0.666753  0.998833  1
  O  O23  1  0.174926  0.091372  0.237834  1
  O  O24  1  0.667796  0.596303  0.735310  1
  O  O25  1  0.130555  0.591802  0.452782  1
  O  O26  1  0.630896  0.105201  0.966159  1
  O  O27  1  0.091317  0.185979  0.767663  1
  O  O28  1  0.597467  0.666664  0.262794  1
  O  O29  1  0.604101  0.131435  0.541942  1
  O  O30  1  0.103820  0.630717  0.037082  1
  O  O31  1  0.814021  0.908683  0.767663  1
  O  O32  1  0.333336  0.402533  0.262794  1
  O  O33  1  0.868565  0.395899  0.541942  1
  O  O34  1  0.369283  0.896180  0.037082  1
  O  O35  1  0.908628  0.825074  0.237834  1
  O  O36  1  0.403697  0.332204  0.735310  1
  O  O37  1  0.408198  0.869445  0.452782  1
  O  O38  1  0.894799  0.369104  0.966159  1
