# generated using pymatgen
data_Pr17Ho3Si15Ir
_symmetry_space_group_name_H-M   'P 1'
_cell_length_a   7.88873308
_cell_length_b   7.85636960
_cell_length_c   15.22795229
_cell_angle_alpha   90.06723435
_cell_angle_beta   89.73464052
_cell_angle_gamma   90.30476750
_symmetry_Int_Tables_number   1
_chemical_formula_structural   Pr17Ho3Si15Ir
_chemical_formula_sum   'Pr17 Ho3 Si15 Ir1'
_cell_volume   943.75569973
_cell_formula_units_Z   1
loop_
 _symmetry_equiv_pos_site_id
 _symmetry_equiv_pos_as_xyz
  1  'x, y, z'
loop_
 _atom_site_type_symbol
 _atom_site_label
 _atom_site_symmetry_multiplicity
 _atom_site_fract_x
 _atom_site_fract_y
 _atom_site_fract_z
 _atom_site_occupancy
  Pr  Pr0  1  0.696216  0.687912  0.500384  1
  Pr  Pr1  1  0.374448  0.010707  0.447537  1
  Pr  Pr2  1  0.487856  0.877962  0.699140  1
  Pr  Pr3  1  0.511830  0.123798  0.196697  1
  Pr  Pr4  1  0.876272  0.486524  0.300165  1
  Pr  Pr5  1  0.125128  0.505562  0.800404  1
  Pr  Pr6  1  0.625423  0.988667  0.947842  1
  Pr  Pr7  1  0.005055  0.374106  0.553184  1
  Pr  Pr8  1  0.988235  0.625391  0.052158  1
  Pr  Pr9  1  0.133985  0.985164  0.874079  1
  Pr  Pr10  1  0.519313  0.631266  0.125778  1
  Pr  Pr11  1  0.470852  0.362985  0.630792  1
  Pr  Pr12  1  0.627680  0.517477  0.873884  1
  Pr  Pr13  1  0.372979  0.480536  0.371940  1
  Pr  Pr14  1  0.874260  0.022822  0.377088  1
  Pr  Pr15  1  0.980231  0.125989  0.122643  1
  Pr  Pr16  1  0.026442  0.881429  0.624770  1
  Ho  Ho17  1  0.308647  0.308690  0.999698  1
  Ho  Ho18  1  0.188965  0.809441  0.249964  1
  Ho  Ho19  1  0.822150  0.189296  0.749721  1
  Si  Si20  1  0.330523  0.690731  0.953487  1
  Si  Si21  1  0.663151  0.303622  0.454363  1
  Si  Si22  1  0.692451  0.331373  0.046757  1
  Si  Si23  1  0.307142  0.669788  0.545693  1
  Si  Si24  1  0.810575  0.830203  0.205267  1
  Si  Si25  1  0.170539  0.191306  0.293993  1
  Si  Si26  1  0.831070  0.807752  0.796972  1
  Si  Si27  1  0.287317  0.923530  0.061642  1
  Si  Si28  1  0.575463  0.787588  0.309575  1
  Si  Si29  1  0.428701  0.208520  0.815417  1
  Si  Si30  1  0.782861  0.578452  0.691011  1
  Si  Si31  1  0.213174  0.423689  0.186382  1
  Si  Si32  1  0.705519  0.075872  0.562380  1
  Si  Si33  1  0.921163  0.286019  0.938982  1
  Si  Si34  1  0.083990  0.717636  0.436845  1
  Ir  Ir35  1  0.180393  0.178196  0.703366  1
