# generated using pymatgen
data_Li2TbLuPt2
_symmetry_space_group_name_H-M   'P 1'
_cell_length_a   4.00708700
_cell_length_b   6.98354654
_cell_length_c   8.35432582
_cell_angle_alpha   89.23930482
_cell_angle_beta   90.00000000
_cell_angle_gamma   90.00000000
_symmetry_Int_Tables_number   1
_chemical_formula_structural   Li2TbLuPt2
_chemical_formula_sum   'Li4 Tb2 Lu2 Pt4'
_cell_volume   233.76416386
_cell_formula_units_Z   2
loop_
 _symmetry_equiv_pos_site_id
 _symmetry_equiv_pos_as_xyz
  1  'x, y, z'
loop_
 _atom_site_type_symbol
 _atom_site_label
 _atom_site_symmetry_multiplicity
 _atom_site_fract_x
 _atom_site_fract_y
 _atom_site_fract_z
 _atom_site_occupancy
  Li  Li0  1  0.250000  0.634154  0.559670  1
  Li  Li1  1  0.750000  0.365846  0.440330  1
  Li  Li2  1  0.750000  0.872667  0.059443  1
  Li  Li3  1  0.250000  0.127333  0.940557  1
  Tb  Tb4  1  0.250000  0.542463  0.183631  1
  Tb  Tb5  1  0.750000  0.457537  0.816369  1
  Lu  Lu6  1  0.750000  0.957984  0.678202  1
  Lu  Lu7  1  0.250000  0.042016  0.321798  1
  Pt  Pt8  1  0.250000  0.752561  0.874374  1
  Pt  Pt9  1  0.750000  0.247439  0.125626  1
  Pt  Pt10  1  0.750000  0.758253  0.380274  1
  Pt  Pt11  1  0.250000  0.241747  0.619726  1
