# generated using pymatgen
data_Dy4Fe4P12Ru5Rh11
_symmetry_space_group_name_H-M   'P 1'
_cell_length_a   3.84849500
_cell_length_b   10.72008495
_cell_length_c   12.36688051
_cell_angle_alpha   90.15273288
_cell_angle_beta   90.00000000
_cell_angle_gamma   90.00000000
_symmetry_Int_Tables_number   1
_chemical_formula_structural   Dy4Fe4P12Ru5Rh11
_chemical_formula_sum   'Dy4 Fe4 P12 Ru5 Rh11'
_cell_volume   510.20860011
_cell_formula_units_Z   1
loop_
 _symmetry_equiv_pos_site_id
 _symmetry_equiv_pos_as_xyz
  1  'x, y, z'
loop_
 _atom_site_type_symbol
 _atom_site_label
 _atom_site_symmetry_multiplicity
 _atom_site_fract_x
 _atom_site_fract_y
 _atom_site_fract_z
 _atom_site_occupancy
  Dy  Dy0  1  0.250000  0.583974  0.706797  1
  Dy  Dy1  1  0.250000  0.915719  0.208252  1
  Dy  Dy2  1  0.750000  0.415560  0.293312  1
  Dy  Dy3  1  0.750000  0.084709  0.791883  1
  Fe  Fe4  1  0.250000  0.463148  0.934565  1
  Fe  Fe5  1  0.250000  0.036915  0.434853  1
  Fe  Fe6  1  0.750000  0.537022  0.064943  1
  Fe  Fe7  1  0.750000  0.962689  0.564528  1
  P  P8  1  0.250000  0.426938  0.106233  1
  P  P9  1  0.250000  0.072648  0.606068  1
  P  P10  1  0.750000  0.572764  0.893409  1
  P  P11  1  0.750000  0.927008  0.393304  1
  P  P12  1  0.250000  0.271637  0.872073  1
  P  P13  1  0.250000  0.230891  0.374728  1
  P  P14  1  0.750000  0.728420  0.127813  1
  P  P15  1  0.750000  0.771721  0.627662  1
  P  P16  1  0.250000  0.597581  0.391774  1
  P  P17  1  0.250000  0.898951  0.890475  1
  P  P18  1  0.750000  0.399652  0.605895  1
  P  P19  1  0.750000  0.101695  0.109930  1
  Ru  Ru20  1  0.250000  0.712719  0.989405  1
  Ru  Ru21  1  0.250000  0.787358  0.488348  1
  Ru  Ru22  1  0.750000  0.287222  0.009941  1
  Ru  Ru23  1  0.750000  0.210888  0.511858  1
  Ru  Ru24  1  0.250000  0.406279  0.487994  1
  Rh  Rh25  1  0.250000  0.093112  0.985304  1
  Rh  Rh26  1  0.750000  0.595580  0.514981  1
  Rh  Rh27  1  0.750000  0.907051  0.014883  1
  Rh  Rh28  1  0.250000  0.231206  0.177948  1
  Rh  Rh29  1  0.250000  0.267328  0.678381  1
  Rh  Rh30  1  0.750000  0.768982  0.822413  1
  Rh  Rh31  1  0.750000  0.731605  0.321518  1
  Rh  Rh32  1  0.250000  0.886550  0.701324  1
  Rh  Rh33  1  0.250000  0.613106  0.201873  1
  Rh  Rh34  1  0.750000  0.113590  0.298639  1
  Rh  Rh35  1  0.750000  0.387782  0.796695  1
