# generated using pymatgen
data_TbCe6Nd13Rh16
_symmetry_space_group_name_H-M   'P 1'
_cell_length_a   7.59009466
_cell_length_b   7.66522060
_cell_length_c   14.58055800
_cell_angle_alpha   90.00200324
_cell_angle_beta   89.47333091
_cell_angle_gamma   89.93729276
_symmetry_Int_Tables_number   1
_chemical_formula_structural   TbCe6Nd13Rh16
_chemical_formula_sum   'Tb1 Ce6 Nd13 Rh16'
_cell_volume   848.25687144
_cell_formula_units_Z   1
loop_
 _symmetry_equiv_pos_site_id
 _symmetry_equiv_pos_as_xyz
  1  'x, y, z'
loop_
 _atom_site_type_symbol
 _atom_site_label
 _atom_site_symmetry_multiplicity
 _atom_site_fract_x
 _atom_site_fract_y
 _atom_site_fract_z
 _atom_site_occupancy
  Tb  Tb0  1  0.665126  0.160919  0.621719  1
  Ce  Ce1  1  0.160334  0.341924  0.881981  1
  Ce  Ce2  1  0.340275  0.844024  0.119425  1
  Ce  Ce3  1  0.835167  0.657673  0.376638  1
  Ce  Ce4  1  0.335258  0.842472  0.376647  1
  Ce  Ce5  1  0.839608  0.657445  0.119373  1
  Ce  Ce6  1  0.659602  0.159136  0.880857  1
  Nd  Nd7  1  0.166402  0.336644  0.620974  1
  Nd  Nd8  1  0.511282  0.682166  0.592694  1
  Nd  Nd9  1  0.006629  0.821899  0.905812  1
  Nd  Nd10  1  0.494521  0.322020  0.093545  1
  Nd  Nd11  1  0.988798  0.181649  0.407652  1
  Nd  Nd12  1  0.490445  0.318467  0.408754  1
  Nd  Nd13  1  0.993737  0.179033  0.093830  1
  Nd  Nd14  1  0.507387  0.679340  0.905922  1
  Nd  Nd15  1  0.008280  0.819807  0.592744  1
  Nd  Nd16  1  0.818756  0.511654  0.749088  1
  Nd  Nd17  1  0.318381  0.986644  0.749410  1
  Nd  Nd18  1  0.184680  0.485008  0.249197  1
  Nd  Nd19  1  0.684068  0.015572  0.249349  1
  Rh  Rh20  1  0.683881  0.950013  0.457545  1
  Rh  Rh21  1  0.183015  0.541845  0.038086  1
  Rh  Rh22  1  0.317272  0.041194  0.963660  1
  Rh  Rh23  1  0.815902  0.469328  0.533052  1
  Rh  Rh24  1  0.322557  0.025439  0.533445  1
  Rh  Rh25  1  0.817730  0.462318  0.964415  1
  Rh  Rh26  1  0.682319  0.960936  0.037287  1
  Rh  Rh27  1  0.179881  0.551137  0.455265  1
  Rh  Rh28  1  0.460781  0.364879  0.760973  1
  Rh  Rh29  1  0.954431  0.131329  0.760218  1
  Rh  Rh30  1  0.538495  0.641027  0.246425  1
  Rh  Rh31  1  0.038344  0.859519  0.244993  1
  Rh  Rh32  1  0.696949  0.870700  0.752611  1
  Rh  Rh33  1  0.200149  0.627061  0.755923  1
  Rh  Rh34  1  0.300217  0.118399  0.250074  1
  Rh  Rh35  1  0.799338  0.381380  0.250420  1
