# generated using pymatgen
data_Tb3HoGa12Au
_symmetry_space_group_name_H-M   'P 1'
_cell_length_a   7.56125645
_cell_length_b   7.53941648
_cell_length_c   7.53941711
_cell_angle_alpha   109.41245873
_cell_angle_beta   109.52990708
_cell_angle_gamma   109.52990933
_symmetry_Int_Tables_number   1
_chemical_formula_structural   Tb3HoGa12Au
_chemical_formula_sum   'Tb3 Ho1 Ga12 Au1'
_cell_volume   330.62262842
_cell_formula_units_Z   1
loop_
 _symmetry_equiv_pos_site_id
 _symmetry_equiv_pos_as_xyz
  1  'x, y, z'
loop_
 _atom_site_type_symbol
 _atom_site_label
 _atom_site_symmetry_multiplicity
 _atom_site_fract_x
 _atom_site_fract_y
 _atom_site_fract_z
 _atom_site_occupancy
  Tb  Tb0  1  0.000000  0.000000  0.500000  1
  Tb  Tb1  1  0.000000  0.500000  0.000000  1
  Tb  Tb2  1  0.500000  0.500000  0.500000  1
  Ho  Ho3  1  0.500000  0.000000  0.000000  1
  Ga  Ga4  1  0.749617  0.249617  0.499233  1
  Ga  Ga5  1  0.749617  0.499233  0.249617  1
  Ga  Ga6  1  0.500000  0.249617  0.750383  1
  Ga  Ga7  1  0.250383  0.500767  0.750383  1
  Ga  Ga8  1  0.250383  0.750383  0.500767  1
  Ga  Ga9  1  0.500000  0.750383  0.249617  1
  Ga  Ga10  1  0.695289  0.695631  0.000000  1
  Ga  Ga11  1  0.304711  0.000000  0.304369  1
  Ga  Ga12  1  0.999658  0.304369  0.304369  1
  Ga  Ga13  1  0.304711  0.304369  0.000000  1
  Ga  Ga14  1  0.695289  0.000000  0.695631  1
  Ga  Ga15  1  0.000342  0.695631  0.695631  1
  Au  Au16  1  0.000000  0.000000  0.000000  1
