# generated using pymatgen
data_La3Nd2P12Ru15Rh4
_symmetry_space_group_name_H-M   'P 1'
_cell_length_a   12.72348562
_cell_length_b   12.69970449
_cell_length_c   4.02568500
_cell_angle_alpha   90.00000000
_cell_angle_beta   90.00000000
_cell_angle_gamma   120.07824880
_symmetry_Int_Tables_number   1
_chemical_formula_structural   La3Nd2P12Ru15Rh4
_chemical_formula_sum   'La3 Nd2 P12 Ru15 Rh4'
_cell_volume   562.89470595
_cell_formula_units_Z   1
loop_
 _symmetry_equiv_pos_site_id
 _symmetry_equiv_pos_as_xyz
  1  'x, y, z'
loop_
 _atom_site_type_symbol
 _atom_site_label
 _atom_site_symmetry_multiplicity
 _atom_site_fract_x
 _atom_site_fract_y
 _atom_site_fract_z
 _atom_site_occupancy
  La  La0  1  0.000899  0.182548  0.500000  1
  La  La1  1  0.817634  0.815963  0.500000  1
  La  La2  1  0.182323  0.999558  0.500000  1
  Nd  Nd3  1  0.666628  0.333228  0.000000  1
  Nd  Nd4  1  0.333472  0.666970  0.000000  1
  P  P5  1  0.999675  0.809437  0.000000  1
  P  P6  1  0.190054  0.190082  0.000000  1
  P  P7  1  0.810744  0.996738  0.000000  1
  P  P8  1  0.693116  0.172757  0.500000  1
  P  P9  1  0.824156  0.521840  0.500000  1
  P  P10  1  0.476854  0.302464  0.500000  1
  P  P11  1  0.176458  0.699093  0.500000  1
  P  P12  1  0.522974  0.824717  0.500000  1
  P  P13  1  0.301996  0.477946  0.500000  1
  P  P14  1  0.003744  0.376595  0.000000  1
  P  P15  1  0.626034  0.626315  0.000000  1
  P  P16  1  0.373714  0.000228  0.000000  1
  Ru  Ru17  1  0.999925  0.710758  0.500000  1
  Ru  Ru18  1  0.288589  0.289165  0.500000  1
  Ru  Ru19  1  0.712863  0.001266  0.500000  1
  Ru  Ru20  1  0.814256  0.619433  0.000000  1
  Ru  Ru21  1  0.379376  0.194734  0.000000  1
  Ru  Ru22  1  0.185409  0.804935  0.000000  1
  Ru  Ru23  1  0.619920  0.816025  0.000000  1
  Ru  Ru24  1  0.195325  0.380448  0.000000  1
  Ru  Ru25  1  0.874010  0.365523  0.500000  1
  Ru  Ru26  1  0.631359  0.507435  0.500000  1
  Ru  Ru27  1  0.490795  0.124259  0.500000  1
  Ru  Ru28  1  0.369815  0.877026  0.500000  1
  Ru  Ru29  1  0.508151  0.631878  0.500000  1
  Ru  Ru30  1  0.123073  0.492558  0.500000  1
  Ru  Ru31  1  0.000287  0.000198  0.000000  1
  Rh  Rh32  1  0.997042  0.551683  0.000000  1
  Rh  Rh33  1  0.446632  0.446956  0.000000  1
  Rh  Rh34  1  0.554917  0.003685  0.000000  1
  Rh  Rh35  1  0.807780  0.185556  0.000000  1
