# generated using pymatgen
data_NdGaSnI6
_symmetry_space_group_name_H-M   'P 1'
_cell_length_a   8.71971920
_cell_length_b   8.71986164
_cell_length_c   8.71964672
_cell_angle_alpha   55.00520041
_cell_angle_beta   55.00678323
_cell_angle_gamma   55.00527195
_symmetry_Int_Tables_number   1
_chemical_formula_structural   NdGaSnI6
_chemical_formula_sum   'Nd1 Ga1 Sn1 I6'
_cell_volume   414.33419176
_cell_formula_units_Z   1
loop_
 _symmetry_equiv_pos_site_id
 _symmetry_equiv_pos_as_xyz
  1  'x, y, z'
loop_
 _atom_site_type_symbol
 _atom_site_label
 _atom_site_symmetry_multiplicity
 _atom_site_fract_x
 _atom_site_fract_y
 _atom_site_fract_z
 _atom_site_occupancy
  Nd  Nd0  1  0.999781  0.999789  0.999786  1
  Ga  Ga1  1  0.669607  0.669600  0.669609  1
  Sn  Sn2  1  0.331034  0.331035  0.331036  1
  I  I3  1  0.238788  0.597390  0.922144  1
  I  I4  1  0.597377  0.922164  0.238787  1
  I  I5  1  0.922161  0.238791  0.597372  1
  I  I6  1  0.751353  0.392697  0.097200  1
  I  I7  1  0.392702  0.097189  0.751355  1
  I  I8  1  0.097198  0.751345  0.392710  1
