# generated using pymatgen
data_Gd2Dy(MgAg)3
_symmetry_space_group_name_H-M   'P 1'
_cell_length_a   7.65088753
_cell_length_b   7.65925663
_cell_length_c   4.29490800
_cell_angle_alpha   90.00000000
_cell_angle_beta   90.00000000
_cell_angle_gamma   120.03619052
_symmetry_Int_Tables_number   1
_chemical_formula_structural   Gd2Dy(MgAg)3
_chemical_formula_sum   'Gd2 Dy1 Mg3 Ag3'
_cell_volume   217.88354967
_cell_formula_units_Z   1
loop_
 _symmetry_equiv_pos_site_id
 _symmetry_equiv_pos_as_xyz
  1  'x, y, z'
loop_
 _atom_site_type_symbol
 _atom_site_label
 _atom_site_symmetry_multiplicity
 _atom_site_fract_x
 _atom_site_fract_y
 _atom_site_fract_z
 _atom_site_occupancy
  Gd  Gd0  1  0.413555  0.413684  0.500000  1
  Gd  Gd1  1  0.586445  0.000129  0.500000  1
  Dy  Dy2  1  0.000000  0.586377  0.500000  1
  Mg  Mg3  1  0.755925  0.755635  0.000000  1
  Mg  Mg4  1  0.244075  0.999710  0.000000  1
  Mg  Mg5  1  0.000000  0.244497  0.000000  1
  Ag  Ag6  1  0.667192  0.333803  0.000000  1
  Ag  Ag7  1  0.332808  0.666611  0.000000  1
  Ag  Ag8  1  0.000000  0.999553  0.500000  1
