# generated using pymatgen
data_SmTh5Ir18
_symmetry_space_group_name_H-M   'P 1'
_cell_length_a   5.37758100
_cell_length_b   5.37758059
_cell_length_c   17.76498200
_cell_angle_alpha   90.00000000
_cell_angle_beta   90.00000000
_cell_angle_gamma   120.00000865
_symmetry_Int_Tables_number   1
_chemical_formula_structural   SmTh5Ir18
_chemical_formula_sum   'Sm1 Th5 Ir18'
_cell_volume   444.90701581
_cell_formula_units_Z   1
loop_
 _symmetry_equiv_pos_site_id
 _symmetry_equiv_pos_as_xyz
  1  'x, y, z'
loop_
 _atom_site_type_symbol
 _atom_site_label
 _atom_site_symmetry_multiplicity
 _atom_site_fract_x
 _atom_site_fract_y
 _atom_site_fract_z
 _atom_site_occupancy
  Sm  Sm0  1  0.333333  0.666667  0.541435  1
  Th  Th1  1  0.333333  0.666667  0.956606  1
  Th  Th2  1  0.666667  0.333333  0.042707  1
  Th  Th3  1  0.666667  0.333333  0.460149  1
  Th  Th4  1  0.333333  0.666667  0.746375  1
  Th  Th5  1  0.666667  0.333333  0.251482  1
  Ir  Ir6  1  0.167113  0.832887  0.373865  1
  Ir  Ir7  1  0.167113  0.334226  0.373865  1
  Ir  Ir8  1  0.665774  0.832887  0.373865  1
  Ir  Ir9  1  0.833150  0.166850  0.626540  1
  Ir  Ir10  1  0.833150  0.666299  0.626540  1
  Ir  Ir11  1  0.333701  0.166850  0.626540  1
  Ir  Ir12  1  0.832906  0.167094  0.872237  1
  Ir  Ir13  1  0.832906  0.665810  0.872237  1
  Ir  Ir14  1  0.334190  0.167094  0.872237  1
  Ir  Ir15  1  0.167140  0.832860  0.127511  1
  Ir  Ir16  1  0.167140  0.334281  0.127511  1
  Ir  Ir17  1  0.665719  0.832860  0.127511  1
  Ir  Ir18  1  0.333333  0.666667  0.250454  1
  Ir  Ir19  1  0.666667  0.333333  0.749373  1
  Ir  Ir20  1  0.000000  0.000000  0.250805  1
  Ir  Ir21  1  0.000000  0.000000  0.749481  1
  Ir  Ir22  1  0.000000  0.000000  0.500671  1
  Ir  Ir23  1  0.000000  0.000000  0.000001  1
