# generated using pymatgen
data_Y4MgIn3Rh8
_symmetry_space_group_name_H-M   'P 1'
_cell_length_a   6.37571024
_cell_length_b   6.37567216
_cell_length_c   7.18372101
_cell_angle_alpha   89.99682459
_cell_angle_beta   89.99645948
_cell_angle_gamma   89.99712432
_symmetry_Int_Tables_number   1
_chemical_formula_structural   Y4MgIn3Rh8
_chemical_formula_sum   'Y4 Mg1 In3 Rh8'
_cell_volume   292.01422255
_cell_formula_units_Z   1
loop_
 _symmetry_equiv_pos_site_id
 _symmetry_equiv_pos_as_xyz
  1  'x, y, z'
loop_
 _atom_site_type_symbol
 _atom_site_label
 _atom_site_symmetry_multiplicity
 _atom_site_fract_x
 _atom_site_fract_y
 _atom_site_fract_z
 _atom_site_occupancy
  Y  Y0  1  0.750010  0.249991  0.999983  1
  Y  Y1  1  0.249990  0.750009  0.999980  1
  Y  Y2  1  0.749989  0.249992  0.499998  1
  Y  Y3  1  0.250011  0.750011  0.500005  1
  Mg  Mg4  1  0.749993  0.749994  0.999914  1
  In  In5  1  0.250004  0.250003  0.000078  1
  In  In6  1  0.750005  0.749996  0.499923  1
  In  In7  1  0.249995  0.250004  0.500098  1
  Rh  Rh8  1  0.500058  0.999931  0.249304  1
  Rh  Rh9  1  0.500058  0.500070  0.249315  1
  Rh  Rh10  1  0.999924  0.999925  0.249312  1
  Rh  Rh11  1  0.999927  0.500073  0.249316  1
  Rh  Rh12  1  0.999900  0.999900  0.750686  1
  Rh  Rh13  1  0.999921  0.500089  0.750686  1
  Rh  Rh14  1  0.500103  0.999907  0.750697  1
  Rh  Rh15  1  0.500115  0.500103  0.750707  1
