# generated using pymatgen
data_Sr3La(Si5Pt3)2
_symmetry_space_group_name_H-M   'P 1'
_cell_length_a   8.42370654
_cell_length_b   8.41209073
_cell_length_c   8.41209067
_cell_angle_alpha   137.95860166
_cell_angle_beta   105.20538238
_cell_angle_gamma   89.69657037
_symmetry_Int_Tables_number   1
_chemical_formula_structural   Sr3La(Si5Pt3)2
_chemical_formula_sum   'Sr3 La1 Si10 Pt6'
_cell_volume   368.27436124
_cell_formula_units_Z   1
loop_
 _symmetry_equiv_pos_site_id
 _symmetry_equiv_pos_as_xyz
  1  'x, y, z'
loop_
 _atom_site_type_symbol
 _atom_site_label
 _atom_site_symmetry_multiplicity
 _atom_site_fract_x
 _atom_site_fract_y
 _atom_site_fract_z
 _atom_site_occupancy
  Sr  Sr0  1  0.135955  0.372468  0.763486  1
  Sr  Sr1  1  0.391617  0.128212  0.263405  1
  Sr  Sr2  1  0.607239  0.870863  0.736375  1
  La  La3  1  0.864023  0.629197  0.234826  1
  Si  Si4  1  0.500063  0.750860  0.250816  1
  Si  Si5  1  0.500063  0.249247  0.749204  1
  Si  Si6  1  0.231739  0.980195  0.749736  1
  Si  Si7  1  0.768245  0.517915  0.749251  1
  Si  Si8  1  0.768245  0.018995  0.250331  1
  Si  Si9  1  0.231739  0.482004  0.251545  1
  Si  Si10  1  0.033119  0.886781  0.146338  1
  Si  Si11  1  0.966357  0.112557  0.853800  1
  Si  Si12  1  0.739701  0.387201  0.352500  1
  Si  Si13  1  0.261263  0.613374  0.647889  1
  Pt  Pt14  1  0.999299  0.748765  0.747611  1
  Pt  Pt15  1  0.999299  0.251689  0.250534  1
  Pt  Pt16  1  0.252633  0.864956  0.387678  1
  Pt  Pt17  1  0.748492  0.134875  0.613616  1
  Pt  Pt18  1  0.477125  0.365463  0.111662  1
  Pt  Pt19  1  0.523784  0.634386  0.889398  1
