# generated using pymatgen
data_Er8Sc2Ir5Pt
_symmetry_space_group_name_H-M   'P 1'
_cell_length_a   10.75996611
_cell_length_b   10.75636800
_cell_length_c   6.21409906
_cell_angle_alpha   90.00000000
_cell_angle_beta   90.01638550
_cell_angle_gamma   90.00000000
_symmetry_Int_Tables_number   1
_chemical_formula_structural   Er8Sc2Ir5Pt
_chemical_formula_sum   'Er16 Sc4 Ir10 Pt2'
_cell_volume   719.20833210
_cell_formula_units_Z   2
loop_
 _symmetry_equiv_pos_site_id
 _symmetry_equiv_pos_as_xyz
  1  'x, y, z'
loop_
 _atom_site_type_symbol
 _atom_site_label
 _atom_site_symmetry_multiplicity
 _atom_site_fract_x
 _atom_site_fract_y
 _atom_site_fract_z
 _atom_site_occupancy
  Er  Er0  1  0.288727  0.085910  0.375864  1
  Er  Er1  1  0.288727  0.914090  0.875864  1
  Er  Er2  1  0.707807  0.087753  0.874860  1
  Er  Er3  1  0.707807  0.912247  0.374860  1
  Er  Er4  1  0.583284  0.788094  0.877475  1
  Er  Er5  1  0.583284  0.211906  0.377475  1
  Er  Er6  1  0.413192  0.788545  0.376886  1
  Er  Er7  1  0.413192  0.211455  0.876886  1
  Er  Er8  1  0.211512  0.413738  0.623002  1
  Er  Er9  1  0.211512  0.586262  0.123002  1
  Er  Er10  1  0.788237  0.416169  0.122682  1
  Er  Er11  1  0.788237  0.583831  0.622682  1
  Er  Er12  1  0.915450  0.709761  0.126668  1
  Er  Er13  1  0.915450  0.290239  0.626668  1
  Er  Er14  1  0.088927  0.709530  0.622650  1
  Er  Er15  1  0.088927  0.290470  0.122650  1
  Sc  Sc16  1  0.003708  0.999653  0.500003  1
  Sc  Sc17  1  0.003708  0.000347  0.000003  1
  Sc  Sc18  1  0.499697  0.499840  0.000012  1
  Sc  Sc19  1  0.499697  0.500160  0.500012  1
  Ir  Ir20  1  0.147304  0.148373  0.749651  1
  Ir  Ir21  1  0.147304  0.851627  0.249651  1
  Ir  Ir22  1  0.649396  0.350627  0.750189  1
  Ir  Ir23  1  0.649396  0.649373  0.250189  1
  Ir  Ir24  1  0.351376  0.351321  0.249923  1
  Ir  Ir25  1  0.351376  0.648679  0.749923  1
  Ir  Ir26  1  0.500633  0.999923  0.122094  1
  Ir  Ir27  1  0.500633  0.000077  0.622094  1
  Ir  Ir28  1  0.999831  0.500145  0.877888  1
  Ir  Ir29  1  0.999831  0.499855  0.377888  1
  Pt  Pt30  1  0.850919  0.148307  0.250154  1
  Pt  Pt31  1  0.850919  0.851693  0.750154  1
