# generated using pymatgen
data_BaTbNpO6
_symmetry_space_group_name_H-M   'P 1'
_cell_length_a   5.84735000
_cell_length_b   5.84735117
_cell_length_c   5.75893100
_cell_angle_alpha   90.00000000
_cell_angle_beta   90.00000000
_cell_angle_gamma   119.99999336
_symmetry_Int_Tables_number   1
_chemical_formula_structural   BaTbNpO6
_chemical_formula_sum   'Ba1 Tb1 Np1 O6'
_cell_volume   170.52607761
_cell_formula_units_Z   1
loop_
 _symmetry_equiv_pos_site_id
 _symmetry_equiv_pos_as_xyz
  1  'x, y, z'
loop_
 _atom_site_type_symbol
 _atom_site_label
 _atom_site_symmetry_multiplicity
 _atom_site_fract_x
 _atom_site_fract_y
 _atom_site_fract_z
 _atom_site_occupancy
  Ba  Ba0  1  0.000000  0.000000  0.000000  1
  Tb  Tb1  1  0.333333  0.666667  0.500000  1
  Np  Np2  1  0.666667  0.333333  0.500000  1
  O  O3  1  0.390893  0.031440  0.695419  1
  O  O4  1  0.968560  0.359452  0.695419  1
  O  O5  1  0.640548  0.609107  0.695419  1
  O  O6  1  0.968560  0.609107  0.304581  1
  O  O7  1  0.640548  0.031440  0.304581  1
  O  O8  1  0.390893  0.359452  0.304581  1
