# generated using pymatgen
data_Sm12Si8Ni11Rh
_symmetry_space_group_name_H-M   'P 1'
_cell_length_a   5.66928354
_cell_length_b   7.43539666
_cell_length_c   14.53603700
_cell_angle_alpha   90.00000000
_cell_angle_beta   90.00000000
_cell_angle_gamma   90.04918725
_symmetry_Int_Tables_number   1
_chemical_formula_structural   Sm12Si8Ni11Rh
_chemical_formula_sum   'Sm12 Si8 Ni11 Rh1'
_cell_volume   612.74274798
_cell_formula_units_Z   1
loop_
 _symmetry_equiv_pos_site_id
 _symmetry_equiv_pos_as_xyz
  1  'x, y, z'
loop_
 _atom_site_type_symbol
 _atom_site_label
 _atom_site_symmetry_multiplicity
 _atom_site_fract_x
 _atom_site_fract_y
 _atom_site_fract_z
 _atom_site_occupancy
  Sm  Sm0  1  0.144263  0.478187  0.891317  1
  Sm  Sm1  1  0.355415  0.977216  0.891464  1
  Sm  Sm2  1  0.627654  0.348710  0.750000  1
  Sm  Sm3  1  0.376185  0.652451  0.250000  1
  Sm  Sm4  1  0.645673  0.023002  0.391441  1
  Sm  Sm5  1  0.855746  0.522111  0.108411  1
  Sm  Sm6  1  0.855746  0.522111  0.391589  1
  Sm  Sm7  1  0.355415  0.977216  0.608536  1
  Sm  Sm8  1  0.871290  0.849280  0.750000  1
  Sm  Sm9  1  0.144263  0.478187  0.608683  1
  Sm  Sm10  1  0.645673  0.023002  0.108559  1
  Sm  Sm11  1  0.131089  0.151807  0.250000  1
  Si  Si12  1  0.357638  0.364774  0.095158  1
  Si  Si13  1  0.642206  0.635089  0.903848  1
  Si  Si14  1  0.857837  0.136130  0.904408  1
  Si  Si15  1  0.357638  0.364774  0.404842  1
  Si  Si16  1  0.857837  0.136130  0.595592  1
  Si  Si17  1  0.642206  0.635089  0.596152  1
  Si  Si18  1  0.143093  0.863776  0.407369  1
  Si  Si19  1  0.143093  0.863776  0.092631  1
  Ni  Ni20  1  0.599520  0.343812  0.963339  1
  Ni  Ni21  1  0.401017  0.655343  0.034862  1
  Ni  Ni22  1  0.573170  0.309078  0.250000  1
  Ni  Ni23  1  0.401017  0.655343  0.465138  1
  Ni  Ni24  1  0.070883  0.191160  0.750000  1
  Ni  Ni25  1  0.099669  0.156571  0.464594  1
  Ni  Ni26  1  0.428491  0.690280  0.750000  1
  Ni  Ni27  1  0.099669  0.156571  0.035406  1
  Ni  Ni28  1  0.599520  0.343812  0.536661  1
  Ni  Ni29  1  0.899984  0.844356  0.537966  1
  Ni  Ni30  1  0.899984  0.844356  0.962034  1
  Rh  Rh31  1  0.917114  0.806502  0.250000  1
