# generated using pymatgen
data_Yb3CePt8
_symmetry_space_group_name_H-M   'P 1'
_cell_length_a   9.40371491
_cell_length_b   9.40371438
_cell_length_c   9.40371417
_cell_angle_alpha   33.58507540
_cell_angle_beta   33.58508281
_cell_angle_gamma   33.58507777
_symmetry_Int_Tables_number   1
_chemical_formula_structural   Yb3CePt8
_chemical_formula_sum   'Yb3 Ce1 Pt8'
_cell_volume   226.66557237
_cell_formula_units_Z   1
loop_
 _symmetry_equiv_pos_site_id
 _symmetry_equiv_pos_as_xyz
  1  'x, y, z'
loop_
 _atom_site_type_symbol
 _atom_site_label
 _atom_site_symmetry_multiplicity
 _atom_site_fract_x
 _atom_site_fract_y
 _atom_site_fract_z
 _atom_site_occupancy
  Yb  Yb0  1  0.374571  0.374571  0.374571  1
  Yb  Yb1  1  0.002186  0.002186  0.002186  1
  Yb  Yb2  1  0.497465  0.497465  0.497465  1
  Ce  Ce3  1  0.875180  0.875180  0.875180  1
  Pt  Pt4  1  0.438051  0.936540  0.438051  1
  Pt  Pt5  1  0.937736  0.437525  0.937736  1
  Pt  Pt6  1  0.438051  0.438051  0.936540  1
  Pt  Pt7  1  0.937736  0.937736  0.437525  1
  Pt  Pt8  1  0.187255  0.187255  0.187255  1
  Pt  Pt9  1  0.687702  0.687702  0.687702  1
  Pt  Pt10  1  0.936540  0.438051  0.438051  1
  Pt  Pt11  1  0.437525  0.937736  0.937736  1
