# generated using pymatgen
data_Pr2ZrIr3
_symmetry_space_group_name_H-M   'P 1'
_cell_length_a   5.85658355
_cell_length_b   5.41583584
_cell_length_c   5.85658300
_cell_angle_alpha   57.26933071
_cell_angle_beta   59.99999744
_cell_angle_gamma   57.26933166
_symmetry_Int_Tables_number   1
_chemical_formula_structural   Pr2ZrIr3
_chemical_formula_sum   'Pr2 Zr1 Ir3'
_cell_volume   125.66738143
_cell_formula_units_Z   1
loop_
 _symmetry_equiv_pos_site_id
 _symmetry_equiv_pos_as_xyz
  1  'x, y, z'
loop_
 _atom_site_type_symbol
 _atom_site_label
 _atom_site_symmetry_multiplicity
 _atom_site_fract_x
 _atom_site_fract_y
 _atom_site_fract_z
 _atom_site_occupancy
  Pr  Pr0  1  0.500524  0.498427  0.500524  1
  Pr  Pr1  1  0.749476  0.751573  0.749476  1
  Zr  Zr2  1  0.125000  0.625000  0.125000  1
  Ir  Ir3  1  0.625000  0.125000  0.125000  1
  Ir  Ir4  1  0.125000  0.125000  0.125000  1
  Ir  Ir5  1  0.125000  0.125000  0.625000  1
