# generated using pymatgen
data_Sc6Ga7Ni16
_symmetry_space_group_name_H-M   'P 1'
_cell_length_a   8.27916389
_cell_length_b   8.27466030
_cell_length_c   8.27536141
_cell_angle_alpha   60.04110306
_cell_angle_beta   60.04439758
_cell_angle_gamma   60.05154150
_symmetry_Int_Tables_number   1
_chemical_formula_structural   Sc6Ga7Ni16
_chemical_formula_sum   'Sc6 Ga7 Ni16'
_cell_volume   401.28973704
_cell_formula_units_Z   1
loop_
 _symmetry_equiv_pos_site_id
 _symmetry_equiv_pos_as_xyz
  1  'x, y, z'
loop_
 _atom_site_type_symbol
 _atom_site_label
 _atom_site_symmetry_multiplicity
 _atom_site_fract_x
 _atom_site_fract_y
 _atom_site_fract_z
 _atom_site_occupancy
  Sc  Sc0  1  0.715476  0.715624  0.284526  1
  Sc  Sc1  1  0.284462  0.715572  0.284419  1
  Sc  Sc2  1  0.715519  0.284356  0.284522  1
  Sc  Sc3  1  0.284524  0.284376  0.715474  1
  Sc  Sc4  1  0.715538  0.284428  0.715581  1
  Sc  Sc5  1  0.284481  0.715644  0.715478  1
  Ga  Ga6  1  0.000000  0.000000  0.000000  1
  Ga  Ga7  1  0.000000  0.000000  0.500000  1
  Ga  Ga8  1  0.500000  0.000000  0.500000  1
  Ga  Ga9  1  0.000000  0.500000  0.500000  1
  Ga  Ga10  1  0.500000  0.500000  0.000000  1
  Ga  Ga11  1  0.000000  0.500000  0.000000  1
  Ga  Ga12  1  0.500000  0.000000  0.000000  1
  Ni  Ni13  1  0.878623  0.878440  0.364416  1
  Ni  Ni14  1  0.878416  0.364444  0.878393  1
  Ni  Ni15  1  0.364369  0.878517  0.878186  1
  Ni  Ni16  1  0.878027  0.878580  0.878379  1
  Ni  Ni17  1  0.121377  0.121560  0.635584  1
  Ni  Ni18  1  0.121584  0.635556  0.121607  1
  Ni  Ni19  1  0.635631  0.121483  0.121814  1
  Ni  Ni20  1  0.121973  0.121420  0.121621  1
  Ni  Ni21  1  0.670034  0.669775  0.990733  1
  Ni  Ni22  1  0.669814  0.991028  0.669704  1
  Ni  Ni23  1  0.991186  0.669319  0.670005  1
  Ni  Ni24  1  0.669809  0.669437  0.669712  1
  Ni  Ni25  1  0.329966  0.330225  0.009267  1
  Ni  Ni26  1  0.330186  0.008972  0.330296  1
  Ni  Ni27  1  0.008814  0.330681  0.329995  1
  Ni  Ni28  1  0.330191  0.330563  0.330288  1
