# generated using pymatgen
data_YbPrSiRh3
_symmetry_space_group_name_H-M   'P 1'
_cell_length_a   5.06576402
_cell_length_b   5.06576372
_cell_length_c   5.06576395
_cell_angle_alpha   67.62043059
_cell_angle_beta   67.62042488
_cell_angle_gamma   67.62040693
_symmetry_Int_Tables_number   1
_chemical_formula_structural   YbPrSiRh3
_chemical_formula_sum   'Yb1 Pr1 Si1 Rh3'
_cell_volume   106.84306554
_cell_formula_units_Z   1
loop_
 _symmetry_equiv_pos_site_id
 _symmetry_equiv_pos_as_xyz
  1  'x, y, z'
loop_
 _atom_site_type_symbol
 _atom_site_label
 _atom_site_symmetry_multiplicity
 _atom_site_fract_x
 _atom_site_fract_y
 _atom_site_fract_z
 _atom_site_occupancy
  Yb  Yb0  1  0.631915  0.631915  0.631915  1
  Pr  Pr1  1  0.373153  0.373153  0.373153  1
  Si  Si2  1  0.000411  0.000411  0.000411  1
  Rh  Rh3  1  0.996607  0.996607  0.501306  1
  Rh  Rh4  1  0.501306  0.996607  0.996607  1
  Rh  Rh5  1  0.996607  0.501306  0.996607  1
