# generated using pymatgen
data_YbDy3VTc3B16
_symmetry_space_group_name_H-M   'P 1'
_cell_length_a   3.56780400
_cell_length_b   5.97652924
_cell_length_c   11.55601704
_cell_angle_alpha   89.83531308
_cell_angle_beta   90.00000000
_cell_angle_gamma   90.00000000
_symmetry_Int_Tables_number   1
_chemical_formula_structural   YbDy3VTc3B16
_chemical_formula_sum   'Yb1 Dy3 V1 Tc3 B16'
_cell_volume   246.40891494
_cell_formula_units_Z   1
loop_
 _symmetry_equiv_pos_site_id
 _symmetry_equiv_pos_as_xyz
  1  'x, y, z'
loop_
 _atom_site_type_symbol
 _atom_site_label
 _atom_site_symmetry_multiplicity
 _atom_site_fract_x
 _atom_site_fract_y
 _atom_site_fract_z
 _atom_site_occupancy
  Yb  Yb0  1  0.000000  0.625530  0.350826  1
  Dy  Dy1  1  0.000000  0.374970  0.647957  1
  Dy  Dy2  1  0.000000  0.127489  0.153150  1
  Dy  Dy3  1  0.000000  0.872602  0.847150  1
  V  V4  1  0.000000  0.873100  0.581400  1
  Tc  Tc5  1  0.000000  0.632619  0.084702  1
  Tc  Tc6  1  0.000000  0.368387  0.915323  1
  Tc  Tc7  1  0.000000  0.126792  0.417266  1
  B  B8  1  0.500000  0.783964  0.186329  1
  B  B9  1  0.500000  0.215165  0.814399  1
  B  B10  1  0.500000  0.285250  0.315769  1
  B  B11  1  0.500000  0.713623  0.684639  1
  B  B12  1  0.500000  0.864275  0.031948  1
  B  B13  1  0.500000  0.135763  0.968326  1
  B  B14  1  0.500000  0.364571  0.467492  1
  B  B15  1  0.500000  0.634775  0.532696  1
  B  B16  1  0.500000  0.885331  0.453079  1
  B  B17  1  0.500000  0.113323  0.546837  1
  B  B18  1  0.500000  0.387238  0.047737  1
  B  B19  1  0.500000  0.613349  0.952433  1
  B  B20  1  0.500000  0.977805  0.308017  1
  B  B21  1  0.500000  0.023738  0.692310  1
  B  B22  1  0.500000  0.476887  0.193139  1
  B  B23  1  0.500000  0.523456  0.807078  1
