# generated using pymatgen
data_Hf18FeCo(Re3W)2
_symmetry_space_group_name_H-M   'P 1'
_cell_length_a   8.61916400
_cell_length_b   8.61916265
_cell_length_c   8.43971900
_cell_angle_alpha   90.00000000
_cell_angle_beta   90.00000000
_cell_angle_gamma   119.99999751
_symmetry_Int_Tables_number   1
_chemical_formula_structural   Hf18FeCo(Re3W)2
_chemical_formula_sum   'Hf18 Fe1 Co1 Re6 W2'
_cell_volume   542.98627245
_cell_formula_units_Z   1
loop_
 _symmetry_equiv_pos_site_id
 _symmetry_equiv_pos_as_xyz
  1  'x, y, z'
loop_
 _atom_site_type_symbol
 _atom_site_label
 _atom_site_symmetry_multiplicity
 _atom_site_fract_x
 _atom_site_fract_y
 _atom_site_fract_z
 _atom_site_occupancy
  Hf  Hf0  1  0.201034  0.798966  0.441006  1
  Hf  Hf1  1  0.201034  0.402070  0.441006  1
  Hf  Hf2  1  0.597930  0.798966  0.441006  1
  Hf  Hf3  1  0.799759  0.200241  0.558975  1
  Hf  Hf4  1  0.799759  0.599517  0.558975  1
  Hf  Hf5  1  0.400483  0.200241  0.558975  1
  Hf  Hf6  1  0.799759  0.200241  0.941025  1
  Hf  Hf7  1  0.799759  0.599517  0.941025  1
  Hf  Hf8  1  0.400483  0.200241  0.941025  1
  Hf  Hf9  1  0.201034  0.798966  0.058994  1
  Hf  Hf10  1  0.201034  0.402070  0.058994  1
  Hf  Hf11  1  0.597930  0.798966  0.058994  1
  Hf  Hf12  1  0.540775  0.459225  0.250000  1
  Hf  Hf13  1  0.540775  0.081550  0.250000  1
  Hf  Hf14  1  0.918450  0.459225  0.250000  1
  Hf  Hf15  1  0.458753  0.541247  0.750000  1
  Hf  Hf16  1  0.458753  0.917506  0.750000  1
  Hf  Hf17  1  0.082494  0.541247  0.750000  1
  Fe  Fe18  1  0.333333  0.666667  0.250000  1
  Co  Co19  1  0.666667  0.333333  0.750000  1
  Re  Re20  1  0.887891  0.112109  0.250000  1
  Re  Re21  1  0.887891  0.775784  0.250000  1
  Re  Re22  1  0.224216  0.112109  0.250000  1
  Re  Re23  1  0.112012  0.887988  0.750000  1
  Re  Re24  1  0.112012  0.224023  0.750000  1
  Re  Re25  1  0.775977  0.887988  0.750000  1
  W  W26  1  0.000000  0.000000  0.499428  1
  W  W27  1  0.000000  0.000000  0.000572  1
