# generated using pymatgen
data_Y3Er17Cd3Hg3Ru2
_symmetry_space_group_name_H-M   'P 1'
_cell_length_a   9.53199900
_cell_length_b   9.53199901
_cell_length_c   9.71282300
_cell_angle_alpha   90.00000000
_cell_angle_beta   90.00000000
_cell_angle_gamma   120.00000345
_symmetry_Int_Tables_number   1
_chemical_formula_structural   Y3Er17Cd3Hg3Ru2
_chemical_formula_sum   'Y3 Er17 Cd3 Hg3 Ru2'
_cell_volume   764.26516948
_cell_formula_units_Z   1
loop_
 _symmetry_equiv_pos_site_id
 _symmetry_equiv_pos_as_xyz
  1  'x, y, z'
loop_
 _atom_site_type_symbol
 _atom_site_label
 _atom_site_symmetry_multiplicity
 _atom_site_fract_x
 _atom_site_fract_y
 _atom_site_fract_z
 _atom_site_occupancy
  Y  Y0  1  0.459046  0.540954  0.750000  1
  Y  Y1  1  0.459046  0.918092  0.750000  1
  Y  Y2  1  0.081908  0.540954  0.750000  1
  Er  Er3  1  0.000000  0.000000  0.491639  1
  Er  Er4  1  0.000000  0.000000  0.008361  1
  Er  Er5  1  0.209344  0.790656  0.439286  1
  Er  Er6  1  0.209344  0.418688  0.439286  1
  Er  Er7  1  0.581312  0.790656  0.439286  1
  Er  Er8  1  0.790367  0.209633  0.559186  1
  Er  Er9  1  0.790367  0.580734  0.559186  1
  Er  Er10  1  0.419266  0.209633  0.559186  1
  Er  Er11  1  0.790367  0.209633  0.940814  1
  Er  Er12  1  0.790367  0.580734  0.940814  1
  Er  Er13  1  0.419266  0.209633  0.940814  1
  Er  Er14  1  0.209344  0.790656  0.060714  1
  Er  Er15  1  0.209344  0.418688  0.060714  1
  Er  Er16  1  0.581312  0.790656  0.060714  1
  Er  Er17  1  0.541205  0.458795  0.250000  1
  Er  Er18  1  0.541205  0.082411  0.250000  1
  Er  Er19  1  0.917589  0.458795  0.250000  1
  Cd  Cd20  1  0.113086  0.886914  0.750000  1
  Cd  Cd21  1  0.113086  0.226172  0.750000  1
  Cd  Cd22  1  0.773828  0.886914  0.750000  1
  Hg  Hg23  1  0.879798  0.120202  0.250000  1
  Hg  Hg24  1  0.879798  0.759597  0.250000  1
  Hg  Hg25  1  0.240403  0.120202  0.250000  1
  Ru  Ru26  1  0.333333  0.666667  0.250000  1
  Ru  Ru27  1  0.666667  0.333333  0.750000  1
