# generated using pymatgen
data_CsCr2FeO8
_symmetry_space_group_name_H-M   'P 1'
_cell_length_a   5.55943001
_cell_length_b   9.77312249
_cell_length_c   9.10074422
_cell_angle_alpha   66.68434240
_cell_angle_beta   90.00036657
_cell_angle_gamma   106.52588029
_symmetry_Int_Tables_number   1
_chemical_formula_structural   CsCr2FeO8
_chemical_formula_sum   'Cs2 Cr4 Fe2 O16'
_cell_volume   431.75972303
_cell_formula_units_Z   2
loop_
 _symmetry_equiv_pos_site_id
 _symmetry_equiv_pos_as_xyz
  1  'x, y, z'
loop_
 _atom_site_type_symbol
 _atom_site_label
 _atom_site_symmetry_multiplicity
 _atom_site_fract_x
 _atom_site_fract_y
 _atom_site_fract_z
 _atom_site_occupancy
  Cs  Cs0  1  0.499970  0.999923  0.500027  1
  Cs  Cs1  1  0.000013  0.000040  0.000017  1
  Cr  Cr2  1  0.654194  0.308444  0.978640  1
  Cr  Cr3  1  0.154311  0.308540  0.478476  1
  Cr  Cr4  1  0.845787  0.691580  0.521286  1
  Cr  Cr5  1  0.345803  0.691560  0.021358  1
  Fe  Fe6  1  0.750009  0.499987  0.250033  1
  Fe  Fe7  1  0.249978  0.499976  0.750019  1
  O  O8  1  0.563335  0.126697  0.110660  1
  O  O9  1  0.063417  0.126809  0.610294  1
  O  O10  1  0.936632  0.873281  0.389358  1
  O  O11  1  0.436612  0.873231  0.889690  1
  O  O12  1  0.714988  0.429986  0.069601  1
  O  O13  1  0.214826  0.429668  0.569663  1
  O  O14  1  0.785018  0.570030  0.430415  1
  O  O15  1  0.285178  0.570338  0.930399  1
  O  O16  1  0.917491  0.337364  0.863696  1
  O  O17  1  0.417249  0.337371  0.363712  1
  O  O18  1  0.582490  0.662594  0.636307  1
  O  O19  1  0.082709  0.662619  0.136325  1
  O  O20  1  0.419822  0.337343  0.863707  1
  O  O21  1  0.920093  0.337352  0.363716  1
  O  O22  1  0.080115  0.662615  0.636302  1
  O  O23  1  0.579962  0.662652  0.136299  1
