# generated using pymatgen
data_Hf4Re4MoW3
_symmetry_space_group_name_H-M   'P 1'
_cell_length_a   5.33494405
_cell_length_b   5.32389572
_cell_length_c   8.74023500
_cell_angle_alpha   90.00000000
_cell_angle_beta   90.00000000
_cell_angle_gamma   120.05296200
_symmetry_Int_Tables_number   1
_chemical_formula_structural   Hf4Re4MoW3
_chemical_formula_sum   'Hf4 Re4 Mo1 W3'
_cell_volume   214.87264460
_cell_formula_units_Z   1
loop_
 _symmetry_equiv_pos_site_id
 _symmetry_equiv_pos_as_xyz
  1  'x, y, z'
loop_
 _atom_site_type_symbol
 _atom_site_label
 _atom_site_symmetry_multiplicity
 _atom_site_fract_x
 _atom_site_fract_y
 _atom_site_fract_z
 _atom_site_occupancy
  Hf  Hf0  1  0.332945  0.666403  0.058206  1
  Hf  Hf1  1  0.667314  0.333801  0.558835  1
  Hf  Hf2  1  0.667314  0.333801  0.941165  1
  Hf  Hf3  1  0.332945  0.666403  0.441794  1
  Re  Re4  1  0.999405  0.001284  0.000360  1
  Re  Re5  1  0.999405  0.001284  0.499640  1
  Re  Re6  1  0.828884  0.170333  0.250000  1
  Re  Re7  1  0.171340  0.342097  0.750000  1
  Mo  Mo8  1  0.339562  0.168079  0.250000  1
  W  W9  1  0.830110  0.658339  0.250000  1
  W  W10  1  0.169622  0.828870  0.750000  1
  W  W11  1  0.661155  0.829305  0.750000  1
