# generated using pymatgen
data_Ce4ReOs7
_symmetry_space_group_name_H-M   'P 1'
_cell_length_a   5.27408989
_cell_length_b   5.27409013
_cell_length_c   9.02327500
_cell_angle_alpha   90.00000000
_cell_angle_beta   90.00000000
_cell_angle_gamma   117.06665385
_symmetry_Int_Tables_number   1
_chemical_formula_structural   Ce4ReOs7
_chemical_formula_sum   'Ce4 Re1 Os7'
_cell_volume   223.50248467
_cell_formula_units_Z   1
loop_
 _symmetry_equiv_pos_site_id
 _symmetry_equiv_pos_as_xyz
  1  'x, y, z'
loop_
 _atom_site_type_symbol
 _atom_site_label
 _atom_site_symmetry_multiplicity
 _atom_site_fract_x
 _atom_site_fract_y
 _atom_site_fract_z
 _atom_site_occupancy
  Ce  Ce0  1  0.333613  0.666387  0.433175  1
  Ce  Ce1  1  0.663891  0.336109  0.569273  1
  Ce  Ce2  1  0.663891  0.336109  0.930727  1
  Ce  Ce3  1  0.333613  0.666387  0.066825  1
  Re  Re4  1  0.834208  0.165792  0.250000  1
  Os  Os5  1  0.995587  0.004413  0.501319  1
  Os  Os6  1  0.995587  0.004413  0.998681  1
  Os  Os7  1  0.833915  0.655674  0.250000  1
  Os  Os8  1  0.344326  0.166085  0.250000  1
  Os  Os9  1  0.172402  0.827598  0.750000  1
  Os  Os10  1  0.167326  0.338359  0.750000  1
  Os  Os11  1  0.661641  0.832674  0.750000  1
