# generated using pymatgen
data_Li4Tm3LuPt4
_symmetry_space_group_name_H-M   'P 1'
_cell_length_a   3.97794600
_cell_length_b   6.94035504
_cell_length_c   8.33822734
_cell_angle_alpha   89.87858564
_cell_angle_beta   90.00000000
_cell_angle_gamma   90.00000000
_symmetry_Int_Tables_number   1
_chemical_formula_structural   Li4Tm3LuPt4
_chemical_formula_sum   'Li4 Tm3 Lu1 Pt4'
_cell_volume   230.20424499
_cell_formula_units_Z   1
loop_
 _symmetry_equiv_pos_site_id
 _symmetry_equiv_pos_as_xyz
  1  'x, y, z'
loop_
 _atom_site_type_symbol
 _atom_site_label
 _atom_site_symmetry_multiplicity
 _atom_site_fract_x
 _atom_site_fract_y
 _atom_site_fract_z
 _atom_site_occupancy
  Li  Li0  1  0.250000  0.628567  0.559155  1
  Li  Li1  1  0.750000  0.371548  0.440286  1
  Li  Li2  1  0.750000  0.872876  0.059906  1
  Li  Li3  1  0.250000  0.127947  0.941014  1
  Tm  Tm4  1  0.250000  0.544512  0.179363  1
  Tm  Tm5  1  0.750000  0.454904  0.820989  1
  Tm  Tm6  1  0.750000  0.955223  0.678318  1
  Lu  Lu7  1  0.250000  0.044371  0.321355  1
  Pt  Pt8  1  0.250000  0.745662  0.875593  1
  Pt  Pt9  1  0.750000  0.253015  0.125874  1
  Pt  Pt10  1  0.750000  0.755980  0.374855  1
  Pt  Pt11  1  0.250000  0.245394  0.623293  1
