# generated using pymatgen
data_ScGaGeRh5
_symmetry_space_group_name_H-M   'P 1'
_cell_length_a   4.13883600
_cell_length_b   5.43863300
_cell_length_c   10.49364400
_cell_angle_alpha   90.00000000
_cell_angle_beta   90.00000000
_cell_angle_gamma   90.00000000
_symmetry_Int_Tables_number   1
_chemical_formula_structural   ScGaGeRh5
_chemical_formula_sum   'Sc2 Ga2 Ge2 Rh10'
_cell_volume   236.20783446
_cell_formula_units_Z   2
loop_
 _symmetry_equiv_pos_site_id
 _symmetry_equiv_pos_as_xyz
  1  'x, y, z'
loop_
 _atom_site_type_symbol
 _atom_site_label
 _atom_site_symmetry_multiplicity
 _atom_site_fract_x
 _atom_site_fract_y
 _atom_site_fract_z
 _atom_site_occupancy
  Sc  Sc0  1  0.500000  0.838169  0.361509  1
  Sc  Sc1  1  0.500000  0.338169  0.138491  1
  Ga  Ga2  1  0.500000  0.142080  0.642096  1
  Ga  Ga3  1  0.500000  0.642080  0.857904  1
  Ge  Ge4  1  0.000000  0.529657  0.497193  1
  Ge  Ge5  1  0.000000  0.029657  0.002807  1
  Rh  Rh6  1  0.000000  0.377176  0.727495  1
  Rh  Rh7  1  0.000000  0.086769  0.247558  1
  Rh  Rh8  1  0.000000  0.877176  0.772505  1
  Rh  Rh9  1  0.500000  0.829056  0.099856  1
  Rh  Rh10  1  0.500000  0.173516  0.885212  1
  Rh  Rh11  1  0.500000  0.673516  0.614788  1
  Rh  Rh12  1  0.000000  0.023578  0.513115  1
  Rh  Rh13  1  0.500000  0.329056  0.400144  1
  Rh  Rh14  1  0.000000  0.523578  0.986885  1
  Rh  Rh15  1  0.000000  0.586769  0.252442  1
