# generated using pymatgen
data_LiNd3Mg2Ag2Ir
_symmetry_space_group_name_H-M   'P 1'
_cell_length_a   7.85707992
_cell_length_b   7.93811336
_cell_length_c   4.02018900
_cell_angle_alpha   90.00000000
_cell_angle_beta   90.00000000
_cell_angle_gamma   120.47517685
_symmetry_Int_Tables_number   1
_chemical_formula_structural   LiNd3Mg2Ag2Ir
_chemical_formula_sum   'Li1 Nd3 Mg2 Ag2 Ir1'
_cell_volume   216.10066548
_cell_formula_units_Z   1
loop_
 _symmetry_equiv_pos_site_id
 _symmetry_equiv_pos_as_xyz
  1  'x, y, z'
loop_
 _atom_site_type_symbol
 _atom_site_label
 _atom_site_symmetry_multiplicity
 _atom_site_fract_x
 _atom_site_fract_y
 _atom_site_fract_z
 _atom_site_occupancy
  Li  Li0  1  0.245144  0.996547  0.500000  1
  Nd  Nd1  1  0.566228  0.971544  0.000000  1
  Nd  Nd2  1  0.028133  0.601468  0.000000  1
  Nd  Nd3  1  0.402000  0.429354  0.000000  1
  Mg  Mg4  1  0.000882  0.249819  0.500000  1
  Mg  Mg5  1  0.750270  0.754498  0.500000  1
  Ag  Ag6  1  0.668849  0.335912  0.500000  1
  Ag  Ag7  1  0.004226  0.000027  0.000000  1
  Ir  Ir8  1  0.334268  0.660831  0.500000  1
