# generated using pymatgen
data_Er5TcMoO12
_symmetry_space_group_name_H-M   'P 1'
_cell_length_a   6.76892673
_cell_length_b   6.76892659
_cell_length_c   7.45853498
_cell_angle_alpha   73.81703953
_cell_angle_beta   73.81703677
_cell_angle_gamma   50.20584068
_symmetry_Int_Tables_number   1
_chemical_formula_structural   Er5TcMoO12
_chemical_formula_sum   'Er5 Tc1 Mo1 O12'
_cell_volume   249.82827172
_cell_formula_units_Z   1
loop_
 _symmetry_equiv_pos_site_id
 _symmetry_equiv_pos_as_xyz
  1  'x, y, z'
loop_
 _atom_site_type_symbol
 _atom_site_label
 _atom_site_symmetry_multiplicity
 _atom_site_fract_x
 _atom_site_fract_y
 _atom_site_fract_z
 _atom_site_occupancy
  Er  Er0  1  0.314404  0.292314  0.360547  1
  Er  Er1  1  0.707686  0.685596  0.639453  1
  Er  Er2  1  0.317690  0.308928  0.823123  1
  Er  Er3  1  0.691072  0.682310  0.176877  1
  Er  Er4  1  0.008738  0.991262  0.500000  1
  Tc  Tc5  1  0.764344  0.235656  0.000000  1
  Mo  Mo6  1  0.208823  0.791177  0.000000  1
  O  O7  1  0.909898  0.432284  0.913838  1
  O  O8  1  0.418299  0.905376  0.914809  1
  O  O9  1  0.094624  0.581701  0.085191  1
  O  O10  1  0.567716  0.090102  0.086162  1
  O  O11  1  0.107158  0.589272  0.570652  1
  O  O12  1  0.599203  0.089032  0.576195  1
  O  O13  1  0.910968  0.400797  0.423805  1
  O  O14  1  0.410728  0.892842  0.429348  1
  O  O15  1  0.989695  0.006935  0.796319  1
  O  O16  1  0.993065  0.010305  0.203681  1
  O  O17  1  0.493202  0.507316  0.816438  1
  O  O18  1  0.492684  0.506798  0.183562  1
