# generated using pymatgen
data_Li2Ce3Nd(ZnIr2)2
_symmetry_space_group_name_H-M   'P 1'
_cell_length_a   3.99047200
_cell_length_b   7.03970311
_cell_length_c   8.46408001
_cell_angle_alpha   88.92277460
_cell_angle_beta   90.00000000
_cell_angle_gamma   90.00000000
_symmetry_Int_Tables_number   1
_chemical_formula_structural   Li2Ce3Nd(ZnIr2)2
_chemical_formula_sum   'Li2 Ce3 Nd1 Zn2 Ir4'
_cell_volume   237.72869646
_cell_formula_units_Z   1
loop_
 _symmetry_equiv_pos_site_id
 _symmetry_equiv_pos_as_xyz
  1  'x, y, z'
loop_
 _atom_site_type_symbol
 _atom_site_label
 _atom_site_symmetry_multiplicity
 _atom_site_fract_x
 _atom_site_fract_y
 _atom_site_fract_z
 _atom_site_occupancy
  Li  Li0  1  0.750000  0.376129  0.445144  1
  Li  Li1  1  0.750000  0.870129  0.050512  1
  Ce  Ce2  1  0.750000  0.453092  0.818537  1
  Ce  Ce3  1  0.750000  0.962511  0.684411  1
  Ce  Ce4  1  0.250000  0.047986  0.309789  1
  Nd  Nd5  1  0.250000  0.547498  0.186547  1
  Zn  Zn6  1  0.250000  0.627783  0.555988  1
  Zn  Zn7  1  0.250000  0.117636  0.943313  1
  Ir  Ir8  1  0.250000  0.735862  0.858835  1
  Ir  Ir9  1  0.750000  0.241041  0.125499  1
  Ir  Ir10  1  0.750000  0.774889  0.383716  1
  Ir  Ir11  1  0.250000  0.245443  0.637709  1
