# generated using pymatgen
data_Rb2Mg5Sb4
_symmetry_space_group_name_H-M   'P 1'
_cell_length_a   7.68476142
_cell_length_b   7.68476143
_cell_length_c   13.33646600
_cell_angle_alpha   90.00000000
_cell_angle_beta   90.00000000
_cell_angle_gamma   118.27745629
_symmetry_Int_Tables_number   1
_chemical_formula_structural   Rb2Mg5Sb4
_chemical_formula_sum   'Rb4 Mg10 Sb8'
_cell_volume   693.60417152
_cell_formula_units_Z   2
loop_
 _symmetry_equiv_pos_site_id
 _symmetry_equiv_pos_as_xyz
  1  'x, y, z'
loop_
 _atom_site_type_symbol
 _atom_site_label
 _atom_site_symmetry_multiplicity
 _atom_site_fract_x
 _atom_site_fract_y
 _atom_site_fract_z
 _atom_site_occupancy
  Rb  Rb0  1  0.218750  0.781250  0.500000  1
  Rb  Rb1  1  0.218750  0.781250  0.000000  1
  Rb  Rb2  1  0.781250  0.218750  0.500000  1
  Rb  Rb3  1  0.781250  0.218750  0.000000  1
  Mg  Mg4  1  0.526640  0.249684  0.250000  1
  Mg  Mg5  1  0.750316  0.473360  0.750000  1
  Mg  Mg6  1  0.473360  0.750316  0.750000  1
  Mg  Mg7  1  0.249684  0.526640  0.250000  1
  Mg  Mg8  1  0.650047  0.650047  0.387633  1
  Mg  Mg9  1  0.349953  0.349953  0.612367  1
  Mg  Mg10  1  0.650047  0.650047  0.112367  1
  Mg  Mg11  1  0.349953  0.349953  0.887633  1
  Mg  Mg12  1  0.012948  0.012948  0.250000  1
  Mg  Mg13  1  0.987052  0.987052  0.750000  1
  Sb  Sb14  1  0.597154  0.919095  0.250000  1
  Sb  Sb15  1  0.080905  0.402846  0.750000  1
  Sb  Sb16  1  0.402846  0.080905  0.750000  1
  Sb  Sb17  1  0.919095  0.597154  0.250000  1
  Sb  Sb18  1  0.273915  0.273915  0.406123  1
  Sb  Sb19  1  0.726085  0.726085  0.593877  1
  Sb  Sb20  1  0.273915  0.273915  0.093877  1
  Sb  Sb21  1  0.726085  0.726085  0.906123  1
