# generated using pymatgen
data_EuHoF5
_symmetry_space_group_name_H-M   'P 1'
_cell_length_a   8.19773241
_cell_length_b   8.19773061
_cell_length_c   5.77131437
_cell_angle_alpha   89.06403295
_cell_angle_beta   89.06403076
_cell_angle_gamma   149.43129843
_symmetry_Int_Tables_number   1
_chemical_formula_structural   EuHoF5
_chemical_formula_sum   'Eu2 Ho2 F10'
_cell_volume   196.86948783
_cell_formula_units_Z   2
loop_
 _symmetry_equiv_pos_site_id
 _symmetry_equiv_pos_as_xyz
  1  'x, y, z'
loop_
 _atom_site_type_symbol
 _atom_site_label
 _atom_site_symmetry_multiplicity
 _atom_site_fract_x
 _atom_site_fract_y
 _atom_site_fract_z
 _atom_site_occupancy
  Eu  Eu0  1  0.323516  0.676484  0.750000  1
  Eu  Eu1  1  0.676484  0.323516  0.250000  1
  Ho  Ho2  1  0.075152  0.924848  0.750000  1
  Ho  Ho3  1  0.924848  0.075152  0.250000  1
  F  F4  1  0.730230  0.807711  0.602034  1
  F  F5  1  0.807711  0.730230  0.102034  1
  F  F6  1  0.803022  0.180869  0.004342  1
  F  F7  1  0.621378  0.378622  0.750000  1
  F  F8  1  0.819131  0.196978  0.495658  1
  F  F9  1  0.180869  0.803022  0.504342  1
  F  F10  1  0.378622  0.621378  0.250000  1
  F  F11  1  0.196978  0.819131  0.995658  1
  F  F12  1  0.192289  0.269770  0.897966  1
  F  F13  1  0.269770  0.192289  0.397966  1
