# generated using pymatgen
data_Na2Co9As7Ru3
_symmetry_space_group_name_H-M   'P 1'
_cell_length_a   3.77299700
_cell_length_b   9.36286653
_cell_length_c   9.36286600
_cell_angle_alpha   119.99999717
_cell_angle_beta   90.00000000
_cell_angle_gamma   90.00000000
_symmetry_Int_Tables_number   1
_chemical_formula_structural   Na2Co9As7Ru3
_chemical_formula_sum   'Na2 Co9 As7 Ru3'
_cell_volume   286.44071187
_cell_formula_units_Z   1
loop_
 _symmetry_equiv_pos_site_id
 _symmetry_equiv_pos_as_xyz
  1  'x, y, z'
loop_
 _atom_site_type_symbol
 _atom_site_label
 _atom_site_symmetry_multiplicity
 _atom_site_fract_x
 _atom_site_fract_y
 _atom_site_fract_z
 _atom_site_occupancy
  Na  Na0  1  0.000000  0.666667  0.333333  1
  Na  Na1  1  0.500000  0.333333  0.666667  1
  Co  Co2  1  0.000000  0.570434  0.947002  1
  Co  Co3  1  0.000000  0.376568  0.429566  1
  Co  Co4  1  0.000000  0.052998  0.623432  1
  Co  Co5  1  0.000000  0.879006  0.160241  1
  Co  Co6  1  0.000000  0.281235  0.120994  1
  Co  Co7  1  0.000000  0.839759  0.718765  1
  Co  Co8  1  0.500000  0.952595  0.385771  1
  Co  Co9  1  0.500000  0.433176  0.047405  1
  Co  Co10  1  0.500000  0.614229  0.566824  1
  As  As11  1  0.000000  0.000000  0.000000  1
  As  As12  1  0.500000  0.708902  0.123719  1
  As  As13  1  0.500000  0.414818  0.291098  1
  As  As14  1  0.500000  0.876281  0.585182  1
  As  As15  1  0.000000  0.584713  0.704608  1
  As  As16  1  0.000000  0.119895  0.415287  1
  As  As17  1  0.000000  0.295392  0.880105  1
  Ru  Ru18  1  0.500000  0.781809  0.904914  1
  Ru  Ru19  1  0.500000  0.123105  0.218191  1
  Ru  Ru20  1  0.500000  0.095086  0.876895  1
