# generated using pymatgen
data_Ta11NbGa8(RhC)4
_symmetry_space_group_name_H-M   'P 1'
_cell_length_a   8.31740390
_cell_length_b   8.32131347
_cell_length_c   8.31747359
_cell_angle_alpha   59.98376777
_cell_angle_beta   59.97960804
_cell_angle_gamma   59.98346626
_symmetry_Int_Tables_number   1
_chemical_formula_structural   Ta11NbGa8(RhC)4
_chemical_formula_sum   'Ta11 Nb1 Ga8 Rh4 C4'
_cell_volume   406.89427324
_cell_formula_units_Z   1
loop_
 _symmetry_equiv_pos_site_id
 _symmetry_equiv_pos_as_xyz
  1  'x, y, z'
loop_
 _atom_site_type_symbol
 _atom_site_label
 _atom_site_symmetry_multiplicity
 _atom_site_fract_x
 _atom_site_fract_y
 _atom_site_fract_z
 _atom_site_occupancy
  Ta  Ta0  1  0.314422  0.685598  0.685823  1
  Ta  Ta1  1  0.685861  0.314139  0.314408  1
  Ta  Ta2  1  0.313849  0.686172  0.313836  1
  Ta  Ta3  1  0.685844  0.685591  0.314410  1
  Ta  Ta4  1  0.314416  0.314138  0.685846  1
  Ta  Ta5  1  0.563731  0.563968  0.936313  1
  Ta  Ta6  1  0.936318  0.563958  0.563732  1
  Ta  Ta7  1  0.563713  0.935985  0.936319  1
  Ta  Ta8  1  0.936322  0.935987  0.563715  1
  Ta  Ta9  1  0.686637  0.313365  0.686617  1
  Ta  Ta10  1  0.935458  0.564530  0.935455  1
  Nb  Nb11  1  0.564248  0.935748  0.564250  1
  Ga  Ga12  1  0.915300  0.913722  0.915298  1
  Ga  Ga13  1  0.994269  0.335731  0.334276  1
  Ga  Ga14  1  0.335715  0.994564  0.335692  1
  Ga  Ga15  1  0.334264  0.335729  0.994287  1
  Ga  Ga16  1  0.915303  0.255678  0.915298  1
  Ga  Ga17  1  0.913726  0.915306  0.255664  1
  Ga  Ga18  1  0.255667  0.915296  0.913741  1
  Ga  Ga19  1  0.335707  0.334041  0.335686  1
  Rh  Rh20  1  0.125454  0.124223  0.125512  1
  Rh  Rh21  1  0.625194  0.126642  0.121549  1
  Rh  Rh22  1  0.125449  0.624855  0.125510  1
  Rh  Rh23  1  0.121540  0.126639  0.625193  1
  C  C24  1  0.625646  0.622882  0.625638  1
  C  C25  1  0.125290  0.624847  0.625003  1
  C  C26  1  0.625645  0.125822  0.625638  1
  C  C27  1  0.625011  0.624845  0.125287  1
