# generated using pymatgen
data_La2Th6TiSe17
_symmetry_space_group_name_H-M   'P 1'
_cell_length_a   8.45581506
_cell_length_b   8.45581495
_cell_length_c   11.20875105
_cell_angle_alpha   80.72665005
_cell_angle_beta   80.72665496
_cell_angle_gamma   65.43980919
_symmetry_Int_Tables_number   1
_chemical_formula_structural   La2Th6TiSe17
_chemical_formula_sum   'La2 Th6 Ti1 Se17'
_cell_volume   715.42923616
_cell_formula_units_Z   1
loop_
 _symmetry_equiv_pos_site_id
 _symmetry_equiv_pos_as_xyz
  1  'x, y, z'
loop_
 _atom_site_type_symbol
 _atom_site_label
 _atom_site_symmetry_multiplicity
 _atom_site_fract_x
 _atom_site_fract_y
 _atom_site_fract_z
 _atom_site_occupancy
  La  La0  1  0.813395  0.303964  0.296392  1
  La  La1  1  0.303964  0.813395  0.296392  1
  Th  Th2  1  0.185517  0.698532  0.702022  1
  Th  Th3  1  0.698532  0.185517  0.702022  1
  Th  Th4  1  0.203751  0.203751  0.541023  1
  Th  Th5  1  0.793748  0.793748  0.458390  1
  Th  Th6  1  0.680636  0.680636  0.982798  1
  Th  Th7  1  0.319366  0.319366  0.020921  1
  Ti  Ti8  1  0.004074  0.004074  0.006649  1
  Se  Se9  1  0.822911  0.431876  0.538613  1
  Se  Se10  1  0.431876  0.822911  0.538613  1
  Se  Se11  1  0.172690  0.567802  0.471742  1
  Se  Se12  1  0.567802  0.172690  0.471742  1
  Se  Se13  1  0.944610  0.321207  0.020074  1
  Se  Se14  1  0.321207  0.944610  0.020074  1
  Se  Se15  1  0.057554  0.679679  0.971118  1
  Se  Se16  1  0.679679  0.057554  0.971118  1
  Se  Se17  1  0.213274  0.213274  0.275930  1
  Se  Se18  1  0.790451  0.790451  0.725371  1
  Se  Se19  1  0.057726  0.057726  0.775666  1
  Se  Se20  1  0.935895  0.935895  0.222072  1
  Se  Se21  1  0.303932  0.303932  0.754867  1
  Se  Se22  1  0.700200  0.700200  0.241659  1
  Se  Se23  1  0.519701  0.519701  0.832707  1
  Se  Se24  1  0.480137  0.480137  0.157447  1
  Se  Se25  1  0.997373  0.997373  0.504581  1
