# generated using pymatgen
data_Tb2FeSbO7
_symmetry_space_group_name_H-M   'P 1'
_cell_length_a   7.31870008
_cell_length_b   7.31870043
_cell_length_c   7.31869907
_cell_angle_alpha   120.34447126
_cell_angle_beta   119.41500790
_cell_angle_gamma   90.21030198
_symmetry_Int_Tables_number   1
_chemical_formula_structural   Tb2FeSbO7
_chemical_formula_sum   'Tb4 Fe2 Sb2 O14'
_cell_volume   277.67501449
_cell_formula_units_Z   2
loop_
 _symmetry_equiv_pos_site_id
 _symmetry_equiv_pos_as_xyz
  1  'x, y, z'
loop_
 _atom_site_type_symbol
 _atom_site_label
 _atom_site_symmetry_multiplicity
 _atom_site_fract_x
 _atom_site_fract_y
 _atom_site_fract_z
 _atom_site_occupancy
  Tb  Tb0  1  0.000000  0.000000  0.500000  1
  Tb  Tb1  1  0.000000  0.500000  0.000000  1
  Tb  Tb2  1  0.000000  0.000000  0.000000  1
  Tb  Tb3  1  0.500000  0.000000  0.500000  1
  Fe  Fe4  1  0.500000  0.500000  0.500000  1
  Fe  Fe5  1  0.500000  0.000000  0.000000  1
  Sb  Sb6  1  0.500000  0.500000  0.000000  1
  Sb  Sb7  1  0.000000  0.500000  0.500000  1
  O  O8  1  0.123201  0.873201  0.250000  1
  O  O9  1  0.876799  0.126799  0.750000  1
  O  O10  1  0.829694  0.579694  0.250000  1
  O  O11  1  0.410383  0.160383  0.250000  1
  O  O12  1  0.837886  0.170264  0.260471  1
  O  O13  1  0.409793  0.577415  0.239529  1
  O  O14  1  0.837886  0.577415  0.667622  1
  O  O15  1  0.409793  0.170264  0.832378  1
  O  O16  1  0.170306  0.420306  0.750000  1
  O  O17  1  0.589617  0.839617  0.750000  1
  O  O18  1  0.162114  0.829736  0.739529  1
  O  O19  1  0.590207  0.422585  0.760471  1
  O  O20  1  0.162114  0.422585  0.332378  1
  O  O21  1  0.590207  0.829736  0.167622  1
