# generated using pymatgen
data_CaTh(Re2Si)4
_symmetry_space_group_name_H-M   'P 1'
_cell_length_a   4.16273000
_cell_length_b   7.29272324
_cell_length_c   15.57735177
_cell_angle_alpha   90.68572929
_cell_angle_beta   90.00000000
_cell_angle_gamma   90.00000000
_symmetry_Int_Tables_number   1
_chemical_formula_structural   CaTh(Re2Si)4
_chemical_formula_sum   'Ca2 Th2 Re16 Si8'
_cell_volume   472.85773548
_cell_formula_units_Z   2
loop_
 _symmetry_equiv_pos_site_id
 _symmetry_equiv_pos_as_xyz
  1  'x, y, z'
loop_
 _atom_site_type_symbol
 _atom_site_label
 _atom_site_symmetry_multiplicity
 _atom_site_fract_x
 _atom_site_fract_y
 _atom_site_fract_z
 _atom_site_occupancy
  Ca  Ca0  1  0.000000  0.581662  0.117551  1
  Ca  Ca1  1  0.000000  0.418338  0.882449  1
  Th  Th2  1  0.500000  0.083294  0.379406  1
  Th  Th3  1  0.500000  0.916706  0.620594  1
  Re  Re4  1  0.000000  0.140039  0.052045  1
  Re  Re5  1  0.000000  0.859961  0.947955  1
  Re  Re6  1  0.500000  0.641404  0.449680  1
  Re  Re7  1  0.500000  0.358596  0.550320  1
  Re  Re8  1  0.000000  0.736587  0.320638  1
  Re  Re9  1  0.000000  0.263413  0.679362  1
  Re  Re10  1  0.500000  0.237832  0.177910  1
  Re  Re11  1  0.500000  0.762168  0.822090  1
  Re  Re12  1  0.000000  0.429148  0.418913  1
  Re  Re13  1  0.000000  0.570852  0.581087  1
  Re  Re14  1  0.500000  0.936133  0.081043  1
  Re  Re15  1  0.500000  0.063867  0.918957  1
  Re  Re16  1  0.000000  0.992748  0.205987  1
  Re  Re17  1  0.000000  0.007252  0.794013  1
  Re  Re18  1  0.500000  0.496799  0.293517  1
  Re  Re19  1  0.500000  0.503201  0.706483  1
  Si  Si20  1  0.000000  0.830043  0.475459  1
  Si  Si21  1  0.000000  0.169957  0.524541  1
  Si  Si22  1  0.500000  0.332022  0.023366  1
  Si  Si23  1  0.500000  0.667978  0.976634  1
  Si  Si24  1  0.000000  0.302901  0.270130  1
  Si  Si25  1  0.000000  0.697099  0.729870  1
  Si  Si26  1  0.500000  0.790570  0.221883  1
  Si  Si27  1  0.500000  0.209430  0.778117  1
