# generated using pymatgen
data_Er4Al4RuPt3
_symmetry_space_group_name_H-M   'P 1'
_cell_length_a   4.32938500
_cell_length_b   6.80946040
_cell_length_c   7.86205349
_cell_angle_alpha   89.79304756
_cell_angle_beta   90.00000000
_cell_angle_gamma   90.00000000
_symmetry_Int_Tables_number   1
_chemical_formula_structural   Er4Al4RuPt3
_chemical_formula_sum   'Er4 Al4 Ru1 Pt3'
_cell_volume   231.77792349
_cell_formula_units_Z   1
loop_
 _symmetry_equiv_pos_site_id
 _symmetry_equiv_pos_as_xyz
  1  'x, y, z'
loop_
 _atom_site_type_symbol
 _atom_site_label
 _atom_site_symmetry_multiplicity
 _atom_site_fract_x
 _atom_site_fract_y
 _atom_site_fract_z
 _atom_site_occupancy
  Er  Er0  1  0.250000  0.469091  0.180121  1
  Er  Er1  1  0.750000  0.533558  0.816108  1
  Er  Er2  1  0.750000  0.024230  0.677942  1
  Er  Er3  1  0.250000  0.966240  0.322973  1
  Al  Al4  1  0.250000  0.856684  0.938347  1
  Al  Al5  1  0.750000  0.140447  0.061321  1
  Al  Al6  1  0.750000  0.643460  0.440850  1
  Al  Al7  1  0.250000  0.363219  0.562592  1
  Ru  Ru8  1  0.250000  0.738110  0.620426  1
  Pt  Pt9  1  0.750000  0.268139  0.377862  1
  Pt  Pt10  1  0.750000  0.766780  0.120998  1
  Pt  Pt11  1  0.250000  0.230042  0.880460  1
