# generated using pymatgen
data_Sc6TiNb3Al12Os7
_symmetry_space_group_name_H-M   'P 1'
_cell_length_a   8.87300769
_cell_length_b   8.87300669
_cell_length_c   8.87300605
_cell_angle_alpha   60.07770447
_cell_angle_beta   60.07770932
_cell_angle_gamma   60.07770244
_symmetry_Int_Tables_number   1
_chemical_formula_structural   Sc6TiNb3Al12Os7
_chemical_formula_sum   'Sc6 Ti1 Nb3 Al12 Os7'
_cell_volume   494.83627368
_cell_formula_units_Z   1
loop_
 _symmetry_equiv_pos_site_id
 _symmetry_equiv_pos_as_xyz
  1  'x, y, z'
loop_
 _atom_site_type_symbol
 _atom_site_label
 _atom_site_symmetry_multiplicity
 _atom_site_fract_x
 _atom_site_fract_y
 _atom_site_fract_z
 _atom_site_occupancy
  Sc  Sc0  1  0.712299  0.712299  0.284188  1
  Sc  Sc1  1  0.289479  0.710449  0.289479  1
  Sc  Sc2  1  0.710449  0.289479  0.289479  1
  Sc  Sc3  1  0.289479  0.289479  0.710449  1
  Sc  Sc4  1  0.712299  0.284188  0.712299  1
  Sc  Sc5  1  0.284188  0.712299  0.712299  1
  Ti  Ti6  1  0.880284  0.880284  0.880284  1
  Nb  Nb7  1  0.878694  0.878694  0.362021  1
  Nb  Nb8  1  0.878694  0.362021  0.878694  1
  Nb  Nb9  1  0.362021  0.878694  0.878694  1
  Al  Al10  1  0.120037  0.120037  0.637124  1
  Al  Al11  1  0.120037  0.637124  0.120037  1
  Al  Al12  1  0.637124  0.120037  0.120037  1
  Al  Al13  1  0.121122  0.121122  0.121122  1
  Al  Al14  1  0.665827  0.665827  0.008097  1
  Al  Al15  1  0.665827  0.008097  0.665827  1
  Al  Al16  1  0.008097  0.665827  0.665827  1
  Al  Al17  1  0.661612  0.661612  0.661612  1
  Al  Al18  1  0.335470  0.335470  0.994482  1
  Al  Al19  1  0.335470  0.994482  0.335470  1
  Al  Al20  1  0.994482  0.335470  0.335470  1
  Al  Al21  1  0.335688  0.335688  0.335688  1
  Os  Os22  1  0.000001  0.000001  0.000001  1
  Os  Os23  1  0.998643  0.998643  0.501073  1
  Os  Os24  1  0.502484  0.997990  0.502484  1
  Os  Os25  1  0.997990  0.502484  0.502484  1
  Os  Os26  1  0.502484  0.502484  0.997990  1
  Os  Os27  1  0.998643  0.501073  0.998643  1
  Os  Os28  1  0.501073  0.998643  0.998643  1
