# generated using pymatgen
data_Ca17Yb3(Zn3Cd)3
_symmetry_space_group_name_H-M   'P 1'
_cell_length_a   7.96773200
_cell_length_b   7.96773200
_cell_length_c   15.19158400
_cell_angle_alpha   90.00000000
_cell_angle_beta   90.00000000
_cell_angle_gamma   90.00000000
_symmetry_Int_Tables_number   1
_chemical_formula_structural   Ca17Yb3(Zn3Cd)3
_chemical_formula_sum   'Ca17 Yb3 Zn9 Cd3'
_cell_volume   964.43396132
_cell_formula_units_Z   1
loop_
 _symmetry_equiv_pos_site_id
 _symmetry_equiv_pos_as_xyz
  1  'x, y, z'
loop_
 _atom_site_type_symbol
 _atom_site_label
 _atom_site_symmetry_multiplicity
 _atom_site_fract_x
 _atom_site_fract_y
 _atom_site_fract_z
 _atom_site_occupancy
  Ca  Ca0  1  0.674634  0.165200  0.103565  1
  Ca  Ca1  1  0.169851  0.670083  0.606201  1
  Ca  Ca2  1  0.325366  0.834800  0.103565  1
  Ca  Ca3  1  0.830149  0.329917  0.606201  1
  Ca  Ca4  1  0.834800  0.674634  0.103565  1
  Ca  Ca5  1  0.329917  0.169851  0.606201  1
  Ca  Ca6  1  0.165200  0.325366  0.103565  1
  Ca  Ca7  1  0.670083  0.830149  0.606201  1
  Ca  Ca8  1  0.834745  0.325435  0.896363  1
  Ca  Ca9  1  0.329861  0.830191  0.393868  1
  Ca  Ca10  1  0.165255  0.674565  0.896363  1
  Ca  Ca11  1  0.670139  0.169809  0.393868  1
  Ca  Ca12  1  0.674565  0.834745  0.896363  1
  Ca  Ca13  1  0.169809  0.329861  0.393868  1
  Ca  Ca14  1  0.325435  0.165255  0.896363  1
  Ca  Ca15  1  0.830191  0.670139  0.393868  1
  Ca  Ca16  1  0.500000  0.500000  0.245701  1
  Yb  Yb17  1  0.500000  0.500000  0.754315  1
  Yb  Yb18  1  0.000000  0.000000  0.249868  1
  Yb  Yb19  1  0.000000  0.000000  0.750137  1
  Zn  Zn20  1  0.618735  0.119802  0.751607  1
  Zn  Zn21  1  0.119427  0.618723  0.248396  1
  Zn  Zn22  1  0.880573  0.381277  0.248396  1
  Zn  Zn23  1  0.381265  0.880198  0.751607  1
  Zn  Zn24  1  0.880198  0.618735  0.751607  1
  Zn  Zn25  1  0.381277  0.119427  0.248396  1
  Zn  Zn26  1  0.119802  0.381265  0.751607  1
  Zn  Zn27  1  0.618723  0.880573  0.248396  1
  Zn  Zn28  1  0.000000  0.000000  0.999987  1
  Cd  Cd29  1  0.500000  0.500000  0.500053  1
  Cd  Cd30  1  0.500000  0.500000  0.999920  1
  Cd  Cd31  1  0.000000  0.000000  0.500018  1
