# generated using pymatgen
data_La8Tm12Sn13Bi3
_symmetry_space_group_name_H-M   'P 1'
_cell_length_a   8.27567574
_cell_length_b   8.32572241
_cell_length_c   15.70223900
_cell_angle_alpha   90.03873754
_cell_angle_beta   89.77689300
_cell_angle_gamma   90.05276165
_symmetry_Int_Tables_number   1
_chemical_formula_structural   La8Tm12Sn13Bi3
_chemical_formula_sum   'La8 Tm12 Sn13 Bi3'
_cell_volume   1081.89073390
_cell_formula_units_Z   1
loop_
 _symmetry_equiv_pos_site_id
 _symmetry_equiv_pos_as_xyz
  1  'x, y, z'
loop_
 _atom_site_type_symbol
 _atom_site_label
 _atom_site_symmetry_multiplicity
 _atom_site_fract_x
 _atom_site_fract_y
 _atom_site_fract_z
 _atom_site_occupancy
  La  La0  1  0.525709  0.325481  0.901181  1
  La  La1  1  0.033322  0.177821  0.601260  1
  La  La2  1  0.466537  0.677205  0.398976  1
  La  La3  1  0.970382  0.820702  0.099046  1
  La  La4  1  0.476555  0.674576  0.097649  1
  La  La5  1  0.978053  0.823773  0.399627  1
  La  La6  1  0.521222  0.322785  0.600339  1
  La  La7  1  0.020472  0.181445  0.900912  1
  Tm  Tm8  1  0.368400  0.835084  0.875206  1
  Tm  Tm9  1  0.873271  0.659668  0.626260  1
  Tm  Tm10  1  0.627906  0.158981  0.373226  1
  Tm  Tm11  1  0.131061  0.342940  0.124529  1
  Tm  Tm12  1  0.639781  0.161431  0.123739  1
  Tm  Tm13  1  0.137803  0.338062  0.375977  1
  Tm  Tm14  1  0.362392  0.838066  0.623805  1
  Tm  Tm15  1  0.866081  0.661725  0.875957  1
  Tm  Tm16  1  0.198541  0.505174  0.750957  1
  Tm  Tm17  1  0.697771  0.995542  0.754750  1
  Tm  Tm18  1  0.801288  0.495359  0.246117  1
  Tm  Tm19  1  0.301560  0.004672  0.252734  1
  Sn  Sn20  1  0.202241  0.540237  0.956377  1
  Sn  Sn21  1  0.704928  0.959795  0.956082  1
  Sn  Sn22  1  0.206304  0.539501  0.544631  1
  Sn  Sn23  1  0.294341  0.039854  0.455563  1
  Sn  Sn24  1  0.798409  0.459255  0.043304  1
  Sn  Sn25  1  0.565288  0.629554  0.747762  1
  Sn  Sn26  1  0.064838  0.872506  0.750874  1
  Sn  Sn27  1  0.436110  0.370682  0.248455  1
  Sn  Sn28  1  0.936196  0.129341  0.251053  1
  Sn  Sn29  1  0.335037  0.142165  0.751654  1
  Sn  Sn30  1  0.833063  0.357014  0.748961  1
  Sn  Sn31  1  0.664098  0.855580  0.249965  1
  Sn  Sn32  1  0.164231  0.643334  0.248892  1
  Bi  Bi33  1  0.296646  0.041341  0.044197  1
  Bi  Bi34  1  0.794370  0.459710  0.455620  1
  Bi  Bi35  1  0.705793  0.959639  0.544362  1
