# generated using pymatgen
data_DyHoZn2IrRh
_symmetry_space_group_name_H-M   'P 1'
_cell_length_a   4.03261000
_cell_length_b   6.97813270
_cell_length_c   8.09464615
_cell_angle_alpha   90.06757186
_cell_angle_beta   90.00000000
_cell_angle_gamma   90.00000000
_symmetry_Int_Tables_number   1
_chemical_formula_structural   DyHoZn2IrRh
_chemical_formula_sum   'Dy2 Ho2 Zn4 Ir2 Rh2'
_cell_volume   227.78389430
_cell_formula_units_Z   2
loop_
 _symmetry_equiv_pos_site_id
 _symmetry_equiv_pos_as_xyz
  1  'x, y, z'
loop_
 _atom_site_type_symbol
 _atom_site_label
 _atom_site_symmetry_multiplicity
 _atom_site_fract_x
 _atom_site_fract_y
 _atom_site_fract_z
 _atom_site_occupancy
  Dy  Dy0  1  0.250000  0.539948  0.184220  1
  Dy  Dy1  1  0.750000  0.460052  0.815780  1
  Ho  Ho2  1  0.250000  0.037192  0.317999  1
  Ho  Ho3  1  0.750000  0.962808  0.682001  1
  Zn  Zn4  1  0.250000  0.135150  0.936121  1
  Zn  Zn5  1  0.750000  0.864850  0.063879  1
  Zn  Zn6  1  0.250000  0.636572  0.564340  1
  Zn  Zn7  1  0.750000  0.363428  0.435660  1
  Ir  Ir8  1  0.750000  0.744489  0.375704  1
  Ir  Ir9  1  0.250000  0.255511  0.624296  1
  Rh  Rh10  1  0.750000  0.244727  0.122696  1
  Rh  Rh11  1  0.250000  0.755273  0.877304  1
