# generated using pymatgen
data_Tb2Nd3(In2Pt)2
_symmetry_space_group_name_H-M   'P 1'
_cell_length_a   3.76159900
_cell_length_b   8.31120523
_cell_length_c   18.50824259
_cell_angle_alpha   90.06485698
_cell_angle_beta   90.00000000
_cell_angle_gamma   90.00000000
_symmetry_Int_Tables_number   1
_chemical_formula_structural   Tb2Nd3(In2Pt)2
_chemical_formula_sum   'Tb4 Nd6 In8 Pt4'
_cell_volume   578.63061448
_cell_formula_units_Z   2
loop_
 _symmetry_equiv_pos_site_id
 _symmetry_equiv_pos_as_xyz
  1  'x, y, z'
loop_
 _atom_site_type_symbol
 _atom_site_label
 _atom_site_symmetry_multiplicity
 _atom_site_fract_x
 _atom_site_fract_y
 _atom_site_fract_z
 _atom_site_occupancy
  Tb  Tb0  1  0.000000  0.116688  0.413048  1
  Tb  Tb1  1  0.000000  0.883351  0.586944  1
  Tb  Tb2  1  0.000000  0.383456  0.912999  1
  Tb  Tb3  1  0.000000  0.616677  0.086910  1
  Nd  Nd4  1  0.000000  0.239360  0.216071  1
  Nd  Nd5  1  0.000000  0.760715  0.784067  1
  Nd  Nd6  1  0.000000  0.260405  0.716090  1
  Nd  Nd7  1  0.000000  0.739281  0.283865  1
  Nd  Nd8  1  0.000000  0.000091  0.000021  1
  Nd  Nd9  1  0.000000  0.499876  0.499874  1
  In  In10  1  0.500000  0.416086  0.349308  1
  In  In11  1  0.500000  0.584164  0.650679  1
  In  In12  1  0.500000  0.084073  0.849389  1
  In  In13  1  0.500000  0.915947  0.150598  1
  In  In14  1  0.500000  0.301772  0.062940  1
  In  In15  1  0.500000  0.698196  0.937126  1
  In  In16  1  0.500000  0.198067  0.562944  1
  In  In17  1  0.500000  0.801866  0.437012  1
  Pt  Pt18  1  0.500000  0.025138  0.305169  1
  Pt  Pt19  1  0.500000  0.974856  0.694826  1
  Pt  Pt20  1  0.500000  0.474908  0.805256  1
  Pt  Pt21  1  0.500000  0.525026  0.194863  1
