# generated using pymatgen
data_Y2Fe2Si5Ir
_symmetry_space_group_name_H-M   'P 1'
_cell_length_a   8.06590510
_cell_length_b   8.09198538
_cell_length_c   8.09198562
_cell_angle_alpha   140.01479041
_cell_angle_beta   107.43424419
_cell_angle_gamma   86.26939837
_symmetry_Int_Tables_number   1
_chemical_formula_structural   Y2Fe2Si5Ir
_chemical_formula_sum   'Y4 Fe4 Si10 Ir2'
_cell_volume   311.92367411
_cell_formula_units_Z   2
loop_
 _symmetry_equiv_pos_site_id
 _symmetry_equiv_pos_as_xyz
  1  'x, y, z'
loop_
 _atom_site_type_symbol
 _atom_site_label
 _atom_site_symmetry_multiplicity
 _atom_site_fract_x
 _atom_site_fract_y
 _atom_site_fract_z
 _atom_site_occupancy
  Y  Y0  1  0.865986  0.636038  0.229947  1
  Y  Y1  1  0.134015  0.363962  0.770053  1
  Y  Y2  1  0.401316  0.134864  0.266451  1
  Y  Y3  1  0.598684  0.865136  0.733549  1
  Fe  Fe4  1  0.000000  0.753083  0.753083  1
  Fe  Fe5  1  0.000000  0.246917  0.246917  1
  Fe  Fe6  1  0.256649  0.855170  0.401477  1
  Fe  Fe7  1  0.743351  0.144830  0.598523  1
  Si  Si8  1  0.500000  0.771989  0.271989  1
  Si  Si9  1  0.500000  0.228011  0.728011  1
  Si  Si10  1  0.205710  0.952102  0.736902  1
  Si  Si11  1  0.794290  0.531193  0.746392  1
  Si  Si12  1  0.794290  0.047898  0.263098  1
  Si  Si13  1  0.205710  0.468807  0.253608  1
  Si  Si14  1  0.069901  0.903727  0.166174  1
  Si  Si15  1  0.930099  0.096273  0.833826  1
  Si  Si16  1  0.751558  0.407677  0.343881  1
  Si  Si17  1  0.248442  0.592323  0.656119  1
  Ir  Ir18  1  0.457809  0.357371  0.100437  1
  Ir  Ir19  1  0.542191  0.642629  0.899563  1
