# generated using pymatgen
data_TbHo5P13Rh20
_symmetry_space_group_name_H-M   'P 1'
_cell_length_a   13.33949301
_cell_length_b   13.33735609
_cell_length_c   3.91997300
_cell_angle_alpha   90.00162112
_cell_angle_beta   89.99964853
_cell_angle_gamma   120.00101567
_symmetry_Int_Tables_number   1
_chemical_formula_structural   TbHo5P13Rh20
_chemical_formula_sum   'Tb1 Ho5 P13 Rh20'
_cell_volume   603.97412393
_cell_formula_units_Z   1
loop_
 _symmetry_equiv_pos_site_id
 _symmetry_equiv_pos_as_xyz
  1  'x, y, z'
loop_
 _atom_site_type_symbol
 _atom_site_label
 _atom_site_symmetry_multiplicity
 _atom_site_fract_x
 _atom_site_fract_y
 _atom_site_fract_z
 _atom_site_occupancy
  Tb  Tb0  1  0.529255  0.717422  0.248446  1
  Ho  Ho1  1  0.282531  0.811943  0.248499  1
  Ho  Ho2  1  0.187989  0.470572  0.248487  1
  Ho  Ho3  1  0.470728  0.282616  0.751500  1
  Ho  Ho4  1  0.717452  0.188168  0.751508  1
  Ho  Ho5  1  0.811845  0.529282  0.751536  1
  P  P6  1  0.526456  0.139572  0.250257  1
  P  P7  1  0.860447  0.386920  0.250252  1
  P  P8  1  0.613042  0.473520  0.250269  1
  P  P9  1  0.944852  0.714355  0.254435  1
  P  P10  1  0.285656  0.230388  0.254439  1
  P  P11  1  0.769450  0.055132  0.254390  1
  P  P12  1  0.386579  0.525980  0.749751  1
  P  P13  1  0.473540  0.860780  0.749761  1
  P  P14  1  0.139392  0.613062  0.749735  1
  P  P15  1  0.714854  0.769751  0.745553  1
  P  P16  1  0.230442  0.944794  0.745563  1
  P  P17  1  0.055227  0.285661  0.745537  1
  P  P18  1  0.000044  0.000014  0.999960  1
  Rh  Rh19  1  0.332756  0.666521  0.751879  1
  Rh  Rh20  1  0.920984  0.250309  0.253854  1
  Rh  Rh21  1  0.749818  0.670652  0.253860  1
  Rh  Rh22  1  0.329281  0.078986  0.253835  1
  Rh  Rh23  1  0.438392  0.022348  0.751435  1
  Rh  Rh24  1  0.977655  0.416091  0.751444  1
  Rh  Rh25  1  0.584039  0.561155  0.751422  1
  Rh  Rh26  1  0.666671  0.333321  0.248069  1
  Rh  Rh27  1  0.094440  0.187039  0.247533  1
  Rh  Rh28  1  0.813000  0.907391  0.247574  1
  Rh  Rh29  1  0.092703  0.905617  0.247477  1
  Rh  Rh30  1  0.022374  0.583970  0.248538  1
  Rh  Rh31  1  0.415899  0.438149  0.248580  1
  Rh  Rh32  1  0.561598  0.977842  0.248573  1
  Rh  Rh33  1  0.671171  0.921802  0.746229  1
  Rh  Rh34  1  0.079006  0.749677  0.746191  1
  Rh  Rh35  1  0.250211  0.329163  0.746173  1
  Rh  Rh36  1  0.905843  0.813054  0.752470  1
  Rh  Rh37  1  0.187016  0.092661  0.752486  1
  Rh  Rh38  1  0.907361  0.094320  0.752498  1
