# generated using pymatgen
data_CaHo3B16
_symmetry_space_group_name_H-M   'P 1'
_cell_length_a   7.10548268
_cell_length_b   7.10548268
_cell_length_c   4.02211000
_cell_angle_alpha   90.00000000
_cell_angle_beta   90.00000000
_cell_angle_gamma   89.86849876
_symmetry_Int_Tables_number   1
_chemical_formula_structural   CaHo3B16
_chemical_formula_sum   'Ca1 Ho3 B16'
_cell_volume   203.06728866
_cell_formula_units_Z   1
loop_
 _symmetry_equiv_pos_site_id
 _symmetry_equiv_pos_as_xyz
  1  'x, y, z'
loop_
 _atom_site_type_symbol
 _atom_site_label
 _atom_site_symmetry_multiplicity
 _atom_site_fract_x
 _atom_site_fract_y
 _atom_site_fract_z
 _atom_site_occupancy
  Ca  Ca0  1  0.818443  0.681557  0.500000  1
  Ho  Ho1  1  0.682413  0.182427  0.500000  1
  Ho  Ho2  1  0.317573  0.817587  0.500000  1
  Ho  Ho3  1  0.181661  0.318339  0.500000  1
  B  B4  1  0.999945  0.999366  0.297243  1
  B  B5  1  0.999945  0.999366  0.702757  1
  B  B6  1  0.500634  0.500055  0.702757  1
  B  B7  1  0.500634  0.500055  0.297243  1
  B  B8  1  0.175711  0.038647  0.000000  1
  B  B9  1  0.824115  0.963205  0.000000  1
  B  B10  1  0.039012  0.824116  0.000000  1
  B  B11  1  0.675884  0.460988  0.000000  1
  B  B12  1  0.962396  0.176804  0.000000  1
  B  B13  1  0.323196  0.537604  0.000000  1
  B  B14  1  0.536795  0.675885  0.000000  1
  B  B15  1  0.461353  0.324289  0.000000  1
  B  B16  1  0.087304  0.586099  0.000000  1
  B  B17  1  0.913901  0.412696  0.000000  1
  B  B18  1  0.586239  0.913761  0.000000  1
  B  B19  1  0.412848  0.087152  0.000000  1
