# generated using pymatgen
data_Ce8ScSi6Mo
_symmetry_space_group_name_H-M   'P 1'
_cell_length_a   5.62658343
_cell_length_b   8.45858973
_cell_length_c   8.45859002
_cell_angle_alpha   83.67461983
_cell_angle_beta   70.60456821
_cell_angle_gamma   70.60458453
_symmetry_Int_Tables_number   1
_chemical_formula_structural   Ce8ScSi6Mo
_chemical_formula_sum   'Ce8 Sc1 Si6 Mo1'
_cell_volume   358.17360115
_cell_formula_units_Z   1
loop_
 _symmetry_equiv_pos_site_id
 _symmetry_equiv_pos_as_xyz
  1  'x, y, z'
loop_
 _atom_site_type_symbol
 _atom_site_label
 _atom_site_symmetry_multiplicity
 _atom_site_fract_x
 _atom_site_fract_y
 _atom_site_fract_z
 _atom_site_occupancy
  Ce  Ce0  1  0.094908  0.132265  0.677219  1
  Ce  Ce1  1  0.904568  0.867576  0.323676  1
  Ce  Ce2  1  0.772395  0.322750  0.132493  1
  Ce  Ce3  1  0.405092  0.322781  0.867735  1
  Ce  Ce4  1  0.227839  0.677737  0.867218  1
  Ce  Ce5  1  0.595432  0.676324  0.132424  1
  Ce  Ce6  1  0.727605  0.867507  0.677250  1
  Ce  Ce7  1  0.272161  0.132782  0.322263  1
  Sc  Sc8  1  0.250000  0.499976  0.500024  1
  Si  Si9  1  0.126435  0.500046  0.210880  1
  Si  Si10  1  0.837589  0.500199  0.789022  1
  Si  Si11  1  0.373565  0.789120  0.499954  1
  Si  Si12  1  0.662411  0.210978  0.499801  1
  Si  Si13  1  0.250000  0.999920  0.000080  1
  Si  Si14  1  0.750000  0.999852  0.000148  1
  Mo  Mo15  1  0.750000  0.500188  0.499812  1
