# generated using pymatgen
data_TmZrMn6Co6P7
_symmetry_space_group_name_H-M   'P 1'
_cell_length_a   9.02907900
_cell_length_b   9.02907980
_cell_length_c   3.60282900
_cell_angle_alpha   90.00000000
_cell_angle_beta   90.00000000
_cell_angle_gamma   119.99999975
_symmetry_Int_Tables_number   1
_chemical_formula_structural   TmZrMn6Co6P7
_chemical_formula_sum   'Tm1 Zr1 Mn6 Co6 P7'
_cell_volume   254.36726883
_cell_formula_units_Z   1
loop_
 _symmetry_equiv_pos_site_id
 _symmetry_equiv_pos_as_xyz
  1  'x, y, z'
loop_
 _atom_site_type_symbol
 _atom_site_label
 _atom_site_symmetry_multiplicity
 _atom_site_fract_x
 _atom_site_fract_y
 _atom_site_fract_z
 _atom_site_occupancy
  Tm  Tm0  1  0.666667  0.333333  0.500000  1
  Zr  Zr1  1  0.000000  0.000000  0.000000  1
  Mn  Mn2  1  0.211731  0.386411  0.000000  1
  Mn  Mn3  1  0.613589  0.825321  0.000000  1
  Mn  Mn4  1  0.174679  0.788269  0.000000  1
  Mn  Mn5  1  0.455131  0.561119  0.500000  1
  Mn  Mn6  1  0.438881  0.894013  0.500000  1
  Mn  Mn7  1  0.105987  0.544869  0.500000  1
  Co  Co8  1  0.703815  0.605625  0.000000  1
  Co  Co9  1  0.394375  0.098190  0.000000  1
  Co  Co10  1  0.901810  0.296185  0.000000  1
  Co  Co11  1  0.279782  0.224913  0.500000  1
  Co  Co12  1  0.775087  0.054869  0.500000  1
  Co  Co13  1  0.945131  0.720218  0.500000  1
  P  P14  1  0.446424  0.366564  0.000000  1
  P  P15  1  0.633436  0.079860  0.000000  1
  P  P16  1  0.920140  0.553576  0.000000  1
  P  P17  1  0.045872  0.256969  0.500000  1
  P  P18  1  0.743031  0.788904  0.500000  1
  P  P19  1  0.211096  0.954128  0.500000  1
  P  P20  1  0.333333  0.666667  0.000000  1
