# generated using pymatgen
data_EuHg2O
_symmetry_space_group_name_H-M   'P 1'
_cell_length_a   5.99087800
_cell_length_b   5.98534009
_cell_length_c   10.99857124
_cell_angle_alpha   89.48339917
_cell_angle_beta   90.00000000
_cell_angle_gamma   90.00000000
_symmetry_Int_Tables_number   1
_chemical_formula_structural   EuHg2O
_chemical_formula_sum   'Eu4 Hg8 O4'
_cell_volume   394.36460294
_cell_formula_units_Z   4
loop_
 _symmetry_equiv_pos_site_id
 _symmetry_equiv_pos_as_xyz
  1  'x, y, z'
loop_
 _atom_site_type_symbol
 _atom_site_label
 _atom_site_symmetry_multiplicity
 _atom_site_fract_x
 _atom_site_fract_y
 _atom_site_fract_z
 _atom_site_occupancy
  Eu  Eu0  1  0.573892  0.498315  0.090728  1
  Eu  Eu1  1  0.073873  0.000063  0.090597  1
  Eu  Eu2  1  0.573874  0.999937  0.909403  1
  Eu  Eu3  1  0.073892  0.501683  0.909272  1
  Hg  Hg4  1  0.576082  0.005594  0.293779  1
  Hg  Hg5  1  0.076651  0.967978  0.415772  1
  Hg  Hg6  1  0.576650  0.032020  0.584228  1
  Hg  Hg7  1  0.076081  0.994404  0.706221  1
  Hg  Hg8  1  0.075613  0.467344  0.294669  1
  Hg  Hg9  1  0.576132  0.509781  0.415671  1
  Hg  Hg10  1  0.076133  0.490219  0.584330  1
  Hg  Hg11  1  0.575614  0.532658  0.705331  1
  O  O12  1  0.823999  0.250010  0.998724  1
  O  O13  1  0.823777  0.749995  0.001255  1
  O  O14  1  0.323778  0.250005  0.998745  1
  O  O15  1  0.324000  0.749992  0.001276  1
