# generated using pymatgen
data_Dy6CoSi4Ni
_symmetry_space_group_name_H-M   'P 1'
_cell_length_a   4.11994300
_cell_length_b   11.15470600
_cell_length_c   11.30780700
_cell_angle_alpha   90.00000000
_cell_angle_beta   90.00000000
_cell_angle_gamma   90.00000000
_symmetry_Int_Tables_number   1
_chemical_formula_structural   Dy6CoSi4Ni
_chemical_formula_sum   'Dy12 Co2 Si8 Ni2'
_cell_volume   519.67009216
_cell_formula_units_Z   2
loop_
 _symmetry_equiv_pos_site_id
 _symmetry_equiv_pos_as_xyz
  1  'x, y, z'
loop_
 _atom_site_type_symbol
 _atom_site_label
 _atom_site_symmetry_multiplicity
 _atom_site_fract_x
 _atom_site_fract_y
 _atom_site_fract_z
 _atom_site_occupancy
  Dy  Dy0  1  0.250000  0.060724  0.882409  1
  Dy  Dy1  1  0.250000  0.439276  0.382409  1
  Dy  Dy2  1  0.750000  0.941828  0.118668  1
  Dy  Dy3  1  0.750000  0.558172  0.618668  1
  Dy  Dy4  1  0.250000  0.126312  0.558222  1
  Dy  Dy5  1  0.250000  0.373688  0.058222  1
  Dy  Dy6  1  0.750000  0.875803  0.442811  1
  Dy  Dy7  1  0.750000  0.624197  0.942811  1
  Dy  Dy8  1  0.250000  0.804294  0.714663  1
  Dy  Dy9  1  0.250000  0.695706  0.214663  1
  Dy  Dy10  1  0.750000  0.197878  0.283464  1
  Dy  Dy11  1  0.750000  0.302122  0.783464  1
  Co  Co12  1  0.250000  0.364281  0.630502  1
  Co  Co13  1  0.250000  0.135719  0.130502  1
  Si  Si14  1  0.250000  0.814444  0.974480  1
  Si  Si15  1  0.250000  0.685556  0.474480  1
  Si  Si16  1  0.750000  0.184303  0.025575  1
  Si  Si17  1  0.750000  0.315697  0.525575  1
  Si  Si18  1  0.250000  0.495430  0.801638  1
  Si  Si19  1  0.250000  0.004570  0.301638  1
  Si  Si20  1  0.750000  0.504424  0.196688  1
  Si  Si21  1  0.750000  0.995576  0.696688  1
  Ni  Ni22  1  0.750000  0.634569  0.370880  1
  Ni  Ni23  1  0.750000  0.865431  0.870880  1
