# generated using pymatgen
data_TbY7Ti8(Si4Mo)4
_symmetry_space_group_name_H-M   'P 1'
_cell_length_a   7.00812902
_cell_length_b   7.00803506
_cell_length_c   12.88565201
_cell_angle_alpha   89.99297346
_cell_angle_beta   90.00551256
_cell_angle_gamma   89.99493958
_symmetry_Int_Tables_number   1
_chemical_formula_structural   TbY7Ti8(Si4Mo)4
_chemical_formula_sum   'Tb1 Y7 Ti8 Si16 Mo4'
_cell_volume   632.85577281
_cell_formula_units_Z   1
loop_
 _symmetry_equiv_pos_site_id
 _symmetry_equiv_pos_as_xyz
  1  'x, y, z'
loop_
 _atom_site_type_symbol
 _atom_site_label
 _atom_site_symmetry_multiplicity
 _atom_site_fract_x
 _atom_site_fract_y
 _atom_site_fract_z
 _atom_site_occupancy
  Tb  Tb0  1  0.999464  0.659560  0.032248  1
  Y  Y1  1  0.340682  0.000363  0.467713  1
  Y  Y2  1  0.499692  0.840677  0.717603  1
  Y  Y3  1  0.500286  0.159327  0.217626  1
  Y  Y4  1  0.840678  0.499572  0.282485  1
  Y  Y5  1  0.159300  0.500299  0.782324  1
  Y  Y6  1  0.659431  0.999513  0.967583  1
  Y  Y7  1  0.000311  0.340650  0.532363  1
  Ti  Ti8  1  0.153229  0.009297  0.876273  1
  Ti  Ti9  1  0.490468  0.653206  0.126313  1
  Ti  Ti10  1  0.509405  0.346796  0.626243  1
  Ti  Ti11  1  0.653219  0.490477  0.873664  1
  Ti  Ti12  1  0.346845  0.509477  0.373792  1
  Ti  Ti13  1  0.846975  0.990677  0.376399  1
  Ti  Ti14  1  0.009511  0.153221  0.123731  1
  Ti  Ti15  1  0.990542  0.846823  0.623615  1
  Si  Si16  1  0.200418  0.129555  0.684845  1
  Si  Si17  1  0.370618  0.700553  0.934602  1
  Si  Si18  1  0.629563  0.299512  0.434751  1
  Si  Si19  1  0.700358  0.370233  0.065116  1
  Si  Si20  1  0.299520  0.629649  0.565250  1
  Si  Si21  1  0.799449  0.870560  0.185096  1
  Si  Si22  1  0.129653  0.200453  0.315292  1
  Si  Si23  1  0.870547  0.799609  0.815072  1
  Si  Si24  1  0.291610  0.952708  0.065209  1
  Si  Si25  1  0.547492  0.791561  0.315393  1
  Si  Si26  1  0.452442  0.208500  0.815254  1
  Si  Si27  1  0.791473  0.547512  0.684697  1
  Si  Si28  1  0.208409  0.452386  0.184851  1
  Si  Si29  1  0.708479  0.047467  0.565273  1
  Si  Si30  1  0.952525  0.291126  0.934562  1
  Si  Si31  1  0.047538  0.708568  0.434739  1
  Mo  Mo32  1  0.326390  0.326657  0.999996  1
  Mo  Mo33  1  0.173667  0.826542  0.250086  1
  Mo  Mo34  1  0.826433  0.173475  0.749906  1
  Mo  Mo35  1  0.673377  0.673437  0.500038  1
