# generated using pymatgen
data_Er3(TmSb4)5
_symmetry_space_group_name_H-M   'P 1'
_cell_length_a   4.19481900
_cell_length_b   13.13596598
_cell_length_c   14.55901612
_cell_angle_alpha   78.27395953
_cell_angle_beta   90.00000000
_cell_angle_gamma   90.00000000
_symmetry_Int_Tables_number   1
_chemical_formula_structural   Er3(TmSb4)5
_chemical_formula_sum   'Er3 Tm5 Sb20'
_cell_volume   785.50303445
_cell_formula_units_Z   1
loop_
 _symmetry_equiv_pos_site_id
 _symmetry_equiv_pos_as_xyz
  1  'x, y, z'
loop_
 _atom_site_type_symbol
 _atom_site_label
 _atom_site_symmetry_multiplicity
 _atom_site_fract_x
 _atom_site_fract_y
 _atom_site_fract_z
 _atom_site_occupancy
  Er  Er0  1  0.250000  0.394971  0.770423  1
  Er  Er1  1  0.750000  0.605038  0.229501  1
  Er  Er2  1  0.250000  0.662206  0.856141  1
  Tm  Tm3  1  0.750000  0.337936  0.143931  1
  Tm  Tm4  1  0.250000  0.669391  0.576072  1
  Tm  Tm5  1  0.750000  0.330559  0.423896  1
  Tm  Tm6  1  0.250000  0.954024  0.359002  1
  Tm  Tm7  1  0.750000  0.045979  0.640993  1
  Sb  Sb8  1  0.250000  0.143284  0.777947  1
  Sb  Sb9  1  0.750000  0.856716  0.222105  1
  Sb  Sb10  1  0.250000  0.143062  0.483630  1
  Sb  Sb11  1  0.750000  0.856895  0.516411  1
  Sb  Sb12  1  0.250000  0.152744  0.170532  1
  Sb  Sb13  1  0.750000  0.847680  0.829380  1
  Sb  Sb14  1  0.250000  0.420355  0.976031  1
  Sb  Sb15  1  0.750000  0.579392  0.024334  1
  Sb  Sb16  1  0.750000  0.029251  0.911954  1
  Sb  Sb17  1  0.250000  0.970699  0.088040  1
  Sb  Sb18  1  0.750000  0.139448  0.322144  1
  Sb  Sb19  1  0.250000  0.860726  0.677759  1
  Sb  Sb20  1  0.750000  0.278838  0.936583  1
  Sb  Sb21  1  0.250000  0.721137  0.063605  1
  Sb  Sb22  1  0.750000  0.284412  0.652826  1
  Sb  Sb23  1  0.250000  0.715556  0.347182  1
  Sb  Sb24  1  0.750000  0.577168  0.733745  1
  Sb  Sb25  1  0.250000  0.422531  0.265848  1
  Sb  Sb26  1  0.750000  0.571733  0.447378  1
  Sb  Sb27  1  0.250000  0.428268  0.552604  1
