# generated using pymatgen
data_ZrTaP7Ru12
_symmetry_space_group_name_H-M   'P 1'
_cell_length_a   9.35913600
_cell_length_b   9.35913504
_cell_length_c   3.88075600
_cell_angle_alpha   90.00000000
_cell_angle_beta   90.00000000
_cell_angle_gamma   120.00000245
_symmetry_Int_Tables_number   1
_chemical_formula_structural   ZrTaP7Ru12
_chemical_formula_sum   'Zr1 Ta1 P7 Ru12'
_cell_volume   294.38686608
_cell_formula_units_Z   1
loop_
 _symmetry_equiv_pos_site_id
 _symmetry_equiv_pos_as_xyz
  1  'x, y, z'
loop_
 _atom_site_type_symbol
 _atom_site_label
 _atom_site_symmetry_multiplicity
 _atom_site_fract_x
 _atom_site_fract_y
 _atom_site_fract_z
 _atom_site_occupancy
  Zr  Zr0  1  0.333333  0.666667  0.000000  1
  Ta  Ta1  1  0.666667  0.333333  0.500000  1
  P  P2  1  0.594719  0.718885  0.500000  1
  P  P3  1  0.000000  0.000000  0.000000  1
  P  P4  1  0.281115  0.875835  0.500000  1
  P  P5  1  0.124165  0.405281  0.500000  1
  P  P6  1  0.885202  0.577571  0.000000  1
  P  P7  1  0.422429  0.307631  0.000000  1
  P  P8  1  0.692369  0.114798  0.000000  1
  Ru  Ru9  1  0.553178  0.948391  0.500000  1
  Ru  Ru10  1  0.395214  0.446822  0.500000  1
  Ru  Ru11  1  0.910104  0.127586  0.500000  1
  Ru  Ru12  1  0.217482  0.089896  0.500000  1
  Ru  Ru13  1  0.872414  0.782518  0.500000  1
  Ru  Ru14  1  0.723687  0.885598  0.000000  1
  Ru  Ru15  1  0.114402  0.838089  0.000000  1
  Ru  Ru16  1  0.161911  0.276313  0.000000  1
  Ru  Ru17  1  0.436534  0.078400  0.000000  1
  Ru  Ru18  1  0.921600  0.358134  0.000000  1
  Ru  Ru19  1  0.641866  0.563466  0.000000  1
  Ru  Ru20  1  0.051609  0.604786  0.500000  1
