# generated using pymatgen
data_SrCePr2(Si5Pt3)2
_symmetry_space_group_name_H-M   'P 1'
_cell_length_a   8.26278321
_cell_length_b   8.27524415
_cell_length_c   8.27524338
_cell_angle_alpha   136.78288199
_cell_angle_beta   105.32833559
_cell_angle_gamma   90.41797325
_symmetry_Int_Tables_number   1
_chemical_formula_structural   SrCePr2(Si5Pt3)2
_chemical_formula_sum   'Sr1 Ce1 Pr2 Si10 Pt6'
_cell_volume   356.14117390
_cell_formula_units_Z   1
loop_
 _symmetry_equiv_pos_site_id
 _symmetry_equiv_pos_as_xyz
  1  'x, y, z'
loop_
 _atom_site_type_symbol
 _atom_site_label
 _atom_site_symmetry_multiplicity
 _atom_site_fract_x
 _atom_site_fract_y
 _atom_site_fract_z
 _atom_site_occupancy
  Sr  Sr0  1  0.862708  0.628005  0.234702  1
  Ce  Ce1  1  0.138603  0.370372  0.768231  1
  Pr  Pr2  1  0.396327  0.128975  0.267353  1
  Pr  Pr3  1  0.604724  0.871681  0.733043  1
  Si  Si4  1  0.497961  0.747891  0.247843  1
  Si  Si5  1  0.497961  0.250118  0.750071  1
  Si  Si6  1  0.229409  0.981850  0.750969  1
  Si  Si7  1  0.771906  0.522384  0.751492  1
  Si  Si8  1  0.771906  0.020415  0.249523  1
  Si  Si9  1  0.229409  0.478440  0.247560  1
  Si  Si10  1  0.037082  0.887812  0.149270  1
  Si  Si11  1  0.964845  0.114501  0.850343  1
  Si  Si12  1  0.737186  0.385618  0.351568  1
  Si  Si13  1  0.260783  0.612116  0.648667  1
  Pt  Pt14  1  0.001003  0.750059  0.751167  1
  Pt  Pt15  1  0.001003  0.249837  0.250944  1
  Pt  Pt16  1  0.252322  0.863467  0.388856  1
  Pt  Pt17  1  0.745006  0.136070  0.608935  1
  Pt  Pt18  1  0.475346  0.364234  0.111112  1
  Pt  Pt19  1  0.524506  0.636156  0.888352  1
