# generated using pymatgen
data_Ba2ReAgN4
_symmetry_space_group_name_H-M   'P 1'
_cell_length_a   6.11637900
_cell_length_b   6.80787241
_cell_length_c   7.60724091
_cell_angle_alpha   73.32919754
_cell_angle_beta   90.00000000
_cell_angle_gamma   90.00000000
_symmetry_Int_Tables_number   1
_chemical_formula_structural   Ba2ReAgN4
_chemical_formula_sum   'Ba4 Re2 Ag2 N8'
_cell_volume   303.44803853
_cell_formula_units_Z   2
loop_
 _symmetry_equiv_pos_site_id
 _symmetry_equiv_pos_as_xyz
  1  'x, y, z'
loop_
 _atom_site_type_symbol
 _atom_site_label
 _atom_site_symmetry_multiplicity
 _atom_site_fract_x
 _atom_site_fract_y
 _atom_site_fract_z
 _atom_site_occupancy
  Ba  Ba0  1  0.250000  0.267004  0.071208  1
  Ba  Ba1  1  0.750000  0.732996  0.928792  1
  Ba  Ba2  1  0.750000  0.832037  0.396259  1
  Ba  Ba3  1  0.250000  0.167963  0.603741  1
  Re  Re4  1  0.250000  0.729497  0.196210  1
  Re  Re5  1  0.750000  0.270503  0.803790  1
  Ag  Ag6  1  0.750000  0.341152  0.380115  1
  Ag  Ag7  1  0.250000  0.658848  0.619885  1
  N  N8  1  0.506790  0.433354  0.767252  1
  N  N9  1  0.006790  0.566646  0.232748  1
  N  N10  1  0.493210  0.566646  0.232748  1
  N  N11  1  0.993210  0.433354  0.767252  1
  N  N12  1  0.750000  0.099138  0.645056  1
  N  N13  1  0.250000  0.900862  0.354944  1
  N  N14  1  0.750000  0.109166  0.039911  1
  N  N15  1  0.250000  0.890834  0.960089  1
