# generated using pymatgen
data_KBaBiSb3Au4
_symmetry_space_group_name_H-M   'P 1'
_cell_length_a   4.90009400
_cell_length_b   5.00023752
_cell_length_c   11.38326150
_cell_angle_alpha   88.72608223
_cell_angle_beta   90.00000000
_cell_angle_gamma   90.00000000
_symmetry_Int_Tables_number   1
_chemical_formula_structural   KBaBiSb3Au4
_chemical_formula_sum   'K1 Ba1 Bi1 Sb3 Au4'
_cell_volume   278.83956879
_cell_formula_units_Z   1
loop_
 _symmetry_equiv_pos_site_id
 _symmetry_equiv_pos_as_xyz
  1  'x, y, z'
loop_
 _atom_site_type_symbol
 _atom_site_label
 _atom_site_symmetry_multiplicity
 _atom_site_fract_x
 _atom_site_fract_y
 _atom_site_fract_z
 _atom_site_occupancy
  K  K0  1  0.750000  0.263177  0.240176  1
  Ba  Ba1  1  0.250000  0.737468  0.760720  1
  Bi  Bi2  1  0.750000  0.752388  0.499296  1
  Sb  Sb3  1  0.250000  0.249615  0.499648  1
  Sb  Sb4  1  0.250000  0.803747  0.119837  1
  Sb  Sb5  1  0.750000  0.195842  0.880588  1
  Au  Au6  1  0.750000  0.690341  0.001030  1
  Au  Au7  1  0.750000  0.249023  0.640198  1
  Au  Au8  1  0.250000  0.748957  0.358678  1
  Au  Au9  1  0.250000  0.309442  0.999829  1
