# generated using pymatgen
data_Cs2MnCuS4
_symmetry_space_group_name_H-M   'P 1'
_cell_length_a   14.19437473
_cell_length_b   12.66117510
_cell_length_c   7.53704319
_cell_angle_alpha   85.30190817
_cell_angle_beta   62.74640095
_cell_angle_gamma   31.95168967
_symmetry_Int_Tables_number   1
_chemical_formula_structural   Cs2MnCuS4
_chemical_formula_sum   'Cs4 Mn2 Cu2 S8'
_cell_volume   483.28272429
_cell_formula_units_Z   2
loop_
 _symmetry_equiv_pos_site_id
 _symmetry_equiv_pos_as_xyz
  1  'x, y, z'
loop_
 _atom_site_type_symbol
 _atom_site_label
 _atom_site_symmetry_multiplicity
 _atom_site_fract_x
 _atom_site_fract_y
 _atom_site_fract_z
 _atom_site_occupancy
  Cs  Cs0  1  0.572046  0.572046  0.927954  1
  Cs  Cs1  1  0.927954  0.927954  0.572046  1
  Cs  Cs2  1  0.322046  0.322046  0.677954  1
  Cs  Cs3  1  0.677954  0.677954  0.322046  1
  Mn  Mn4  1  0.750000  0.750000  0.750000  1
  Mn  Mn5  1  0.500000  0.500000  0.500000  1
  Cu  Cu6  1  0.000000  0.000000  0.000000  1
  Cu  Cu7  1  0.250000  0.250000  0.250000  1
  S  S8  1  0.234106  0.864414  0.591986  1
  S  S9  1  0.309495  0.591986  0.864414  1
  S  S10  1  0.591986  0.309495  0.234106  1
  S  S11  1  0.864414  0.234106  0.309495  1
  S  S12  1  0.385586  0.015894  0.940505  1
  S  S13  1  0.940505  0.658014  0.385586  1
  S  S14  1  0.658014  0.940505  0.015894  1
  S  S15  1  0.015894  0.385586  0.658014  1
