# generated using pymatgen
data_Zr3Fe4MoP4
_symmetry_space_group_name_H-M   'P 1'
_cell_length_a   3.70900400
_cell_length_b   6.24850441
_cell_length_c   7.05003578
_cell_angle_alpha   90.37242889
_cell_angle_beta   90.00000000
_cell_angle_gamma   90.00000000
_symmetry_Int_Tables_number   1
_chemical_formula_structural   Zr3Fe4MoP4
_chemical_formula_sum   'Zr3 Fe4 Mo1 P4'
_cell_volume   163.38625876
_cell_formula_units_Z   1
loop_
 _symmetry_equiv_pos_site_id
 _symmetry_equiv_pos_as_xyz
  1  'x, y, z'
loop_
 _atom_site_type_symbol
 _atom_site_label
 _atom_site_symmetry_multiplicity
 _atom_site_fract_x
 _atom_site_fract_y
 _atom_site_fract_z
 _atom_site_occupancy
  Zr  Zr0  1  0.750000  0.483523  0.321390  1
  Zr  Zr1  1  0.250000  0.016161  0.813679  1
  Zr  Zr2  1  0.750000  0.978954  0.184349  1
  Fe  Fe3  1  0.750000  0.858752  0.566699  1
  Fe  Fe4  1  0.250000  0.147278  0.440335  1
  Fe  Fe5  1  0.750000  0.356480  0.934977  1
  Fe  Fe6  1  0.250000  0.642381  0.052734  1
  Mo  Mo7  1  0.250000  0.517922  0.677372  1
  P  P8  1  0.250000  0.280881  0.113569  1
  P  P9  1  0.750000  0.707834  0.876449  1
  P  P10  1  0.250000  0.781154  0.399579  1
  P  P11  1  0.750000  0.228680  0.618867  1
