# generated using pymatgen
data_Th3Ga3OsRu2
_symmetry_space_group_name_H-M   'P 1'
_cell_length_a   7.35827000
_cell_length_b   7.35827035
_cell_length_c   3.95315000
_cell_angle_alpha   90.00000000
_cell_angle_beta   90.00000000
_cell_angle_gamma   120.00001640
_symmetry_Int_Tables_number   1
_chemical_formula_structural   Th3Ga3OsRu2
_chemical_formula_sum   'Th3 Ga3 Os1 Ru2'
_cell_volume   185.36396624
_cell_formula_units_Z   1
loop_
 _symmetry_equiv_pos_site_id
 _symmetry_equiv_pos_as_xyz
  1  'x, y, z'
loop_
 _atom_site_type_symbol
 _atom_site_label
 _atom_site_symmetry_multiplicity
 _atom_site_fract_x
 _atom_site_fract_y
 _atom_site_fract_z
 _atom_site_occupancy
  Th  Th0  1  0.418713  0.419458  0.500000  1
  Th  Th1  1  0.580542  0.999255  0.500000  1
  Th  Th2  1  0.000745  0.581287  0.500000  1
  Ga  Ga3  1  0.760973  0.759806  0.000000  1
  Ga  Ga4  1  0.240194  0.001168  0.000000  1
  Ga  Ga5  1  0.998832  0.239027  0.000000  1
  Os  Os6  1  0.666667  0.333333  0.000000  1
  Ru  Ru7  1  0.333333  0.666667  0.000000  1
  Ru  Ru8  1  0.000000  0.000000  0.500000  1
