# generated using pymatgen
data_Ho10BiPb5Se2
_symmetry_space_group_name_H-M   'P 1'
_cell_length_a   9.19582000
_cell_length_b   9.21627206
_cell_length_c   6.70925900
_cell_angle_alpha   90.00000000
_cell_angle_beta   90.00000000
_cell_angle_gamma   119.92661906
_symmetry_Int_Tables_number   1
_chemical_formula_structural   Ho10BiPb5Se2
_chemical_formula_sum   'Ho10 Bi1 Pb5 Se2'
_cell_volume   492.80101648
_cell_formula_units_Z   1
loop_
 _symmetry_equiv_pos_site_id
 _symmetry_equiv_pos_as_xyz
  1  'x, y, z'
loop_
 _atom_site_type_symbol
 _atom_site_label
 _atom_site_symmetry_multiplicity
 _atom_site_fract_x
 _atom_site_fract_y
 _atom_site_fract_z
 _atom_site_occupancy
  Ho  Ho0  1  0.251685  0.251415  0.750000  1
  Ho  Ho1  1  0.000269  0.748585  0.750000  1
  Ho  Ho2  1  0.250046  0.000000  0.250000  1
  Ho  Ho3  1  0.748750  0.000000  0.750000  1
  Ho  Ho4  1  0.331730  0.664566  0.500743  1
  Ho  Ho5  1  0.667164  0.335434  0.500743  1
  Ho  Ho6  1  0.750341  0.746714  0.250000  1
  Ho  Ho7  1  0.003627  0.253286  0.250000  1
  Ho  Ho8  1  0.331730  0.664566  0.999257  1
  Ho  Ho9  1  0.667164  0.335434  0.999257  1
  Bi  Bi10  1  0.604714  0.000000  0.250000  1
  Pb  Pb11  1  0.000212  0.603844  0.250000  1
  Pb  Pb12  1  0.604100  0.605161  0.750000  1
  Pb  Pb13  1  0.396368  0.396156  0.250000  1
  Pb  Pb14  1  0.998939  0.394839  0.750000  1
  Pb  Pb15  1  0.394950  0.000000  0.750000  1
  Se  Se16  1  0.999107  0.000000  0.000179  1
  Se  Se17  1  0.999107  0.000000  0.499821  1
