# generated using pymatgen
data_Tb4TmZn2Bi
_symmetry_space_group_name_H-M   'P 1'
_cell_length_a   8.62986151
_cell_length_b   8.62986111
_cell_length_c   8.62986069
_cell_angle_alpha   123.20074900
_cell_angle_beta   123.20073490
_cell_angle_gamma   84.54015636
_symmetry_Int_Tables_number   1
_chemical_formula_structural   Tb4TmZn2Bi
_chemical_formula_sum   'Tb8 Tm2 Zn4 Bi2'
_cell_volume   430.33863683
_cell_formula_units_Z   2
loop_
 _symmetry_equiv_pos_site_id
 _symmetry_equiv_pos_as_xyz
  1  'x, y, z'
loop_
 _atom_site_type_symbol
 _atom_site_label
 _atom_site_symmetry_multiplicity
 _atom_site_fract_x
 _atom_site_fract_y
 _atom_site_fract_z
 _atom_site_occupancy
  Tb  Tb0  1  0.511096  0.011096  0.806426  1
  Tb  Tb1  1  0.204670  0.704670  0.193574  1
  Tb  Tb2  1  0.011096  0.204670  0.500000  1
  Tb  Tb3  1  0.704670  0.511096  0.500000  1
  Tb  Tb4  1  0.488904  0.988904  0.193574  1
  Tb  Tb5  1  0.795330  0.295330  0.806426  1
  Tb  Tb6  1  0.988904  0.795330  0.500000  1
  Tb  Tb7  1  0.295330  0.488904  0.500000  1
  Tm  Tm8  1  0.500000  0.500000  0.000000  1
  Tm  Tm9  1  0.000000  0.000000  0.000000  1
  Zn  Zn10  1  0.139889  0.639889  0.779780  1
  Zn  Zn11  1  0.860111  0.360111  0.220220  1
  Zn  Zn12  1  0.639889  0.860111  0.500000  1
  Zn  Zn13  1  0.360111  0.139889  0.500000  1
  Bi  Bi14  1  0.250000  0.250000  0.000000  1
  Bi  Bi15  1  0.750000  0.750000  0.000000  1
