# generated using pymatgen
data_HfBeCu3Au
_symmetry_space_group_name_H-M   'P 1'
_cell_length_a   4.89550328
_cell_length_b   4.89550398
_cell_length_c   4.78047055
_cell_angle_alpha   59.20073810
_cell_angle_beta   59.20073490
_cell_angle_gamma   59.99998979
_symmetry_Int_Tables_number   1
_chemical_formula_structural   HfBeCu3Au
_chemical_formula_sum   'Hf1 Be1 Cu3 Au1'
_cell_volume   80.01965744
_cell_formula_units_Z   1
loop_
 _symmetry_equiv_pos_site_id
 _symmetry_equiv_pos_as_xyz
  1  'x, y, z'
loop_
 _atom_site_type_symbol
 _atom_site_label
 _atom_site_symmetry_multiplicity
 _atom_site_fract_x
 _atom_site_fract_y
 _atom_site_fract_z
 _atom_site_occupancy
  Hf  Hf0  1  0.000220  0.000220  0.999340  1
  Be  Be1  1  0.623808  0.623808  0.128576  1
  Cu  Cu2  1  0.624706  0.124474  0.626114  1
  Cu  Cu3  1  0.124474  0.624706  0.626114  1
  Cu  Cu4  1  0.624706  0.624706  0.626114  1
  Au  Au5  1  0.252086  0.252086  0.243743  1
