# generated using pymatgen
data_TmLu2Ni8Ir
_symmetry_space_group_name_H-M   'P 1'
_cell_length_a   4.91685009
_cell_length_b   4.91685059
_cell_length_c   8.73711703
_cell_angle_alpha   73.65758846
_cell_angle_beta   73.65758906
_cell_angle_gamma   60.00001004
_symmetry_Int_Tables_number   1
_chemical_formula_structural   TmLu2Ni8Ir
_chemical_formula_sum   'Tm1 Lu2 Ni8 Ir1'
_cell_volume   173.00052365
_cell_formula_units_Z   1
loop_
 _symmetry_equiv_pos_site_id
 _symmetry_equiv_pos_as_xyz
  1  'x, y, z'
loop_
 _atom_site_type_symbol
 _atom_site_label
 _atom_site_symmetry_multiplicity
 _atom_site_fract_x
 _atom_site_fract_y
 _atom_site_fract_z
 _atom_site_occupancy
  Tm  Tm0  1  0.000000  0.000000  0.000000  1
  Lu  Lu1  1  0.138143  0.138143  0.585571  1
  Lu  Lu2  1  0.861857  0.861857  0.414429  1
  Ni  Ni3  1  0.077419  0.581981  0.758619  1
  Ni  Ni4  1  0.581981  0.581981  0.758619  1
  Ni  Ni5  1  0.581981  0.077419  0.758619  1
  Ni  Ni6  1  0.922581  0.418019  0.241381  1
  Ni  Ni7  1  0.418019  0.418019  0.241381  1
  Ni  Ni8  1  0.418019  0.922581  0.241381  1
  Ni  Ni9  1  0.333390  0.333390  0.999829  1
  Ni  Ni10  1  0.666610  0.666610  0.000171  1
  Ir  Ir11  1  0.500000  0.500000  0.500000  1
