# generated using pymatgen
data_Nb2SiPRu2
_symmetry_space_group_name_H-M   'P 1'
_cell_length_a   3.80739000
_cell_length_b   6.38320800
_cell_length_c   7.26280900
_cell_angle_alpha   90.00000000
_cell_angle_beta   90.00000000
_cell_angle_gamma   90.00000000
_symmetry_Int_Tables_number   1
_chemical_formula_structural   Nb2SiPRu2
_chemical_formula_sum   'Nb4 Si2 P2 Ru4'
_cell_volume   176.51067849
_cell_formula_units_Z   2
loop_
 _symmetry_equiv_pos_site_id
 _symmetry_equiv_pos_as_xyz
  1  'x, y, z'
loop_
 _atom_site_type_symbol
 _atom_site_label
 _atom_site_symmetry_multiplicity
 _atom_site_fract_x
 _atom_site_fract_y
 _atom_site_fract_z
 _atom_site_occupancy
  Nb  Nb0  1  0.250000  0.021935  0.823309  1
  Nb  Nb1  1  0.250000  0.521935  0.676691  1
  Nb  Nb2  1  0.750000  0.975296  0.175299  1
  Nb  Nb3  1  0.750000  0.475296  0.324701  1
  Si  Si4  1  0.250000  0.272570  0.124112  1
  Si  Si5  1  0.250000  0.772570  0.375888  1
  P  P6  1  0.750000  0.726523  0.876992  1
  P  P7  1  0.750000  0.226523  0.623008  1
  Ru  Ru8  1  0.250000  0.150622  0.444668  1
  Ru  Ru9  1  0.250000  0.650622  0.055332  1
  Ru  Ru10  1  0.750000  0.853054  0.567370  1
  Ru  Ru11  1  0.750000  0.353054  0.932630  1
