# generated using pymatgen
data_CsTb2EuSe4
_symmetry_space_group_name_H-M   'P 1'
_cell_length_a   4.21940800
_cell_length_b   4.21940742
_cell_length_c   30.61351900
_cell_angle_alpha   90.00000000
_cell_angle_beta   90.00000000
_cell_angle_gamma   119.99997320
_symmetry_Int_Tables_number   1
_chemical_formula_structural   CsTb2EuSe4
_chemical_formula_sum   'Cs2 Tb4 Eu2 Se8'
_cell_volume   472.00542183
_cell_formula_units_Z   2
loop_
 _symmetry_equiv_pos_site_id
 _symmetry_equiv_pos_as_xyz
  1  'x, y, z'
loop_
 _atom_site_type_symbol
 _atom_site_label
 _atom_site_symmetry_multiplicity
 _atom_site_fract_x
 _atom_site_fract_y
 _atom_site_fract_z
 _atom_site_occupancy
  Cs  Cs0  1  0.666667  0.333333  0.250000  1
  Cs  Cs1  1  0.333333  0.666667  0.750000  1
  Tb  Tb2  1  0.666667  0.333333  0.613185  1
  Tb  Tb3  1  0.666667  0.333333  0.886815  1
  Tb  Tb4  1  0.333333  0.666667  0.386815  1
  Tb  Tb5  1  0.333333  0.666667  0.113185  1
  Eu  Eu6  1  0.000000  0.000000  0.500000  1
  Eu  Eu7  1  0.000000  0.000000  0.000000  1
  Se  Se8  1  0.000000  0.000000  0.163908  1
  Se  Se9  1  0.666667  0.333333  0.440760  1
  Se  Se10  1  0.000000  0.000000  0.663908  1
  Se  Se11  1  0.333333  0.666667  0.940760  1
  Se  Se12  1  0.333333  0.666667  0.559240  1
  Se  Se13  1  0.000000  0.000000  0.336092  1
  Se  Se14  1  0.666667  0.333333  0.059240  1
  Se  Se15  1  0.000000  0.000000  0.836092  1
