# generated using pymatgen
data_Y13Th3MgCd3Ni4
_symmetry_space_group_name_H-M   'P 1'
_cell_length_a   9.66148929
_cell_length_b   9.68130501
_cell_length_c   9.68130419
_cell_angle_alpha   59.87714532
_cell_angle_beta   59.82845522
_cell_angle_gamma   59.82845566
_symmetry_Int_Tables_number   1
_chemical_formula_structural   Y13Th3MgCd3Ni4
_chemical_formula_sum   'Y13 Th3 Mg1 Cd3 Ni4'
_cell_volume   638.06237200
_cell_formula_units_Z   1
loop_
 _symmetry_equiv_pos_site_id
 _symmetry_equiv_pos_as_xyz
  1  'x, y, z'
loop_
 _atom_site_type_symbol
 _atom_site_label
 _atom_site_symmetry_multiplicity
 _atom_site_fract_x
 _atom_site_fract_y
 _atom_site_fract_z
 _atom_site_occupancy
  Y  Y0  1  0.201269  0.599973  0.599973  1
  Y  Y1  1  0.061509  0.439305  0.439305  1
  Y  Y2  1  0.439043  0.063341  0.063341  1
  Y  Y3  1  0.441077  0.060028  0.439619  1
  Y  Y4  1  0.062891  0.437897  0.062292  1
  Y  Y5  1  0.441077  0.439619  0.060028  1
  Y  Y6  1  0.062891  0.062292  0.437897  1
  Y  Y7  1  0.188173  0.816655  0.816655  1
  Y  Y8  1  0.811609  0.186157  0.186157  1
  Y  Y9  1  0.814733  0.186336  0.815302  1
  Y  Y10  1  0.185531  0.815591  0.183991  1
  Y  Y11  1  0.814733  0.815302  0.186336  1
  Y  Y12  1  0.185531  0.183991  0.815591  1
  Th  Th13  1  0.592169  0.597946  0.597946  1
  Th  Th14  1  0.591350  0.598509  0.211103  1
  Th  Th15  1  0.591350  0.211103  0.598509  1
  Mg  Mg16  1  0.826952  0.826524  0.826524  1
  Cd  Cd17  1  0.834159  0.830161  0.503446  1
  Cd  Cd18  1  0.834159  0.503446  0.830161  1
  Cd  Cd19  1  0.504607  0.830821  0.830821  1
  Ni  Ni20  1  0.403137  0.388628  0.388628  1
  Ni  Ni21  1  0.398257  0.391218  0.819778  1
  Ni  Ni22  1  0.398257  0.819778  0.391218  1
  Ni  Ni23  1  0.815532  0.395379  0.395379  1
