# generated using pymatgen
data_TbNd3Ga18(PdRh2)2
_symmetry_space_group_name_H-M   'P 1'
_cell_length_a   7.65636946
_cell_length_b   7.65635275
_cell_length_c   9.64746200
_cell_angle_alpha   90.00000000
_cell_angle_beta   90.00000000
_cell_angle_gamma   119.76680195
_symmetry_Int_Tables_number   1
_chemical_formula_structural   TbNd3Ga18(PdRh2)2
_chemical_formula_sum   'Tb1 Nd3 Ga18 Pd2 Rh4'
_cell_volume   490.91269878
_cell_formula_units_Z   1
loop_
 _symmetry_equiv_pos_site_id
 _symmetry_equiv_pos_as_xyz
  1  'x, y, z'
loop_
 _atom_site_type_symbol
 _atom_site_label
 _atom_site_symmetry_multiplicity
 _atom_site_fract_x
 _atom_site_fract_y
 _atom_site_fract_z
 _atom_site_occupancy
  Tb  Tb0  1  0.328821  0.003981  0.750000  1
  Nd  Nd1  1  0.996189  0.670997  0.250000  1
  Nd  Nd2  1  0.003563  0.329014  0.750000  1
  Nd  Nd3  1  0.670811  0.996008  0.250000  1
  Ga  Ga4  1  0.134863  0.134200  0.250000  1
  Ga  Ga5  1  0.867081  0.865745  0.750000  1
  Ga  Ga6  1  0.002048  0.338194  0.076916  1
  Ga  Ga7  1  0.000641  0.664297  0.920875  1
  Ga  Ga8  1  0.000641  0.664297  0.579125  1
  Ga  Ga9  1  0.338096  0.001574  0.425051  1
  Ga  Ga10  1  0.002048  0.338194  0.423084  1
  Ga  Ga11  1  0.659740  0.998390  0.579210  1
  Ga  Ga12  1  0.659740  0.998390  0.920790  1
  Ga  Ga13  1  0.338096  0.001574  0.074949  1
  Ga  Ga14  1  0.338531  0.336838  0.565996  1
  Ga  Ga15  1  0.660874  0.660901  0.437453  1
  Ga  Ga16  1  0.660874  0.660901  0.062547  1
  Ga  Ga17  1  0.338531  0.336838  0.934004  1
  Ga  Ga18  1  0.337503  0.545290  0.250000  1
  Ga  Ga19  1  0.660989  0.452595  0.750000  1
  Ga  Ga20  1  0.544890  0.336711  0.250000  1
  Ga  Ga21  1  0.454821  0.664380  0.750000  1
  Pd  Pd22  1  0.000107  0.000333  0.999046  1
  Pd  Pd23  1  0.000107  0.000333  0.500954  1
  Rh  Rh24  1  0.670877  0.329501  0.999058  1
  Rh  Rh25  1  0.329320  0.670511  0.998937  1
  Rh  Rh26  1  0.329320  0.670511  0.501063  1
  Rh  Rh27  1  0.670877  0.329501  0.500942  1
