# generated using pymatgen
data_Nb3Fe(BOs2)2
_symmetry_space_group_name_H-M   'P 1'
_cell_length_a   9.39725300
_cell_length_b   9.39725300
_cell_length_c   3.03752200
_cell_angle_alpha   90.00000000
_cell_angle_beta   90.00000000
_cell_angle_gamma   90.00000000
_symmetry_Int_Tables_number   1
_chemical_formula_structural   Nb3Fe(BOs2)2
_chemical_formula_sum   'Nb6 Fe2 B4 Os8'
_cell_volume   268.23859827
_cell_formula_units_Z   2
loop_
 _symmetry_equiv_pos_site_id
 _symmetry_equiv_pos_as_xyz
  1  'x, y, z'
loop_
 _atom_site_type_symbol
 _atom_site_label
 _atom_site_symmetry_multiplicity
 _atom_site_fract_x
 _atom_site_fract_y
 _atom_site_fract_z
 _atom_site_occupancy
  Nb  Nb0  1  0.826892  0.673108  0.000000  1
  Nb  Nb1  1  0.173108  0.326892  0.000000  1
  Nb  Nb2  1  0.326892  0.826892  0.000000  1
  Nb  Nb3  1  0.673108  0.173108  0.000000  1
  Nb  Nb4  1  0.500000  0.500000  0.000000  1
  Nb  Nb5  1  0.000000  0.000000  0.000000  1
  Fe  Fe6  1  0.500000  0.000000  0.500000  1
  Fe  Fe7  1  0.000000  0.500000  0.500000  1
  B  B8  1  0.610420  0.889580  0.000000  1
  B  B9  1  0.389580  0.110420  0.000000  1
  B  B10  1  0.110420  0.610420  0.000000  1
  B  B11  1  0.889580  0.389580  0.000000  1
  Os  Os12  1  0.567072  0.724477  0.500000  1
  Os  Os13  1  0.432928  0.275523  0.500000  1
  Os  Os14  1  0.067072  0.775523  0.500000  1
  Os  Os15  1  0.932928  0.224477  0.500000  1
  Os  Os16  1  0.275523  0.567072  0.500000  1
  Os  Os17  1  0.724477  0.432928  0.500000  1
  Os  Os18  1  0.224477  0.067072  0.500000  1
  Os  Os19  1  0.775523  0.932928  0.500000  1
