# generated using pymatgen
data_DyHo2Tm5Cd2PdPt
_symmetry_space_group_name_H-M   'P 1'
_cell_length_a   9.59222219
_cell_length_b   9.59222169
_cell_length_c   9.59095800
_cell_angle_alpha   60.00435787
_cell_angle_beta   60.00435958
_cell_angle_gamma   59.99128389
_symmetry_Int_Tables_number   1
_chemical_formula_structural   DyHo2Tm5Cd2PdPt
_chemical_formula_sum   'Dy2 Ho4 Tm10 Cd4 Pd2 Pt2'
_cell_volume   624.00119016
_cell_formula_units_Z   2
loop_
 _symmetry_equiv_pos_site_id
 _symmetry_equiv_pos_as_xyz
  1  'x, y, z'
loop_
 _atom_site_type_symbol
 _atom_site_label
 _atom_site_symmetry_multiplicity
 _atom_site_fract_x
 _atom_site_fract_y
 _atom_site_fract_z
 _atom_site_occupancy
  Dy  Dy0  1  0.565661  0.565661  0.934339  1
  Dy  Dy1  1  0.935511  0.935511  0.564488  1
  Ho  Ho2  1  0.935580  0.564798  0.564058  1
  Ho  Ho3  1  0.564798  0.935580  0.935563  1
  Ho  Ho4  1  0.564798  0.935580  0.564058  1
  Ho  Ho5  1  0.935580  0.564797  0.935563  1
  Tm  Tm6  1  0.353659  0.353659  0.349020  1
  Tm  Tm7  1  0.353659  0.353659  0.943663  1
  Tm  Tm8  1  0.357609  0.937122  0.352635  1
  Tm  Tm9  1  0.937122  0.357609  0.352635  1
  Tm  Tm10  1  0.809763  0.188992  0.189501  1
  Tm  Tm11  1  0.188992  0.809763  0.811744  1
  Tm  Tm12  1  0.188992  0.809763  0.189501  1
  Tm  Tm13  1  0.809763  0.188992  0.811744  1
  Tm  Tm14  1  0.189972  0.189972  0.810028  1
  Tm  Tm15  1  0.811279  0.811279  0.188721  1
  Cd  Cd16  1  0.581500  0.581500  0.582161  1
  Cd  Cd17  1  0.581500  0.581500  0.254837  1
  Cd  Cd18  1  0.580932  0.254587  0.582240  1
  Cd  Cd19  1  0.254587  0.580932  0.582240  1
  Pd  Pd20  1  0.143638  0.143638  0.145076  1
  Pd  Pd21  1  0.143638  0.143638  0.567651  1
  Pt  Pt22  1  0.141774  0.569696  0.144266  1
  Pt  Pt23  1  0.569696  0.141774  0.144266  1
