# generated using pymatgen
data_Y20Ga3Si12Ag
_symmetry_space_group_name_H-M   'P 1'
_cell_length_a   7.48787972
_cell_length_b   7.74059646
_cell_length_c   14.81396659
_cell_angle_alpha   90.16354719
_cell_angle_beta   90.38047893
_cell_angle_gamma   90.12694682
_symmetry_Int_Tables_number   1
_chemical_formula_structural   Y20Ga3Si12Ag
_chemical_formula_sum   'Y20 Ga3 Si12 Ag1'
_cell_volume   858.60263690
_cell_formula_units_Z   1
loop_
 _symmetry_equiv_pos_site_id
 _symmetry_equiv_pos_as_xyz
  1  'x, y, z'
loop_
 _atom_site_type_symbol
 _atom_site_label
 _atom_site_symmetry_multiplicity
 _atom_site_fract_x
 _atom_site_fract_y
 _atom_site_fract_z
 _atom_site_occupancy
  Y  Y0  1  0.678257  0.170948  0.625860  1
  Y  Y1  1  0.181198  0.324684  0.875831  1
  Y  Y2  1  0.320410  0.823795  0.123340  1
  Y  Y3  1  0.825986  0.676566  0.375464  1
  Y  Y4  1  0.318856  0.827090  0.378091  1
  Y  Y5  1  0.817798  0.677503  0.121992  1
  Y  Y6  1  0.680754  0.175959  0.877458  1
  Y  Y7  1  0.178026  0.322095  0.622683  1
  Y  Y8  1  0.521507  0.679960  0.603051  1
  Y  Y9  1  0.025875  0.816417  0.899530  1
  Y  Y10  1  0.474903  0.317876  0.099924  1
  Y  Y11  1  0.979750  0.183385  0.397215  1
  Y  Y12  1  0.472967  0.323354  0.398588  1
  Y  Y13  1  0.972172  0.179946  0.099572  1
  Y  Y14  1  0.527691  0.679590  0.898568  1
  Y  Y15  1  0.025399  0.818737  0.602199  1
  Y  Y16  1  0.848963  0.506412  0.751514  1
  Y  Y17  1  0.347555  0.990171  0.747843  1
  Y  Y18  1  0.152752  0.490587  0.250592  1
  Y  Y19  1  0.653239  0.010764  0.248308  1
  Ga  Ga20  1  0.151751  0.531053  0.040445  1
  Ga  Ga21  1  0.347196  0.031315  0.958870  1
  Ga  Ga22  1  0.843052  0.468166  0.540000  1
  Si  Si23  1  0.343230  0.027058  0.542954  1
  Si  Si24  1  0.851336  0.470250  0.959163  1
  Si  Si25  1  0.647680  0.971683  0.040633  1
  Si  Si26  1  0.150889  0.530018  0.460054  1
  Si  Si27  1  0.477826  0.393668  0.749362  1
  Si  Si28  1  0.976474  0.104229  0.752479  1
  Si  Si29  1  0.523151  0.608195  0.249927  1
  Si  Si30  1  0.024888  0.895324  0.248812  1
  Si  Si31  1  0.731873  0.870870  0.751596  1
  Si  Si32  1  0.231577  0.626925  0.750444  1
  Si  Si33  1  0.269065  0.127070  0.248202  1
  Si  Si34  1  0.768255  0.375679  0.248851  1
  Ag  Ag35  1  0.657702  0.972658  0.460584  1
