# generated using pymatgen
data_FeSb2Br2O3
_symmetry_space_group_name_H-M   'P 1'
_cell_length_a   8.58158062
_cell_length_b   9.23128341
_cell_length_c   10.41353943
_cell_angle_alpha   66.51341114
_cell_angle_beta   83.69089755
_cell_angle_gamma   91.96361231
_symmetry_Int_Tables_number   1
_chemical_formula_structural   FeSb2Br2O3
_chemical_formula_sum   'Fe4 Sb8 Br8 O12'
_cell_volume   749.26129219
_cell_formula_units_Z   4
loop_
 _symmetry_equiv_pos_site_id
 _symmetry_equiv_pos_as_xyz
  1  'x, y, z'
loop_
 _atom_site_type_symbol
 _atom_site_label
 _atom_site_symmetry_multiplicity
 _atom_site_fract_x
 _atom_site_fract_y
 _atom_site_fract_z
 _atom_site_occupancy
  Fe  Fe0  1  0.512615  0.613741  0.095912  1
  Fe  Fe1  1  0.487490  0.886481  0.404085  1
  Fe  Fe2  1  0.512433  0.113666  0.596098  1
  Fe  Fe3  1  0.487337  0.386194  0.903993  1
  Sb  Sb4  1  0.682776  0.028990  0.936122  1
  Sb  Sb5  1  0.682694  0.529032  0.436092  1
  Sb  Sb6  1  0.317278  0.970953  0.063900  1
  Sb  Sb7  1  0.317284  0.471025  0.563865  1
  Sb  Sb8  1  0.693484  0.790236  0.733890  1
  Sb  Sb9  1  0.693456  0.290308  0.233846  1
  Sb  Sb10  1  0.306573  0.209669  0.266170  1
  Sb  Sb11  1  0.306559  0.709774  0.766058  1
  Br  Br12  1  0.776027  0.931755  0.284945  1
  Br  Br13  1  0.776000  0.431855  0.784904  1
  Br  Br14  1  0.223950  0.068101  0.715107  1
  Br  Br15  1  0.223995  0.568215  0.215039  1
  Br  Br16  1  0.855535  0.230988  0.467504  1
  Br  Br17  1  0.855547  0.730979  0.967527  1
  Br  Br18  1  0.144447  0.769041  0.532461  1
  Br  Br19  1  0.144476  0.268995  0.032486  1
  O  O20  1  0.483486  0.648876  0.436282  1
  O  O21  1  0.483557  0.148792  0.936341  1
  O  O22  1  0.516444  0.351152  0.563681  1
  O  O23  1  0.516508  0.851199  0.063664  1
  O  O24  1  0.368831  0.010660  0.235397  1
  O  O25  1  0.368883  0.510800  0.735323  1
  O  O26  1  0.631139  0.989202  0.764692  1
  O  O27  1  0.631145  0.489287  0.264600  1
  O  O28  1  0.511461  0.152687  0.382538  1
  O  O29  1  0.511427  0.652656  0.882452  1
  O  O30  1  0.488617  0.847410  0.617499  1
  O  O31  1  0.488541  0.347276  0.117523  1
