# generated using pymatgen
data_TbNdMn5(PIr)7
_symmetry_space_group_name_H-M   'P 1'
_cell_length_a   9.42437889
_cell_length_b   9.36415833
_cell_length_c   3.92471100
_cell_angle_alpha   90.00000000
_cell_angle_beta   90.00000000
_cell_angle_gamma   119.92229155
_symmetry_Int_Tables_number   1
_chemical_formula_structural   TbNdMn5(PIr)7
_chemical_formula_sum   'Tb1 Nd1 Mn5 P7 Ir7'
_cell_volume   300.19215513
_cell_formula_units_Z   1
loop_
 _symmetry_equiv_pos_site_id
 _symmetry_equiv_pos_as_xyz
  1  'x, y, z'
loop_
 _atom_site_type_symbol
 _atom_site_label
 _atom_site_symmetry_multiplicity
 _atom_site_fract_x
 _atom_site_fract_y
 _atom_site_fract_z
 _atom_site_occupancy
  Tb  Tb0  1  0.665239  0.331961  0.000000  1
  Nd  Nd1  1  0.334060  0.666043  0.500000  1
  Mn  Mn2  1  0.264294  0.104090  0.000000  1
  Mn  Mn3  1  0.841067  0.731274  0.000000  1
  Mn  Mn4  1  0.891542  0.162503  0.000000  1
  Mn  Mn5  1  0.783924  0.907244  0.500000  1
  Mn  Mn6  1  0.127337  0.219346  0.500000  1
  P  P7  1  0.304968  0.892292  0.000000  1
  P  P8  1  0.593738  0.701512  0.000000  1
  P  P9  1  0.111968  0.408456  0.000000  1
  P  P10  1  0.393190  0.279530  0.500000  1
  P  P11  1  0.877144  0.598857  0.500000  1
  P  P12  1  0.721630  0.116624  0.500000  1
  P  P13  1  0.997271  0.000655  0.000000  1
  Ir  Ir14  1  0.063511  0.638465  0.000000  1
  Ir  Ir15  1  0.578832  0.941220  0.000000  1
  Ir  Ir16  1  0.364605  0.422397  0.000000  1
  Ir  Ir17  1  0.441831  0.057232  0.500000  1
  Ir  Ir18  1  0.614526  0.559631  0.500000  1
  Ir  Ir19  1  0.944116  0.387557  0.500000  1
  Ir  Ir20  1  0.085205  0.873113  0.500000  1
