# generated using pymatgen
data_U4Ga5Tc7P
_symmetry_space_group_name_H-M   'P 1'
_cell_length_a   7.19826632
_cell_length_b   7.19826789
_cell_length_c   7.19826820
_cell_angle_alpha   109.78600462
_cell_angle_beta   108.84346066
_cell_angle_gamma   109.78601329
_symmetry_Int_Tables_number   1
_chemical_formula_structural   U4Ga5Tc7P
_chemical_formula_sum   'U4 Ga5 Tc7 P1'
_cell_volume   287.09326518
_cell_formula_units_Z   1
loop_
 _symmetry_equiv_pos_site_id
 _symmetry_equiv_pos_as_xyz
  1  'x, y, z'
loop_
 _atom_site_type_symbol
 _atom_site_label
 _atom_site_symmetry_multiplicity
 _atom_site_fract_x
 _atom_site_fract_y
 _atom_site_fract_z
 _atom_site_occupancy
  U  U0  1  0.481848  0.477857  0.481848  1
  U  U1  1  0.003991  0.522143  0.003991  1
  U  U2  1  0.481848  0.000000  0.003991  1
  U  U3  1  0.003991  0.000000  0.481848  1
  Ga  Ga4  1  0.721458  0.000000  0.721458  1
  Ga  Ga5  1  0.681421  0.693723  0.987698  1
  Ga  Ga6  1  0.293976  0.306277  0.987698  1
  Ga  Ga7  1  0.987698  0.693723  0.681421  1
  Ga  Ga8  1  0.987698  0.306277  0.293976  1
  Tc  Tc9  1  0.499369  0.753555  0.252924  1
  Tc  Tc10  1  0.745815  0.246445  0.499369  1
  Tc  Tc11  1  0.252924  0.753555  0.499369  1
  Tc  Tc12  1  0.241707  0.500000  0.741707  1
  Tc  Tc13  1  0.044469  0.000000  0.044469  1
  Tc  Tc14  1  0.499369  0.246445  0.745815  1
  Tc  Tc15  1  0.741707  0.500000  0.241707  1
  P  P16  1  0.330709  0.000000  0.330709  1
