# generated using pymatgen
data_Na6GaFeS4(O4F)4
_symmetry_space_group_name_H-M   'P 1'
_cell_length_a   6.73968800
_cell_length_b   8.94933400
_cell_length_c   14.24180400
_cell_angle_alpha   90.00000000
_cell_angle_beta   90.00000000
_cell_angle_gamma   90.00000000
_symmetry_Int_Tables_number   1
_chemical_formula_structural   Na6GaFeS4(O4F)4
_chemical_formula_sum   'Na12 Ga2 Fe2 S8 O32 F8'
_cell_volume   859.00464766
_cell_formula_units_Z   2
loop_
 _symmetry_equiv_pos_site_id
 _symmetry_equiv_pos_as_xyz
  1  'x, y, z'
loop_
 _atom_site_type_symbol
 _atom_site_label
 _atom_site_symmetry_multiplicity
 _atom_site_fract_x
 _atom_site_fract_y
 _atom_site_fract_z
 _atom_site_occupancy
  Na  Na0  1  0.520774  0.665670  0.904037  1
  Na  Na1  1  0.020774  0.834330  0.595963  1
  Na  Na2  1  0.479226  0.165670  0.595963  1
  Na  Na3  1  0.979226  0.334330  0.904037  1
  Na  Na4  1  0.479519  0.334322  0.095116  1
  Na  Na5  1  0.979519  0.165678  0.404884  1
  Na  Na6  1  0.520481  0.834322  0.404884  1
  Na  Na7  1  0.020481  0.665678  0.095116  1
  Na  Na8  1  0.750000  0.000000  0.047685  1
  Na  Na9  1  0.250000  0.500000  0.452315  1
  Na  Na10  1  0.250000  0.000000  0.951234  1
  Na  Na11  1  0.750000  0.500000  0.548766  1
  Ga  Ga12  1  0.750000  0.000000  0.804623  1
  Ga  Ga13  1  0.250000  0.500000  0.695377  1
  Fe  Fe14  1  0.250000  0.000000  0.193848  1
  Fe  Fe15  1  0.750000  0.500000  0.306152  1
  S  S16  1  0.004786  0.693929  0.855345  1
  S  S17  1  0.504786  0.806071  0.644655  1
  S  S18  1  0.995214  0.193929  0.644655  1
  S  S19  1  0.495214  0.306071  0.855345  1
  S  S20  1  0.996306  0.306993  0.143335  1
  S  S21  1  0.496306  0.193007  0.356665  1
  S  S22  1  0.003694  0.806993  0.356665  1
  S  S23  1  0.503694  0.693007  0.143335  1
  O  O24  1  0.445593  0.443073  0.796312  1
  O  O25  1  0.945593  0.056927  0.703688  1
  O  O26  1  0.554407  0.943073  0.703688  1
  O  O27  1  0.054407  0.556927  0.796312  1
  O  O28  1  0.552278  0.556806  0.202157  1
  O  O29  1  0.052278  0.943194  0.297843  1
  O  O30  1  0.447722  0.056806  0.297843  1
  O  O31  1  0.947722  0.443194  0.202157  1
  O  O32  1  0.187005  0.766550  0.887910  1
  O  O33  1  0.687005  0.733450  0.612090  1
  O  O34  1  0.812995  0.266550  0.612090  1
  O  O35  1  0.312995  0.233450  0.887910  1
  O  O36  1  0.813584  0.234009  0.111554  1
  O  O37  1  0.313584  0.265991  0.388446  1
  O  O38  1  0.186416  0.734009  0.388446  1
  O  O39  1  0.686416  0.765991  0.111554  1
  O  O40  1  0.881184  0.640013  0.934022  1
  O  O41  1  0.381184  0.859987  0.565978  1
  O  O42  1  0.118816  0.140013  0.565978  1
  O  O43  1  0.618816  0.359987  0.934022  1
  O  O44  1  0.120162  0.358809  0.064254  1
  O  O45  1  0.620162  0.141191  0.435746  1
  O  O46  1  0.879838  0.858809  0.435746  1
  O  O47  1  0.379838  0.641191  0.064254  1
  O  O48  1  0.384205  0.703805  0.706776  1
  O  O49  1  0.884205  0.796195  0.793224  1
  O  O50  1  0.615795  0.203805  0.793224  1
  O  O51  1  0.115795  0.296195  0.706776  1
  O  O52  1  0.616117  0.295865  0.294579  1
  O  O53  1  0.116117  0.204135  0.205421  1
  O  O54  1  0.383883  0.795865  0.205421  1
  O  O55  1  0.883883  0.704135  0.294579  1
  F  F56  1  0.579942  0.928676  0.901869  1
  F  F57  1  0.079942  0.571324  0.598131  1
  F  F58  1  0.420058  0.428676  0.598131  1
  F  F59  1  0.920058  0.071324  0.901869  1
  F  F60  1  0.423657  0.072485  0.094876  1
  F  F61  1  0.923657  0.427515  0.405124  1
  F  F62  1  0.576343  0.572485  0.405124  1
  F  F63  1  0.076343  0.927515  0.094876  1
