# generated using pymatgen
data_Ho6Pa2FeNiB28
_symmetry_space_group_name_H-M   'P 1'
_cell_length_a   7.19744107
_cell_length_b   7.20397723
_cell_length_c   7.51377100
_cell_angle_alpha   90.00000000
_cell_angle_beta   90.00000000
_cell_angle_gamma   90.00669751
_symmetry_Int_Tables_number   1
_chemical_formula_structural   Ho6Pa2FeNiB28
_chemical_formula_sum   'Ho6 Pa2 Fe1 Ni1 B28'
_cell_volume   389.59053845
_cell_formula_units_Z   1
loop_
 _symmetry_equiv_pos_site_id
 _symmetry_equiv_pos_as_xyz
  1  'x, y, z'
loop_
 _atom_site_type_symbol
 _atom_site_label
 _atom_site_symmetry_multiplicity
 _atom_site_fract_x
 _atom_site_fract_y
 _atom_site_fract_z
 _atom_site_occupancy
  Ho  Ho0  1  0.330952  0.806546  0.000000  1
  Ho  Ho1  1  0.692723  0.169020  0.500000  1
  Ho  Ho2  1  0.306921  0.831909  0.500000  1
  Ho  Ho3  1  0.807910  0.667117  0.000000  1
  Ho  Ho4  1  0.832687  0.692369  0.500000  1
  Ho  Ho5  1  0.168780  0.307096  0.500000  1
  Pa  Pa6  1  0.193110  0.321996  0.000000  1
  Pa  Pa7  1  0.677044  0.192982  0.000000  1
  Fe  Fe8  1  0.998105  0.002061  0.000000  1
  Ni  Ni9  1  0.499335  0.502558  0.500000  1
  B  B10  1  0.172962  0.038622  0.231250  1
  B  B11  1  0.961377  0.172961  0.234870  1
  B  B12  1  0.038523  0.825684  0.227929  1
  B  B13  1  0.675135  0.461473  0.268559  1
  B  B14  1  0.324570  0.541006  0.268062  1
  B  B15  1  0.825522  0.960544  0.231096  1
  B  B16  1  0.540237  0.675993  0.269859  1
  B  B17  1  0.460641  0.325886  0.267308  1
  B  B18  1  0.825522  0.960544  0.768904  1
  B  B19  1  0.038523  0.825684  0.772071  1
  B  B20  1  0.961377  0.172961  0.765130  1
  B  B21  1  0.324570  0.541006  0.731938  1
  B  B22  1  0.675135  0.461473  0.731441  1
  B  B23  1  0.172962  0.038622  0.768750  1
  B  B24  1  0.460641  0.325886  0.732692  1
  B  B25  1  0.540237  0.675993  0.730141  1
  B  B26  1  0.088716  0.588909  0.247218  1
  B  B27  1  0.410448  0.090291  0.245384  1
  B  B28  1  0.587286  0.912477  0.248957  1
  B  B29  1  0.910855  0.411275  0.246310  1
  B  B30  1  0.910855  0.411275  0.753690  1
  B  B31  1  0.587286  0.912477  0.751043  1
  B  B32  1  0.410448  0.090291  0.754616  1
  B  B33  1  0.088716  0.588909  0.752782  1
  B  B34  1  0.000372  0.996329  0.390551  1
  B  B35  1  0.499572  0.501724  0.110739  1
  B  B36  1  0.000372  0.996329  0.609449  1
  B  B37  1  0.499572  0.501724  0.889261  1
