# generated using pymatgen
data_PuNiSnH
_symmetry_space_group_name_H-M   'P 1'
_cell_length_a   4.27468800
_cell_length_b   7.03996100
_cell_length_c   8.19955400
_cell_angle_alpha   90.00000000
_cell_angle_beta   90.00000000
_cell_angle_gamma   90.00000000
_symmetry_Int_Tables_number   1
_chemical_formula_structural   PuNiSnH
_chemical_formula_sum   'Pu4 Ni4 Sn4 H4'
_cell_volume   246.75440006
_cell_formula_units_Z   4
loop_
 _symmetry_equiv_pos_site_id
 _symmetry_equiv_pos_as_xyz
  1  'x, y, z'
loop_
 _atom_site_type_symbol
 _atom_site_label
 _atom_site_symmetry_multiplicity
 _atom_site_fract_x
 _atom_site_fract_y
 _atom_site_fract_z
 _atom_site_occupancy
  Pu  Pu0  1  0.750000  0.010069  0.686811  1
  Pu  Pu1  1  0.250000  0.989931  0.313189  1
  Pu  Pu2  1  0.250000  0.489931  0.186811  1
  Pu  Pu3  1  0.750000  0.510069  0.813189  1
  Ni  Ni4  1  0.750000  0.778445  0.108725  1
  Ni  Ni5  1  0.250000  0.221555  0.891275  1
  Ni  Ni6  1  0.250000  0.721555  0.608725  1
  Ni  Ni7  1  0.750000  0.278445  0.391275  1
  Sn  Sn8  1  0.750000  0.665816  0.428765  1
  Sn  Sn9  1  0.250000  0.334184  0.571235  1
  Sn  Sn10  1  0.250000  0.834184  0.928765  1
  Sn  Sn11  1  0.750000  0.165816  0.071235  1
  H  H12  1  0.250000  0.454173  0.919930  1
  H  H13  1  0.750000  0.545827  0.080070  1
  H  H14  1  0.750000  0.045827  0.419930  1
  H  H15  1  0.250000  0.954173  0.580070  1
