# generated using pymatgen
data_Zr5NiAs3
_symmetry_space_group_name_H-M   'P 1'
_cell_length_a   3.74799900
_cell_length_b   10.52114900
_cell_length_c   17.77445000
_cell_angle_alpha   90.00000000
_cell_angle_beta   90.00000000
_cell_angle_gamma   90.00000000
_symmetry_Int_Tables_number   1
_chemical_formula_structural   Zr5NiAs3
_chemical_formula_sum   'Zr20 Ni4 As12'
_cell_volume   700.90443588
_cell_formula_units_Z   4
loop_
 _symmetry_equiv_pos_site_id
 _symmetry_equiv_pos_as_xyz
  1  'x, y, z'
loop_
 _atom_site_type_symbol
 _atom_site_label
 _atom_site_symmetry_multiplicity
 _atom_site_fract_x
 _atom_site_fract_y
 _atom_site_fract_z
 _atom_site_occupancy
  Zr  Zr0  1  0.250000  0.185259  0.368695  1
  Zr  Zr1  1  0.750000  0.814741  0.631305  1
  Zr  Zr2  1  0.750000  0.685259  0.131305  1
  Zr  Zr3  1  0.250000  0.314741  0.868695  1
  Zr  Zr4  1  0.250000  0.879350  0.477401  1
  Zr  Zr5  1  0.750000  0.120650  0.522599  1
  Zr  Zr6  1  0.750000  0.379350  0.022599  1
  Zr  Zr7  1  0.250000  0.620650  0.977401  1
  Zr  Zr8  1  0.250000  0.938755  0.079088  1
  Zr  Zr9  1  0.750000  0.061245  0.920912  1
  Zr  Zr10  1  0.750000  0.438755  0.420912  1
  Zr  Zr11  1  0.250000  0.561245  0.579088  1
  Zr  Zr12  1  0.250000  0.241966  0.167419  1
  Zr  Zr13  1  0.750000  0.758034  0.832581  1
  Zr  Zr14  1  0.750000  0.741966  0.332581  1
  Zr  Zr15  1  0.250000  0.258034  0.667419  1
  Zr  Zr16  1  0.250000  0.511328  0.273038  1
  Zr  Zr17  1  0.750000  0.488672  0.726962  1
  Zr  Zr18  1  0.750000  0.011328  0.226962  1
  Zr  Zr19  1  0.250000  0.988672  0.773038  1
  Ni  Ni20  1  0.250000  0.630140  0.412152  1
  Ni  Ni21  1  0.750000  0.369860  0.587848  1
  Ni  Ni22  1  0.750000  0.130140  0.087848  1
  Ni  Ni23  1  0.250000  0.869860  0.912152  1
  As  As24  1  0.250000  0.492036  0.117213  1
  As  As25  1  0.750000  0.507964  0.882787  1
  As  As26  1  0.750000  0.992036  0.382787  1
  As  As27  1  0.250000  0.007964  0.617213  1
  As  As28  1  0.250000  0.809680  0.220534  1
  As  As29  1  0.750000  0.190320  0.779466  1
  As  As30  1  0.750000  0.309680  0.279466  1
  As  As31  1  0.250000  0.690320  0.720534  1
  As  As32  1  0.250000  0.186969  0.008422  1
  As  As33  1  0.750000  0.813031  0.991578  1
  As  As34  1  0.750000  0.686969  0.491578  1
  As  As35  1  0.250000  0.313031  0.508422  1
