# generated using pymatgen
data_Y8Er11TmPt16
_symmetry_space_group_name_H-M   'P 1'
_cell_length_a   7.46396500
_cell_length_b   7.54126900
_cell_length_c   14.68572900
_cell_angle_alpha   90.00000000
_cell_angle_beta   90.00000000
_cell_angle_gamma   89.99905302
_symmetry_Int_Tables_number   1
_chemical_formula_structural   Y8Er11TmPt16
_chemical_formula_sum   'Y8 Er11 Tm1 Pt16'
_cell_volume   826.62690492
_cell_formula_units_Z   1
loop_
 _symmetry_equiv_pos_site_id
 _symmetry_equiv_pos_as_xyz
  1  'x, y, z'
loop_
 _atom_site_type_symbol
 _atom_site_label
 _atom_site_symmetry_multiplicity
 _atom_site_fract_x
 _atom_site_fract_y
 _atom_site_fract_z
 _atom_site_occupancy
  Y  Y0  1  0.998179  0.820260  0.406925  1
  Y  Y1  1  0.498358  0.679901  0.093045  1
  Y  Y2  1  0.501708  0.320227  0.592958  1
  Y  Y3  1  0.001760  0.179812  0.907029  1
  Y  Y4  1  0.001760  0.179812  0.592971  1
  Y  Y5  1  0.501708  0.320227  0.907042  1
  Y  Y6  1  0.498358  0.679901  0.406955  1
  Y  Y7  1  0.998179  0.820260  0.093075  1
  Er  Er8  1  0.181232  0.511101  0.250000  1
  Er  Er9  1  0.818759  0.488866  0.750000  1
  Er  Er10  1  0.318780  0.011126  0.750000  1
  Er  Er11  1  0.656237  0.832487  0.622291  1
  Er  Er12  1  0.156267  0.667463  0.877698  1
  Er  Er13  1  0.843689  0.332388  0.377639  1
  Er  Er14  1  0.343857  0.167388  0.122361  1
  Er  Er15  1  0.343857  0.167388  0.377639  1
  Er  Er16  1  0.843689  0.332388  0.122361  1
  Er  Er17  1  0.156267  0.667463  0.622302  1
  Er  Er18  1  0.656237  0.832487  0.877709  1
  Tm  Tm19  1  0.681241  0.988995  0.250000  1
  Pt  Pt20  1  0.815873  0.642012  0.250000  1
  Pt  Pt21  1  0.316487  0.858618  0.250000  1
  Pt  Pt22  1  0.683970  0.141525  0.750000  1
  Pt  Pt23  1  0.183920  0.358432  0.750000  1
  Pt  Pt24  1  0.546625  0.385192  0.250000  1
  Pt  Pt25  1  0.046110  0.114384  0.250000  1
  Pt  Pt26  1  0.953471  0.885403  0.750000  1
  Pt  Pt27  1  0.453464  0.614544  0.750000  1
  Pt  Pt28  1  0.817577  0.533351  0.542063  1
  Pt  Pt29  1  0.317578  0.966644  0.957928  1
  Pt  Pt30  1  0.682411  0.033313  0.457804  1
  Pt  Pt31  1  0.182413  0.466667  0.042094  1
  Pt  Pt32  1  0.182413  0.466667  0.457906  1
  Pt  Pt33  1  0.682411  0.033313  0.042196  1
  Pt  Pt34  1  0.317578  0.966644  0.542072  1
  Pt  Pt35  1  0.817577  0.533351  0.957937  1
