# generated using pymatgen
data_CsK3MnSe4
_symmetry_space_group_name_H-M   'P 1'
_cell_length_a   8.43919000
_cell_length_b   10.00941500
_cell_length_c   15.15633500
_cell_angle_alpha   90.00000000
_cell_angle_beta   90.00000000
_cell_angle_gamma   90.00000000
_symmetry_Int_Tables_number   1
_chemical_formula_structural   CsK3MnSe4
_chemical_formula_sum   'Cs4 K12 Mn4 Se16'
_cell_volume   1280.27615389
_cell_formula_units_Z   4
loop_
 _symmetry_equiv_pos_site_id
 _symmetry_equiv_pos_as_xyz
  1  'x, y, z'
loop_
 _atom_site_type_symbol
 _atom_site_label
 _atom_site_symmetry_multiplicity
 _atom_site_fract_x
 _atom_site_fract_y
 _atom_site_fract_z
 _atom_site_occupancy
  Cs  Cs0  1  0.000000  0.000000  0.000000  1
  Cs  Cs1  1  0.500000  0.000000  0.500000  1
  Cs  Cs2  1  0.000000  0.500000  0.000000  1
  Cs  Cs3  1  0.500000  0.500000  0.500000  1
  K  K4  1  0.970526  0.750000  0.419959  1
  K  K5  1  0.470526  0.250000  0.080041  1
  K  K6  1  0.029474  0.250000  0.580041  1
  K  K7  1  0.529474  0.750000  0.919959  1
  K  K8  1  0.819133  0.050643  0.269022  1
  K  K9  1  0.319133  0.949357  0.230978  1
  K  K10  1  0.180867  0.550643  0.730978  1
  K  K11  1  0.680867  0.449357  0.769022  1
  K  K12  1  0.180867  0.949357  0.730978  1
  K  K13  1  0.680867  0.050643  0.769022  1
  K  K14  1  0.819133  0.449357  0.269022  1
  K  K15  1  0.319133  0.550643  0.230978  1
  Mn  Mn16  1  0.789278  0.750000  0.669916  1
  Mn  Mn17  1  0.210722  0.250000  0.330084  1
  Mn  Mn18  1  0.710722  0.750000  0.169916  1
  Mn  Mn19  1  0.289278  0.250000  0.830084  1
  Se  Se20  1  0.009986  0.250000  0.815003  1
  Se  Se21  1  0.490014  0.250000  0.315003  1
  Se  Se22  1  0.509986  0.750000  0.684997  1
  Se  Se23  1  0.990014  0.750000  0.184997  1
  Se  Se24  1  0.617695  0.563232  0.092931  1
  Se  Se25  1  0.117695  0.436768  0.407069  1
  Se  Se26  1  0.382305  0.063232  0.907069  1
  Se  Se27  1  0.882305  0.936768  0.592931  1
  Se  Se28  1  0.382305  0.436768  0.907069  1
  Se  Se29  1  0.882305  0.563232  0.592931  1
  Se  Se30  1  0.617695  0.936768  0.092931  1
  Se  Se31  1  0.117695  0.063232  0.407069  1
  Se  Se32  1  0.608901  0.750000  0.315073  1
  Se  Se33  1  0.108901  0.250000  0.184927  1
  Se  Se34  1  0.391099  0.250000  0.684927  1
  Se  Se35  1  0.891099  0.750000  0.815073  1
