# generated using pymatgen
data_Ho5Tm(AlC3)2
_symmetry_space_group_name_H-M   'P 1'
_cell_length_a   3.53908500
_cell_length_b   6.97990173
_cell_length_c   9.95484250
_cell_angle_alpha   89.91907672
_cell_angle_beta   90.00000000
_cell_angle_gamma   90.00000000
_symmetry_Int_Tables_number   1
_chemical_formula_structural   Ho5Tm(AlC3)2
_chemical_formula_sum   'Ho5 Tm1 Al2 C6'
_cell_volume   245.90890821
_cell_formula_units_Z   1
loop_
 _symmetry_equiv_pos_site_id
 _symmetry_equiv_pos_as_xyz
  1  'x, y, z'
loop_
 _atom_site_type_symbol
 _atom_site_label
 _atom_site_symmetry_multiplicity
 _atom_site_fract_x
 _atom_site_fract_y
 _atom_site_fract_z
 _atom_site_occupancy
  Ho  Ho0  1  0.500000  0.509397  0.200657  1
  Ho  Ho1  1  0.500000  0.490219  0.799282  1
  Ho  Ho2  1  0.500000  0.990692  0.200835  1
  Ho  Ho3  1  0.000000  0.749990  0.458180  1
  Ho  Ho4  1  0.000000  0.249802  0.542042  1
  Tm  Tm5  1  0.500000  0.011588  0.798447  1
  Al  Al6  1  0.000000  0.750824  0.004742  1
  Al  Al7  1  0.000000  0.249224  0.994494  1
  C  C8  1  0.500000  0.509712  0.566282  1
  C  C9  1  0.500000  0.490202  0.433761  1
  C  C10  1  0.500000  0.990322  0.567245  1
  C  C11  1  0.500000  0.009568  0.434356  1
  C  C12  1  0.000000  0.750114  0.208134  1
  C  C13  1  0.000000  0.248346  0.791543  1
