# generated using pymatgen
data_Ca2TbDyBi6Rh7
_symmetry_space_group_name_H-M   'P 1'
_cell_length_a   7.78047502
_cell_length_b   7.84247887
_cell_length_c   7.83491810
_cell_angle_alpha   109.80310321
_cell_angle_beta   109.43604359
_cell_angle_gamma   109.47558685
_symmetry_Int_Tables_number   1
_chemical_formula_structural   Ca2TbDyBi6Rh7
_chemical_formula_sum   'Ca2 Tb1 Dy1 Bi6 Rh7'
_cell_volume   366.64332318
_cell_formula_units_Z   1
loop_
 _symmetry_equiv_pos_site_id
 _symmetry_equiv_pos_as_xyz
  1  'x, y, z'
loop_
 _atom_site_type_symbol
 _atom_site_label
 _atom_site_symmetry_multiplicity
 _atom_site_fract_x
 _atom_site_fract_y
 _atom_site_fract_z
 _atom_site_occupancy
  Ca  Ca0  1  0.500000  0.000000  0.000000  1
  Ca  Ca1  1  0.500000  0.500000  0.500000  1
  Tb  Tb2  1  0.000000  0.000000  0.500000  1
  Dy  Dy3  1  0.000000  0.500000  0.000000  1
  Bi  Bi4  1  0.000000  0.315995  0.315749  1
  Bi  Bi5  1  0.680836  0.996271  0.684810  1
  Bi  Bi6  1  0.680836  0.684565  0.996026  1
  Bi  Bi7  1  0.000000  0.684005  0.684251  1
  Bi  Bi8  1  0.319164  0.003729  0.315190  1
  Bi  Bi9  1  0.319164  0.315435  0.003974  1
  Rh  Rh10  1  0.000000  0.000000  0.000000  1
  Rh  Rh11  1  0.499531  0.749765  0.249765  1
  Rh  Rh12  1  0.757669  0.508012  0.249175  1
  Rh  Rh13  1  0.242331  0.750342  0.491506  1
  Rh  Rh14  1  0.242331  0.491988  0.750825  1
  Rh  Rh15  1  0.500469  0.250235  0.750235  1
  Rh  Rh16  1  0.757669  0.249658  0.508494  1
