# generated using pymatgen
data_Th4(Ga8Pt3)3
_symmetry_space_group_name_H-M   'P 1'
_cell_length_a   7.68974029
_cell_length_b   7.69206617
_cell_length_c   13.30316970
_cell_angle_alpha   84.55398964
_cell_angle_beta   78.87226962
_cell_angle_gamma   59.99890869
_symmetry_Int_Tables_number   1
_chemical_formula_structural   Th4(Ga8Pt3)3
_chemical_formula_sum   'Th4 Ga24 Pt9'
_cell_volume   668.63971360
_cell_formula_units_Z   1
loop_
 _symmetry_equiv_pos_site_id
 _symmetry_equiv_pos_as_xyz
  1  'x, y, z'
loop_
 _atom_site_type_symbol
 _atom_site_label
 _atom_site_symmetry_multiplicity
 _atom_site_fract_x
 _atom_site_fract_y
 _atom_site_fract_z
 _atom_site_occupancy
  Th  Th0  1  0.397006  0.167028  0.805885  1
  Th  Th1  1  0.602994  0.832972  0.194115  1
  Th  Th2  1  0.733564  0.499171  0.805808  1
  Th  Th3  1  0.266436  0.500829  0.194192  1
  Ga  Ga4  1  0.687089  0.833484  0.941284  1
  Ga  Ga5  1  0.312911  0.166516  0.058716  1
  Ga  Ga6  1  0.145291  0.834718  0.560362  1
  Ga  Ga7  1  0.854709  0.165282  0.439638  1
  Ga  Ga8  1  0.480718  0.167152  0.556472  1
  Ga  Ga9  1  0.519282  0.832848  0.443528  1
  Ga  Ga10  1  0.213553  0.165505  0.332076  1
  Ga  Ga11  1  0.786447  0.834495  0.667924  1
  Ga  Ga12  1  0.434487  0.509458  0.667826  1
  Ga  Ga13  1  0.565513  0.490542  0.332174  1
  Ga  Ga14  1  0.110225  0.156853  0.666566  1
  Ga  Ga15  1  0.889775  0.843147  0.333434  1
  Ga  Ga16  1  0.351773  0.501271  0.941728  1
  Ga  Ga17  1  0.648227  0.498729  0.058272  1
  Ga  Ga18  1  0.018215  0.166700  0.946480  1
  Ga  Ga19  1  0.981785  0.833300  0.053520  1
  Ga  Ga20  1  0.186277  0.500186  0.443338  1
  Ga  Ga21  1  0.813723  0.499814  0.556662  1
  Ga  Ga22  1  0.738255  0.162928  0.182611  1
  Ga  Ga23  1  0.261745  0.837072  0.817389  1
  Ga  Ga24  1  0.062397  0.635246  0.816602  1
  Ga  Ga25  1  0.937603  0.364754  0.183398  1
  Ga  Ga26  1  0.862888  0.036404  0.816407  1
  Ga  Ga27  1  0.137112  0.963596  0.183594  1
  Pt  Pt28  1  0.119239  0.491886  0.640284  1
  Pt  Pt29  1  0.880761  0.508114  0.359716  1
  Pt  Pt30  1  0.660303  0.169862  0.998617  1
  Pt  Pt31  1  0.339697  0.830138  0.001383  1
  Pt  Pt32  1  0.537210  0.166991  0.359961  1
  Pt  Pt33  1  0.462790  0.833009  0.640039  1
  Pt  Pt34  1  0.776604  0.176356  0.639056  1
  Pt  Pt35  1  0.223396  0.823644  0.360944  1
  Pt  Pt36  1  0.000000  0.500000  0.000000  1
