# generated using pymatgen
data_PrNdBiO2
_symmetry_space_group_name_H-M   'P 1'
_cell_length_a   7.61233485
_cell_length_b   7.61233462
_cell_length_c   7.61233400
_cell_angle_alpha   149.21768587
_cell_angle_beta   149.21767971
_cell_angle_gamma   44.09099028
_symmetry_Int_Tables_number   1
_chemical_formula_structural   PrNdBiO2
_chemical_formula_sum   'Pr1 Nd1 Bi1 O2'
_cell_volume   115.20353997
_cell_formula_units_Z   1
loop_
 _symmetry_equiv_pos_site_id
 _symmetry_equiv_pos_as_xyz
  1  'x, y, z'
loop_
 _atom_site_type_symbol
 _atom_site_label
 _atom_site_symmetry_multiplicity
 _atom_site_fract_x
 _atom_site_fract_y
 _atom_site_fract_z
 _atom_site_occupancy
  Pr  Pr0  1  0.665019  0.665019  0.000000  1
  Nd  Nd1  1  0.333768  0.333768  0.000000  1
  Bi  Bi2  1  0.999568  0.999568  0.000000  1
  O  O3  1  0.750823  0.250823  0.500000  1
  O  O4  1  0.250823  0.750823  0.500000  1
