# generated using pymatgen
data_Nd3TmScPt3O14
_symmetry_space_group_name_H-M   'P 1'
_cell_length_a   7.37683654
_cell_length_b   7.43008137
_cell_length_c   7.37683700
_cell_angle_alpha   60.23677387
_cell_angle_beta   60.00000243
_cell_angle_gamma   60.23677563
_symmetry_Int_Tables_number   1
_chemical_formula_structural   Nd3TmScPt3O14
_chemical_formula_sum   'Nd3 Tm1 Sc1 Pt3 O14'
_cell_volume   286.92207744
_cell_formula_units_Z   1
loop_
 _symmetry_equiv_pos_site_id
 _symmetry_equiv_pos_as_xyz
  1  'x, y, z'
loop_
 _atom_site_type_symbol
 _atom_site_label
 _atom_site_symmetry_multiplicity
 _atom_site_fract_x
 _atom_site_fract_y
 _atom_site_fract_z
 _atom_site_occupancy
  Nd  Nd0  1  0.625000  0.625000  0.125000  1
  Nd  Nd1  1  0.125000  0.625000  0.625000  1
  Nd  Nd2  1  0.625000  0.625000  0.625000  1
  Tm  Tm3  1  0.625000  0.125000  0.625000  1
  Sc  Sc4  1  0.125000  0.625000  0.125000  1
  Pt  Pt5  1  0.125000  0.125000  0.625000  1
  Pt  Pt6  1  0.625000  0.125000  0.125000  1
  Pt  Pt7  1  0.125000  0.125000  0.125000  1
  O  O8  1  0.507309  0.478072  0.507309  1
  O  O9  1  0.742691  0.771928  0.742691  1
  O  O10  1  0.458731  0.055749  0.458731  1
  O  O11  1  0.214255  0.794106  0.214255  1
  O  O12  1  0.472617  0.455894  0.035745  1
  O  O13  1  0.035745  0.455894  0.472617  1
  O  O14  1  0.458731  0.055749  0.026790  1
  O  O15  1  0.026790  0.055749  0.458731  1
  O  O16  1  0.035745  0.455894  0.035745  1
  O  O17  1  0.791269  0.194251  0.223210  1
  O  O18  1  0.214255  0.794106  0.777383  1
  O  O19  1  0.791269  0.194251  0.791269  1
  O  O20  1  0.223210  0.194251  0.791269  1
  O  O21  1  0.777383  0.794106  0.214255  1
