# generated using pymatgen
data_Zr4FeB4Ru10W
_symmetry_space_group_name_H-M   'P 1'
_cell_length_a   9.42760300
_cell_length_b   9.42760300
_cell_length_c   3.08594500
_cell_angle_alpha   90.00000000
_cell_angle_beta   90.00000000
_cell_angle_gamma   90.00000000
_symmetry_Int_Tables_number   1
_chemical_formula_structural   Zr4FeB4Ru10W
_chemical_formula_sum   'Zr4 Fe1 B4 Ru10 W1'
_cell_volume   274.27786065
_cell_formula_units_Z   1
loop_
 _symmetry_equiv_pos_site_id
 _symmetry_equiv_pos_as_xyz
  1  'x, y, z'
loop_
 _atom_site_type_symbol
 _atom_site_label
 _atom_site_symmetry_multiplicity
 _atom_site_fract_x
 _atom_site_fract_y
 _atom_site_fract_z
 _atom_site_occupancy
  Zr  Zr0  1  0.674084  0.179388  0.000000  1
  Zr  Zr1  1  0.325916  0.820612  0.000000  1
  Zr  Zr2  1  0.179388  0.325916  0.000000  1
  Zr  Zr3  1  0.820612  0.674084  0.000000  1
  Fe  Fe4  1  0.500000  0.500000  0.000000  1
  B  B5  1  0.127052  0.617401  0.000000  1
  B  B6  1  0.872948  0.382599  0.000000  1
  B  B7  1  0.617401  0.872948  0.000000  1
  B  B8  1  0.382599  0.127052  0.000000  1
  Ru  Ru9  1  0.216580  0.071095  0.500000  1
  Ru  Ru10  1  0.783420  0.928905  0.500000  1
  Ru  Ru11  1  0.071095  0.783420  0.500000  1
  Ru  Ru12  1  0.713948  0.430175  0.500000  1
  Ru  Ru13  1  0.928905  0.216580  0.500000  1
  Ru  Ru14  1  0.286052  0.569825  0.500000  1
  Ru  Ru15  1  0.569825  0.713948  0.500000  1
  Ru  Ru16  1  0.430175  0.286052  0.500000  1
  Ru  Ru17  1  0.500000  0.000000  0.500000  1
  Ru  Ru18  1  0.000000  0.500000  0.500000  1
  W  W19  1  0.000000  0.000000  0.000000  1
