# generated using pymatgen
data_Tb4Tm(NiTe)2
_symmetry_space_group_name_H-M   'P 1'
_cell_length_a   7.79246400
_cell_length_b   7.79246423
_cell_length_c   14.94845600
_cell_angle_alpha   90.00000000
_cell_angle_beta   90.00000000
_cell_angle_gamma   150.02809953
_symmetry_Int_Tables_number   1
_chemical_formula_structural   Tb4Tm(NiTe)2
_chemical_formula_sum   'Tb8 Tm2 Ni4 Te4'
_cell_volume   453.46820743
_cell_formula_units_Z   2
loop_
 _symmetry_equiv_pos_site_id
 _symmetry_equiv_pos_as_xyz
  1  'x, y, z'
loop_
 _atom_site_type_symbol
 _atom_site_label
 _atom_site_symmetry_multiplicity
 _atom_site_fract_x
 _atom_site_fract_y
 _atom_site_fract_z
 _atom_site_occupancy
  Tb  Tb0  1  0.960227  0.039773  0.125502  1
  Tb  Tb1  1  0.039773  0.960227  0.874498  1
  Tb  Tb2  1  0.039773  0.960227  0.625502  1
  Tb  Tb3  1  0.960227  0.039773  0.374498  1
  Tb  Tb4  1  0.741652  0.258348  0.628208  1
  Tb  Tb5  1  0.258348  0.741652  0.371792  1
  Tb  Tb6  1  0.258348  0.741652  0.128208  1
  Tb  Tb7  1  0.741652  0.258348  0.871792  1
  Tm  Tm8  1  0.605327  0.394673  0.250000  1
  Tm  Tm9  1  0.394673  0.605327  0.750000  1
  Ni  Ni10  1  0.412298  0.587702  0.250000  1
  Ni  Ni11  1  0.587702  0.412298  0.750000  1
  Ni  Ni12  1  0.813319  0.186681  0.250000  1
  Ni  Ni13  1  0.186681  0.813319  0.750000  1
  Te  Te14  1  0.614850  0.385150  0.040664  1
  Te  Te15  1  0.385150  0.614850  0.959336  1
  Te  Te16  1  0.385150  0.614850  0.540664  1
  Te  Te17  1  0.614850  0.385150  0.459336  1
