# generated using pymatgen
data_KP4RuO12
_symmetry_space_group_name_H-M   'P 1'
_cell_length_a   10.60893183
_cell_length_b   10.60893173
_cell_length_c   5.27815787
_cell_angle_alpha   80.66304366
_cell_angle_beta   80.66304297
_cell_angle_gamma   72.13968993
_symmetry_Int_Tables_number   1
_chemical_formula_structural   KP4RuO12
_chemical_formula_sum   'K2 P8 Ru2 O24'
_cell_volume   553.91758420
_cell_formula_units_Z   2
loop_
 _symmetry_equiv_pos_site_id
 _symmetry_equiv_pos_as_xyz
  1  'x, y, z'
loop_
 _atom_site_type_symbol
 _atom_site_label
 _atom_site_symmetry_multiplicity
 _atom_site_fract_x
 _atom_site_fract_y
 _atom_site_fract_z
 _atom_site_occupancy
  K  K0  1  0.406575  0.406575  0.733496  1
  K  K1  1  0.593425  0.593425  0.266504  1
  P  P2  1  0.798614  0.354571  0.835295  1
  P  P3  1  0.069575  0.307411  0.532745  1
  P  P4  1  0.307411  0.069575  0.532745  1
  P  P5  1  0.645429  0.201386  0.164705  1
  P  P6  1  0.354571  0.798614  0.835295  1
  P  P7  1  0.692589  0.930425  0.467255  1
  P  P8  1  0.930425  0.692589  0.467255  1
  P  P9  1  0.201386  0.645429  0.164705  1
  Ru  Ru10  1  0.500000  0.000000  0.000000  1
  Ru  Ru11  1  0.000000  0.500000  0.000000  1
  O  O12  1  0.427176  0.842801  0.017592  1
  O  O13  1  0.398305  0.105390  0.683504  1
  O  O14  1  0.428682  0.678008  0.709668  1
  O  O15  1  0.157199  0.572824  0.982408  1
  O  O16  1  0.572824  0.157199  0.982408  1
  O  O17  1  0.910647  0.664159  0.759629  1
  O  O18  1  0.215441  0.784559  0.000000  1
  O  O19  1  0.571318  0.321992  0.290332  1
  O  O20  1  0.601695  0.894610  0.316496  1
  O  O21  1  0.706845  0.076500  0.373645  1
  O  O22  1  0.321992  0.571318  0.290332  1
  O  O23  1  0.894610  0.601695  0.316496  1
  O  O24  1  0.842801  0.427176  0.017592  1
  O  O25  1  0.076500  0.706845  0.373645  1
  O  O26  1  0.155264  0.155264  0.603179  1
  O  O27  1  0.105390  0.398305  0.683504  1
  O  O28  1  0.678008  0.428682  0.709668  1
  O  O29  1  0.293155  0.923500  0.626355  1
  O  O30  1  0.784559  0.215441  0.000000  1
  O  O31  1  0.335841  0.089353  0.240371  1
  O  O32  1  0.664159  0.910647  0.759629  1
  O  O33  1  0.844736  0.844736  0.396821  1
  O  O34  1  0.923500  0.293155  0.626355  1
  O  O35  1  0.089353  0.335841  0.240371  1
