# generated using pymatgen
data_Li4LuNi9P7
_symmetry_space_group_name_H-M   'P 1'
_cell_length_a   9.04829500
_cell_length_b   9.04829410
_cell_length_c   3.63455300
_cell_angle_alpha   90.00000000
_cell_angle_beta   90.00000000
_cell_angle_gamma   120.00000062
_symmetry_Int_Tables_number   1
_chemical_formula_structural   Li4LuNi9P7
_chemical_formula_sum   'Li4 Lu1 Ni9 P7'
_cell_volume   257.70040117
_cell_formula_units_Z   1
loop_
 _symmetry_equiv_pos_site_id
 _symmetry_equiv_pos_as_xyz
  1  'x, y, z'
loop_
 _atom_site_type_symbol
 _atom_site_label
 _atom_site_symmetry_multiplicity
 _atom_site_fract_x
 _atom_site_fract_y
 _atom_site_fract_z
 _atom_site_occupancy
  Li  Li0  1  0.889075  0.784862  0.500000  1
  Li  Li1  1  0.895787  0.110925  0.500000  1
  Li  Li2  1  0.215138  0.104213  0.500000  1
  Li  Li3  1  0.666667  0.333333  0.500000  1
  Lu  Lu4  1  0.333333  0.666667  0.000000  1
  Ni  Ni5  1  0.714927  0.882035  0.000000  1
  Ni  Ni6  1  0.167108  0.285073  0.000000  1
  Ni  Ni7  1  0.117965  0.832892  0.000000  1
  Ni  Ni8  1  0.627896  0.570272  0.000000  1
  Ni  Ni9  1  0.942376  0.372104  0.000000  1
  Ni  Ni10  1  0.429728  0.057624  0.000000  1
  Ni  Ni11  1  0.562717  0.955553  0.500000  1
  Ni  Ni12  1  0.392836  0.437283  0.500000  1
  Ni  Ni13  1  0.044447  0.607164  0.500000  1
  P  P14  1  0.590981  0.714156  0.500000  1
  P  P15  1  0.123175  0.409019  0.500000  1
  P  P16  1  0.285844  0.876825  0.500000  1
  P  P17  1  0.000000  0.000000  0.000000  1
  P  P18  1  0.878278  0.577293  0.000000  1
  P  P19  1  0.699016  0.121722  0.000000  1
  P  P20  1  0.422707  0.300984  0.000000  1
