# generated using pymatgen
data_LaY2Cd3Sn2Au
_symmetry_space_group_name_H-M   'P 1'
_cell_length_a   7.66945143
_cell_length_b   7.58806607
_cell_length_c   4.55757900
_cell_angle_alpha   90.00000000
_cell_angle_beta   90.00000000
_cell_angle_gamma   119.64959420
_symmetry_Int_Tables_number   1
_chemical_formula_structural   LaY2Cd3Sn2Au
_chemical_formula_sum   'La1 Y2 Cd3 Sn2 Au1'
_cell_volume   230.50635207
_cell_formula_units_Z   1
loop_
 _symmetry_equiv_pos_site_id
 _symmetry_equiv_pos_as_xyz
  1  'x, y, z'
loop_
 _atom_site_type_symbol
 _atom_site_label
 _atom_site_symmetry_multiplicity
 _atom_site_fract_x
 _atom_site_fract_y
 _atom_site_fract_z
 _atom_site_occupancy
  La  La0  1  0.000000  0.407212  0.000000  1
  Y  Y1  1  0.403215  0.001640  0.000000  1
  Y  Y2  1  0.596785  0.598425  0.000000  1
  Cd  Cd3  1  0.757419  0.997514  0.500000  1
  Cd  Cd4  1  0.242581  0.240095  0.500000  1
  Cd  Cd5  1  0.000000  0.759942  0.500000  1
  Sn  Sn6  1  0.658791  0.330337  0.500000  1
  Sn  Sn7  1  0.341209  0.671547  0.500000  1
  Au  Au8  1  0.000000  0.993288  0.000000  1
