# generated using pymatgen
data_NaCrHgF6
_symmetry_space_group_name_H-M   'P 1'
_cell_length_a   3.91057200
_cell_length_b   10.40795800
_cell_length_c   12.94336900
_cell_angle_alpha   90.00000000
_cell_angle_beta   90.00000000
_cell_angle_gamma   90.00000000
_symmetry_Int_Tables_number   1
_chemical_formula_structural   NaCrHgF6
_chemical_formula_sum   'Na4 Cr4 Hg4 F24'
_cell_volume   526.80895647
_cell_formula_units_Z   4
loop_
 _symmetry_equiv_pos_site_id
 _symmetry_equiv_pos_as_xyz
  1  'x, y, z'
loop_
 _atom_site_type_symbol
 _atom_site_label
 _atom_site_symmetry_multiplicity
 _atom_site_fract_x
 _atom_site_fract_y
 _atom_site_fract_z
 _atom_site_occupancy
  Na  Na0  1  0.250000  0.176951  0.916237  1
  Na  Na1  1  0.250000  0.323049  0.416237  1
  Na  Na2  1  0.750000  0.823049  0.083763  1
  Na  Na3  1  0.750000  0.676951  0.583763  1
  Cr  Cr4  1  0.250000  0.820527  0.836405  1
  Cr  Cr5  1  0.750000  0.179473  0.163595  1
  Cr  Cr6  1  0.250000  0.679473  0.336405  1
  Cr  Cr7  1  0.750000  0.320527  0.663595  1
  Hg  Hg8  1  0.750000  0.000396  0.381226  1
  Hg  Hg9  1  0.750000  0.499604  0.881226  1
  Hg  Hg10  1  0.250000  0.999604  0.618774  1
  Hg  Hg11  1  0.250000  0.500396  0.118774  1
  F  F12  1  0.750000  0.135337  0.642134  1
  F  F13  1  0.250000  0.100985  0.459491  1
  F  F14  1  0.750000  0.364663  0.142134  1
  F  F15  1  0.750000  0.143814  0.019036  1
  F  F16  1  0.750000  0.997665  0.198573  1
  F  F17  1  0.750000  0.287308  0.812981  1
  F  F18  1  0.250000  0.864663  0.357866  1
  F  F19  1  0.750000  0.899015  0.540509  1
  F  F20  1  0.250000  0.635337  0.857866  1
  F  F21  1  0.750000  0.813634  0.834956  1
  F  F22  1  0.750000  0.356186  0.519036  1
  F  F23  1  0.750000  0.686366  0.334956  1
  F  F24  1  0.250000  0.186366  0.165044  1
  F  F25  1  0.250000  0.787308  0.687019  1
  F  F26  1  0.250000  0.643814  0.480964  1
  F  F27  1  0.750000  0.600985  0.040509  1
  F  F28  1  0.250000  0.399015  0.959491  1
  F  F29  1  0.250000  0.002335  0.801427  1
  F  F30  1  0.250000  0.712692  0.187019  1
  F  F31  1  0.750000  0.502335  0.698573  1
  F  F32  1  0.250000  0.313634  0.665044  1
  F  F33  1  0.250000  0.497665  0.301427  1
  F  F34  1  0.250000  0.856186  0.980964  1
  F  F35  1  0.750000  0.212692  0.312981  1
