# generated using pymatgen
data_Tb3AlS6
_symmetry_space_group_name_H-M   'P 1'
_cell_length_a   8.55753316
_cell_length_b   8.55753354
_cell_length_c   6.46489100
_cell_angle_alpha   90.00000000
_cell_angle_beta   90.00000000
_cell_angle_gamma   102.18268710
_symmetry_Int_Tables_number   1
_chemical_formula_structural   Tb3AlS6
_chemical_formula_sum   'Tb6 Al2 S12'
_cell_volume   462.77102251
_cell_formula_units_Z   2
loop_
 _symmetry_equiv_pos_site_id
 _symmetry_equiv_pos_as_xyz
  1  'x, y, z'
loop_
 _atom_site_type_symbol
 _atom_site_label
 _atom_site_symmetry_multiplicity
 _atom_site_fract_x
 _atom_site_fract_y
 _atom_site_fract_z
 _atom_site_occupancy
  Tb  Tb0  1  0.401898  0.598102  0.662882  1
  Tb  Tb1  1  0.598102  0.401898  0.162882  1
  Tb  Tb2  1  0.284139  0.084614  0.754032  1
  Tb  Tb3  1  0.715861  0.915386  0.254032  1
  Tb  Tb4  1  0.915385  0.715861  0.754032  1
  Tb  Tb5  1  0.084614  0.284139  0.254032  1
  Al  Al6  1  0.200964  0.799036  0.292753  1
  Al  Al7  1  0.799036  0.200964  0.792753  1
  S  S8  1  0.957616  0.042384  0.932277  1
  S  S9  1  0.042384  0.957616  0.432277  1
  S  S10  1  0.217343  0.782657  0.945695  1
  S  S11  1  0.782657  0.217343  0.445695  1
  S  S12  1  0.632372  0.692823  0.957276  1
  S  S13  1  0.367628  0.307177  0.457276  1
  S  S14  1  0.307177  0.367628  0.957276  1
  S  S15  1  0.692823  0.632372  0.457276  1
  S  S16  1  0.102774  0.569759  0.465587  1
  S  S17  1  0.897226  0.430241  0.965587  1
  S  S18  1  0.430241  0.897226  0.465587  1
  S  S19  1  0.569759  0.102774  0.965587  1
