# generated using pymatgen
data_Ho9Th3Co3Ru
_symmetry_space_group_name_H-M   'P 1'
_cell_length_a   6.29153575
_cell_length_b   6.95446588
_cell_length_c   9.50281400
_cell_angle_alpha   90.00000000
_cell_angle_beta   90.00000000
_cell_angle_gamma   90.75757690
_symmetry_Int_Tables_number   1
_chemical_formula_structural   Ho9Th3Co3Ru
_chemical_formula_sum   'Ho9 Th3 Co3 Ru1'
_cell_volume   415.75235116
_cell_formula_units_Z   1
loop_
 _symmetry_equiv_pos_site_id
 _symmetry_equiv_pos_as_xyz
  1  'x, y, z'
loop_
 _atom_site_type_symbol
 _atom_site_label
 _atom_site_symmetry_multiplicity
 _atom_site_fract_x
 _atom_site_fract_y
 _atom_site_fract_z
 _atom_site_occupancy
  Ho  Ho0  1  0.331937  0.673722  0.067455  1
  Ho  Ho1  1  0.170941  0.171731  0.429446  1
  Ho  Ho2  1  0.673388  0.322705  0.566288  1
  Ho  Ho3  1  0.827881  0.830444  0.930590  1
  Ho  Ho4  1  0.673388  0.322705  0.933712  1
  Ho  Ho5  1  0.827881  0.830444  0.569410  1
  Ho  Ho6  1  0.331937  0.673722  0.432545  1
  Ho  Ho7  1  0.170941  0.171731  0.070554  1
  Ho  Ho8  1  0.352647  0.961799  0.750000  1
  Th  Th9  1  0.846034  0.554483  0.250000  1
  Th  Th10  1  0.654487  0.053180  0.250000  1
  Th  Th11  1  0.144012  0.446083  0.750000  1
  Co  Co12  1  0.035166  0.870564  0.250000  1
  Co  Co13  1  0.467956  0.371771  0.250000  1
  Co  Co14  1  0.957696  0.133480  0.750000  1
  Ru  Ru15  1  0.533707  0.611438  0.750000  1
