# generated using pymatgen
data_DyErGa2NiIr
_symmetry_space_group_name_H-M   'P 1'
_cell_length_a   4.28621600
_cell_length_b   6.75796700
_cell_length_c   7.63885400
_cell_angle_alpha   90.00000000
_cell_angle_beta   90.00000000
_cell_angle_gamma   90.00000000
_symmetry_Int_Tables_number   1
_chemical_formula_structural   DyErGa2NiIr
_chemical_formula_sum   'Dy2 Er2 Ga4 Ni2 Ir2'
_cell_volume   221.26785684
_cell_formula_units_Z   2
loop_
 _symmetry_equiv_pos_site_id
 _symmetry_equiv_pos_as_xyz
  1  'x, y, z'
loop_
 _atom_site_type_symbol
 _atom_site_label
 _atom_site_symmetry_multiplicity
 _atom_site_fract_x
 _atom_site_fract_y
 _atom_site_fract_z
 _atom_site_occupancy
  Dy  Dy0  1  0.750000  0.024668  0.685803  1
  Dy  Dy1  1  0.750000  0.524668  0.814197  1
  Er  Er2  1  0.250000  0.977856  0.311949  1
  Er  Er3  1  0.250000  0.477856  0.188051  1
  Ga  Ga4  1  0.250000  0.345950  0.574305  1
  Ga  Ga5  1  0.250000  0.845950  0.925695  1
  Ga  Ga6  1  0.750000  0.659469  0.441057  1
  Ga  Ga7  1  0.750000  0.159469  0.058943  1
  Ni  Ni8  1  0.250000  0.221235  0.885909  1
  Ni  Ni9  1  0.250000  0.721235  0.614091  1
  Ir  Ir10  1  0.750000  0.770822  0.113981  1
  Ir  Ir11  1  0.750000  0.270822  0.386019  1
