# generated using pymatgen
data_Li2ErTmPt2
_symmetry_space_group_name_H-M   'P 1'
_cell_length_a   4.00513600
_cell_length_b   6.95990700
_cell_length_c   8.32397200
_cell_angle_alpha   90.00000000
_cell_angle_beta   90.00000000
_cell_angle_gamma   90.00000000
_symmetry_Int_Tables_number   1
_chemical_formula_structural   Li2ErTmPt2
_chemical_formula_sum   'Li4 Er2 Tm2 Pt4'
_cell_volume   232.03383335
_cell_formula_units_Z   2
loop_
 _symmetry_equiv_pos_site_id
 _symmetry_equiv_pos_as_xyz
  1  'x, y, z'
loop_
 _atom_site_type_symbol
 _atom_site_label
 _atom_site_symmetry_multiplicity
 _atom_site_fract_x
 _atom_site_fract_y
 _atom_site_fract_z
 _atom_site_occupancy
  Li  Li0  1  0.250000  0.631635  0.559939  1
  Li  Li1  1  0.250000  0.131635  0.940061  1
  Li  Li2  1  0.750000  0.368788  0.439395  1
  Li  Li3  1  0.750000  0.868788  0.060605  1
  Er  Er4  1  0.750000  0.956751  0.680434  1
  Er  Er5  1  0.750000  0.456751  0.819566  1
  Tm  Tm6  1  0.250000  0.042859  0.319074  1
  Tm  Tm7  1  0.250000  0.542859  0.180926  1
  Pt  Pt8  1  0.250000  0.246016  0.622432  1
  Pt  Pt9  1  0.250000  0.746016  0.877568  1
  Pt  Pt10  1  0.750000  0.753951  0.375743  1
  Pt  Pt11  1  0.750000  0.253951  0.124257  1
