# generated using pymatgen
data_Pr8AlPd23Au
_symmetry_space_group_name_H-M   'P 1'
_cell_length_a   8.52154100
_cell_length_b   8.56890300
_cell_length_c   8.56727600
_cell_angle_alpha   90.00000000
_cell_angle_beta   90.00000000
_cell_angle_gamma   90.00000000
_symmetry_Int_Tables_number   1
_chemical_formula_structural   Pr8AlPd23Au
_chemical_formula_sum   'Pr8 Al1 Pd23 Au1'
_cell_volume   625.58470593
_cell_formula_units_Z   1
loop_
 _symmetry_equiv_pos_site_id
 _symmetry_equiv_pos_as_xyz
  1  'x, y, z'
loop_
 _atom_site_type_symbol
 _atom_site_label
 _atom_site_symmetry_multiplicity
 _atom_site_fract_x
 _atom_site_fract_y
 _atom_site_fract_z
 _atom_site_occupancy
  Pr  Pr0  1  0.251549  0.247686  0.256288  1
  Pr  Pr1  1  0.748036  0.747808  0.748169  1
  Pr  Pr2  1  0.748036  0.747808  0.251831  1
  Pr  Pr3  1  0.748036  0.252192  0.748169  1
  Pr  Pr4  1  0.251549  0.247686  0.743712  1
  Pr  Pr5  1  0.251549  0.752314  0.256288  1
  Pr  Pr6  1  0.251549  0.752314  0.743712  1
  Pr  Pr7  1  0.748036  0.252192  0.251831  1
  Al  Al8  1  0.000663  0.000000  0.000000  1
  Pd  Pd9  1  0.739369  0.500000  0.000000  1
  Pd  Pd10  1  0.998889  0.260578  0.500000  1
  Pd  Pd11  1  0.498992  0.259093  0.000000  1
  Pd  Pd12  1  0.998889  0.739422  0.500000  1
  Pd  Pd13  1  0.498992  0.740907  0.000000  1
  Pd  Pd14  1  0.500927  0.000000  0.260365  1
  Pd  Pd15  1  0.260626  0.000000  0.500000  1
  Pd  Pd16  1  0.500927  0.000000  0.739635  1
  Pd  Pd17  1  0.738823  0.000000  0.500000  1
  Pd  Pd18  1  0.001071  0.500000  0.261226  1
  Pd  Pd19  1  0.001071  0.500000  0.738774  1
  Pd  Pd20  1  0.253248  0.500000  0.500000  1
  Pd  Pd21  1  0.747029  0.500000  0.500000  1
  Pd  Pd22  1  0.500953  0.253715  0.500000  1
  Pd  Pd23  1  0.500953  0.746285  0.500000  1
  Pd  Pd24  1  0.498798  0.500000  0.255162  1
  Pd  Pd25  1  0.498798  0.500000  0.744838  1
  Pd  Pd26  1  0.291851  0.000000  0.000000  1
  Pd  Pd27  1  0.708273  0.000000  0.000000  1
  Pd  Pd28  1  0.001288  0.290550  0.000000  1
  Pd  Pd29  1  0.001288  0.709450  0.000000  1
  Pd  Pd30  1  0.998518  0.000000  0.291572  1
  Pd  Pd31  1  0.998518  0.000000  0.708428  1
  Au  Au32  1  0.262906  0.500000  0.000000  1
