# generated using pymatgen
data_Hf4Si2PdRh9
_symmetry_space_group_name_H-M   'P 1'
_cell_length_a   4.05998600
_cell_length_b   5.55549359
_cell_length_c   10.84164548
_cell_angle_alpha   89.53509705
_cell_angle_beta   90.00000000
_cell_angle_gamma   90.00000000
_symmetry_Int_Tables_number   1
_chemical_formula_structural   Hf4Si2PdRh9
_chemical_formula_sum   'Hf4 Si2 Pd1 Rh9'
_cell_volume   244.52771628
_cell_formula_units_Z   1
loop_
 _symmetry_equiv_pos_site_id
 _symmetry_equiv_pos_as_xyz
  1  'x, y, z'
loop_
 _atom_site_type_symbol
 _atom_site_label
 _atom_site_symmetry_multiplicity
 _atom_site_fract_x
 _atom_site_fract_y
 _atom_site_fract_z
 _atom_site_occupancy
  Hf  Hf0  1  0.500000  0.164689  0.639031  1
  Hf  Hf1  1  0.500000  0.823775  0.358383  1
  Hf  Hf2  1  0.500000  0.684039  0.862983  1
  Hf  Hf3  1  0.500000  0.325544  0.141383  1
  Si  Si4  1  0.000000  0.499870  0.494489  1
  Si  Si5  1  0.000000  0.003252  0.001061  1
  Pd  Pd6  1  0.000000  0.428777  0.741954  1
  Rh  Rh7  1  0.500000  0.186368  0.896405  1
  Rh  Rh8  1  0.500000  0.819378  0.103726  1
  Rh  Rh9  1  0.500000  0.673697  0.603000  1
  Rh  Rh10  1  0.500000  0.315644  0.397210  1
  Rh  Rh11  1  0.000000  0.572591  0.260541  1
  Rh  Rh12  1  0.000000  0.998385  0.499936  1
  Rh  Rh13  1  0.000000  0.504197  0.000896  1
  Rh  Rh14  1  0.000000  0.072499  0.238906  1
  Rh  Rh15  1  0.000000  0.927295  0.760094  1
