# generated using pymatgen
data_Ca13Sm(PbN4)2
_symmetry_space_group_name_H-M   'P 1'
_cell_length_a   3.60674200
_cell_length_b   12.08440316
_cell_length_c   11.59225312
_cell_angle_alpha   90.06890740
_cell_angle_beta   90.00000000
_cell_angle_gamma   90.00000000
_symmetry_Int_Tables_number   1
_chemical_formula_structural   Ca13Sm(PbN4)2
_chemical_formula_sum   'Ca13 Sm1 Pb2 N8'
_cell_volume   505.25174761
_cell_formula_units_Z   1
loop_
 _symmetry_equiv_pos_site_id
 _symmetry_equiv_pos_as_xyz
  1  'x, y, z'
loop_
 _atom_site_type_symbol
 _atom_site_label
 _atom_site_symmetry_multiplicity
 _atom_site_fract_x
 _atom_site_fract_y
 _atom_site_fract_z
 _atom_site_occupancy
  Ca  Ca0  1  0.500215  0.669815  0.239980  1
  Ca  Ca1  1  0.500215  0.330185  0.760020  1
  Ca  Ca2  1  0.499515  0.168557  0.261090  1
  Ca  Ca3  1  0.499515  0.831443  0.738910  1
  Ca  Ca4  1  0.500291  0.000000  0.500000  1
  Ca  Ca5  1  0.999301  0.928734  0.263318  1
  Ca  Ca6  1  0.999301  0.071266  0.736682  1
  Ca  Ca7  1  0.001463  0.424882  0.242011  1
  Ca  Ca8  1  0.001463  0.575118  0.757989  1
  Ca  Ca9  1  0.001108  0.765750  0.479922  1
  Ca  Ca10  1  0.001108  0.234250  0.520078  1
  Ca  Ca11  1  0.998012  0.258752  0.021872  1
  Ca  Ca12  1  0.998012  0.741248  0.978128  1
  Sm  Sm13  1  0.499541  0.500000  0.000000  1
  Pb  Pb14  1  0.530780  0.500000  0.500000  1
  Pb  Pb15  1  0.469792  0.000000  0.000000  1
  N  N16  1  0.000034  0.596140  0.123437  1
  N  N17  1  0.000034  0.403860  0.876563  1
  N  N18  1  0.999838  0.102531  0.368421  1
  N  N19  1  0.999838  0.897469  0.631579  1
  N  N20  1  0.499906  0.830671  0.357582  1
  N  N21  1  0.499906  0.169329  0.642418  1
  N  N22  1  0.500407  0.337637  0.137976  1
  N  N23  1  0.500407  0.662363  0.862024  1
