# generated using pymatgen
data_Zn3Fe3Mo12(IrN2)2
_symmetry_space_group_name_H-M   'P 1'
_cell_length_a   6.79282185
_cell_length_b   6.79036001
_cell_length_c   6.77724798
_cell_angle_alpha   89.94790098
_cell_angle_beta   90.16007261
_cell_angle_gamma   89.95689471
_symmetry_Int_Tables_number   1
_chemical_formula_structural   Zn3Fe3Mo12(IrN2)2
_chemical_formula_sum   'Zn3 Fe3 Mo12 Ir2 N4'
_cell_volume   312.60390860
_cell_formula_units_Z   1
loop_
 _symmetry_equiv_pos_site_id
 _symmetry_equiv_pos_as_xyz
  1  'x, y, z'
loop_
 _atom_site_type_symbol
 _atom_site_label
 _atom_site_symmetry_multiplicity
 _atom_site_fract_x
 _atom_site_fract_y
 _atom_site_fract_z
 _atom_site_occupancy
  Zn  Zn0  1  0.180787  0.317193  0.568551  1
  Zn  Zn1  1  0.680143  0.680378  0.435038  1
  Zn  Zn2  1  0.931728  0.433469  0.320499  1
  Fe  Fe3  1  0.566533  0.928191  0.185309  1
  Fe  Fe4  1  0.429378  0.566842  0.681453  1
  Fe  Fe5  1  0.066579  0.069368  0.816760  1
  Mo  Mo6  1  0.376168  0.948782  0.546101  1
  Mo  Mo7  1  0.873903  0.045015  0.457276  1
  Mo  Mo8  1  0.124091  0.452501  0.951602  1
  Mo  Mo9  1  0.618618  0.554225  0.037187  1
  Mo  Mo10  1  0.791756  0.376933  0.710535  1
  Mo  Mo11  1  0.707479  0.875934  0.807780  1
  Mo  Mo12  1  0.208994  0.123314  0.191707  1
  Mo  Mo13  1  0.301287  0.623146  0.294162  1
  Mo  Mo14  1  0.953192  0.800661  0.129485  1
  Mo  Mo15  1  0.052762  0.712411  0.629532  1
  Mo  Mo16  1  0.452376  0.207191  0.869167  1
  Mo  Mo17  1  0.546667  0.285918  0.371779  1
  Ir  Ir18  1  0.313994  0.817734  0.932322  1
  Ir  Ir19  1  0.811900  0.179409  0.064243  1
  N  N20  1  0.627490  0.122412  0.625867  1
  N  N21  1  0.130103  0.875863  0.373751  1
  N  N22  1  0.877958  0.628193  0.879388  1
  N  N23  1  0.376117  0.374913  0.120507  1
