# generated using pymatgen
data_Pr9Y8Er3Pb16
_symmetry_space_group_name_H-M   'P 1'
_cell_length_a   8.32182987
_cell_length_b   8.42740334
_cell_length_c   15.94232324
_cell_angle_alpha   90.03546682
_cell_angle_beta   90.14080619
_cell_angle_gamma   90.26899884
_symmetry_Int_Tables_number   1
_chemical_formula_structural   Pr9Y8Er3Pb16
_chemical_formula_sum   'Pr9 Y8 Er3 Pb16'
_cell_volume   1118.04179512
_cell_formula_units_Z   1
loop_
 _symmetry_equiv_pos_site_id
 _symmetry_equiv_pos_as_xyz
  1  'x, y, z'
loop_
 _atom_site_type_symbol
 _atom_site_label
 _atom_site_symmetry_multiplicity
 _atom_site_fract_x
 _atom_site_fract_y
 _atom_site_fract_z
 _atom_site_occupancy
  Pr  Pr0  1  0.127818  0.338717  0.618841  1
  Pr  Pr1  1  0.470255  0.678698  0.598865  1
  Pr  Pr2  1  0.972311  0.822708  0.903160  1
  Pr  Pr3  1  0.527721  0.322450  0.098371  1
  Pr  Pr4  1  0.029652  0.176585  0.399252  1
  Pr  Pr5  1  0.527349  0.322744  0.400579  1
  Pr  Pr6  1  0.027431  0.177325  0.098497  1
  Pr  Pr7  1  0.472991  0.678420  0.902506  1
  Pr  Pr8  1  0.971739  0.823222  0.598892  1
  Y  Y9  1  0.630285  0.159371  0.622641  1
  Y  Y10  1  0.131224  0.340987  0.878825  1
  Y  Y11  1  0.369146  0.841456  0.122082  1
  Y  Y12  1  0.869919  0.657889  0.378060  1
  Y  Y13  1  0.372196  0.841586  0.375726  1
  Y  Y14  1  0.869595  0.659409  0.122248  1
  Y  Y15  1  0.629862  0.158536  0.879759  1
  Y  Y16  1  0.796126  0.495504  0.751073  1
  Er  Er17  1  0.297362  0.004313  0.750839  1
  Er  Er18  1  0.203704  0.505723  0.248930  1
  Er  Er19  1  0.704240  0.995454  0.249953  1
  Pb  Pb20  1  0.710349  0.962697  0.456077  1
  Pb  Pb21  1  0.208328  0.537990  0.043905  1
  Pb  Pb22  1  0.291166  0.038119  0.956720  1
  Pb  Pb23  1  0.782218  0.465435  0.543081  1
  Pb  Pb24  1  0.295155  0.031608  0.542593  1
  Pb  Pb25  1  0.792602  0.461938  0.956964  1
  Pb  Pb26  1  0.708435  0.961337  0.044686  1
  Pb  Pb27  1  0.210566  0.541175  0.452457  1
  Pb  Pb28  1  0.435348  0.369547  0.751992  1
  Pb  Pb29  1  0.933334  0.125955  0.752114  1
  Pb  Pb30  1  0.565702  0.629395  0.249180  1
  Pb  Pb31  1  0.064646  0.869999  0.249910  1
  Pb  Pb32  1  0.660930  0.851934  0.750801  1
  Pb  Pb33  1  0.161515  0.651564  0.751742  1
  Pb  Pb34  1  0.339283  0.149726  0.249220  1
  Pb  Pb35  1  0.839495  0.350486  0.249461  1
