# generated using pymatgen
data_Y2Al5Si4Os2Rh
_symmetry_space_group_name_H-M   'P 1'
_cell_length_a   7.44058491
_cell_length_b   7.44058689
_cell_length_c   9.37280500
_cell_angle_alpha   90.00000000
_cell_angle_beta   90.00000000
_cell_angle_gamma   119.84853349
_symmetry_Int_Tables_number   1
_chemical_formula_structural   Y2Al5Si4Os2Rh
_chemical_formula_sum   'Y4 Al10 Si8 Os4 Rh2'
_cell_volume   450.06507754
_cell_formula_units_Z   2
loop_
 _symmetry_equiv_pos_site_id
 _symmetry_equiv_pos_as_xyz
  1  'x, y, z'
loop_
 _atom_site_type_symbol
 _atom_site_label
 _atom_site_symmetry_multiplicity
 _atom_site_fract_x
 _atom_site_fract_y
 _atom_site_fract_z
 _atom_site_occupancy
  Y  Y0  1  0.003143  0.668692  0.250000  1
  Y  Y1  1  0.996857  0.331308  0.750000  1
  Y  Y2  1  0.668692  0.003143  0.250000  1
  Y  Y3  1  0.331308  0.996857  0.750000  1
  Al  Al4  1  0.127400  0.127400  0.250000  1
  Al  Al5  1  0.872600  0.872600  0.750000  1
  Al  Al6  1  0.336520  0.336520  0.559155  1
  Al  Al7  1  0.663480  0.663480  0.440845  1
  Al  Al8  1  0.663480  0.663480  0.059155  1
  Al  Al9  1  0.336520  0.336520  0.940845  1
  Al  Al10  1  0.339858  0.547643  0.250000  1
  Al  Al11  1  0.660142  0.452357  0.750000  1
  Al  Al12  1  0.547643  0.339858  0.250000  1
  Al  Al13  1  0.452357  0.660142  0.750000  1
  Si  Si14  1  0.009083  0.337419  0.070744  1
  Si  Si15  1  0.990917  0.662581  0.929256  1
  Si  Si16  1  0.990917  0.662581  0.570744  1
  Si  Si17  1  0.337419  0.009083  0.429256  1
  Si  Si18  1  0.009083  0.337419  0.429256  1
  Si  Si19  1  0.662581  0.990917  0.570744  1
  Si  Si20  1  0.662581  0.990917  0.929256  1
  Si  Si21  1  0.337419  0.009083  0.070744  1
  Os  Os22  1  0.681003  0.318997  0.000000  1
  Os  Os23  1  0.318997  0.681003  0.000000  1
  Os  Os24  1  0.318997  0.681003  0.500000  1
  Os  Os25  1  0.681003  0.318997  0.500000  1
  Rh  Rh26  1  0.000000  0.000000  0.000000  1
  Rh  Rh27  1  0.000000  0.000000  0.500000  1
