# generated using pymatgen
data_Rb2LiLuCl6
_symmetry_space_group_name_H-M   'P 1'
_cell_length_a   7.33184200
_cell_length_b   7.33184265
_cell_length_c   7.33184200
_cell_angle_alpha   120.00001510
_cell_angle_beta   89.99998437
_cell_angle_gamma   120.00001510
_symmetry_Int_Tables_number   1
_chemical_formula_structural   Rb2LiLuCl6
_chemical_formula_sum   'Rb2 Li1 Lu1 Cl6'
_cell_volume   278.69180230
_cell_formula_units_Z   1
loop_
 _symmetry_equiv_pos_site_id
 _symmetry_equiv_pos_as_xyz
  1  'x, y, z'
loop_
 _atom_site_type_symbol
 _atom_site_label
 _atom_site_symmetry_multiplicity
 _atom_site_fract_x
 _atom_site_fract_y
 _atom_site_fract_z
 _atom_site_occupancy
  Rb  Rb0  1  0.749998  0.499998  0.250000  1
  Rb  Rb1  1  0.249999  0.499998  0.750000  1
  Li  Li2  1  0.500000  0.000000  0.500000  1
  Lu  Lu3  1  0.000000  0.000000  0.000000  1
  Cl  Cl4  1  0.249093  0.498187  0.249093  1
  Cl  Cl5  1  0.249094  0.000000  0.249094  1
  Cl  Cl6  1  0.750906  0.000000  0.249094  1
  Cl  Cl7  1  0.750906  0.501812  0.750906  1
  Cl  Cl8  1  0.750906  0.000000  0.750906  1
  Cl  Cl9  1  0.249094  0.000000  0.750906  1
