# generated using pymatgen
data_YbSm6FeI12
_symmetry_space_group_name_H-M   'P 1'
_cell_length_a   9.87427394
_cell_length_b   9.87427309
_cell_length_c   9.87427269
_cell_angle_alpha   106.96752070
_cell_angle_beta   106.96753072
_cell_angle_gamma   106.96751085
_symmetry_Int_Tables_number   1
_chemical_formula_structural   YbSm6FeI12
_chemical_formula_sum   'Yb1 Sm6 Fe1 I12'
_cell_volume   802.50023822
_cell_formula_units_Z   1
loop_
 _symmetry_equiv_pos_site_id
 _symmetry_equiv_pos_as_xyz
  1  'x, y, z'
loop_
 _atom_site_type_symbol
 _atom_site_label
 _atom_site_symmetry_multiplicity
 _atom_site_fract_x
 _atom_site_fract_y
 _atom_site_fract_z
 _atom_site_occupancy
  Yb  Yb0  1  0.500000  0.500000  0.500000  1
  Sm  Sm1  1  0.095667  0.295779  0.024574  1
  Sm  Sm2  1  0.024574  0.095667  0.295779  1
  Sm  Sm3  1  0.295779  0.024574  0.095667  1
  Sm  Sm4  1  0.904333  0.704221  0.975426  1
  Sm  Sm5  1  0.975426  0.904333  0.704221  1
  Sm  Sm6  1  0.704221  0.975426  0.904333  1
  Fe  Fe7  1  0.000000  0.000000  0.000000  1
  I  I8  1  0.458474  0.380835  0.154698  1
  I  I9  1  0.154698  0.458474  0.380835  1
  I  I10  1  0.380835  0.154698  0.458474  1
  I  I11  1  0.541526  0.619165  0.845302  1
  I  I12  1  0.845302  0.541526  0.619165  1
  I  I13  1  0.619165  0.845302  0.541526  1
  I  I14  1  0.774221  0.317651  0.926895  1
  I  I15  1  0.926895  0.774221  0.317651  1
  I  I16  1  0.317651  0.926895  0.774221  1
  I  I17  1  0.225779  0.682349  0.073105  1
  I  I18  1  0.073105  0.225779  0.682349  1
  I  I19  1  0.682349  0.073105  0.225779  1
