# generated using pymatgen
data_DyHo2Sc2Sn3
_symmetry_space_group_name_H-M   'P 1'
_cell_length_a   8.78374852
_cell_length_b   8.77849676
_cell_length_c   6.27306200
_cell_angle_alpha   90.00000000
_cell_angle_beta   90.00000000
_cell_angle_gamma   119.98020554
_symmetry_Int_Tables_number   1
_chemical_formula_structural   DyHo2Sc2Sn3
_chemical_formula_sum   'Dy2 Ho4 Sc4 Sn6'
_cell_volume   418.98343132
_cell_formula_units_Z   2
loop_
 _symmetry_equiv_pos_site_id
 _symmetry_equiv_pos_as_xyz
  1  'x, y, z'
loop_
 _atom_site_type_symbol
 _atom_site_label
 _atom_site_symmetry_multiplicity
 _atom_site_fract_x
 _atom_site_fract_y
 _atom_site_fract_z
 _atom_site_occupancy
  Dy  Dy0  1  0.000000  0.761191  0.750000  1
  Dy  Dy1  1  0.000000  0.238809  0.250000  1
  Ho  Ho2  1  0.760953  0.761008  0.250000  1
  Ho  Ho3  1  0.760953  0.999945  0.750000  1
  Ho  Ho4  1  0.239047  0.238992  0.750000  1
  Ho  Ho5  1  0.239047  0.000055  0.250000  1
  Sc  Sc6  1  0.333342  0.666672  0.500000  1
  Sc  Sc7  1  0.666658  0.333328  0.000000  1
  Sc  Sc8  1  0.666658  0.333328  0.500000  1
  Sc  Sc9  1  0.333342  0.666672  0.000000  1
  Sn  Sn10  1  0.400021  0.000126  0.750000  1
  Sn  Sn11  1  0.400021  0.399895  0.250000  1
  Sn  Sn12  1  0.000000  0.600337  0.250000  1
  Sn  Sn13  1  0.000000  0.399663  0.750000  1
  Sn  Sn14  1  0.599979  0.600105  0.750000  1
  Sn  Sn15  1  0.599979  0.999874  0.250000  1
