# generated using pymatgen
data_Tb3Nd3Ho2(CdPt)2
_symmetry_space_group_name_H-M   'P 1'
_cell_length_a   9.81528735
_cell_length_b   9.81147591
_cell_length_c   9.81147574
_cell_angle_alpha   60.02570774
_cell_angle_beta   59.98714635
_cell_angle_gamma   59.98714595
_symmetry_Int_Tables_number   1
_chemical_formula_structural   Tb3Nd3Ho2(CdPt)2
_chemical_formula_sum   'Tb6 Nd6 Ho4 Cd4 Pt4'
_cell_volume   668.12321992
_cell_formula_units_Z   2
loop_
 _symmetry_equiv_pos_site_id
 _symmetry_equiv_pos_as_xyz
  1  'x, y, z'
loop_
 _atom_site_type_symbol
 _atom_site_label
 _atom_site_symmetry_multiplicity
 _atom_site_fract_x
 _atom_site_fract_y
 _atom_site_fract_z
 _atom_site_occupancy
  Tb  Tb0  1  0.350724  0.351034  0.351034  1
  Tb  Tb1  1  0.351034  0.350724  0.947206  1
  Tb  Tb2  1  0.351034  0.947206  0.350724  1
  Tb  Tb3  1  0.947206  0.351034  0.351034  1
  Tb  Tb4  1  0.812030  0.187970  0.187970  1
  Tb  Tb5  1  0.187970  0.812030  0.812030  1
  Nd  Nd6  1  0.938587  0.561413  0.561413  1
  Nd  Nd7  1  0.561413  0.938587  0.938587  1
  Nd  Nd8  1  0.561484  0.938516  0.561484  1
  Nd  Nd9  1  0.938516  0.561484  0.938516  1
  Nd  Nd10  1  0.561484  0.561484  0.938516  1
  Nd  Nd11  1  0.938516  0.938516  0.561484  1
  Ho  Ho12  1  0.188109  0.811891  0.188109  1
  Ho  Ho13  1  0.811891  0.188109  0.811891  1
  Ho  Ho14  1  0.188109  0.188109  0.811891  1
  Ho  Ho15  1  0.811891  0.811891  0.188109  1
  Cd  Cd16  1  0.579859  0.579691  0.579691  1
  Cd  Cd17  1  0.579691  0.579859  0.260760  1
  Cd  Cd18  1  0.579691  0.260760  0.579859  1
  Cd  Cd19  1  0.260760  0.579691  0.579691  1
  Pt  Pt20  1  0.142988  0.142623  0.142623  1
  Pt  Pt21  1  0.142623  0.142988  0.571767  1
  Pt  Pt22  1  0.142623  0.571767  0.142988  1
  Pt  Pt23  1  0.571767  0.142623  0.142623  1
