# generated using pymatgen
data_Cs2Li4NbVS8
_symmetry_space_group_name_H-M   'P 1'
_cell_length_a   10.24195857
_cell_length_b   10.22499581
_cell_length_c   7.89585200
_cell_angle_alpha   90.00000000
_cell_angle_beta   90.00000000
_cell_angle_gamma   146.19072379
_symmetry_Int_Tables_number   1
_chemical_formula_structural   Cs2Li4NbVS8
_chemical_formula_sum   'Cs2 Li4 Nb1 V1 S8'
_cell_volume   460.10378196
_cell_formula_units_Z   1
loop_
 _symmetry_equiv_pos_site_id
 _symmetry_equiv_pos_as_xyz
  1  'x, y, z'
loop_
 _atom_site_type_symbol
 _atom_site_label
 _atom_site_symmetry_multiplicity
 _atom_site_fract_x
 _atom_site_fract_y
 _atom_site_fract_z
 _atom_site_occupancy
  Cs  Cs0  1  0.452165  0.817143  0.250000  1
  Cs  Cs1  1  0.818357  0.459097  0.750000  1
  Li  Li2  1  0.926789  0.924099  0.496527  1
  Li  Li3  1  0.926789  0.924099  0.003473  1
  Li  Li4  1  0.278835  0.487696  0.750000  1
  Li  Li5  1  0.487310  0.277814  0.250000  1
  Nb  Nb6  1  0.768875  0.999287  0.750000  1
  V  V7  1  0.997057  0.769222  0.250000  1
  S  S8  1  0.706644  0.666739  0.250000  1
  S  S9  1  0.997030  0.223680  0.984359  1
  S  S10  1  0.997030  0.223680  0.515641  1
  S  S11  1  0.435641  0.843936  0.750000  1
  S  S12  1  0.854411  0.457216  0.250000  1
  S  S13  1  0.210246  0.981344  0.027951  1
  S  S14  1  0.662235  0.693267  0.750000  1
  S  S15  1  0.210246  0.981344  0.472049  1
