# generated using pymatgen
data_Nd3Dy5(CdRu)2
_symmetry_space_group_name_H-M   'P 1'
_cell_length_a   9.73370679
_cell_length_b   9.73370762
_cell_length_c   9.73370700
_cell_angle_alpha   59.99999870
_cell_angle_beta   59.99999588
_cell_angle_gamma   60.00000008
_symmetry_Int_Tables_number   1
_chemical_formula_structural   Nd3Dy5(CdRu)2
_chemical_formula_sum   'Nd6 Dy10 Cd4 Ru4'
_cell_volume   652.10842353
_cell_formula_units_Z   2
loop_
 _symmetry_equiv_pos_site_id
 _symmetry_equiv_pos_as_xyz
  1  'x, y, z'
loop_
 _atom_site_type_symbol
 _atom_site_label
 _atom_site_symmetry_multiplicity
 _atom_site_fract_x
 _atom_site_fract_y
 _atom_site_fract_z
 _atom_site_occupancy
  Nd  Nd0  1  0.940895  0.559105  0.559105  1
  Nd  Nd1  1  0.559105  0.940895  0.940895  1
  Nd  Nd2  1  0.559105  0.940895  0.559105  1
  Nd  Nd3  1  0.940895  0.559105  0.940895  1
  Nd  Nd4  1  0.559105  0.559105  0.940895  1
  Nd  Nd5  1  0.940895  0.940895  0.559105  1
  Dy  Dy6  1  0.344963  0.344963  0.344963  1
  Dy  Dy7  1  0.344963  0.344963  0.965110  1
  Dy  Dy8  1  0.344963  0.965110  0.344963  1
  Dy  Dy9  1  0.965110  0.344963  0.344963  1
  Dy  Dy10  1  0.812251  0.187749  0.187749  1
  Dy  Dy11  1  0.187749  0.812251  0.812251  1
  Dy  Dy12  1  0.187749  0.812251  0.187749  1
  Dy  Dy13  1  0.812251  0.187749  0.812251  1
  Dy  Dy14  1  0.187749  0.187749  0.812251  1
  Dy  Dy15  1  0.812251  0.812251  0.187749  1
  Cd  Cd16  1  0.578954  0.578954  0.578954  1
  Cd  Cd17  1  0.578954  0.578954  0.263136  1
  Cd  Cd18  1  0.578954  0.263136  0.578954  1
  Cd  Cd19  1  0.263136  0.578954  0.578954  1
  Ru  Ru20  1  0.139300  0.139300  0.139300  1
  Ru  Ru21  1  0.139300  0.139300  0.582101  1
  Ru  Ru22  1  0.139300  0.582101  0.139300  1
  Ru  Ru23  1  0.582101  0.139300  0.139300  1
