# generated using pymatgen
data_Pr3Sm(Ga5Rh3)2
_symmetry_space_group_name_H-M   'P 1'
_cell_length_a   8.69229794
_cell_length_b   8.69104457
_cell_length_c   5.79088780
_cell_angle_alpha   70.48574971
_cell_angle_beta   70.49067414
_cell_angle_gamma   95.49745618
_symmetry_Int_Tables_number   1
_chemical_formula_structural   Pr3Sm(Ga5Rh3)2
_chemical_formula_sum   'Pr3 Sm1 Ga10 Rh6'
_cell_volume   377.93617870
_cell_formula_units_Z   1
loop_
 _symmetry_equiv_pos_site_id
 _symmetry_equiv_pos_as_xyz
  1  'x, y, z'
loop_
 _atom_site_type_symbol
 _atom_site_label
 _atom_site_symmetry_multiplicity
 _atom_site_fract_x
 _atom_site_fract_y
 _atom_site_fract_z
 _atom_site_occupancy
  Pr  Pr0  1  0.864559  0.590799  0.773199  1
  Pr  Pr1  1  0.409431  0.135122  0.726856  1
  Pr  Pr2  1  0.135339  0.409244  0.226823  1
  Sm  Sm3  1  0.590887  0.864532  0.273259  1
  Ga  Ga4  1  0.080702  0.262176  0.827998  1
  Ga  Ga5  1  0.737221  0.918920  0.672501  1
  Ga  Ga6  1  0.918529  0.738382  0.172017  1
  Ga  Ga7  1  0.261976  0.080516  0.328259  1
  Ga  Ga8  1  0.205771  0.794722  0.749633  1
  Ga  Ga9  1  0.794289  0.204547  0.249976  1
  Ga  Ga10  1  0.500968  0.500047  0.749178  1
  Ga  Ga11  1  0.499610  0.501395  0.249818  1
  Ga  Ga12  1  0.792922  0.205914  0.751176  1
  Ga  Ga13  1  0.207186  0.793398  0.249849  1
  Rh  Rh14  1  0.261035  0.556128  0.593416  1
  Rh  Rh15  1  0.444901  0.740189  0.905342  1
  Rh  Rh16  1  0.739809  0.444451  0.405851  1
  Rh  Rh17  1  0.555371  0.259795  0.094470  1
  Rh  Rh18  1  0.999118  0.000509  0.750268  1
  Rh  Rh19  1  0.000373  0.999215  0.250109  1
