# generated using pymatgen
data_Th8Si12AgIr3
_symmetry_space_group_name_H-M   'P 1'
_cell_length_a   10.99772220
_cell_length_b   9.30069406
_cell_length_c   8.31898000
_cell_angle_alpha   77.14886706
_cell_angle_beta   55.50291700
_cell_angle_gamma   47.48364240
_symmetry_Int_Tables_number   1
_chemical_formula_structural   Th8Si12AgIr3
_chemical_formula_sum   'Th8 Si12 Ag1 Ir3'
_cell_volume   498.58047866
_cell_formula_units_Z   1
loop_
 _symmetry_equiv_pos_site_id
 _symmetry_equiv_pos_as_xyz
  1  'x, y, z'
loop_
 _atom_site_type_symbol
 _atom_site_label
 _atom_site_symmetry_multiplicity
 _atom_site_fract_x
 _atom_site_fract_y
 _atom_site_fract_z
 _atom_site_occupancy
  Th  Th0  1  0.381494  0.373382  0.615423  1
  Th  Th1  1  0.615328  0.629430  0.382073  1
  Th  Th2  1  0.875232  0.874656  0.623746  1
  Th  Th3  1  0.623610  0.626548  0.874328  1
  Th  Th4  1  0.867133  0.885158  0.129098  1
  Th  Th5  1  0.128962  0.118653  0.867931  1
  Th  Th6  1  0.381576  0.373567  0.126479  1
  Th  Th7  1  0.125761  0.119193  0.381835  1
  Si  Si8  1  0.665614  0.333446  0.667182  1
  Si  Si9  1  0.333405  0.667612  0.332293  1
  Si  Si10  1  0.583022  0.917473  0.581783  1
  Si  Si11  1  0.912004  0.587204  0.912780  1
  Si  Si12  1  0.330847  0.662894  0.836610  1
  Si  Si13  1  0.166517  0.830445  0.667671  1
  Si  Si14  1  0.837626  0.169848  0.330123  1
  Si  Si15  1  0.666995  0.335695  0.167197  1
  Si  Si16  1  0.911135  0.586954  0.426477  1
  Si  Si17  1  0.085446  0.417353  0.581233  1
  Si  Si18  1  0.426983  0.075368  0.910469  1
  Si  Si19  1  0.581747  0.915750  0.085120  1
  Ag  Ag20  1  0.083900  0.416729  0.083374  1
  Ir  Ir21  1  0.834412  0.166690  0.833550  1
  Ir  Ir22  1  0.165961  0.832459  0.166865  1
  Ir  Ir23  1  0.415291  0.083492  0.416361  1
