# generated using pymatgen
data_Er3Cd3GaAu2
_symmetry_space_group_name_H-M   'P 1'
_cell_length_a   7.70378400
_cell_length_b   7.70378480
_cell_length_c   3.94976400
_cell_angle_alpha   90.00000000
_cell_angle_beta   90.00000000
_cell_angle_gamma   120.00000514
_symmetry_Int_Tables_number   1
_chemical_formula_structural   Er3Cd3GaAu2
_chemical_formula_sum   'Er3 Cd3 Ga1 Au2'
_cell_volume   203.00652473
_cell_formula_units_Z   1
loop_
 _symmetry_equiv_pos_site_id
 _symmetry_equiv_pos_as_xyz
  1  'x, y, z'
loop_
 _atom_site_type_symbol
 _atom_site_label
 _atom_site_symmetry_multiplicity
 _atom_site_fract_x
 _atom_site_fract_y
 _atom_site_fract_z
 _atom_site_occupancy
  Er  Er0  1  0.591258  0.000000  0.000000  1
  Er  Er1  1  0.000000  0.591258  0.000000  1
  Er  Er2  1  0.408742  0.408742  0.000000  1
  Cd  Cd3  1  0.254192  0.000000  0.500000  1
  Cd  Cd4  1  0.000000  0.254192  0.500000  1
  Cd  Cd5  1  0.745808  0.745808  0.500000  1
  Ga  Ga6  1  0.000000  0.000000  0.000000  1
  Au  Au7  1  0.333333  0.666667  0.500000  1
  Au  Au8  1  0.666667  0.333333  0.500000  1
