# generated using pymatgen
data_Ac2Ce(InRh)3
_symmetry_space_group_name_H-M   'P 1'
_cell_length_a   7.80050090
_cell_length_b   7.80049970
_cell_length_c   4.15631500
_cell_angle_alpha   90.00000000
_cell_angle_beta   90.00000000
_cell_angle_gamma   119.53618342
_symmetry_Int_Tables_number   1
_chemical_formula_structural   Ac2Ce(InRh)3
_chemical_formula_sum   'Ac2 Ce1 In3 Rh3'
_cell_volume   220.03656665
_cell_formula_units_Z   1
loop_
 _symmetry_equiv_pos_site_id
 _symmetry_equiv_pos_as_xyz
  1  'x, y, z'
loop_
 _atom_site_type_symbol
 _atom_site_label
 _atom_site_symmetry_multiplicity
 _atom_site_fract_x
 _atom_site_fract_y
 _atom_site_fract_z
 _atom_site_occupancy
  Ac  Ac0  1  0.414117  0.998286  0.500000  1
  Ac  Ac1  1  0.998286  0.414117  0.500000  1
  Ce  Ce2  1  0.580902  0.580902  0.500000  1
  In  In3  1  0.755865  0.990688  0.000000  1
  In  In4  1  0.990688  0.755865  0.000000  1
  In  In5  1  0.244539  0.244539  0.000000  1
  Rh  Rh6  1  0.363564  0.658589  0.000000  1
  Rh  Rh7  1  0.658589  0.363564  0.000000  1
  Rh  Rh8  1  0.993450  0.993450  0.500000  1
