# generated using pymatgen
data_Yb8Si13Ge
_symmetry_space_group_name_H-M   'P 1'
_cell_length_a   7.91274795
_cell_length_b   7.84106667
_cell_length_c   8.68055400
_cell_angle_alpha   90.00000000
_cell_angle_beta   90.00000000
_cell_angle_gamma   120.69787875
_symmetry_Int_Tables_number   1
_chemical_formula_structural   Yb8Si13Ge
_chemical_formula_sum   'Yb8 Si13 Ge1'
_cell_volume   463.10909634
_cell_formula_units_Z   1
loop_
 _symmetry_equiv_pos_site_id
 _symmetry_equiv_pos_as_xyz
  1  'x, y, z'
loop_
 _atom_site_type_symbol
 _atom_site_label
 _atom_site_symmetry_multiplicity
 _atom_site_fract_x
 _atom_site_fract_y
 _atom_site_fract_z
 _atom_site_occupancy
  Yb  Yb0  1  0.252899  0.250964  0.997853  1
  Yb  Yb1  1  0.749911  0.752163  0.001590  1
  Yb  Yb2  1  0.749911  0.752163  0.498410  1
  Yb  Yb3  1  0.252899  0.250964  0.502147  1
  Yb  Yb4  1  0.252859  0.748455  0.492847  1
  Yb  Yb5  1  0.746557  0.253619  0.508808  1
  Yb  Yb6  1  0.746557  0.253619  0.991192  1
  Yb  Yb7  1  0.252859  0.748455  0.007153  1
  Si  Si8  1  0.944240  0.634333  0.750000  1
  Si  Si9  1  0.585343  0.418414  0.250000  1
  Si  Si10  1  0.415759  0.585251  0.750000  1
  Si  Si11  1  0.409743  0.586947  0.250000  1
  Si  Si12  1  0.591801  0.415608  0.750000  1
  Si  Si13  1  0.070180  0.932225  0.250000  1
  Si  Si14  1  0.933359  0.068494  0.750000  1
  Si  Si15  1  0.624256  0.941394  0.250000  1
  Si  Si16  1  0.376323  0.060377  0.750000  1
  Si  Si17  1  0.928317  0.583423  0.250000  1
  Si  Si18  1  0.070982  0.417352  0.750000  1
  Si  Si19  1  0.413878  0.071609  0.250000  1
  Si  Si20  1  0.588876  0.931914  0.750000  1
  Ge  Ge21  1  0.042491  0.342253  0.250000  1
