# generated using pymatgen
data_Tb4ErLu3(ReB6)4
_symmetry_space_group_name_H-M   'P 1'
_cell_length_a   3.65882000
_cell_length_b   9.12883704
_cell_length_c   11.52295505
_cell_angle_alpha   90.01077510
_cell_angle_beta   90.00000000
_cell_angle_gamma   90.00000000
_symmetry_Int_Tables_number   1
_chemical_formula_structural   Tb4ErLu3(ReB6)4
_chemical_formula_sum   'Tb4 Er1 Lu3 Re4 B24'
_cell_volume   384.87558232
_cell_formula_units_Z   1
loop_
 _symmetry_equiv_pos_site_id
 _symmetry_equiv_pos_as_xyz
  1  'x, y, z'
loop_
 _atom_site_type_symbol
 _atom_site_label
 _atom_site_symmetry_multiplicity
 _atom_site_fract_x
 _atom_site_fract_y
 _atom_site_fract_z
 _atom_site_occupancy
  Tb  Tb0  1  0.000000  0.323181  0.414046  1
  Tb  Tb1  1  0.000000  0.676736  0.586162  1
  Tb  Tb2  1  0.000000  0.822933  0.085759  1
  Tb  Tb3  1  0.000000  0.177064  0.913922  1
  Er  Er4  1  0.000000  0.943700  0.370399  1
  Lu  Lu5  1  0.000000  0.056667  0.630458  1
  Lu  Lu6  1  0.000000  0.443519  0.129694  1
  Lu  Lu7  1  0.000000  0.556475  0.870125  1
  Re  Re8  1  0.000000  0.638769  0.319759  1
  Re  Re9  1  0.000000  0.360516  0.680330  1
  Re  Re10  1  0.000000  0.140257  0.179602  1
  Re  Re11  1  0.000000  0.860187  0.819854  1
  B  B12  1  0.500000  0.553583  0.432396  1
  B  B13  1  0.500000  0.445948  0.567755  1
  B  B14  1  0.500000  0.054070  0.067395  1
  B  B15  1  0.500000  0.946023  0.932277  1
  B  B16  1  0.500000  0.750141  0.418079  1
  B  B17  1  0.500000  0.248938  0.582064  1
  B  B18  1  0.500000  0.251317  0.081775  1
  B  B19  1  0.500000  0.748840  0.918050  1
  B  B20  1  0.500000  0.792431  0.265187  1
  B  B21  1  0.500000  0.206864  0.734631  1
  B  B22  1  0.500000  0.293570  0.234392  1
  B  B23  1  0.500000  0.706727  0.765452  1
  B  B24  1  0.500000  0.629869  0.184656  1
  B  B25  1  0.500000  0.369866  0.815208  1
  B  B26  1  0.500000  0.130956  0.314677  1
  B  B27  1  0.500000  0.869800  0.684966  1
  B  B28  1  0.500000  0.982691  0.212285  1
  B  B29  1  0.500000  0.017733  0.787189  1
  B  B30  1  0.500000  0.482016  0.287016  1
  B  B31  1  0.500000  0.517797  0.712907  1
  B  B32  1  0.500000  0.597505  0.026985  1
  B  B33  1  0.500000  0.402477  0.972887  1
  B  B34  1  0.500000  0.098568  0.473669  1
  B  B35  1  0.500000  0.902267  0.527990  1
