# generated using pymatgen
data_Tb2HoZr(NiP)4
_symmetry_space_group_name_H-M   'P 1'
_cell_length_a   3.87949400
_cell_length_b   3.87949406
_cell_length_c   15.01694400
_cell_angle_alpha   90.00000000
_cell_angle_beta   90.00000000
_cell_angle_gamma   119.99998247
_symmetry_Int_Tables_number   1
_chemical_formula_structural   Tb2HoZr(NiP)4
_chemical_formula_sum   'Tb2 Ho1 Zr1 Ni4 P4'
_cell_volume   195.73227547
_cell_formula_units_Z   1
loop_
 _symmetry_equiv_pos_site_id
 _symmetry_equiv_pos_as_xyz
  1  'x, y, z'
loop_
 _atom_site_type_symbol
 _atom_site_label
 _atom_site_symmetry_multiplicity
 _atom_site_fract_x
 _atom_site_fract_y
 _atom_site_fract_z
 _atom_site_occupancy
  Tb  Tb0  1  0.000000  0.000000  0.995807  1
  Tb  Tb1  1  0.000000  0.000000  0.504193  1
  Ho  Ho2  1  0.000000  0.000000  0.250000  1
  Zr  Zr3  1  0.000000  0.000000  0.750000  1
  Ni  Ni4  1  0.333333  0.666667  0.128027  1
  Ni  Ni5  1  0.666667  0.333333  0.850401  1
  Ni  Ni6  1  0.666667  0.333333  0.649599  1
  Ni  Ni7  1  0.333333  0.666667  0.371973  1
  P  P8  1  0.333333  0.666667  0.627215  1
  P  P9  1  0.666667  0.333333  0.378807  1
  P  P10  1  0.666667  0.333333  0.121193  1
  P  P11  1  0.333333  0.666667  0.872785  1
