# generated using pymatgen
data_SbAsS2
_symmetry_space_group_name_H-M   'P 1'
_cell_length_a   7.43702359
_cell_length_b   7.43702340
_cell_length_c   9.63815421
_cell_angle_alpha   80.66519699
_cell_angle_beta   80.66519454
_cell_angle_gamma   85.08533923
_symmetry_Int_Tables_number   1
_chemical_formula_structural   SbAsS2
_chemical_formula_sum   'Sb4 As4 S8'
_cell_volume   518.08894556
_cell_formula_units_Z   4
loop_
 _symmetry_equiv_pos_site_id
 _symmetry_equiv_pos_as_xyz
  1  'x, y, z'
loop_
 _atom_site_type_symbol
 _atom_site_label
 _atom_site_symmetry_multiplicity
 _atom_site_fract_x
 _atom_site_fract_y
 _atom_site_fract_z
 _atom_site_occupancy
  Sb  Sb0  1  0.797779  0.215234  0.551535  1
  Sb  Sb1  1  0.784766  0.202221  0.948465  1
  Sb  Sb2  1  0.202221  0.784766  0.448465  1
  Sb  Sb3  1  0.215234  0.797779  0.051535  1
  As  As4  1  0.748718  0.561778  0.640085  1
  As  As5  1  0.438222  0.251282  0.859915  1
  As  As6  1  0.251282  0.438222  0.359915  1
  As  As7  1  0.561778  0.748718  0.140085  1
  S  S8  1  0.944408  0.055592  0.750000  1
  S  S9  1  0.055592  0.944408  0.250000  1
  S  S10  1  0.455396  0.544604  0.750000  1
  S  S11  1  0.544604  0.455396  0.250000  1
  S  S12  1  0.884132  0.505076  0.835948  1
  S  S13  1  0.494924  0.115868  0.664052  1
  S  S14  1  0.115868  0.494924  0.164052  1
  S  S15  1  0.505076  0.884132  0.335948  1
