# generated using pymatgen
data_Tb8Hf6Zr5Si16W
_symmetry_space_group_name_H-M   'P 1'
_cell_length_a   7.29299505
_cell_length_b   7.29188071
_cell_length_c   13.35756416
_cell_angle_alpha   89.93474089
_cell_angle_beta   90.04447266
_cell_angle_gamma   90.15193598
_symmetry_Int_Tables_number   1
_chemical_formula_structural   Tb8Hf6Zr5Si16W
_chemical_formula_sum   'Tb8 Hf6 Zr5 Si16 W1'
_cell_volume   710.34741566
_cell_formula_units_Z   1
loop_
 _symmetry_equiv_pos_site_id
 _symmetry_equiv_pos_as_xyz
  1  'x, y, z'
loop_
 _atom_site_type_symbol
 _atom_site_label
 _atom_site_symmetry_multiplicity
 _atom_site_fract_x
 _atom_site_fract_y
 _atom_site_fract_z
 _atom_site_occupancy
  Tb  Tb0  1  0.998954  0.344057  0.212328  1
  Tb  Tb1  1  0.003908  0.656068  0.716617  1
  Tb  Tb2  1  0.155693  0.496591  0.465533  1
  Tb  Tb3  1  0.501554  0.845849  0.034598  1
  Tb  Tb4  1  0.845866  0.501109  0.965476  1
  Tb  Tb5  1  0.496262  0.155738  0.534593  1
  Tb  Tb6  1  0.344395  0.998719  0.787507  1
  Tb  Tb7  1  0.655559  0.004062  0.283367  1
  Hf  Hf8  1  0.503788  0.647405  0.624215  1
  Hf  Hf9  1  0.349413  0.493857  0.877426  1
  Hf  Hf10  1  0.494193  0.349897  0.122655  1
  Hf  Hf11  1  0.647843  0.503837  0.375784  1
  Hf  Hf12  1  0.996976  0.147532  0.626298  1
  Hf  Hf13  1  0.004924  0.853350  0.122071  1
  Zr  Zr14  1  0.825952  0.825907  0.500003  1
  Zr  Zr15  1  0.325355  0.674427  0.248074  1
  Zr  Zr16  1  0.673894  0.324895  0.751681  1
  Zr  Zr17  1  0.147401  0.997721  0.373715  1
  Zr  Zr18  1  0.853085  0.004066  0.877889  1
  Si  Si19  1  0.362737  0.295361  0.315315  1
  Si  Si20  1  0.636525  0.705362  0.817324  1
  Si  Si21  1  0.206391  0.861976  0.567737  1
  Si  Si22  1  0.139980  0.796974  0.933253  1
  Si  Si23  1  0.797480  0.139228  0.067549  1
  Si  Si24  1  0.861039  0.206878  0.433357  1
  Si  Si25  1  0.294135  0.362110  0.684419  1
  Si  Si26  1  0.706598  0.637087  0.182317  1
  Si  Si27  1  0.293941  0.053062  0.181701  1
  Si  Si28  1  0.703493  0.950273  0.687024  1
  Si  Si29  1  0.450435  0.795137  0.436611  1
  Si  Si30  1  0.203263  0.544661  0.062659  1
  Si  Si31  1  0.543503  0.203719  0.937569  1
  Si  Si32  1  0.795806  0.449554  0.563619  1
  Si  Si33  1  0.053156  0.294322  0.817489  1
  Si  Si34  1  0.950003  0.702985  0.312064  1
  W  W35  1  0.176500  0.176224  0.000164  1
