# generated using pymatgen
data_Sm4ZnCuSi6
_symmetry_space_group_name_H-M   'P 1'
_cell_length_a   8.16040140
_cell_length_b   8.09870742
_cell_length_c   5.82394929
_cell_angle_alpha   69.57831554
_cell_angle_beta   68.44494044
_cell_angle_gamma   41.97675247
_symmetry_Int_Tables_number   1
_chemical_formula_structural   Sm4ZnCuSi6
_chemical_formula_sum   'Sm4 Zn1 Cu1 Si6'
_cell_volume   237.64286931
_cell_formula_units_Z   1
loop_
 _symmetry_equiv_pos_site_id
 _symmetry_equiv_pos_as_xyz
  1  'x, y, z'
loop_
 _atom_site_type_symbol
 _atom_site_label
 _atom_site_symmetry_multiplicity
 _atom_site_fract_x
 _atom_site_fract_y
 _atom_site_fract_z
 _atom_site_occupancy
  Sm  Sm0  1  0.750385  0.750385  0.749615  1
  Sm  Sm1  1  0.755282  0.244106  0.755894  1
  Sm  Sm2  1  0.250385  0.250385  0.249615  1
  Sm  Sm3  1  0.244106  0.755282  0.244718  1
  Zn  Zn4  1  0.666315  0.666315  0.333685  1
  Cu  Cu5  1  0.333417  0.333417  0.666583  1
  Si  Si6  1  0.833363  0.331484  0.166637  1
  Si  Si7  1  0.657460  0.172568  0.342540  1
  Si  Si8  1  0.172568  0.657460  0.827432  1
  Si  Si9  1  0.331484  0.833363  0.668516  1
  Si  Si10  1  0.170295  0.170295  0.829705  1
  Si  Si11  1  0.834940  0.834940  0.165060  1
