# generated using pymatgen
data_La3PrB24
_symmetry_space_group_name_H-M   'P 1'
_cell_length_a   4.15112500
_cell_length_b   5.87314700
_cell_length_c   11.74638100
_cell_angle_alpha   90.00000000
_cell_angle_beta   90.00000000
_cell_angle_gamma   90.00000000
_symmetry_Int_Tables_number   1
_chemical_formula_structural   La3PrB24
_chemical_formula_sum   'La3 Pr1 B24'
_cell_volume   286.37873442
_cell_formula_units_Z   1
loop_
 _symmetry_equiv_pos_site_id
 _symmetry_equiv_pos_as_xyz
  1  'x, y, z'
loop_
 _atom_site_type_symbol
 _atom_site_label
 _atom_site_symmetry_multiplicity
 _atom_site_fract_x
 _atom_site_fract_y
 _atom_site_fract_z
 _atom_site_occupancy
  La  La0  1  0.000000  0.500000  0.250424  1
  La  La1  1  0.000000  0.000000  0.500000  1
  La  La2  1  0.000000  0.500000  0.749576  1
  Pr  Pr3  1  0.000000  0.000000  0.000000  1
  B  B4  1  0.199515  0.500000  0.500000  1
  B  B5  1  0.199554  0.000000  0.749952  1
  B  B6  1  0.199721  0.500000  0.000000  1
  B  B7  1  0.199554  0.000000  0.250048  1
  B  B8  1  0.500000  0.650157  0.574990  1
  B  B9  1  0.500000  0.150121  0.824984  1
  B  B10  1  0.500000  0.649792  0.075132  1
  B  B11  1  0.500000  0.150173  0.324962  1
  B  B12  1  0.500000  0.349843  0.574990  1
  B  B13  1  0.500000  0.849879  0.824984  1
  B  B14  1  0.500000  0.350208  0.075132  1
  B  B15  1  0.500000  0.849827  0.324962  1
  B  B16  1  0.500000  0.349843  0.425010  1
  B  B17  1  0.500000  0.849827  0.675038  1
  B  B18  1  0.500000  0.350208  0.924868  1
  B  B19  1  0.500000  0.849879  0.175016  1
  B  B20  1  0.500000  0.650157  0.425010  1
  B  B21  1  0.500000  0.150173  0.675038  1
  B  B22  1  0.500000  0.649792  0.924868  1
  B  B23  1  0.500000  0.150121  0.175016  1
  B  B24  1  0.800485  0.500000  0.500000  1
  B  B25  1  0.800446  0.000000  0.749952  1
  B  B26  1  0.800279  0.500000  0.000000  1
  B  B27  1  0.800446  0.000000  0.250048  1
