# generated using pymatgen
data_Nd8Tm2Si5Hg
_symmetry_space_group_name_H-M   'P 1'
_cell_length_a   7.63965389
_cell_length_b   7.63965292
_cell_length_c   9.24634700
_cell_angle_alpha   114.40081149
_cell_angle_beta   114.40081642
_cell_angle_gamma   90.00000387
_symmetry_Int_Tables_number   1
_chemical_formula_structural   Nd8Tm2Si5Hg
_chemical_formula_sum   'Nd8 Tm2 Si5 Hg1'
_cell_volume   437.97649254
_cell_formula_units_Z   1
loop_
 _symmetry_equiv_pos_site_id
 _symmetry_equiv_pos_as_xyz
  1  'x, y, z'
loop_
 _atom_site_type_symbol
 _atom_site_label
 _atom_site_symmetry_multiplicity
 _atom_site_fract_x
 _atom_site_fract_y
 _atom_site_fract_z
 _atom_site_occupancy
  Nd  Nd0  1  0.972243  0.826305  0.280043  1
  Nd  Nd1  1  0.307799  0.453737  0.280043  1
  Nd  Nd2  1  0.826305  0.307799  0.280043  1
  Nd  Nd3  1  0.453737  0.972243  0.280043  1
  Nd  Nd4  1  0.046263  0.192201  0.719957  1
  Nd  Nd5  1  0.673695  0.527757  0.719957  1
  Nd  Nd6  1  0.192201  0.673695  0.719957  1
  Nd  Nd7  1  0.527757  0.046263  0.719957  1
  Tm  Tm8  1  0.511660  0.511660  0.023319  1
  Tm  Tm9  1  0.988340  0.988340  0.976681  1
  Si  Si10  1  0.250000  0.250000  0.500000  1
  Si  Si11  1  0.619243  0.880757  0.000000  1
  Si  Si12  1  0.380757  0.119243  0.000000  1
  Si  Si13  1  0.880757  0.380757  0.000000  1
  Si  Si14  1  0.119243  0.619243  0.000000  1
  Hg  Hg15  1  0.750000  0.750000  0.500000  1
