# generated using pymatgen
data_ZrNb13P8
_symmetry_space_group_name_H-M   'P 1'
_cell_length_a   7.74777017
_cell_length_b   7.74776985
_cell_length_c   14.01743486
_cell_angle_alpha   75.69867748
_cell_angle_beta   104.30132164
_cell_angle_gamma   154.05292373
_symmetry_Int_Tables_number   1
_chemical_formula_structural   ZrNb13P8
_chemical_formula_sum   'Zr1 Nb13 P8'
_cell_volume   356.13815532
_cell_formula_units_Z   1
loop_
 _symmetry_equiv_pos_site_id
 _symmetry_equiv_pos_as_xyz
  1  'x, y, z'
loop_
 _atom_site_type_symbol
 _atom_site_label
 _atom_site_symmetry_multiplicity
 _atom_site_fract_x
 _atom_site_fract_y
 _atom_site_fract_z
 _atom_site_occupancy
  Zr  Zr0  1  0.176891  0.823111  0.540748  1
  Nb  Nb1  1  0.828229  0.171773  0.458476  1
  Nb  Nb2  1  0.432062  0.567941  0.828619  1
  Nb  Nb3  1  0.568353  0.431649  0.172690  1
  Nb  Nb4  1  0.499323  0.500679  0.499977  1
  Nb  Nb5  1  0.000259  0.999741  0.000449  1
  Nb  Nb6  1  0.002509  0.997493  0.666996  1
  Nb  Nb7  1  0.994203  0.005799  0.331528  1
  Nb  Nb8  1  0.337051  0.662952  0.028059  1
  Nb  Nb9  1  0.662577  0.337425  0.972458  1
  Nb  Nb10  1  0.210603  0.789399  0.802930  1
  Nb  Nb11  1  0.790399  0.209603  0.198776  1
  Nb  Nb12  1  0.195669  0.804334  0.310164  1
  Nb  Nb13  1  0.806770  0.193232  0.691095  1
  P  P14  1  0.373351  0.626651  0.600823  1
  P  P15  1  0.622113  0.377890  0.393260  1
  P  P16  1  0.369484  0.630518  0.334521  1
  P  P17  1  0.629958  0.370044  0.667808  1
  P  P18  1  0.064006  0.935996  0.850623  1
  P  P19  1  0.935703  0.064300  0.148742  1
  P  P20  1  0.173621  0.826381  0.112272  1
  P  P21  1  0.826892  0.173110  0.888984  1
