# generated using pymatgen
data_Pr5Nd5Rh8
_symmetry_space_group_name_H-M   'P 1'
_cell_length_a   7.61146600
_cell_length_b   7.71008500
_cell_length_c   15.07069300
_cell_angle_alpha   90.00257442
_cell_angle_beta   90.00000000
_cell_angle_gamma   90.00000000
_symmetry_Int_Tables_number   1
_chemical_formula_structural   Pr5Nd5Rh8
_chemical_formula_sum   'Pr10 Nd10 Rh16'
_cell_volume   884.42436930
_cell_formula_units_Z   2
loop_
 _symmetry_equiv_pos_site_id
 _symmetry_equiv_pos_as_xyz
  1  'x, y, z'
loop_
 _atom_site_type_symbol
 _atom_site_label
 _atom_site_symmetry_multiplicity
 _atom_site_fract_x
 _atom_site_fract_y
 _atom_site_fract_z
 _atom_site_occupancy
  Pr  Pr0  1  0.661162  0.168981  0.878014  1
  Pr  Pr1  1  0.161162  0.331019  0.621986  1
  Pr  Pr2  1  0.512984  0.681231  0.592800  1
  Pr  Pr3  1  0.012984  0.818769  0.907200  1
  Pr  Pr4  1  0.487061  0.319135  0.093059  1
  Pr  Pr5  1  0.987061  0.180865  0.406941  1
  Pr  Pr6  1  0.487329  0.319004  0.407065  1
  Pr  Pr7  1  0.987329  0.180996  0.092935  1
  Pr  Pr8  1  0.512612  0.680948  0.907197  1
  Pr  Pr9  1  0.012612  0.819052  0.592803  1
  Nd  Nd10  1  0.661243  0.168798  0.621955  1
  Nd  Nd11  1  0.161243  0.331202  0.878045  1
  Nd  Nd12  1  0.338785  0.831088  0.122091  1
  Nd  Nd13  1  0.838785  0.668912  0.377909  1
  Nd  Nd14  1  0.338754  0.831066  0.377898  1
  Nd  Nd15  1  0.838754  0.668934  0.122102  1
  Nd  Nd16  1  0.822722  0.513766  0.749984  1
  Nd  Nd17  1  0.322722  0.986234  0.750016  1
  Nd  Nd18  1  0.177142  0.486672  0.250032  1
  Nd  Nd19  1  0.677142  0.013328  0.249968  1
  Rh  Rh20  1  0.677019  0.969045  0.459441  1
  Rh  Rh21  1  0.177019  0.530955  0.040559  1
  Rh  Rh22  1  0.322378  0.030761  0.959584  1
  Rh  Rh23  1  0.822378  0.469239  0.540416  1
  Rh  Rh24  1  0.323491  0.030225  0.540406  1
  Rh  Rh25  1  0.823491  0.469775  0.959594  1
  Rh  Rh26  1  0.677102  0.968604  0.040926  1
  Rh  Rh27  1  0.177102  0.531396  0.459074  1
  Rh  Rh28  1  0.457598  0.397365  0.750050  1
  Rh  Rh29  1  0.957598  0.102635  0.749950  1
  Rh  Rh30  1  0.542699  0.603026  0.249993  1
  Rh  Rh31  1  0.042699  0.896974  0.250007  1
  Rh  Rh32  1  0.699016  0.858845  0.749756  1
  Rh  Rh33  1  0.199016  0.641155  0.750244  1
  Rh  Rh34  1  0.300902  0.140746  0.249995  1
  Rh  Rh35  1  0.800902  0.359254  0.250005  1
