# generated using pymatgen
data_Li2Lu(P3Pd10)2
_symmetry_space_group_name_H-M   'P 1'
_cell_length_a   8.57674827
_cell_length_b   8.57675394
_cell_length_c   8.57674300
_cell_angle_alpha   60.00002290
_cell_angle_beta   60.00005503
_cell_angle_gamma   60.00004714
_symmetry_Int_Tables_number   1
_chemical_formula_structural   Li2Lu(P3Pd10)2
_chemical_formula_sum   'Li2 Lu1 P6 Pd20'
_cell_volume   446.12177694
_cell_formula_units_Z   1
loop_
 _symmetry_equiv_pos_site_id
 _symmetry_equiv_pos_as_xyz
  1  'x, y, z'
loop_
 _atom_site_type_symbol
 _atom_site_label
 _atom_site_symmetry_multiplicity
 _atom_site_fract_x
 _atom_site_fract_y
 _atom_site_fract_z
 _atom_site_occupancy
  Li  Li0  1  0.750000  0.750000  0.750000  1
  Li  Li1  1  0.000000  0.000000  0.000000  1
  Lu  Lu2  1  0.250000  0.250000  0.250000  1
  P  P3  1  0.737809  0.262191  0.262192  1
  P  P4  1  0.262192  0.737809  0.737808  1
  P  P5  1  0.262191  0.737809  0.262192  1
  P  P6  1  0.737809  0.262192  0.737808  1
  P  P7  1  0.262192  0.262191  0.737808  1
  P  P8  1  0.737808  0.737809  0.262192  1
  Pd  Pd9  1  0.385001  0.385002  0.385003  1
  Pd  Pd10  1  0.617822  0.617822  0.617822  1
  Pd  Pd11  1  0.385002  0.385002  0.844993  1
  Pd  Pd12  1  0.385001  0.844995  0.385002  1
  Pd  Pd13  1  0.617822  0.617823  0.146533  1
  Pd  Pd14  1  0.617823  0.146533  0.617822  1
  Pd  Pd15  1  0.844994  0.385002  0.385002  1
  Pd  Pd16  1  0.146533  0.617823  0.617822  1
  Pd  Pd17  1  0.341292  0.002772  0.002772  1
  Pd  Pd18  1  0.653164  0.002772  0.002772  1
  Pd  Pd19  1  0.002772  0.341291  0.653164  1
  Pd  Pd20  1  0.002771  0.653165  0.341291  1
  Pd  Pd21  1  0.002771  0.341292  0.002772  1
  Pd  Pd22  1  0.653164  0.002772  0.341292  1
  Pd  Pd23  1  0.002771  0.653164  0.002772  1
  Pd  Pd24  1  0.341292  0.002771  0.653163  1
  Pd  Pd25  1  0.002772  0.002771  0.341292  1
  Pd  Pd26  1  0.002772  0.002772  0.653164  1
  Pd  Pd27  1  0.653164  0.341291  0.002772  1
  Pd  Pd28  1  0.341291  0.653164  0.002772  1
