# generated using pymatgen
data_TlCr(PSe3)2
_symmetry_space_group_name_H-M   'P 1'
_cell_length_a   6.41319600
_cell_length_b   7.78506549
_cell_length_c   24.10619500
_cell_angle_alpha   72.68413436
_cell_angle_beta   90.00000000
_cell_angle_gamma   90.00000000
_symmetry_Int_Tables_number   1
_chemical_formula_structural   TlCr(PSe3)2
_chemical_formula_sum   'Tl4 Cr4 P8 Se24'
_cell_volume   1149.00667877
_cell_formula_units_Z   4
loop_
 _symmetry_equiv_pos_site_id
 _symmetry_equiv_pos_as_xyz
  1  'x, y, z'
loop_
 _atom_site_type_symbol
 _atom_site_label
 _atom_site_symmetry_multiplicity
 _atom_site_fract_x
 _atom_site_fract_y
 _atom_site_fract_z
 _atom_site_occupancy
  Tl  Tl0  1  0.924117  0.667362  0.280750  1
  Tl  Tl1  1  0.075883  0.332638  0.719250  1
  Tl  Tl2  1  0.424117  0.332638  0.219250  1
  Tl  Tl3  1  0.575883  0.667362  0.780750  1
  Cr  Cr4  1  0.249371  0.943065  0.039932  1
  Cr  Cr5  1  0.750629  0.056935  0.960068  1
  Cr  Cr6  1  0.749371  0.056935  0.460068  1
  Cr  Cr7  1  0.250629  0.943065  0.539932  1
  P  P8  1  0.753252  0.957724  0.125750  1
  P  P9  1  0.246748  0.042276  0.874250  1
  P  P10  1  0.253252  0.042276  0.374250  1
  P  P11  1  0.746748  0.957724  0.625750  1
  P  P12  1  0.744866  0.693118  0.106766  1
  P  P13  1  0.255134  0.306882  0.893234  1
  P  P14  1  0.244866  0.306882  0.393234  1
  P  P15  1  0.755134  0.693118  0.606766  1
  Se  Se16  1  0.892091  0.478107  0.172743  1
  Se  Se17  1  0.107909  0.521893  0.827257  1
  Se  Se18  1  0.392091  0.521893  0.327257  1
  Se  Se19  1  0.607909  0.478107  0.672743  1
  Se  Se20  1  0.591586  0.987633  0.371336  1
  Se  Se21  1  0.408414  0.012367  0.628664  1
  Se  Se22  1  0.091586  0.012367  0.128664  1
  Se  Se23  1  0.908414  0.987633  0.871336  1
  Se  Se24  1  0.928996  0.768398  0.020646  1
  Se  Se25  1  0.071004  0.231602  0.979354  1
  Se  Se26  1  0.428996  0.231602  0.479354  1
  Se  Se27  1  0.571004  0.768398  0.520646  1
  Se  Se28  1  0.582042  0.944934  0.203665  1
  Se  Se29  1  0.417958  0.055066  0.796335  1
  Se  Se30  1  0.082042  0.055066  0.296335  1
  Se  Se31  1  0.917958  0.944934  0.703665  1
  Se  Se32  1  0.576810  0.131968  0.045334  1
  Se  Se33  1  0.423190  0.868032  0.954666  1
  Se  Se34  1  0.076810  0.868032  0.454666  1
  Se  Se35  1  0.923190  0.131968  0.545334  1
  Se  Se36  1  0.410541  0.641573  0.093747  1
  Se  Se37  1  0.589459  0.358427  0.906253  1
  Se  Se38  1  0.910541  0.358427  0.406253  1
  Se  Se39  1  0.089459  0.641573  0.593747  1
