# generated using pymatgen
data_HoSc(Cu2P)4
_symmetry_space_group_name_H-M   'P 1'
_cell_length_a   7.18543286
_cell_length_b   7.18543354
_cell_length_c   3.74224700
_cell_angle_alpha   90.00000000
_cell_angle_beta   90.00000000
_cell_angle_gamma   90.44410693
_symmetry_Int_Tables_number   1
_chemical_formula_structural   HoSc(Cu2P)4
_chemical_formula_sum   'Ho1 Sc1 Cu8 P4'
_cell_volume   193.20809344
_cell_formula_units_Z   1
loop_
 _symmetry_equiv_pos_site_id
 _symmetry_equiv_pos_as_xyz
  1  'x, y, z'
loop_
 _atom_site_type_symbol
 _atom_site_label
 _atom_site_symmetry_multiplicity
 _atom_site_fract_x
 _atom_site_fract_y
 _atom_site_fract_z
 _atom_site_occupancy
  Ho  Ho0  1  0.000000  0.000000  0.500000  1
  Sc  Sc1  1  0.500000  0.500000  0.000000  1
  Cu  Cu2  1  0.584300  0.166057  0.500000  1
  Cu  Cu3  1  0.415700  0.833943  0.500000  1
  Cu  Cu4  1  0.086346  0.336084  0.000000  1
  Cu  Cu5  1  0.913654  0.663916  0.000000  1
  Cu  Cu6  1  0.166057  0.584300  0.500000  1
  Cu  Cu7  1  0.833943  0.415700  0.500000  1
  Cu  Cu8  1  0.336084  0.086346  0.000000  1
  Cu  Cu9  1  0.663916  0.913654  0.000000  1
  P  P10  1  0.706166  0.706166  0.500000  1
  P  P11  1  0.293834  0.293834  0.500000  1
  P  P12  1  0.215352  0.784648  0.000000  1
  P  P13  1  0.784648  0.215352  0.000000  1
