# generated using pymatgen
data_Pa3Ga3PdPt2
_symmetry_space_group_name_H-M   'P 1'
_cell_length_a   7.05682000
_cell_length_b   7.05682003
_cell_length_c   8.35061000
_cell_angle_alpha   90.00000000
_cell_angle_beta   90.00000000
_cell_angle_gamma   119.99999049
_symmetry_Int_Tables_number   1
_chemical_formula_structural   Pa3Ga3PdPt2
_chemical_formula_sum   'Pa6 Ga6 Pd2 Pt4'
_cell_volume   360.13634789
_cell_formula_units_Z   2
loop_
 _symmetry_equiv_pos_site_id
 _symmetry_equiv_pos_as_xyz
  1  'x, y, z'
loop_
 _atom_site_type_symbol
 _atom_site_label
 _atom_site_symmetry_multiplicity
 _atom_site_fract_x
 _atom_site_fract_y
 _atom_site_fract_z
 _atom_site_occupancy
  Pa  Pa0  1  0.422898  0.423302  0.750000  1
  Pa  Pa1  1  0.000404  0.577102  0.750000  1
  Pa  Pa2  1  0.576698  0.999596  0.750000  1
  Pa  Pa3  1  0.577102  0.000404  0.250000  1
  Pa  Pa4  1  0.999596  0.576698  0.250000  1
  Pa  Pa5  1  0.423302  0.422898  0.250000  1
  Ga  Ga6  1  0.240622  0.000000  0.000000  1
  Ga  Ga7  1  0.759378  0.759378  0.000000  1
  Ga  Ga8  1  0.000000  0.240622  0.000000  1
  Ga  Ga9  1  0.759378  0.759378  0.500000  1
  Ga  Ga10  1  0.240622  0.000000  0.500000  1
  Ga  Ga11  1  0.000000  0.240622  0.500000  1
  Pd  Pd12  1  0.000000  0.000000  0.750000  1
  Pd  Pd13  1  0.000000  0.000000  0.250000  1
  Pt  Pt14  1  0.666667  0.333333  0.999572  1
  Pt  Pt15  1  0.666667  0.333333  0.500428  1
  Pt  Pt16  1  0.333333  0.666667  0.499572  1
  Pt  Pt17  1  0.333333  0.666667  0.000428  1
