# generated using pymatgen
data_Lu5In4IrPd
_symmetry_space_group_name_H-M   'P 1'
_cell_length_a   3.54887400
_cell_length_b   8.04243525
_cell_length_c   17.98860808
_cell_angle_alpha   90.08592017
_cell_angle_beta   90.00000000
_cell_angle_gamma   90.00000000
_symmetry_Int_Tables_number   1
_chemical_formula_structural   Lu5In4IrPd
_chemical_formula_sum   'Lu10 In8 Ir2 Pd2'
_cell_volume   513.42288762
_cell_formula_units_Z   2
loop_
 _symmetry_equiv_pos_site_id
 _symmetry_equiv_pos_as_xyz
  1  'x, y, z'
loop_
 _atom_site_type_symbol
 _atom_site_label
 _atom_site_symmetry_multiplicity
 _atom_site_fract_x
 _atom_site_fract_y
 _atom_site_fract_z
 _atom_site_occupancy
  Lu  Lu0  1  0.000000  0.500000  0.500000  1
  Lu  Lu1  1  0.000000  0.000000  0.000000  1
  Lu  Lu2  1  0.000000  0.729325  0.278115  1
  Lu  Lu3  1  0.000000  0.270675  0.721885  1
  Lu  Lu4  1  0.000000  0.748301  0.779514  1
  Lu  Lu5  1  0.000000  0.251699  0.220486  1
  Lu  Lu6  1  0.000000  0.615564  0.086699  1
  Lu  Lu7  1  0.000000  0.384436  0.913301  1
  Lu  Lu8  1  0.000000  0.883030  0.585243  1
  Lu  Lu9  1  0.000000  0.116970  0.414757  1
  In  In10  1  0.500000  0.708014  0.933351  1
  In  In11  1  0.500000  0.291986  0.066649  1
  In  In12  1  0.500000  0.792268  0.433312  1
  In  In13  1  0.500000  0.207732  0.566688  1
  In  In14  1  0.500000  0.577617  0.647654  1
  In  In15  1  0.500000  0.422383  0.352346  1
  In  In16  1  0.500000  0.923415  0.149114  1
  In  In17  1  0.500000  0.076585  0.850886  1
  Ir  Ir18  1  0.500000  0.520122  0.195869  1
  Ir  Ir19  1  0.500000  0.479878  0.804131  1
  Pd  Pd20  1  0.500000  0.979833  0.695913  1
  Pd  Pd21  1  0.500000  0.020167  0.304087  1
