# generated using pymatgen
data_Nd3Mn2Sb3O14
_symmetry_space_group_name_H-M   'P 1'
_cell_length_a   7.36954721
_cell_length_b   7.36957341
_cell_length_c   7.36952882
_cell_angle_alpha   118.03134826
_cell_angle_beta   61.96861598
_cell_angle_gamma   118.03116816
_symmetry_Int_Tables_number   1
_chemical_formula_structural   Nd3Mn2Sb3O14
_chemical_formula_sum   'Nd3 Mn2 Sb3 O14'
_cell_volume   295.47932693
_cell_formula_units_Z   1
loop_
 _symmetry_equiv_pos_site_id
 _symmetry_equiv_pos_as_xyz
  1  'x, y, z'
loop_
 _atom_site_type_symbol
 _atom_site_label
 _atom_site_symmetry_multiplicity
 _atom_site_fract_x
 _atom_site_fract_y
 _atom_site_fract_z
 _atom_site_occupancy
  Nd  Nd0  1  0.000100  0.500024  0.999970  1
  Nd  Nd1  1  0.499987  0.999896  0.999960  1
  Nd  Nd2  1  0.499990  0.500023  0.500095  1
  Mn  Mn3  1  0.499645  0.500085  0.999732  1
  Mn  Mn4  1  0.000059  0.000140  0.500259  1
  Sb  Sb5  1  0.500028  0.000014  0.499992  1
  Sb  Sb6  1  0.999984  0.499985  0.500004  1
  Sb  Sb7  1  0.999998  0.999990  0.999998  1
  O  O8  1  0.615760  0.384239  0.115756  1
  O  O9  1  0.384325  0.615673  0.884317  1
  O  O10  1  0.079903  0.319759  0.180232  1
  O  O11  1  0.680243  0.920104  0.180233  1
  O  O12  1  0.680249  0.319753  0.579880  1
  O  O13  1  0.920121  0.680225  0.819759  1
  O  O14  1  0.319774  0.079882  0.819760  1
  O  O15  1  0.319776  0.680219  0.420097  1
  O  O16  1  0.645386  0.907615  0.592366  1
  O  O17  1  0.092387  0.354630  0.592371  1
  O  O18  1  0.092386  0.907617  0.145368  1
  O  O19  1  0.354651  0.092382  0.407610  1
  O  O20  1  0.907624  0.645365  0.407609  1
  O  O21  1  0.907625  0.092382  0.854632  1
