# generated using pymatgen
data_Ho5Zr2Co16MoP12
_symmetry_space_group_name_H-M   'P 1'
_cell_length_a   12.23015256
_cell_length_b   12.21943514
_cell_length_c   3.70978300
_cell_angle_alpha   90.00000000
_cell_angle_beta   90.00000000
_cell_angle_gamma   119.97101750
_symmetry_Int_Tables_number   1
_chemical_formula_structural   Ho5Zr2Co16MoP12
_chemical_formula_sum   'Ho5 Zr2 Co16 Mo1 P12'
_cell_volume   480.27380916
_cell_formula_units_Z   1
loop_
 _symmetry_equiv_pos_site_id
 _symmetry_equiv_pos_as_xyz
  1  'x, y, z'
loop_
 _atom_site_type_symbol
 _atom_site_label
 _atom_site_symmetry_multiplicity
 _atom_site_fract_x
 _atom_site_fract_y
 _atom_site_fract_z
 _atom_site_occupancy
  Ho  Ho0  1  0.668691  0.334805  0.000000  1
  Ho  Ho1  1  0.331309  0.666115  0.000000  1
  Ho  Ho2  1  0.818837  0.818851  0.500000  1
  Ho  Ho3  1  0.181163  0.000014  0.500000  1
  Ho  Ho4  1  0.000000  0.186867  0.500000  1
  Zr  Zr5  1  0.441841  0.441650  0.000000  1
  Zr  Zr6  1  0.558159  0.999809  0.000000  1
  Co  Co7  1  0.875535  0.358351  0.500000  1
  Co  Co8  1  0.650274  0.521233  0.500000  1
  Co  Co9  1  0.478066  0.123261  0.500000  1
  Co  Co10  1  0.349726  0.870959  0.500000  1
  Co  Co11  1  0.521934  0.645195  0.500000  1
  Co  Co12  1  0.124465  0.482817  0.500000  1
  Co  Co13  1  0.806488  0.181517  0.000000  1
  Co  Co14  1  0.826640  0.626748  0.000000  1
  Co  Co15  1  0.371973  0.192972  0.000000  1
  Co  Co16  1  0.173360  0.800110  0.000000  1
  Co  Co17  1  0.628027  0.820999  0.000000  1
  Co  Co18  1  0.193512  0.375030  0.000000  1
  Co  Co19  1  0.276699  0.277650  0.500000  1
  Co  Co20  1  0.723301  0.000951  0.500000  1
  Co  Co21  1  0.000000  0.719884  0.500000  1
  Co  Co22  1  0.000000  0.999980  0.000000  1
  Mo  Mo23  1  0.000000  0.553886  0.000000  1
  P  P24  1  0.692876  0.173002  0.500000  1
  P  P25  1  0.836176  0.521635  0.500000  1
  P  P26  1  0.478909  0.305953  0.500000  1
  P  P27  1  0.163824  0.685458  0.500000  1
  P  P28  1  0.521091  0.827043  0.500000  1
  P  P29  1  0.307124  0.480126  0.500000  1
  P  P30  1  0.177064  0.178979  0.000000  1
  P  P31  1  0.822936  0.001916  0.000000  1
  P  P32  1  0.000000  0.821346  0.000000  1
  P  P33  1  0.651891  0.647407  0.000000  1
  P  P34  1  0.348109  0.995516  0.000000  1
  P  P35  1  0.000000  0.361965  0.000000  1
