# generated using pymatgen
data_Ca5SnPt2
_symmetry_space_group_name_H-M   'P 1'
_cell_length_a   9.15898464
_cell_length_b   9.15898554
_cell_length_c   9.15898504
_cell_angle_alpha   129.33216097
_cell_angle_beta   129.33216436
_cell_angle_gamma   74.47669428
_symmetry_Int_Tables_number   1
_chemical_formula_structural   Ca5SnPt2
_chemical_formula_sum   'Ca10 Sn2 Pt4'
_cell_volume   447.97493757
_cell_formula_units_Z   2
loop_
 _symmetry_equiv_pos_site_id
 _symmetry_equiv_pos_as_xyz
  1  'x, y, z'
loop_
 _atom_site_type_symbol
 _atom_site_label
 _atom_site_symmetry_multiplicity
 _atom_site_fract_x
 _atom_site_fract_y
 _atom_site_fract_z
 _atom_site_occupancy
  Ca  Ca0  1  0.805768  0.305768  0.843144  1
  Ca  Ca1  1  0.194232  0.694232  0.156856  1
  Ca  Ca2  1  0.462624  0.962624  0.156856  1
  Ca  Ca3  1  0.305768  0.462624  0.500000  1
  Ca  Ca4  1  0.037376  0.194232  0.500000  1
  Ca  Ca5  1  0.537376  0.037376  0.843144  1
  Ca  Ca6  1  0.694232  0.537376  0.500000  1
  Ca  Ca7  1  0.962624  0.805768  0.500000  1
  Ca  Ca8  1  0.000000  0.000000  0.000000  1
  Ca  Ca9  1  0.500000  0.500000  0.000000  1
  Sn  Sn10  1  0.250000  0.250000  0.000000  1
  Sn  Sn11  1  0.750000  0.750000  0.000000  1
  Pt  Pt12  1  0.124454  0.624454  0.748908  1
  Pt  Pt13  1  0.875546  0.375546  0.251092  1
  Pt  Pt14  1  0.624454  0.875546  0.500000  1
  Pt  Pt15  1  0.375546  0.124454  0.500000  1
