# generated using pymatgen
data_Y2LuSn3RuPt2
_symmetry_space_group_name_H-M   'P 1'
_cell_length_a   7.72877116
_cell_length_b   7.75437944
_cell_length_c   3.72194400
_cell_angle_alpha   90.00000000
_cell_angle_beta   90.00000000
_cell_angle_gamma   120.10965162
_symmetry_Int_Tables_number   1
_chemical_formula_structural   Y2LuSn3RuPt2
_chemical_formula_sum   'Y2 Lu1 Sn3 Ru1 Pt2'
_cell_volume   192.96433171
_cell_formula_units_Z   1
loop_
 _symmetry_equiv_pos_site_id
 _symmetry_equiv_pos_as_xyz
  1  'x, y, z'
loop_
 _atom_site_type_symbol
 _atom_site_label
 _atom_site_symmetry_multiplicity
 _atom_site_fract_x
 _atom_site_fract_y
 _atom_site_fract_z
 _atom_site_occupancy
  Y  Y0  1  0.399118  0.398683  0.500000  1
  Y  Y1  1  0.600882  0.999565  0.500000  1
  Lu  Lu2  1  0.000000  0.601940  0.500000  1
  Sn  Sn3  1  0.737051  0.735386  0.000000  1
  Sn  Sn4  1  0.262949  0.998335  0.000000  1
  Sn  Sn5  1  0.000000  0.264361  0.000000  1
  Ru  Ru6  1  0.000000  0.997504  0.500000  1
  Pt  Pt7  1  0.672911  0.338568  0.000000  1
  Pt  Pt8  1  0.327089  0.665658  0.000000  1
