# generated using pymatgen
data_TmLu3CoSi4Ru3
_symmetry_space_group_name_H-M   'P 1'
_cell_length_a   4.22318200
_cell_length_b   6.83737980
_cell_length_c   7.08833964
_cell_angle_alpha   89.88997691
_cell_angle_beta   90.00000000
_cell_angle_gamma   90.00000000
_symmetry_Int_Tables_number   1
_chemical_formula_structural   TmLu3CoSi4Ru3
_chemical_formula_sum   'Tm1 Lu3 Co1 Si4 Ru3'
_cell_volume   204.67896885
_cell_formula_units_Z   1
loop_
 _symmetry_equiv_pos_site_id
 _symmetry_equiv_pos_as_xyz
  1  'x, y, z'
loop_
 _atom_site_type_symbol
 _atom_site_label
 _atom_site_symmetry_multiplicity
 _atom_site_fract_x
 _atom_site_fract_y
 _atom_site_fract_z
 _atom_site_occupancy
  Tm  Tm0  1  0.250000  0.492151  0.316019  1
  Lu  Lu1  1  0.750000  0.012181  0.809023  1
  Lu  Lu2  1  0.750000  0.513125  0.688757  1
  Lu  Lu3  1  0.250000  0.995024  0.191954  1
  Co  Co4  1  0.250000  0.150010  0.563485  1
  Si  Si5  1  0.750000  0.201403  0.399918  1
  Si  Si6  1  0.250000  0.295043  0.886162  1
  Si  Si7  1  0.750000  0.698910  0.106183  1
  Si  Si8  1  0.250000  0.806296  0.608461  1
  Ru  Ru9  1  0.750000  0.338397  0.062071  1
  Ru  Ru10  1  0.250000  0.652347  0.931775  1
  Ru  Ru11  1  0.750000  0.845112  0.436190  1
