# generated using pymatgen
data_Er2Th2Pd3PtPb2
_symmetry_space_group_name_H-M   'P 1'
_cell_length_a   8.04769258
_cell_length_b   8.07012255
_cell_length_c   3.65390100
_cell_angle_alpha   90.00000000
_cell_angle_beta   90.00000000
_cell_angle_gamma   89.89223900
_symmetry_Int_Tables_number   1
_chemical_formula_structural   Er2Th2Pd3PtPb2
_chemical_formula_sum   'Er2 Th2 Pd3 Pt1 Pb2'
_cell_volume   237.30534259
_cell_formula_units_Z   1
loop_
 _symmetry_equiv_pos_site_id
 _symmetry_equiv_pos_as_xyz
  1  'x, y, z'
loop_
 _atom_site_type_symbol
 _atom_site_label
 _atom_site_symmetry_multiplicity
 _atom_site_fract_x
 _atom_site_fract_y
 _atom_site_fract_z
 _atom_site_occupancy
  Er  Er0  1  0.829876  0.672070  0.500000  1
  Er  Er1  1  0.329233  0.831164  0.500000  1
  Th  Th2  1  0.666915  0.166602  0.500000  1
  Th  Th3  1  0.172167  0.331302  0.500000  1
  Pd  Pd4  1  0.125492  0.625647  0.000000  1
  Pd  Pd5  1  0.627220  0.871617  0.000000  1
  Pd  Pd6  1  0.871359  0.375532  0.000000  1
  Pt  Pt7  1  0.373273  0.123957  0.000000  1
  Pb  Pb8  1  0.001025  0.988404  0.000000  1
  Pb  Pb9  1  0.503440  0.513706  0.000000  1
