# generated using pymatgen
data_SmHo4InHg3Pd2
_symmetry_space_group_name_H-M   'P 1'
_cell_length_a   3.63035400
_cell_length_b   7.95803204
_cell_length_c   18.39578355
_cell_angle_alpha   89.41215274
_cell_angle_beta   90.00000000
_cell_angle_gamma   90.00000000
_symmetry_Int_Tables_number   1
_chemical_formula_structural   SmHo4InHg3Pd2
_chemical_formula_sum   'Sm2 Ho8 In2 Hg6 Pd4'
_cell_volume   531.43492400
_cell_formula_units_Z   2
loop_
 _symmetry_equiv_pos_site_id
 _symmetry_equiv_pos_as_xyz
  1  'x, y, z'
loop_
 _atom_site_type_symbol
 _atom_site_label
 _atom_site_symmetry_multiplicity
 _atom_site_fract_x
 _atom_site_fract_y
 _atom_site_fract_z
 _atom_site_occupancy
  Sm  Sm0  1  0.000000  0.500000  0.500000  1
  Sm  Sm1  1  0.000000  0.000000  0.000000  1
  Ho  Ho2  1  0.000000  0.734654  0.285678  1
  Ho  Ho3  1  0.000000  0.265346  0.714322  1
  Ho  Ho4  1  0.000000  0.754032  0.781338  1
  Ho  Ho5  1  0.000000  0.245968  0.218662  1
  Ho  Ho6  1  0.000000  0.611477  0.083516  1
  Ho  Ho7  1  0.000000  0.388523  0.916484  1
  Ho  Ho8  1  0.000000  0.886693  0.584594  1
  Ho  Ho9  1  0.000000  0.113307  0.415406  1
  In  In10  1  0.500000  0.920970  0.151595  1
  In  In11  1  0.500000  0.079030  0.848405  1
  Hg  Hg12  1  0.500000  0.711638  0.931889  1
  Hg  Hg13  1  0.500000  0.288362  0.068111  1
  Hg  Hg14  1  0.500000  0.792699  0.433555  1
  Hg  Hg15  1  0.500000  0.207301  0.566445  1
  Hg  Hg16  1  0.500000  0.582505  0.648086  1
  Hg  Hg17  1  0.500000  0.417495  0.351914  1
  Pd  Pd18  1  0.500000  0.532437  0.196228  1
  Pd  Pd19  1  0.500000  0.467563  0.803772  1
  Pd  Pd20  1  0.500000  0.974349  0.697334  1
  Pd  Pd21  1  0.500000  0.025651  0.302666  1
