# generated using pymatgen
data_Zr8Ta11Si16Mo
_symmetry_space_group_name_H-M   'P 1'
_cell_length_a   6.87950233
_cell_length_b   6.87950240
_cell_length_c   12.69553100
_cell_angle_alpha   89.72311037
_cell_angle_beta   90.27688964
_cell_angle_gamma   89.95687287
_symmetry_Int_Tables_number   1
_chemical_formula_structural   Zr8Ta11Si16Mo
_chemical_formula_sum   'Zr8 Ta11 Si16 Mo1'
_cell_volume   600.83420102
_cell_formula_units_Z   1
loop_
 _symmetry_equiv_pos_site_id
 _symmetry_equiv_pos_as_xyz
  1  'x, y, z'
loop_
 _atom_site_type_symbol
 _atom_site_label
 _atom_site_symmetry_multiplicity
 _atom_site_fract_x
 _atom_site_fract_y
 _atom_site_fract_z
 _atom_site_occupancy
  Zr  Zr0  1  0.000152  0.660077  0.030742  1
  Zr  Zr1  1  0.998437  0.340928  0.531385  1
  Zr  Zr2  1  0.660077  0.000152  0.969258  1
  Zr  Zr3  1  0.159489  0.500069  0.780052  1
  Zr  Zr4  1  0.841106  0.499658  0.280703  1
  Zr  Zr5  1  0.500069  0.159489  0.219948  1
  Zr  Zr6  1  0.499658  0.841106  0.719297  1
  Zr  Zr7  1  0.340928  0.998437  0.468615  1
  Ta  Ta8  1  0.344404  0.503719  0.377916  1
  Ta  Ta9  1  0.848930  0.997286  0.372964  1
  Ta  Ta10  1  0.004864  0.152035  0.126689  1
  Ta  Ta11  1  0.997286  0.848930  0.627036  1
  Ta  Ta12  1  0.652013  0.496553  0.876351  1
  Ta  Ta13  1  0.503719  0.344404  0.622084  1
  Ta  Ta14  1  0.496553  0.652013  0.123649  1
  Ta  Ta15  1  0.152035  0.004864  0.873311  1
  Ta  Ta16  1  0.828851  0.170751  0.748861  1
  Ta  Ta17  1  0.170751  0.828851  0.251139  1
  Ta  Ta18  1  0.331225  0.331225  0.000000  1
  Si  Si19  1  0.040933  0.702345  0.438343  1
  Si  Si20  1  0.955607  0.298608  0.936336  1
  Si  Si21  1  0.702345  0.040933  0.561657  1
  Si  Si22  1  0.202666  0.455252  0.186896  1
  Si  Si23  1  0.794899  0.547733  0.684139  1
  Si  Si24  1  0.455252  0.202666  0.813104  1
  Si  Si25  1  0.547733  0.794899  0.315861  1
  Si  Si26  1  0.298608  0.955607  0.063664  1
  Si  Si27  1  0.863944  0.791950  0.822405  1
  Si  Si28  1  0.135994  0.208290  0.323033  1
  Si  Si29  1  0.791950  0.863944  0.177595  1
  Si  Si30  1  0.293225  0.635404  0.572375  1
  Si  Si31  1  0.708685  0.364464  0.073090  1
  Si  Si32  1  0.635404  0.293225  0.427625  1
  Si  Si33  1  0.364464  0.708685  0.926910  1
  Si  Si34  1  0.208290  0.135994  0.676967  1
  Mo  Mo35  1  0.669454  0.669454  0.500000  1
