# generated using pymatgen
data_Y12CoTc2Os
_symmetry_space_group_name_H-M   'P 1'
_cell_length_a   6.33461807
_cell_length_b   7.36954595
_cell_length_c   9.21843100
_cell_angle_alpha   90.00000000
_cell_angle_beta   90.00000000
_cell_angle_gamma   90.12165264
_symmetry_Int_Tables_number   1
_chemical_formula_structural   Y12CoTc2Os
_chemical_formula_sum   'Y12 Co1 Tc2 Os1'
_cell_volume   430.34543170
_cell_formula_units_Z   1
loop_
 _symmetry_equiv_pos_site_id
 _symmetry_equiv_pos_as_xyz
  1  'x, y, z'
loop_
 _atom_site_type_symbol
 _atom_site_label
 _atom_site_symmetry_multiplicity
 _atom_site_fract_x
 _atom_site_fract_y
 _atom_site_fract_z
 _atom_site_occupancy
  Y  Y0  1  0.329842  0.677439  0.065603  1
  Y  Y1  1  0.163484  0.175786  0.437782  1
  Y  Y2  1  0.665462  0.327385  0.565044  1
  Y  Y3  1  0.832556  0.821991  0.936391  1
  Y  Y4  1  0.665462  0.327385  0.934956  1
  Y  Y5  1  0.832556  0.821991  0.563609  1
  Y  Y6  1  0.329842  0.677439  0.434397  1
  Y  Y7  1  0.163484  0.175786  0.062218  1
  Y  Y8  1  0.870934  0.541977  0.250000  1
  Y  Y9  1  0.628831  0.041994  0.250000  1
  Y  Y10  1  0.141948  0.457032  0.750000  1
  Y  Y11  1  0.372936  0.951386  0.750000  1
  Co  Co12  1  0.538726  0.616371  0.750000  1
  Tc  Tc13  1  0.460496  0.388130  0.250000  1
  Tc  Tc14  1  0.963815  0.112373  0.750000  1
  Os  Os15  1  0.039626  0.885533  0.250000  1
