# generated using pymatgen
data_Y2Tm(LuRh6)3
_symmetry_space_group_name_H-M   'P 1'
_cell_length_a   5.24282700
_cell_length_b   5.24282816
_cell_length_c   17.47790100
_cell_angle_alpha   90.00000000
_cell_angle_beta   90.00000000
_cell_angle_gamma   119.99998636
_symmetry_Int_Tables_number   1
_chemical_formula_structural   Y2Tm(LuRh6)3
_chemical_formula_sum   'Y2 Tm1 Lu3 Rh18'
_cell_volume   416.05535617
_cell_formula_units_Z   1
loop_
 _symmetry_equiv_pos_site_id
 _symmetry_equiv_pos_as_xyz
  1  'x, y, z'
loop_
 _atom_site_type_symbol
 _atom_site_label
 _atom_site_symmetry_multiplicity
 _atom_site_fract_x
 _atom_site_fract_y
 _atom_site_fract_z
 _atom_site_occupancy
  Y  Y0  1  0.333333  0.666667  0.749948  1
  Y  Y1  1  0.666667  0.333333  0.250006  1
  Tm  Tm2  1  0.333333  0.666667  0.958839  1
  Lu  Lu3  1  0.666667  0.333333  0.041307  1
  Lu  Lu4  1  0.666667  0.333333  0.458765  1
  Lu  Lu5  1  0.333333  0.666667  0.541231  1
  Rh  Rh6  1  0.167612  0.832388  0.375599  1
  Rh  Rh7  1  0.167612  0.335225  0.375599  1
  Rh  Rh8  1  0.664775  0.832388  0.375599  1
  Rh  Rh9  1  0.832396  0.167604  0.624402  1
  Rh  Rh10  1  0.832396  0.664791  0.624402  1
  Rh  Rh11  1  0.335209  0.167604  0.624402  1
  Rh  Rh12  1  0.832413  0.167587  0.875488  1
  Rh  Rh13  1  0.832413  0.664825  0.875488  1
  Rh  Rh14  1  0.335175  0.167587  0.875488  1
  Rh  Rh15  1  0.167580  0.832420  0.124455  1
  Rh  Rh16  1  0.167580  0.335161  0.124455  1
  Rh  Rh17  1  0.664839  0.832420  0.124455  1
  Rh  Rh18  1  0.333333  0.666667  0.249996  1
  Rh  Rh19  1  0.666667  0.333333  0.749990  1
  Rh  Rh20  1  0.000000  0.000000  0.250039  1
  Rh  Rh21  1  0.000000  0.000000  0.749989  1
  Rh  Rh22  1  0.000000  0.000000  0.499999  1
  Rh  Rh23  1  0.000000  0.000000  0.000057  1
