# generated using pymatgen
data_Nb7Os10W13
_symmetry_space_group_name_H-M   'P 1'
_cell_length_a   9.80031840
_cell_length_b   9.84015938
_cell_length_c   5.04005700
_cell_angle_alpha   90.00000000
_cell_angle_beta   90.00000000
_cell_angle_gamma   90.10836390
_symmetry_Int_Tables_number   1
_chemical_formula_structural   Nb7Os10W13
_chemical_formula_sum   'Nb7 Os10 W13'
_cell_volume   486.04557063
_cell_formula_units_Z   1
loop_
 _symmetry_equiv_pos_site_id
 _symmetry_equiv_pos_as_xyz
  1  'x, y, z'
loop_
 _atom_site_type_symbol
 _atom_site_label
 _atom_site_symmetry_multiplicity
 _atom_site_fract_x
 _atom_site_fract_y
 _atom_site_fract_z
 _atom_site_occupancy
  Nb  Nb0  1  0.102571  0.894903  0.500000  1
  Nb  Nb1  1  0.897454  0.104982  0.500000  1
  Nb  Nb2  1  0.397961  0.395982  0.000000  1
  Nb  Nb3  1  0.606060  0.604268  0.000000  1
  Nb  Nb4  1  0.370138  0.963057  0.500000  1
  Nb  Nb5  1  0.629640  0.036815  0.500000  1
  Nb  Nb6  1  0.125966  0.463739  0.000000  1
  Os  Os7  1  0.500475  0.500101  0.500000  1
  Os  Os8  1  0.999756  0.000154  0.000000  1
  Os  Os9  1  0.431960  0.240711  0.500000  1
  Os  Os10  1  0.568667  0.759146  0.500000  1
  Os  Os11  1  0.067019  0.739332  0.000000  1
  Os  Os12  1  0.930977  0.260996  0.000000  1
  Os  Os13  1  0.238733  0.432042  0.500000  1
  Os  Os14  1  0.763051  0.567563  0.500000  1
  Os  Os15  1  0.738363  0.067792  0.000000  1
  Os  Os16  1  0.261303  0.931703  0.000000  1
  W  W17  1  0.869409  0.537049  0.000000  1
  W  W18  1  0.963638  0.372392  0.500000  1
  W  W19  1  0.036777  0.627470  0.500000  1
  W  W20  1  0.463284  0.127898  0.000000  1
  W  W21  1  0.536814  0.872352  0.000000  1
  W  W22  1  0.319007  0.680798  0.248627  1
  W  W23  1  0.681081  0.319850  0.248814  1
  W  W24  1  0.180573  0.181078  0.748805  1
  W  W25  1  0.819330  0.818051  0.749132  1
  W  W26  1  0.681081  0.319850  0.751186  1
  W  W27  1  0.319007  0.680798  0.751373  1
  W  W28  1  0.819330  0.818051  0.250868  1
  W  W29  1  0.180573  0.181078  0.251195  1
