# generated using pymatgen
data_TbErCr2F14
_symmetry_space_group_name_H-M   'P 1'
_cell_length_a   5.46989184
_cell_length_b   8.74609604
_cell_length_c   11.66881352
_cell_angle_alpha   62.93425522
_cell_angle_beta   90.09680252
_cell_angle_gamma   89.98583976
_symmetry_Int_Tables_number   1
_chemical_formula_structural   TbErCr2F14
_chemical_formula_sum   'Tb2 Er2 Cr4 F28'
_cell_volume   497.10185752
_cell_formula_units_Z   2
loop_
 _symmetry_equiv_pos_site_id
 _symmetry_equiv_pos_as_xyz
  1  'x, y, z'
loop_
 _atom_site_type_symbol
 _atom_site_label
 _atom_site_symmetry_multiplicity
 _atom_site_fract_x
 _atom_site_fract_y
 _atom_site_fract_z
 _atom_site_occupancy
  Tb  Tb0  1  0.765908  0.188943  0.234940  1
  Tb  Tb1  1  0.234092  0.811057  0.765060  1
  Er  Er2  1  0.266908  0.808810  0.265235  1
  Er  Er3  1  0.733092  0.191190  0.734765  1
  Cr  Cr4  1  0.757900  0.726480  0.044064  1
  Cr  Cr5  1  0.242100  0.273520  0.955936  1
  Cr  Cr6  1  0.257433  0.274965  0.457249  1
  Cr  Cr7  1  0.742567  0.725035  0.542751  1
  F  F8  1  0.934574  0.707301  0.420713  1
  F  F9  1  0.065426  0.292699  0.579287  1
  F  F10  1  0.433671  0.292842  0.078210  1
  F  F11  1  0.566329  0.707158  0.921790  1
  F  F12  1  0.475195  0.729534  0.136532  1
  F  F13  1  0.524805  0.270466  0.863468  1
  F  F14  1  0.975568  0.271582  0.364891  1
  F  F15  1  0.024432  0.728418  0.635109  1
  F  F16  1  0.950246  0.744019  0.169797  1
  F  F17  1  0.049754  0.255981  0.830203  1
  F  F18  1  0.447046  0.257769  0.331109  1
  F  F19  1  0.552954  0.742231  0.668891  1
  F  F20  1  0.767732  0.490927  0.137812  1
  F  F21  1  0.232268  0.509073  0.862188  1
  F  F22  1  0.268116  0.510867  0.362737  1
  F  F23  1  0.731884  0.489133  0.637263  1
  F  F24  1  0.953842  0.281847  0.042930  1
  F  F25  1  0.046158  0.718153  0.957070  1
  F  F26  1  0.452366  0.719016  0.454705  1
  F  F27  1  0.547634  0.280984  0.545295  1
  F  F28  1  0.741314  0.959704  0.453692  1
  F  F29  1  0.258686  0.040296  0.546308  1
  F  F30  1  0.241385  0.039306  0.046695  1
  F  F31  1  0.758615  0.960694  0.953305  1
  F  F32  1  0.588287  0.969855  0.226866  1
  F  F33  1  0.411713  0.030145  0.773134  1
  F  F34  1  0.093889  0.024148  0.273394  1
  F  F35  1  0.906111  0.975852  0.726606  1
