# generated using pymatgen
data_Dy19Y(IrRh3)3
_symmetry_space_group_name_H-M   'P 1'
_cell_length_a   10.90417608
_cell_length_b   10.90492307
_cell_length_c   6.37117504
_cell_angle_alpha   90.00420388
_cell_angle_beta   90.01087976
_cell_angle_gamma   89.96980412
_symmetry_Int_Tables_number   1
_chemical_formula_structural   Dy19Y(IrRh3)3
_chemical_formula_sum   'Dy19 Y1 Ir3 Rh9'
_cell_volume   757.59121437
_cell_formula_units_Z   1
loop_
 _symmetry_equiv_pos_site_id
 _symmetry_equiv_pos_as_xyz
  1  'x, y, z'
loop_
 _atom_site_type_symbol
 _atom_site_label
 _atom_site_symmetry_multiplicity
 _atom_site_fract_x
 _atom_site_fract_y
 _atom_site_fract_z
 _atom_site_occupancy
  Dy  Dy0  1  0.291272  0.909762  0.878663  1
  Dy  Dy1  1  0.708975  0.088782  0.878677  1
  Dy  Dy2  1  0.708590  0.909934  0.378542  1
  Dy  Dy3  1  0.587979  0.789856  0.879701  1
  Dy  Dy4  1  0.587623  0.209301  0.378584  1
  Dy  Dy5  1  0.412025  0.790020  0.379201  1
  Dy  Dy6  1  0.410685  0.209412  0.879947  1
  Dy  Dy7  1  0.210099  0.412045  0.620254  1
  Dy  Dy8  1  0.209902  0.587999  0.120697  1
  Dy  Dy9  1  0.790699  0.412394  0.121397  1
  Dy  Dy10  1  0.790603  0.589353  0.620146  1
  Dy  Dy11  1  0.909977  0.708804  0.121261  1
  Dy  Dy12  1  0.911296  0.291068  0.621261  1
  Dy  Dy13  1  0.090216  0.708754  0.621409  1
  Dy  Dy14  1  0.090044  0.291485  0.121469  1
  Dy  Dy15  1  0.999811  0.999902  0.499901  1
  Dy  Dy16  1  0.000071  0.000120  0.000106  1
  Dy  Dy17  1  0.499779  0.500054  0.999853  1
  Dy  Dy18  1  0.499943  0.500263  0.500058  1
  Y  Y19  1  0.290936  0.089996  0.378483  1
  Ir  Ir20  1  0.654668  0.654086  0.250039  1
  Ir  Ir21  1  0.345963  0.345766  0.249722  1
  Ir  Ir22  1  0.345332  0.654650  0.750011  1
  Rh  Rh23  1  0.846022  0.153909  0.249964  1
  Rh  Rh24  1  0.846429  0.846761  0.750173  1
  Rh  Rh25  1  0.152908  0.153570  0.750499  1
  Rh  Rh26  1  0.153168  0.846462  0.249955  1
  Rh  Rh27  1  0.654795  0.345216  0.750016  1
  Rh  Rh28  1  0.500607  0.000291  0.123768  1
  Rh  Rh29  1  0.500687  0.000484  0.625074  1
  Rh  Rh30  1  0.999331  0.499715  0.875321  1
  Rh  Rh31  1  0.999566  0.499785  0.375846  1
