# generated using pymatgen
data_Sr12Nd8Si15Ge
_symmetry_space_group_name_H-M   'P 1'
_cell_length_a   7.78610036
_cell_length_b   8.20450171
_cell_length_c   15.89928700
_cell_angle_alpha   90.05012027
_cell_angle_beta   89.92676594
_cell_angle_gamma   90.02153119
_symmetry_Int_Tables_number   1
_chemical_formula_structural   Sr12Nd8Si15Ge
_chemical_formula_sum   'Sr12 Nd8 Si15 Ge1'
_cell_volume   1015.66223600
_cell_formula_units_Z   1
loop_
 _symmetry_equiv_pos_site_id
 _symmetry_equiv_pos_as_xyz
  1  'x, y, z'
loop_
 _atom_site_type_symbol
 _atom_site_label
 _atom_site_symmetry_multiplicity
 _atom_site_fract_x
 _atom_site_fract_y
 _atom_site_fract_z
 _atom_site_occupancy
  Sr  Sr0  1  0.649948  0.976984  0.250188  1
  Sr  Sr1  1  0.150244  0.522609  0.250135  1
  Sr  Sr2  1  0.849890  0.477181  0.749386  1
  Sr  Sr3  1  0.349882  0.023030  0.749619  1
  Sr  Sr4  1  0.977324  0.820014  0.094976  1
  Sr  Sr5  1  0.476596  0.679810  0.405365  1
  Sr  Sr6  1  0.521417  0.319272  0.905311  1
  Sr  Sr7  1  0.023549  0.179889  0.594476  1
  Sr  Sr8  1  0.023554  0.179613  0.905456  1
  Sr  Sr9  1  0.523465  0.320259  0.594554  1
  Sr  Sr10  1  0.476836  0.680201  0.095004  1
  Sr  Sr11  1  0.976538  0.819960  0.405356  1
  Nd  Nd12  1  0.683382  0.822505  0.878269  1
  Nd  Nd13  1  0.184611  0.679877  0.620852  1
  Nd  Nd14  1  0.816331  0.319717  0.121196  1
  Nd  Nd15  1  0.315638  0.179724  0.379219  1
  Nd  Nd16  1  0.316218  0.179287  0.121341  1
  Nd  Nd17  1  0.815690  0.320199  0.379178  1
  Nd  Nd18  1  0.184871  0.679586  0.879187  1
  Nd  Nd19  1  0.684674  0.820450  0.620720  1
  Si  Si20  1  0.748601  0.593136  0.250104  1
  Si  Si21  1  0.248336  0.906387  0.250294  1
  Si  Si22  1  0.752011  0.093902  0.749640  1
  Si  Si23  1  0.251650  0.406883  0.749918  1
  Si  Si24  1  0.028988  0.118818  0.250281  1
  Si  Si25  1  0.529199  0.380639  0.250212  1
  Si  Si26  1  0.471148  0.619551  0.749828  1
  Si  Si27  1  0.971265  0.880938  0.749781  1
  Si  Si28  1  0.364028  0.963592  0.536043  1
  Si  Si29  1  0.636361  0.036501  0.036083  1
  Si  Si30  1  0.136155  0.463546  0.463950  1
  Si  Si31  1  0.140015  0.462618  0.036718  1
  Si  Si32  1  0.636158  0.036451  0.463896  1
  Si  Si33  1  0.363823  0.963182  0.964196  1
  Si  Si34  1  0.864060  0.536526  0.536069  1
  Ge  Ge35  1  0.857543  0.537163  0.963202  1
