# generated using pymatgen
data_Er4Ga18Ni2Ir3Ru
_symmetry_space_group_name_H-M   'P 1'
_cell_length_a   7.53798677
_cell_length_b   7.53797019
_cell_length_c   9.43573681
_cell_angle_alpha   90.08360193
_cell_angle_beta   90.08970497
_cell_angle_gamma   120.40254345
_symmetry_Int_Tables_number   1
_chemical_formula_structural   Er4Ga18Ni2Ir3Ru
_chemical_formula_sum   'Er4 Ga18 Ni2 Ir3 Ru1'
_cell_volume   462.42176622
_cell_formula_units_Z   1
loop_
 _symmetry_equiv_pos_site_id
 _symmetry_equiv_pos_as_xyz
  1  'x, y, z'
loop_
 _atom_site_type_symbol
 _atom_site_label
 _atom_site_symmetry_multiplicity
 _atom_site_fract_x
 _atom_site_fract_y
 _atom_site_fract_z
 _atom_site_occupancy
  Er  Er0  1  0.995834  0.658220  0.749707  1
  Er  Er1  1  0.005083  0.342518  0.250126  1
  Er  Er2  1  0.657484  0.994980  0.749980  1
  Er  Er3  1  0.341801  0.004319  0.250409  1
  Ga  Ga4  1  0.107036  0.107832  0.749629  1
  Ga  Ga5  1  0.892124  0.892923  0.250092  1
  Ga  Ga6  1  0.996193  0.326153  0.577967  1
  Ga  Ga7  1  0.999867  0.671803  0.422272  1
  Ga  Ga8  1  0.000906  0.674287  0.079383  1
  Ga  Ga9  1  0.325660  0.999064  0.920718  1
  Ga  Ga10  1  0.998242  0.326221  0.921188  1
  Ga  Ga11  1  0.673683  0.001718  0.078915  1
  Ga  Ga12  1  0.673942  0.003986  0.422099  1
  Ga  Ga13  1  0.328316  0.000300  0.577807  1
  Ga  Ga14  1  0.327250  0.327545  0.066302  1
  Ga  Ga15  1  0.672138  0.672420  0.933767  1
  Ga  Ga16  1  0.672329  0.669903  0.563893  1
  Ga  Ga17  1  0.330432  0.328045  0.436190  1
  Ga  Ga18  1  0.335327  0.538577  0.749791  1
  Ga  Ga19  1  0.664168  0.457880  0.251832  1
  Ga  Ga20  1  0.542166  0.335939  0.748200  1
  Ga  Ga21  1  0.461405  0.664750  0.250222  1
  Ni  Ni22  1  0.999815  0.000077  0.499952  1
  Ni  Ni23  1  0.999118  0.999854  0.999449  1
  Ir  Ir24  1  0.328173  0.672047  0.500039  1
  Ir  Ir25  1  0.327834  0.672123  0.000023  1
  Ir  Ir26  1  0.671427  0.328530  0.000017  1
  Ru  Ru27  1  0.672247  0.327985  0.500031  1
