# generated using pymatgen
data_YbDyI26
_symmetry_space_group_name_H-M   'P 1'
_cell_length_a   12.93282476
_cell_length_b   11.35229931
_cell_length_c   15.06487213
_cell_angle_alpha   120.41087344
_cell_angle_beta   90.85232809
_cell_angle_gamma   102.43060797
_symmetry_Int_Tables_number   1
_chemical_formula_structural   YbDyI26
_chemical_formula_sum   'Yb1 Dy1 I26'
_cell_volume   1842.51755419
_cell_formula_units_Z   1
loop_
 _symmetry_equiv_pos_site_id
 _symmetry_equiv_pos_as_xyz
  1  'x, y, z'
loop_
 _atom_site_type_symbol
 _atom_site_label
 _atom_site_symmetry_multiplicity
 _atom_site_fract_x
 _atom_site_fract_y
 _atom_site_fract_z
 _atom_site_occupancy
  Yb  Yb0  1  0.333390  0.876140  0.934648  1
  Dy  Dy1  1  0.662368  0.117667  0.064325  1
  I  I2  1  0.385573  0.659000  0.986334  1
  I  I3  1  0.612841  0.334935  0.018715  1
  I  I4  1  0.583112  0.817812  0.395465  1
  I  I5  1  0.422889  0.194012  0.609234  1
  I  I6  1  0.733680  0.679315  0.006587  1
  I  I7  1  0.253235  0.303851  0.985981  1
  I  I8  1  0.711615  0.946825  0.162182  1
  I  I9  1  0.271500  0.037971  0.830190  1
  I  I10  1  0.452744  0.134666  0.146527  1
  I  I11  1  0.559686  0.869979  0.859391  1
  I  I12  1  0.234627  0.662773  0.698695  1
  I  I13  1  0.779028  0.350227  0.288287  1
  I  I14  1  0.100861  0.833171  0.986682  1
  I  I15  1  0.888456  0.158722  0.013815  1
  I  I16  1  0.077988  0.072906  0.192910  1
  I  I17  1  0.915709  0.916143  0.802828  1
  I  I18  1  0.275406  0.922261  0.463175  1
  I  I19  1  0.728643  0.087417  0.543826  1
  I  I20  1  0.326538  0.426898  0.649370  1
  I  I21  1  0.684472  0.588754  0.345926  1
  I  I22  1  0.860036  0.373730  0.702809  1
  I  I23  1  0.141813  0.637356  0.308367  1
  I  I24  1  0.947448  0.712796  0.606551  1
  I  I25  1  0.054195  0.284715  0.391828  1
  I  I26  1  0.259365  0.634965  0.137090  1
  I  I27  1  0.742779  0.364996  0.868263  1
