# generated using pymatgen
data_CsNOF2
_symmetry_space_group_name_H-M   'P 1'
_cell_length_a   5.09773892
_cell_length_b   5.09773815
_cell_length_c   4.16955500
_cell_angle_alpha   73.74653512
_cell_angle_beta   73.74652592
_cell_angle_gamma   78.70281763
_symmetry_Int_Tables_number   1
_chemical_formula_structural   CsNOF2
_chemical_formula_sum   'Cs1 N1 O1 F2'
_cell_volume   99.05013154
_cell_formula_units_Z   1
loop_
 _symmetry_equiv_pos_site_id
 _symmetry_equiv_pos_as_xyz
  1  'x, y, z'
loop_
 _atom_site_type_symbol
 _atom_site_label
 _atom_site_symmetry_multiplicity
 _atom_site_fract_x
 _atom_site_fract_y
 _atom_site_fract_z
 _atom_site_occupancy
  Cs  Cs0  1  0.470332  0.470332  0.515731  1
  N  N1  1  0.974135  0.974135  0.013943  1
  O  O2  1  0.910372  0.910372  0.308774  1
  F  F3  1  0.361768  0.916292  0.897226  1
  F  F4  1  0.916292  0.361768  0.897226  1
