# generated using pymatgen
data_Lu16Al4IrRuRh2
_symmetry_space_group_name_H-M   'P 1'
_cell_length_a   9.33116519
_cell_length_b   9.33116634
_cell_length_c   9.34728388
_cell_angle_alpha   59.89389830
_cell_angle_beta   59.89389255
_cell_angle_gamma   59.85136759
_symmetry_Int_Tables_number   1
_chemical_formula_structural   Lu16Al4IrRuRh2
_chemical_formula_sum   'Lu16 Al4 Ir1 Ru1 Rh2'
_cell_volume   573.92510572
_cell_formula_units_Z   1
loop_
 _symmetry_equiv_pos_site_id
 _symmetry_equiv_pos_as_xyz
  1  'x, y, z'
loop_
 _atom_site_type_symbol
 _atom_site_label
 _atom_site_symmetry_multiplicity
 _atom_site_fract_x
 _atom_site_fract_y
 _atom_site_fract_z
 _atom_site_occupancy
  Lu  Lu0  1  0.603313  0.603313  0.603791  1
  Lu  Lu1  1  0.601456  0.601456  0.193308  1
  Lu  Lu2  1  0.601814  0.193532  0.601525  1
  Lu  Lu3  1  0.193532  0.601814  0.601525  1
  Lu  Lu4  1  0.056384  0.444619  0.445105  1
  Lu  Lu5  1  0.445064  0.054201  0.054401  1
  Lu  Lu6  1  0.444619  0.056384  0.445105  1
  Lu  Lu7  1  0.054201  0.445064  0.054401  1
  Lu  Lu8  1  0.444920  0.444920  0.056351  1
  Lu  Lu9  1  0.054727  0.054727  0.445002  1
  Lu  Lu10  1  0.187176  0.811268  0.813427  1
  Lu  Lu11  1  0.810253  0.187561  0.187646  1
  Lu  Lu12  1  0.811268  0.187176  0.813427  1
  Lu  Lu13  1  0.187561  0.810253  0.187646  1
  Lu  Lu14  1  0.812934  0.812934  0.186638  1
  Lu  Lu15  1  0.188983  0.188983  0.809686  1
  Al  Al16  1  0.828476  0.828476  0.828710  1
  Al  Al17  1  0.828948  0.828948  0.513924  1
  Al  Al18  1  0.828734  0.513921  0.829049  1
  Al  Al19  1  0.513921  0.828734  0.829049  1
  Ir  Ir20  1  0.392631  0.392631  0.824946  1
  Ru  Ru21  1  0.391121  0.391121  0.391433  1
  Rh  Rh22  1  0.392590  0.825374  0.391951  1
  Rh  Rh23  1  0.825374  0.392590  0.391951  1
