# generated using pymatgen
data_TbLu3(GaCo)4
_symmetry_space_group_name_H-M   'P 1'
_cell_length_a   4.34889300
_cell_length_b   6.92255005
_cell_length_c   6.91525706
_cell_angle_alpha   89.99946231
_cell_angle_beta   90.00000000
_cell_angle_gamma   90.00000000
_symmetry_Int_Tables_number   1
_chemical_formula_structural   TbLu3(GaCo)4
_chemical_formula_sum   'Tb1 Lu3 Ga4 Co4'
_cell_volume   208.18678366
_cell_formula_units_Z   1
loop_
 _symmetry_equiv_pos_site_id
 _symmetry_equiv_pos_as_xyz
  1  'x, y, z'
loop_
 _atom_site_type_symbol
 _atom_site_label
 _atom_site_symmetry_multiplicity
 _atom_site_fract_x
 _atom_site_fract_y
 _atom_site_fract_z
 _atom_site_occupancy
  Tb  Tb0  1  0.750000  0.805139  0.982694  1
  Lu  Lu1  1  0.250000  0.302495  0.518938  1
  Lu  Lu2  1  0.250000  0.199432  0.018414  1
  Lu  Lu3  1  0.750000  0.697142  0.482199  1
  Ga  Ga4  1  0.250000  0.895610  0.695648  1
  Ga  Ga5  1  0.250000  0.603231  0.200211  1
  Ga  Ga6  1  0.750000  0.106225  0.302707  1
  Ga  Ga7  1  0.750000  0.393399  0.801449  1
  Co  Co8  1  0.250000  0.938747  0.342513  1
  Co  Co9  1  0.250000  0.559249  0.840800  1
  Co  Co10  1  0.750000  0.062796  0.655016  1
  Co  Co11  1  0.750000  0.436532  0.159408  1
