# generated using pymatgen
data_Na3In2Pt
_symmetry_space_group_name_H-M   'P 1'
_cell_length_a   9.44978226
_cell_length_b   9.44976284
_cell_length_c   9.44978500
_cell_angle_alpha   59.99992593
_cell_angle_beta   59.99999392
_cell_angle_gamma   59.99993973
_symmetry_Int_Tables_number   1
_chemical_formula_structural   Na3In2Pt
_chemical_formula_sum   'Na12 In8 Pt4'
_cell_volume   596.69057767
_cell_formula_units_Z   4
loop_
 _symmetry_equiv_pos_site_id
 _symmetry_equiv_pos_as_xyz
  1  'x, y, z'
loop_
 _atom_site_type_symbol
 _atom_site_label
 _atom_site_symmetry_multiplicity
 _atom_site_fract_x
 _atom_site_fract_y
 _atom_site_fract_z
 _atom_site_occupancy
  Na  Na0  1  0.452944  0.047056  0.047056  1
  Na  Na1  1  0.797056  0.202944  0.797056  1
  Na  Na2  1  0.452944  0.452944  0.047056  1
  Na  Na3  1  0.797056  0.797056  0.202944  1
  Na  Na4  1  0.202944  0.797056  0.797056  1
  Na  Na5  1  0.047056  0.452944  0.452944  1
  Na  Na6  1  0.047056  0.047056  0.452944  1
  Na  Na7  1  0.202944  0.202944  0.797056  1
  Na  Na8  1  0.452944  0.047056  0.452944  1
  Na  Na9  1  0.797056  0.202944  0.202944  1
  Na  Na10  1  0.047056  0.452944  0.047056  1
  Na  Na11  1  0.202944  0.797056  0.202944  1
  In  In12  1  0.416940  0.416940  0.416940  1
  In  In13  1  0.749179  0.416940  0.416940  1
  In  In14  1  0.833060  0.833060  0.833060  1
  In  In15  1  0.416940  0.416940  0.749179  1
  In  In16  1  0.833060  0.833060  0.500821  1
  In  In17  1  0.416940  0.749179  0.416940  1
  In  In18  1  0.833060  0.500821  0.833060  1
  In  In19  1  0.500821  0.833060  0.833060  1
  Pt  Pt20  1  0.625000  0.625000  0.125000  1
  Pt  Pt21  1  0.625000  0.125000  0.625000  1
  Pt  Pt22  1  0.125000  0.625000  0.625000  1
  Pt  Pt23  1  0.625000  0.625000  0.625000  1
