# generated using pymatgen
data_Ca(S8I)3
_symmetry_space_group_name_H-M   'P 1'
_cell_length_a   15.28880779
_cell_length_b   15.28880847
_cell_length_c   15.28880806
_cell_angle_alpha   119.00947072
_cell_angle_beta   119.00947442
_cell_angle_gamma   119.00946833
_symmetry_Int_Tables_number   1
_chemical_formula_structural   Ca(S8I)3
_chemical_formula_sum   'Ca1 S24 I3'
_cell_volume   920.56979028
_cell_formula_units_Z   1
loop_
 _symmetry_equiv_pos_site_id
 _symmetry_equiv_pos_as_xyz
  1  'x, y, z'
loop_
 _atom_site_type_symbol
 _atom_site_label
 _atom_site_symmetry_multiplicity
 _atom_site_fract_x
 _atom_site_fract_y
 _atom_site_fract_z
 _atom_site_occupancy
  Ca  Ca0  1  0.452530  0.452530  0.452530  1
  S  S1  1  0.004918  0.597280  0.597280  1
  S  S2  1  0.597280  0.597280  0.004918  1
  S  S3  1  0.597280  0.004918  0.597280  1
  S  S4  1  0.244431  0.852705  0.725239  1
  S  S5  1  0.852705  0.725239  0.244431  1
  S  S6  1  0.725239  0.244431  0.852705  1
  S  S7  1  0.852705  0.244431  0.725239  1
  S  S8  1  0.244431  0.725239  0.852705  1
  S  S9  1  0.725239  0.852705  0.244431  1
  S  S10  1  0.093321  0.619971  0.439125  1
  S  S11  1  0.619971  0.439125  0.093321  1
  S  S12  1  0.439125  0.093321  0.619971  1
  S  S13  1  0.619971  0.093321  0.439125  1
  S  S14  1  0.093321  0.439125  0.619971  1
  S  S15  1  0.439125  0.619971  0.093321  1
  S  S16  1  0.366594  0.753979  0.625863  1
  S  S17  1  0.753979  0.625863  0.366594  1
  S  S18  1  0.625863  0.366594  0.753979  1
  S  S19  1  0.753979  0.366594  0.625863  1
  S  S20  1  0.366594  0.625863  0.753979  1
  S  S21  1  0.625863  0.753979  0.366594  1
  S  S22  1  0.178058  0.458266  0.458266  1
  S  S23  1  0.458266  0.458266  0.178058  1
  S  S24  1  0.458266  0.178058  0.458266  1
  I  I25  1  0.051835  0.903107  0.903107  1
  I  I26  1  0.903107  0.903107  0.051835  1
  I  I27  1  0.903107  0.051835  0.903107  1
