# generated using pymatgen
data_Er16In4CoIrRu2
_symmetry_space_group_name_H-M   'P 1'
_cell_length_a   9.56444514
_cell_length_b   9.56002081
_cell_length_c   9.53525948
_cell_angle_alpha   59.84841993
_cell_angle_beta   59.89869730
_cell_angle_gamma   59.98468827
_symmetry_Int_Tables_number   1
_chemical_formula_structural   Er16In4CoIrRu2
_chemical_formula_sum   'Er16 In4 Co1 Ir1 Ru2'
_cell_volume   615.25227109
_cell_formula_units_Z   1
loop_
 _symmetry_equiv_pos_site_id
 _symmetry_equiv_pos_as_xyz
  1  'x, y, z'
loop_
 _atom_site_type_symbol
 _atom_site_label
 _atom_site_symmetry_multiplicity
 _atom_site_fract_x
 _atom_site_fract_y
 _atom_site_fract_z
 _atom_site_occupancy
  Er  Er0  1  0.059866  0.061082  0.441959  1
  Er  Er1  1  0.655577  0.040841  0.648005  1
  Er  Er2  1  0.187424  0.810547  0.194143  1
  Er  Er3  1  0.437093  0.061082  0.441959  1
  Er  Er4  1  0.193209  0.190368  0.809826  1
  Er  Er5  1  0.654503  0.655161  0.647648  1
  Er  Er6  1  0.042690  0.655161  0.647648  1
  Er  Er7  1  0.442824  0.057528  0.056825  1
  Er  Er8  1  0.651371  0.651239  0.046019  1
  Er  Er9  1  0.190871  0.808655  0.809604  1
  Er  Er10  1  0.806597  0.190368  0.809826  1
  Er  Er11  1  0.807823  0.187553  0.196802  1
  Er  Er12  1  0.807888  0.810547  0.194143  1
  Er  Er13  1  0.060997  0.438116  0.439891  1
  Er  Er14  1  0.440485  0.442643  0.058724  1
  Er  Er15  1  0.058148  0.442643  0.058724  1
  In  In16  1  0.748257  0.416971  0.418075  1
  In  In17  1  0.417176  0.416971  0.748676  1
  In  In18  1  0.416768  0.749144  0.417320  1
  In  In19  1  0.416696  0.416971  0.418075  1
  Co  Co20  1  0.861766  0.858507  0.417961  1
  Ir  Ir21  1  0.860015  0.421143  0.858827  1
  Ru  Ru22  1  0.862355  0.858381  0.859660  1
  Ru  Ru23  1  0.419605  0.858381  0.859660  1
