# generated using pymatgen
data_CePrB4(IrOs)2
_symmetry_space_group_name_H-M   'P 1'
_cell_length_a   6.90626267
_cell_length_b   6.06515282
_cell_length_c   5.58794400
_cell_angle_alpha   72.56037803
_cell_angle_beta   56.91296833
_cell_angle_gamma   50.52666982
_symmetry_Int_Tables_number   1
_chemical_formula_structural   CePrB4(IrOs)2
_chemical_formula_sum   'Ce1 Pr1 B4 Ir2 Os2'
_cell_volume   150.97495871
_cell_formula_units_Z   1
loop_
 _symmetry_equiv_pos_site_id
 _symmetry_equiv_pos_as_xyz
  1  'x, y, z'
loop_
 _atom_site_type_symbol
 _atom_site_label
 _atom_site_symmetry_multiplicity
 _atom_site_fract_x
 _atom_site_fract_y
 _atom_site_fract_z
 _atom_site_occupancy
  Ce  Ce0  1  0.750000  0.750000  0.750000  1
  Pr  Pr1  1  0.500000  0.500000  0.500000  1
  B  B2  1  0.177909  0.822091  0.177909  1
  B  B3  1  0.064275  0.435725  0.064275  1
  B  B4  1  0.822091  0.177909  0.822091  1
  B  B5  1  0.435725  0.064275  0.435725  1
  Ir  Ir6  1  0.383737  0.383737  0.116263  1
  Ir  Ir7  1  0.116263  0.116263  0.383737  1
  Os  Os8  1  0.864777  0.864777  0.135223  1
  Os  Os9  1  0.135223  0.135223  0.864777  1
