# generated using pymatgen
data_MnFe3(BMo)4
_symmetry_space_group_name_H-M   'P 1'
_cell_length_a   3.15290300
_cell_length_b   5.86428341
_cell_length_c   6.85465029
_cell_angle_alpha   89.98499049
_cell_angle_beta   90.00000000
_cell_angle_gamma   90.00000000
_symmetry_Int_Tables_number   1
_chemical_formula_structural   MnFe3(BMo)4
_chemical_formula_sum   'Mn1 Fe3 B4 Mo4'
_cell_volume   126.73916711
_cell_formula_units_Z   1
loop_
 _symmetry_equiv_pos_site_id
 _symmetry_equiv_pos_as_xyz
  1  'x, y, z'
loop_
 _atom_site_type_symbol
 _atom_site_label
 _atom_site_symmetry_multiplicity
 _atom_site_fract_x
 _atom_site_fract_y
 _atom_site_fract_z
 _atom_site_occupancy
  Mn  Mn0  1  0.250000  0.859022  0.941591  1
  Fe  Fe1  1  0.250000  0.357201  0.555628  1
  Fe  Fe2  1  0.750000  0.142962  0.057637  1
  Fe  Fe3  1  0.750000  0.642155  0.443597  1
  B  B4  1  0.250000  0.234718  0.864506  1
  B  B5  1  0.250000  0.732336  0.631391  1
  B  B6  1  0.750000  0.765489  0.136442  1
  B  B7  1  0.750000  0.265903  0.367233  1
  Mo  Mo8  1  0.250000  0.970087  0.328772  1
  Mo  Mo9  1  0.250000  0.470101  0.173854  1
  Mo  Mo10  1  0.750000  0.028161  0.671576  1
  Mo  Mo11  1  0.750000  0.531863  0.827772  1
