# generated using pymatgen
data_Nb4(CoS4)3
_symmetry_space_group_name_H-M   'P 1'
_cell_length_a   7.05072366
_cell_length_b   7.05072353
_cell_length_c   18.66863664
_cell_angle_alpha   68.93010663
_cell_angle_beta   68.93010652
_cell_angle_gamma   27.00847514
_symmetry_Int_Tables_number   1
_chemical_formula_structural   Nb4(CoS4)3
_chemical_formula_sum   'Nb4 Co3 S12'
_cell_volume   391.59205838
_cell_formula_units_Z   1
loop_
 _symmetry_equiv_pos_site_id
 _symmetry_equiv_pos_as_xyz
  1  'x, y, z'
loop_
 _atom_site_type_symbol
 _atom_site_label
 _atom_site_symmetry_multiplicity
 _atom_site_fract_x
 _atom_site_fract_y
 _atom_site_fract_z
 _atom_site_occupancy
  Nb  Nb0  1  0.617345  0.617345  0.854502  1
  Nb  Nb1  1  0.382655  0.382655  0.145498  1
  Nb  Nb2  1  0.741255  0.741255  0.590421  1
  Nb  Nb3  1  0.258745  0.258745  0.409579  1
  Co  Co4  1  0.228592  0.228592  0.719206  1
  Co  Co5  1  0.771408  0.771408  0.280794  1
  Co  Co6  1  0.000000  0.000000  0.000000  1
  S  S7  1  0.971519  0.971519  0.891419  1
  S  S8  1  0.028481  0.028481  0.108581  1
  S  S9  1  0.636333  0.636333  0.392465  1
  S  S10  1  0.363667  0.363667  0.607535  1
  S  S11  1  0.134273  0.134273  0.550036  1
  S  S12  1  0.865727  0.865727  0.449964  1
  S  S13  1  0.799283  0.799283  0.766729  1
  S  S14  1  0.200717  0.200717  0.233271  1
  S  S15  1  0.171381  0.171381  0.932320  1
  S  S16  1  0.828619  0.828619  0.067680  1
  S  S17  1  0.611337  0.611337  0.721939  1
  S  S18  1  0.388663  0.388663  0.278061  1
