# generated using pymatgen
data_BaH7Au
_symmetry_space_group_name_H-M   'P 1'
_cell_length_a   5.70667552
_cell_length_b   5.70617995
_cell_length_c   8.63128100
_cell_angle_alpha   90.00000000
_cell_angle_beta   90.00000000
_cell_angle_gamma   58.25423947
_symmetry_Int_Tables_number   1
_chemical_formula_structural   BaH7Au
_chemical_formula_sum   'Ba2 H14 Au2'
_cell_volume   239.01361227
_cell_formula_units_Z   2
loop_
 _symmetry_equiv_pos_site_id
 _symmetry_equiv_pos_as_xyz
  1  'x, y, z'
loop_
 _atom_site_type_symbol
 _atom_site_label
 _atom_site_symmetry_multiplicity
 _atom_site_fract_x
 _atom_site_fract_y
 _atom_site_fract_z
 _atom_site_occupancy
  Ba  Ba0  1  0.000000  0.000000  0.000000  1
  Ba  Ba1  1  0.000000  0.000000  0.500000  1
  H  H2  1  0.852532  0.836724  0.250000  1
  H  H3  1  0.147468  0.163276  0.750000  1
  H  H4  1  0.612808  0.668227  0.525046  1
  H  H5  1  0.387192  0.331773  0.025046  1
  H  H6  1  0.387192  0.331773  0.474954  1
  H  H7  1  0.612808  0.668227  0.974954  1
  H  H8  1  0.416375  0.354355  0.390201  1
  H  H9  1  0.583625  0.645645  0.890201  1
  H  H10  1  0.583625  0.645645  0.609799  1
  H  H11  1  0.416375  0.354355  0.109799  1
  H  H12  1  0.329776  0.920286  0.250000  1
  H  H13  1  0.670224  0.079714  0.750000  1
  H  H14  1  0.921484  0.323689  0.250000  1
  H  H15  1  0.078516  0.676311  0.750000  1
  Au  Au16  1  0.660171  0.655714  0.250000  1
  Au  Au17  1  0.339829  0.344286  0.750000  1
