# generated using pymatgen
data_Sr2InNiF10
_symmetry_space_group_name_H-M   'P 1'
_cell_length_a   5.85558934
_cell_length_b   5.91906598
_cell_length_c   8.08529908
_cell_angle_alpha   69.74492452
_cell_angle_beta   70.66538594
_cell_angle_gamma   71.59236561
_symmetry_Int_Tables_number   1
_chemical_formula_structural   Sr2InNiF10
_chemical_formula_sum   'Sr2 In1 Ni1 F10'
_cell_volume   241.58713587
_cell_formula_units_Z   1
loop_
 _symmetry_equiv_pos_site_id
 _symmetry_equiv_pos_as_xyz
  1  'x, y, z'
loop_
 _atom_site_type_symbol
 _atom_site_label
 _atom_site_symmetry_multiplicity
 _atom_site_fract_x
 _atom_site_fract_y
 _atom_site_fract_z
 _atom_site_occupancy
  Sr  Sr0  1  0.536387  0.445197  0.259329  1
  Sr  Sr1  1  0.463613  0.554803  0.740671  1
  In  In2  1  0.000000  0.000000  0.000000  1
  Ni  Ni3  1  0.000000  0.000000  0.500000  1
  F  F4  1  0.077871  0.923609  0.739387  1
  F  F5  1  0.922129  0.076391  0.260613  1
  F  F6  1  0.220525  0.252239  0.878605  1
  F  F7  1  0.772223  0.800977  0.605739  1
  F  F8  1  0.730630  0.285225  0.532862  1
  F  F9  1  0.688030  0.294151  0.975684  1
  F  F10  1  0.269370  0.714775  0.467138  1
  F  F11  1  0.311970  0.705849  0.024316  1
  F  F12  1  0.227777  0.199023  0.394261  1
  F  F13  1  0.779475  0.747761  0.121395  1
