# generated using pymatgen
data_YHo5TcIr
_symmetry_space_group_name_H-M   'P 1'
_cell_length_a   6.30680100
_cell_length_b   7.32186500
_cell_length_c   9.12673800
_cell_angle_alpha   90.00000000
_cell_angle_beta   90.00000000
_cell_angle_gamma   90.00000000
_symmetry_Int_Tables_number   1
_chemical_formula_structural   YHo5TcIr
_chemical_formula_sum   'Y2 Ho10 Tc2 Ir2'
_cell_volume   421.45035930
_cell_formula_units_Z   2
loop_
 _symmetry_equiv_pos_site_id
 _symmetry_equiv_pos_as_xyz
  1  'x, y, z'
loop_
 _atom_site_type_symbol
 _atom_site_label
 _atom_site_symmetry_multiplicity
 _atom_site_fract_x
 _atom_site_fract_y
 _atom_site_fract_z
 _atom_site_occupancy
  Y  Y0  1  0.132818  0.460307  0.750000  1
  Y  Y1  1  0.367182  0.960307  0.750000  1
  Ho  Ho2  1  0.328937  0.676564  0.066211  1
  Ho  Ho3  1  0.171063  0.176564  0.433789  1
  Ho  Ho4  1  0.668277  0.323998  0.560450  1
  Ho  Ho5  1  0.831723  0.823998  0.939550  1
  Ho  Ho6  1  0.668277  0.323998  0.939550  1
  Ho  Ho7  1  0.831723  0.823998  0.560450  1
  Ho  Ho8  1  0.328937  0.676564  0.433789  1
  Ho  Ho9  1  0.171063  0.176564  0.066211  1
  Ho  Ho10  1  0.873505  0.538291  0.250000  1
  Ho  Ho11  1  0.626495  0.038291  0.250000  1
  Tc  Tc12  1  0.035241  0.886114  0.250000  1
  Tc  Tc13  1  0.464759  0.386114  0.250000  1
  Ir  Ir14  1  0.952916  0.114161  0.750000  1
  Ir  Ir15  1  0.547084  0.614161  0.750000  1
