# generated using pymatgen
data_Ac2Cu7Ni3
_symmetry_space_group_name_H-M   'P 1'
_cell_length_a   4.00517000
_cell_length_b   5.19862330
_cell_length_c   9.06377808
_cell_angle_alpha   89.69050532
_cell_angle_beta   90.00000000
_cell_angle_gamma   90.00000000
_symmetry_Int_Tables_number   1
_chemical_formula_structural   Ac2Cu7Ni3
_chemical_formula_sum   'Ac2 Cu7 Ni3'
_cell_volume   188.71752451
_cell_formula_units_Z   1
loop_
 _symmetry_equiv_pos_site_id
 _symmetry_equiv_pos_as_xyz
  1  'x, y, z'
loop_
 _atom_site_type_symbol
 _atom_site_label
 _atom_site_symmetry_multiplicity
 _atom_site_fract_x
 _atom_site_fract_y
 _atom_site_fract_z
 _atom_site_occupancy
  Ac  Ac0  1  0.000000  0.248777  0.754252  1
  Ac  Ac1  1  0.000000  0.751223  0.245748  1
  Cu  Cu2  1  0.000000  0.245223  0.086078  1
  Cu  Cu3  1  0.000000  0.750008  0.585362  1
  Cu  Cu4  1  0.000000  0.754777  0.913922  1
  Cu  Cu5  1  0.000000  0.249992  0.414638  1
  Cu  Cu6  1  0.500000  0.500000  0.500000  1
  Cu  Cu7  1  0.500000  0.500000  0.000000  1
  Cu  Cu8  1  0.500000  0.000000  0.500000  1
  Ni  Ni9  1  0.500000  0.750871  0.750278  1
  Ni  Ni10  1  0.500000  0.249129  0.249722  1
  Ni  Ni11  1  0.500000  0.000000  0.000000  1
