# generated using pymatgen
data_Ho4Lu4Ga3Ir
_symmetry_space_group_name_H-M   'P 1'
_cell_length_a   9.89741900
_cell_length_b   9.89741850
_cell_length_c   6.98160900
_cell_angle_alpha   90.00000000
_cell_angle_beta   90.00000000
_cell_angle_gamma   119.99999832
_symmetry_Int_Tables_number   1
_chemical_formula_structural   Ho4Lu4Ga3Ir
_chemical_formula_sum   'Ho8 Lu8 Ga6 Ir2'
_cell_volume   592.28407046
_cell_formula_units_Z   2
loop_
 _symmetry_equiv_pos_site_id
 _symmetry_equiv_pos_as_xyz
  1  'x, y, z'
loop_
 _atom_site_type_symbol
 _atom_site_label
 _atom_site_symmetry_multiplicity
 _atom_site_fract_x
 _atom_site_fract_y
 _atom_site_fract_z
 _atom_site_occupancy
  Ho  Ho0  1  0.466071  0.533929  0.205569  1
  Ho  Ho1  1  0.067857  0.533929  0.205569  1
  Ho  Ho2  1  0.466071  0.932143  0.205569  1
  Ho  Ho3  1  0.533929  0.466071  0.705569  1
  Ho  Ho4  1  0.932143  0.466071  0.705569  1
  Ho  Ho5  1  0.533929  0.067857  0.705569  1
  Ho  Ho6  1  0.000000  0.000000  0.232381  1
  Ho  Ho7  1  0.000000  0.000000  0.732381  1
  Lu  Lu8  1  0.171912  0.828088  0.511624  1
  Lu  Lu9  1  0.656175  0.828088  0.511624  1
  Lu  Lu10  1  0.171912  0.343825  0.511624  1
  Lu  Lu11  1  0.828088  0.171912  0.011624  1
  Lu  Lu12  1  0.343825  0.171912  0.011624  1
  Lu  Lu13  1  0.828088  0.656175  0.011624  1
  Lu  Lu14  1  0.333333  0.666667  0.834702  1
  Lu  Lu15  1  0.666667  0.333333  0.334702  1
  Ga  Ga16  1  0.163517  0.836483  0.957459  1
  Ga  Ga17  1  0.672964  0.836483  0.957459  1
  Ga  Ga18  1  0.163517  0.327036  0.957459  1
  Ga  Ga19  1  0.836483  0.163517  0.457459  1
  Ga  Ga20  1  0.327036  0.163517  0.457459  1
  Ga  Ga21  1  0.836483  0.672964  0.457459  1
  Ir  Ir22  1  0.333333  0.666667  0.445982  1
  Ir  Ir23  1  0.666667  0.333333  0.945982  1
