# generated using pymatgen
data_Yb3Ru3PtPbO14
_symmetry_space_group_name_H-M   'P 1'
_cell_length_a   7.15985819
_cell_length_b   7.30377805
_cell_length_c   7.30377700
_cell_angle_alpha   59.99999115
_cell_angle_beta   59.33279946
_cell_angle_gamma   59.33280461
_symmetry_Int_Tables_number   1
_chemical_formula_structural   Yb3Ru3PtPbO14
_chemical_formula_sum   'Yb3 Ru3 Pt1 Pb1 O14'
_cell_volume   267.31930304
_cell_formula_units_Z   1
loop_
 _symmetry_equiv_pos_site_id
 _symmetry_equiv_pos_as_xyz
  1  'x, y, z'
loop_
 _atom_site_type_symbol
 _atom_site_label
 _atom_site_symmetry_multiplicity
 _atom_site_fract_x
 _atom_site_fract_y
 _atom_site_fract_z
 _atom_site_occupancy
  Yb  Yb0  1  0.125000  0.125000  0.125000  1
  Yb  Yb1  1  0.125000  0.125000  0.625000  1
  Yb  Yb2  1  0.125000  0.625000  0.125000  1
  Ru  Ru3  1  0.625000  0.625000  0.625000  1
  Ru  Ru4  1  0.625000  0.625000  0.125000  1
  Ru  Ru5  1  0.625000  0.125000  0.625000  1
  Pt  Pt6  1  0.125000  0.625000  0.625000  1
  Pb  Pb7  1  0.625000  0.125000  0.125000  1
  O  O8  1  0.989367  0.003545  0.003545  1
  O  O9  1  0.260633  0.246455  0.246455  1
  O  O10  1  0.292793  0.286732  0.710237  1
  O  O11  1  0.568263  0.542329  0.944705  1
  O  O12  1  0.681737  0.305295  0.707671  1
  O  O13  1  0.681737  0.305295  0.305295  1
  O  O14  1  0.292793  0.710237  0.710237  1
  O  O15  1  0.292793  0.710237  0.286732  1
  O  O16  1  0.681737  0.707671  0.305295  1
  O  O17  1  0.957207  0.539763  0.539763  1
  O  O18  1  0.568263  0.944705  0.944705  1
  O  O19  1  0.957207  0.963268  0.539763  1
  O  O20  1  0.957207  0.539763  0.963268  1
  O  O21  1  0.568263  0.944705  0.542329  1
