# generated using pymatgen
data_HfPa5I24
_symmetry_space_group_name_H-M   'P 1'
_cell_length_a   9.23665600
_cell_length_b   9.26020145
_cell_length_c   19.36249792
_cell_angle_alpha   77.51388840
_cell_angle_beta   90.00000000
_cell_angle_gamma   90.00000000
_symmetry_Int_Tables_number   1
_chemical_formula_structural   HfPa5I24
_chemical_formula_sum   'Hf1 Pa5 I24'
_cell_volume   1616.96800444
_cell_formula_units_Z   1
loop_
 _symmetry_equiv_pos_site_id
 _symmetry_equiv_pos_as_xyz
  1  'x, y, z'
loop_
 _atom_site_type_symbol
 _atom_site_label
 _atom_site_symmetry_multiplicity
 _atom_site_fract_x
 _atom_site_fract_y
 _atom_site_fract_z
 _atom_site_occupancy
  Hf  Hf0  1  0.382851  0.000000  0.250000  1
  Pa  Pa1  1  0.878952  0.821854  0.582960  1
  Pa  Pa2  1  0.119101  0.179034  0.415410  1
  Pa  Pa3  1  0.625300  0.000000  0.750000  1
  Pa  Pa4  1  0.878952  0.178146  0.917040  1
  Pa  Pa5  1  0.119101  0.820966  0.084590  1
  I  I6  1  0.109006  0.396687  0.908177  1
  I  I7  1  0.573869  0.776481  0.256610  1
  I  I8  1  0.117813  0.068056  0.577779  1
  I  I9  1  0.357790  0.378395  0.427014  1
  I  I10  1  0.134907  0.785001  0.246393  1
  I  I11  1  0.134907  0.214999  0.253607  1
  I  I12  1  0.117813  0.931944  0.922221  1
  I  I13  1  0.412305  0.235027  0.741089  1
  I  I14  1  0.890627  0.600112  0.094161  1
  I  I15  1  0.875294  0.227329  0.754347  1
  I  I16  1  0.412305  0.764973  0.758911  1
  I  I17  1  0.890627  0.399888  0.405839  1
  I  I18  1  0.573869  0.223519  0.243390  1
  I  I19  1  0.654302  0.073499  0.587404  1
  I  I20  1  0.345941  0.927675  0.402342  1
  I  I21  1  0.875294  0.772671  0.745653  1
  I  I22  1  0.109006  0.603313  0.591823  1
  I  I23  1  0.642651  0.379442  0.928931  1
  I  I24  1  0.345941  0.072325  0.097658  1
  I  I25  1  0.883366  0.068078  0.080091  1
  I  I26  1  0.642651  0.620558  0.571069  1
  I  I27  1  0.654302  0.926501  0.912596  1
  I  I28  1  0.357790  0.621605  0.072986  1
  I  I29  1  0.883366  0.931922  0.419909  1
