# generated using pymatgen
data_Nd4Al3Ga(IrPt)2
_symmetry_space_group_name_H-M   'P 1'
_cell_length_a   4.45129300
_cell_length_b   7.06468527
_cell_length_c   7.92304826
_cell_angle_alpha   89.81497702
_cell_angle_beta   90.00000000
_cell_angle_gamma   90.00000000
_symmetry_Int_Tables_number   1
_chemical_formula_structural   Nd4Al3Ga(IrPt)2
_chemical_formula_sum   'Nd4 Al3 Ga1 Ir2 Pt2'
_cell_volume   249.15467345
_cell_formula_units_Z   1
loop_
 _symmetry_equiv_pos_site_id
 _symmetry_equiv_pos_as_xyz
  1  'x, y, z'
loop_
 _atom_site_type_symbol
 _atom_site_label
 _atom_site_symmetry_multiplicity
 _atom_site_fract_x
 _atom_site_fract_y
 _atom_site_fract_z
 _atom_site_occupancy
  Nd  Nd0  1  0.750000  0.469085  0.178692  1
  Nd  Nd1  1  0.250000  0.025317  0.687448  1
  Nd  Nd2  1  0.750000  0.966122  0.317965  1
  Nd  Nd3  1  0.250000  0.527917  0.816274  1
  Al  Al4  1  0.250000  0.645044  0.437301  1
  Al  Al5  1  0.750000  0.358944  0.567725  1
  Al  Al6  1  0.250000  0.148071  0.063765  1
  Ga  Ga7  1  0.750000  0.853310  0.930430  1
  Ir  Ir8  1  0.750000  0.721663  0.609550  1
  Ir  Ir9  1  0.750000  0.225202  0.885660  1
  Pt  Pt10  1  0.250000  0.279522  0.385109  1
  Pt  Pt11  1  0.250000  0.779802  0.120080  1
