# generated using pymatgen
data_Ta6AlInSe12
_symmetry_space_group_name_H-M   'P 1'
_cell_length_a   6.05361900
_cell_length_b   6.05361889
_cell_length_c   14.45277300
_cell_angle_alpha   90.00000000
_cell_angle_beta   90.00000000
_cell_angle_gamma   119.99999514
_symmetry_Int_Tables_number   1
_chemical_formula_structural   Ta6AlInSe12
_chemical_formula_sum   'Ta6 Al1 In1 Se12'
_cell_volume   458.68231389
_cell_formula_units_Z   1
loop_
 _symmetry_equiv_pos_site_id
 _symmetry_equiv_pos_as_xyz
  1  'x, y, z'
loop_
 _atom_site_type_symbol
 _atom_site_label
 _atom_site_symmetry_multiplicity
 _atom_site_fract_x
 _atom_site_fract_y
 _atom_site_fract_z
 _atom_site_occupancy
  Ta  Ta0  1  0.333333  0.666667  0.031341  1
  Ta  Ta1  1  0.666667  0.333333  0.469932  1
  Ta  Ta2  1  0.333333  0.666667  0.468659  1
  Ta  Ta3  1  0.000000  0.000000  0.029857  1
  Ta  Ta4  1  0.666667  0.333333  0.030068  1
  Ta  Ta5  1  0.000000  0.000000  0.470143  1
  Al  Al6  1  0.333333  0.666667  0.250000  1
  In  In7  1  0.666667  0.333333  0.750000  1
  Se  Se8  1  0.991365  0.667113  0.146222  1
  Se  Se9  1  0.664969  0.667177  0.584350  1
  Se  Se10  1  0.991365  0.324253  0.353778  1
  Se  Se11  1  0.332887  0.324253  0.146222  1
  Se  Se12  1  0.332823  0.997792  0.584350  1
  Se  Se13  1  0.332823  0.335031  0.915650  1
  Se  Se14  1  0.675747  0.667113  0.353778  1
  Se  Se15  1  0.002208  0.667177  0.915650  1
  Se  Se16  1  0.664969  0.997792  0.915650  1
  Se  Se17  1  0.332887  0.008635  0.353778  1
  Se  Se18  1  0.675747  0.008635  0.146222  1
  Se  Se19  1  0.002208  0.335031  0.584350  1
