# generated using pymatgen
data_LuSc2ZnSn3Rh2
_symmetry_space_group_name_H-M   'P 1'
_cell_length_a   7.50833325
_cell_length_b   7.49676001
_cell_length_c   3.69656100
_cell_angle_alpha   90.00000000
_cell_angle_beta   90.00000000
_cell_angle_gamma   119.99997411
_symmetry_Int_Tables_number   1
_chemical_formula_structural   LuSc2ZnSn3Rh2
_chemical_formula_sum   'Lu1 Sc2 Zn1 Sn3 Rh2'
_cell_volume   180.19625902
_cell_formula_units_Z   1
loop_
 _symmetry_equiv_pos_site_id
 _symmetry_equiv_pos_as_xyz
  1  'x, y, z'
loop_
 _atom_site_type_symbol
 _atom_site_label
 _atom_site_symmetry_multiplicity
 _atom_site_fract_x
 _atom_site_fract_y
 _atom_site_fract_z
 _atom_site_occupancy
  Lu  Lu0  1  0.020482  0.614931  0.500000  1
  Sc  Sc1  1  0.382933  0.404872  0.500000  1
  Sc  Sc2  1  0.595274  0.977261  0.500000  1
  Zn  Zn3  1  0.663987  0.331503  0.000000  1
  Sn  Sn4  1  0.732272  0.729389  0.000000  1
  Sn  Sn5  1  0.274781  0.011328  0.000000  1
  Sn  Sn6  1  0.993952  0.261936  0.000000  1
  Rh  Rh7  1  0.336358  0.667789  0.000000  1
  Rh  Rh8  1  0.999961  0.000991  0.500000  1
