# generated using pymatgen
data_Zr3CoSnIrN
_symmetry_space_group_name_H-M   'P 1'
_cell_length_a   8.67889006
_cell_length_b   8.67903342
_cell_length_c   8.67884200
_cell_angle_alpha   60.00300116
_cell_angle_beta   60.00184499
_cell_angle_gamma   60.00269077
_symmetry_Int_Tables_number   1
_chemical_formula_structural   Zr3CoSnIrN
_chemical_formula_sum   'Zr12 Co4 Sn4 Ir4 N4'
_cell_volume   462.28209004
_cell_formula_units_Z   4
loop_
 _symmetry_equiv_pos_site_id
 _symmetry_equiv_pos_as_xyz
  1  'x, y, z'
loop_
 _atom_site_type_symbol
 _atom_site_label
 _atom_site_symmetry_multiplicity
 _atom_site_fract_x
 _atom_site_fract_y
 _atom_site_fract_z
 _atom_site_occupancy
  Zr  Zr0  1  0.811442  0.811245  0.188753  1
  Zr  Zr1  1  0.188476  0.188675  0.811343  1
  Zr  Zr2  1  0.811659  0.188457  0.811328  1
  Zr  Zr3  1  0.188271  0.811478  0.188814  1
  Zr  Zr4  1  0.188279  0.811646  0.811473  1
  Zr  Zr5  1  0.811560  0.188376  0.188689  1
  Zr  Zr6  1  0.437117  0.437256  0.062847  1
  Zr  Zr7  1  0.062816  0.062817  0.437235  1
  Zr  Zr8  1  0.436968  0.062933  0.437173  1
  Zr  Zr9  1  0.062876  0.437106  0.062945  1
  Zr  Zr10  1  0.062958  0.437005  0.437072  1
  Zr  Zr11  1  0.437063  0.062855  0.062925  1
  Co  Co12  1  0.465171  0.844975  0.844987  1
  Co  Co13  1  0.844963  0.465320  0.844872  1
  Co  Co14  1  0.844980  0.844890  0.465054  1
  Co  Co15  1  0.844721  0.844782  0.844952  1
  Sn  Sn16  1  0.096736  0.634671  0.634181  1
  Sn  Sn17  1  0.634888  0.096744  0.634059  1
  Sn  Sn18  1  0.634658  0.634339  0.096879  1
  Sn  Sn19  1  0.634747  0.634388  0.633938  1
  Ir  Ir20  1  0.759707  0.413454  0.413500  1
  Ir  Ir21  1  0.413367  0.759841  0.413429  1
  Ir  Ir22  1  0.413302  0.413331  0.759924  1
  Ir  Ir23  1  0.413264  0.413374  0.413551  1
  N  N24  1  0.624051  0.125334  0.125329  1
  N  N25  1  0.125322  0.624052  0.125337  1
  N  N26  1  0.125316  0.125324  0.624014  1
  N  N27  1  0.125323  0.125331  0.125397  1
