# generated using pymatgen
data_NdPa3(TcB4)4
_symmetry_space_group_name_H-M   'P 1'
_cell_length_a   3.66505700
_cell_length_b   5.99837153
_cell_length_c   11.60475303
_cell_angle_alpha   89.95185383
_cell_angle_beta   90.00000000
_cell_angle_gamma   90.00000000
_symmetry_Int_Tables_number   1
_chemical_formula_structural   NdPa3(TcB4)4
_chemical_formula_sum   'Nd1 Pa3 Tc4 B16'
_cell_volume   255.12313551
_cell_formula_units_Z   1
loop_
 _symmetry_equiv_pos_site_id
 _symmetry_equiv_pos_as_xyz
  1  'x, y, z'
loop_
 _atom_site_type_symbol
 _atom_site_label
 _atom_site_symmetry_multiplicity
 _atom_site_fract_x
 _atom_site_fract_y
 _atom_site_fract_z
 _atom_site_occupancy
  Nd  Nd0  1  0.000000  0.627708  0.350110  1
  Pa  Pa1  1  0.000000  0.372627  0.649648  1
  Pa  Pa2  1  0.000000  0.127951  0.150537  1
  Pa  Pa3  1  0.000000  0.871658  0.849917  1
  Tc  Tc4  1  0.000000  0.638650  0.089631  1
  Tc  Tc5  1  0.000000  0.360752  0.905346  1
  Tc  Tc6  1  0.000000  0.137674  0.410067  1
  Tc  Tc7  1  0.000000  0.863696  0.596037  1
  B  B8  1  0.500000  0.790490  0.183389  1
  B  B9  1  0.500000  0.210326  0.813124  1
  B  B10  1  0.500000  0.282266  0.312828  1
  B  B11  1  0.500000  0.710919  0.687125  1
  B  B12  1  0.500000  0.866034  0.031091  1
  B  B13  1  0.500000  0.135675  0.967359  1
  B  B14  1  0.500000  0.361093  0.470149  1
  B  B15  1  0.500000  0.636918  0.534633  1
  B  B16  1  0.500000  0.889549  0.455217  1
  B  B17  1  0.500000  0.112579  0.547015  1
  B  B18  1  0.500000  0.387190  0.045169  1
  B  B19  1  0.500000  0.612851  0.953632  1
  B  B20  1  0.500000  0.977756  0.308504  1
  B  B21  1  0.500000  0.027621  0.692188  1
  B  B22  1  0.500000  0.470365  0.188546  1
  B  B23  1  0.500000  0.527653  0.808737  1
