# generated using pymatgen
data_Ta5Mn2Ge(BRu2)4
_symmetry_space_group_name_H-M   'P 1'
_cell_length_a   9.22920600
_cell_length_b   9.22920600
_cell_length_c   3.02059500
_cell_angle_alpha   90.00000000
_cell_angle_beta   90.00000000
_cell_angle_gamma   90.00000000
_symmetry_Int_Tables_number   1
_chemical_formula_structural   Ta5Mn2Ge(BRu2)4
_chemical_formula_sum   'Ta5 Mn2 Ge1 B4 Ru8'
_cell_volume   257.28897609
_cell_formula_units_Z   1
loop_
 _symmetry_equiv_pos_site_id
 _symmetry_equiv_pos_as_xyz
  1  'x, y, z'
loop_
 _atom_site_type_symbol
 _atom_site_label
 _atom_site_symmetry_multiplicity
 _atom_site_fract_x
 _atom_site_fract_y
 _atom_site_fract_z
 _atom_site_occupancy
  Ta  Ta0  1  0.828752  0.670104  0.000000  1
  Ta  Ta1  1  0.171248  0.329896  0.000000  1
  Ta  Ta2  1  0.329896  0.828752  0.000000  1
  Ta  Ta3  1  0.670104  0.171248  0.000000  1
  Ta  Ta4  1  0.000000  0.000000  0.000000  1
  Mn  Mn5  1  0.500000  0.000000  0.500000  1
  Mn  Mn6  1  0.000000  0.500000  0.500000  1
  Ge  Ge7  1  0.500000  0.500000  0.000000  1
  B  B8  1  0.609378  0.880927  0.000000  1
  B  B9  1  0.390622  0.119073  0.000000  1
  B  B10  1  0.119073  0.609378  0.000000  1
  B  B11  1  0.880927  0.390622  0.000000  1
  Ru  Ru12  1  0.567866  0.714975  0.500000  1
  Ru  Ru13  1  0.432134  0.285025  0.500000  1
  Ru  Ru14  1  0.070376  0.778019  0.500000  1
  Ru  Ru15  1  0.929624  0.221981  0.500000  1
  Ru  Ru16  1  0.285025  0.567866  0.500000  1
  Ru  Ru17  1  0.714975  0.432134  0.500000  1
  Ru  Ru18  1  0.221981  0.070376  0.500000  1
  Ru  Ru19  1  0.778019  0.929624  0.500000  1
