# generated using pymatgen
data_Zr6Zn18Pd5Se
_symmetry_space_group_name_H-M   'P 1'
_cell_length_a   8.81331177
_cell_length_b   8.83253103
_cell_length_c   8.83253065
_cell_angle_alpha   59.88857668
_cell_angle_beta   59.85529709
_cell_angle_gamma   59.85528794
_symmetry_Int_Tables_number   1
_chemical_formula_structural   Zr6Zn18Pd5Se
_chemical_formula_sum   'Zr6 Zn18 Pd5 Se1'
_cell_volume   484.70292098
_cell_formula_units_Z   1
loop_
 _symmetry_equiv_pos_site_id
 _symmetry_equiv_pos_as_xyz
  1  'x, y, z'
loop_
 _atom_site_type_symbol
 _atom_site_label
 _atom_site_symmetry_multiplicity
 _atom_site_fract_x
 _atom_site_fract_y
 _atom_site_fract_z
 _atom_site_occupancy
  Zr  Zr0  1  0.714031  0.286206  0.286206  1
  Zr  Zr1  1  0.285969  0.713794  0.713794  1
  Zr  Zr2  1  0.287759  0.712041  0.286778  1
  Zr  Zr3  1  0.712241  0.287959  0.713222  1
  Zr  Zr4  1  0.287759  0.286778  0.712041  1
  Zr  Zr5  1  0.712241  0.713222  0.287959  1
  Zn  Zn6  1  0.124080  0.120164  0.120164  1
  Zn  Zn7  1  0.875920  0.879836  0.879836  1
  Zn  Zn8  1  0.122868  0.123067  0.634082  1
  Zn  Zn9  1  0.122868  0.634082  0.123067  1
  Zn  Zn10  1  0.877132  0.876933  0.365918  1
  Zn  Zn11  1  0.877132  0.365918  0.876933  1
  Zn  Zn12  1  0.633557  0.122160  0.122160  1
  Zn  Zn13  1  0.366443  0.877840  0.877840  1
  Zn  Zn14  1  0.000000  0.500000  0.000000  1
  Zn  Zn15  1  0.000000  0.000000  0.500000  1
  Zn  Zn16  1  0.335889  0.335653  0.335653  1
  Zn  Zn17  1  0.664111  0.664347  0.664347  1
  Zn  Zn18  1  0.334452  0.336039  0.993347  1
  Zn  Zn19  1  0.334452  0.993347  0.336039  1
  Zn  Zn20  1  0.665548  0.663961  0.006653  1
  Zn  Zn21  1  0.665548  0.006653  0.663961  1
  Zn  Zn22  1  0.993861  0.335388  0.335388  1
  Zn  Zn23  1  0.006139  0.664612  0.664612  1
  Pd  Pd24  1  0.500000  0.000000  0.000000  1
  Pd  Pd25  1  0.000000  0.500000  0.500000  1
  Pd  Pd26  1  0.500000  0.000000  0.500000  1
  Pd  Pd27  1  0.500000  0.500000  0.000000  1
  Pd  Pd28  1  0.000000  0.000000  0.000000  1
  Se  Se29  1  0.500000  0.500000  0.500000  1
