# generated using pymatgen
data_Dy5Y11Cd4Co3Ni
_symmetry_space_group_name_H-M   'P 1'
_cell_length_a   9.54942934
_cell_length_b   9.56959221
_cell_length_c   9.56959200
_cell_angle_alpha   60.01422487
_cell_angle_beta   60.00374165
_cell_angle_gamma   60.00374011
_symmetry_Int_Tables_number   1
_chemical_formula_structural   Dy5Y11Cd4Co3Ni
_chemical_formula_sum   'Dy5 Y11 Cd4 Co3 Ni1'
_cell_volume   618.47265378
_cell_formula_units_Z   1
loop_
 _symmetry_equiv_pos_site_id
 _symmetry_equiv_pos_as_xyz
  1  'x, y, z'
loop_
 _atom_site_type_symbol
 _atom_site_label
 _atom_site_symmetry_multiplicity
 _atom_site_fract_x
 _atom_site_fract_y
 _atom_site_fract_z
 _atom_site_occupancy
  Dy  Dy0  1  0.593774  0.597508  0.597508  1
  Dy  Dy1  1  0.595373  0.599540  0.208330  1
  Dy  Dy2  1  0.595373  0.208330  0.599540  1
  Dy  Dy3  1  0.211215  0.596710  0.596710  1
  Dy  Dy4  1  0.064322  0.438571  0.438571  1
  Y  Y5  1  0.436758  0.061371  0.061371  1
  Y  Y6  1  0.438571  0.060269  0.439093  1
  Y  Y7  1  0.064682  0.437574  0.057400  1
  Y  Y8  1  0.438571  0.439093  0.060269  1
  Y  Y9  1  0.064682  0.057400  0.437574  1
  Y  Y10  1  0.188098  0.812399  0.812399  1
  Y  Y11  1  0.809995  0.188314  0.188314  1
  Y  Y12  1  0.810801  0.189618  0.812812  1
  Y  Y13  1  0.187659  0.810937  0.188932  1
  Y  Y14  1  0.810801  0.812812  0.189618  1
  Y  Y15  1  0.187659  0.188932  0.810937  1
  Cd  Cd16  1  0.829490  0.829828  0.829828  1
  Cd  Cd17  1  0.830439  0.830485  0.507961  1
  Cd  Cd18  1  0.830439  0.507961  0.830485  1
  Cd  Cd19  1  0.507102  0.830729  0.830729  1
  Co  Co20  1  0.391750  0.392844  0.392844  1
  Co  Co21  1  0.393809  0.392691  0.823254  1
  Co  Co22  1  0.393809  0.823254  0.392691  1
  Ni  Ni23  1  0.824827  0.392828  0.392828  1
