# generated using pymatgen
data_Lu12Co3HgRu2
_symmetry_space_group_name_H-M   'P 1'
_cell_length_a   8.12080494
_cell_length_b   8.12080682
_cell_length_c   8.12080700
_cell_angle_alpha   111.75284583
_cell_angle_beta   110.21159804
_cell_angle_gamma   106.49359965
_symmetry_Int_Tables_number   1
_chemical_formula_structural   Lu12Co3HgRu2
_chemical_formula_sum   'Lu12 Co3 Hg1 Ru2'
_cell_volume   411.35584631
_cell_formula_units_Z   1
loop_
 _symmetry_equiv_pos_site_id
 _symmetry_equiv_pos_as_xyz
  1  'x, y, z'
loop_
 _atom_site_type_symbol
 _atom_site_label
 _atom_site_symmetry_multiplicity
 _atom_site_fract_x
 _atom_site_fract_y
 _atom_site_fract_z
 _atom_site_occupancy
  Lu  Lu0  1  0.821491  0.725997  0.547480  1
  Lu  Lu1  1  0.176531  0.272573  0.449099  1
  Lu  Lu2  1  0.176526  0.727427  0.903959  1
  Lu  Lu3  1  0.821482  0.274003  0.095492  1
  Lu  Lu4  1  0.677673  0.364556  0.686131  1
  Lu  Lu5  1  0.321575  0.635444  0.313117  1
  Lu  Lu6  1  0.677718  0.991556  0.313100  1
  Lu  Lu7  1  0.321545  0.008444  0.686162  1
  Lu  Lu8  1  0.578828  0.765331  0.813501  1
  Lu  Lu9  1  0.420897  0.229766  0.191113  1
  Lu  Lu10  1  0.961347  0.770234  0.191132  1
  Lu  Lu11  1  0.048171  0.234669  0.813499  1
  Co  Co12  1  0.340691  0.000000  0.340691  1
  Co  Co13  1  0.111408  0.613128  0.498291  1
  Co  Co14  1  0.885163  0.386872  0.498279  1
  Hg  Hg15  1  0.503288  0.500000  0.003288  1
  Ru  Ru16  1  0.654811  0.000000  0.654811  1
  Ru  Ru17  1  0.000854  0.000000  0.000854  1
