# generated using pymatgen
data_Nb2FeCuSi2
_symmetry_space_group_name_H-M   'P 1'
_cell_length_a   3.69494300
_cell_length_b   6.29434402
_cell_length_c   7.14849386
_cell_angle_alpha   90.92379012
_cell_angle_beta   90.00000000
_cell_angle_gamma   90.00000000
_symmetry_Int_Tables_number   1
_chemical_formula_structural   Nb2FeCuSi2
_chemical_formula_sum   'Nb4 Fe2 Cu2 Si4'
_cell_volume   166.23264550
_cell_formula_units_Z   2
loop_
 _symmetry_equiv_pos_site_id
 _symmetry_equiv_pos_as_xyz
  1  'x, y, z'
loop_
 _atom_site_type_symbol
 _atom_site_label
 _atom_site_symmetry_multiplicity
 _atom_site_fract_x
 _atom_site_fract_y
 _atom_site_fract_z
 _atom_site_occupancy
  Nb  Nb0  1  0.250000  0.522022  0.165759  1
  Nb  Nb1  1  0.750000  0.477978  0.834241  1
  Nb  Nb2  1  0.750000  0.984302  0.688735  1
  Nb  Nb3  1  0.250000  0.015698  0.311265  1
  Fe  Fe4  1  0.750000  0.858906  0.061454  1
  Fe  Fe5  1  0.250000  0.141094  0.938546  1
  Cu  Cu6  1  0.250000  0.650449  0.565307  1
  Cu  Cu7  1  0.750000  0.349551  0.434693  1
  Si  Si8  1  0.250000  0.779940  0.887871  1
  Si  Si9  1  0.750000  0.220060  0.112129  1
  Si  Si10  1  0.750000  0.731183  0.369786  1
  Si  Si11  1  0.250000  0.268817  0.630214  1
