# generated using pymatgen
data_Ta3Cr3Ge2P
_symmetry_space_group_name_H-M   'P 1'
_cell_length_a   6.70517600
_cell_length_b   6.70517621
_cell_length_c   3.29618100
_cell_angle_alpha   90.00000000
_cell_angle_beta   90.00000000
_cell_angle_gamma   119.99999894
_symmetry_Int_Tables_number   1
_chemical_formula_structural   Ta3Cr3Ge2P
_chemical_formula_sum   'Ta3 Cr3 Ge2 P1'
_cell_volume   128.34000905
_cell_formula_units_Z   1
loop_
 _symmetry_equiv_pos_site_id
 _symmetry_equiv_pos_as_xyz
  1  'x, y, z'
loop_
 _atom_site_type_symbol
 _atom_site_label
 _atom_site_symmetry_multiplicity
 _atom_site_fract_x
 _atom_site_fract_y
 _atom_site_fract_z
 _atom_site_occupancy
  Ta  Ta0  1  0.000000  0.607525  0.500000  1
  Ta  Ta1  1  0.607525  0.000000  0.500000  1
  Ta  Ta2  1  0.392475  0.392475  0.500000  1
  Cr  Cr3  1  0.754280  0.754280  0.000000  1
  Cr  Cr4  1  0.245720  0.000000  0.000000  1
  Cr  Cr5  1  0.000000  0.245720  0.000000  1
  Ge  Ge6  1  0.666667  0.333333  0.000000  1
  Ge  Ge7  1  0.333333  0.666667  0.000000  1
  P  P8  1  0.000000  0.000000  0.500000  1
