# generated using pymatgen
data_Tb3Tm5(Sc3Pt4)4
_symmetry_space_group_name_H-M   'P 1'
_cell_length_a   7.30023038
_cell_length_b   7.31647571
_cell_length_c   13.95765826
_cell_angle_alpha   90.03368723
_cell_angle_beta   90.29806447
_cell_angle_gamma   89.96232483
_symmetry_Int_Tables_number   1
_chemical_formula_structural   Tb3Tm5(Sc3Pt4)4
_chemical_formula_sum   'Tb3 Tm5 Sc12 Pt16'
_cell_volume   745.49548409
_cell_formula_units_Z   1
loop_
 _symmetry_equiv_pos_site_id
 _symmetry_equiv_pos_as_xyz
  1  'x, y, z'
loop_
 _atom_site_type_symbol
 _atom_site_label
 _atom_site_symmetry_multiplicity
 _atom_site_fract_x
 _atom_site_fract_y
 _atom_site_fract_z
 _atom_site_occupancy
  Tb  Tb0  1  0.003335  0.178062  0.094655  1
  Tb  Tb1  1  0.995406  0.822397  0.905575  1
  Tb  Tb2  1  0.495684  0.676318  0.906369  1
  Tm  Tm3  1  0.994900  0.822796  0.592866  1
  Tm  Tm4  1  0.503565  0.321418  0.095245  1
  Tm  Tm5  1  0.005294  0.177698  0.406425  1
  Tm  Tm6  1  0.505413  0.322204  0.407289  1
  Tm  Tm7  1  0.494710  0.677687  0.592887  1
  Sc  Sc8  1  0.169531  0.498238  0.748139  1
  Sc  Sc9  1  0.830232  0.501658  0.251607  1
  Sc  Sc10  1  0.330350  0.997768  0.251482  1
  Sc  Sc11  1  0.669543  0.001704  0.748186  1
  Sc  Sc12  1  0.335787  0.162077  0.622728  1
  Sc  Sc13  1  0.664110  0.837480  0.377154  1
  Sc  Sc14  1  0.164660  0.661909  0.376839  1
  Sc  Sc15  1  0.662896  0.837405  0.125144  1
  Sc  Sc16  1  0.836458  0.337377  0.622365  1
  Sc  Sc17  1  0.338568  0.163920  0.875489  1
  Sc  Sc18  1  0.836774  0.337830  0.874653  1
  Sc  Sc19  1  0.163787  0.661992  0.124975  1
  Pt  Pt20  1  0.033273  0.124002  0.748488  1
  Pt  Pt21  1  0.966487  0.876689  0.251658  1
  Pt  Pt22  1  0.468078  0.622340  0.250778  1
  Pt  Pt23  1  0.533097  0.376605  0.747876  1
  Pt  Pt24  1  0.299431  0.853156  0.746938  1
  Pt  Pt25  1  0.698662  0.148054  0.252208  1
  Pt  Pt26  1  0.202834  0.352736  0.252504  1
  Pt  Pt27  1  0.798706  0.646630  0.746287  1
  Pt  Pt28  1  0.178223  0.456516  0.541684  1
  Pt  Pt29  1  0.822867  0.543448  0.457952  1
  Pt  Pt30  1  0.322395  0.956626  0.457767  1
  Pt  Pt31  1  0.820583  0.542943  0.042982  1
  Pt  Pt32  1  0.678010  0.043576  0.541882  1
  Pt  Pt33  1  0.176170  0.453960  0.958792  1
  Pt  Pt34  1  0.676221  0.047525  0.958428  1
  Pt  Pt35  1  0.323957  0.957255  0.043703  1
