# generated using pymatgen
data_TbY2ThPt4
_symmetry_space_group_name_H-M   'P 1'
_cell_length_a   4.59190200
_cell_length_b   5.65372221
_cell_length_c   7.10213399
_cell_angle_alpha   90.58003551
_cell_angle_beta   90.00000000
_cell_angle_gamma   90.00000000
_symmetry_Int_Tables_number   1
_chemical_formula_structural   TbY2ThPt4
_chemical_formula_sum   'Tb1 Y2 Th1 Pt4'
_cell_volume   184.37145515
_cell_formula_units_Z   1
loop_
 _symmetry_equiv_pos_site_id
 _symmetry_equiv_pos_as_xyz
  1  'x, y, z'
loop_
 _atom_site_type_symbol
 _atom_site_label
 _atom_site_symmetry_multiplicity
 _atom_site_fract_x
 _atom_site_fract_y
 _atom_site_fract_z
 _atom_site_occupancy
  Tb  Tb0  1  0.250000  0.140689  0.183957  1
  Y  Y1  1  0.750000  0.643024  0.314259  1
  Y  Y2  1  0.750000  0.857115  0.819684  1
  Th  Th3  1  0.250000  0.359553  0.683022  1
  Pt  Pt4  1  0.250000  0.842353  0.543352  1
  Pt  Pt5  1  0.250000  0.656696  0.042178  1
  Pt  Pt6  1  0.750000  0.157563  0.456600  1
  Pt  Pt7  1  0.750000  0.343007  0.956950  1
