# generated using pymatgen
data_Dy2Lu3Sn3Bi
_symmetry_space_group_name_H-M   'P 1'
_cell_length_a   8.08060300
_cell_length_b   8.08695400
_cell_length_c   15.26178800
_cell_angle_alpha   90.00000000
_cell_angle_beta   90.00000000
_cell_angle_gamma   90.00000000
_symmetry_Int_Tables_number   1
_chemical_formula_structural   Dy2Lu3Sn3Bi
_chemical_formula_sum   'Dy8 Lu12 Sn12 Bi4'
_cell_volume   997.31915340
_cell_formula_units_Z   4
loop_
 _symmetry_equiv_pos_site_id
 _symmetry_equiv_pos_as_xyz
  1  'x, y, z'
loop_
 _atom_site_type_symbol
 _atom_site_label
 _atom_site_symmetry_multiplicity
 _atom_site_fract_x
 _atom_site_fract_y
 _atom_site_fract_z
 _atom_site_occupancy
  Dy  Dy0  1  0.542318  0.324896  0.897118  1
  Dy  Dy1  1  0.042318  0.175104  0.602882  1
  Dy  Dy2  1  0.457682  0.675104  0.397118  1
  Dy  Dy3  1  0.957682  0.824896  0.102882  1
  Dy  Dy4  1  0.475914  0.674446  0.101117  1
  Dy  Dy5  1  0.975914  0.825554  0.398883  1
  Dy  Dy6  1  0.524086  0.325554  0.601117  1
  Dy  Dy7  1  0.024086  0.174446  0.898883  1
  Lu  Lu8  1  0.375796  0.840242  0.873833  1
  Lu  Lu9  1  0.875796  0.659758  0.626167  1
  Lu  Lu10  1  0.624204  0.159758  0.373833  1
  Lu  Lu11  1  0.124204  0.340242  0.126167  1
  Lu  Lu12  1  0.634414  0.161661  0.124198  1
  Lu  Lu13  1  0.134414  0.338339  0.375802  1
  Lu  Lu14  1  0.365586  0.838339  0.624198  1
  Lu  Lu15  1  0.865586  0.661661  0.875802  1
  Lu  Lu16  1  0.200360  0.502363  0.746872  1
  Lu  Lu17  1  0.700360  0.997637  0.753128  1
  Lu  Lu18  1  0.799640  0.497637  0.246872  1
  Lu  Lu19  1  0.299640  0.002363  0.253128  1
  Sn  Sn20  1  0.710832  0.964488  0.957849  1
  Sn  Sn21  1  0.210832  0.535512  0.542151  1
  Sn  Sn22  1  0.289168  0.035512  0.457849  1
  Sn  Sn23  1  0.789168  0.464488  0.042151  1
  Sn  Sn24  1  0.565927  0.623173  0.747936  1
  Sn  Sn25  1  0.065927  0.876827  0.752064  1
  Sn  Sn26  1  0.434073  0.376827  0.247936  1
  Sn  Sn27  1  0.934073  0.123173  0.252064  1
  Sn  Sn28  1  0.340824  0.149706  0.751328  1
  Sn  Sn29  1  0.840824  0.350294  0.748672  1
  Sn  Sn30  1  0.659176  0.850294  0.251328  1
  Sn  Sn31  1  0.159176  0.649706  0.248672  1
  Bi  Bi32  1  0.285689  0.033258  0.042870  1
  Bi  Bi33  1  0.785689  0.466742  0.457130  1
  Bi  Bi34  1  0.714311  0.966742  0.542870  1
  Bi  Bi35  1  0.214311  0.533258  0.957130  1
