# generated using pymatgen
data_Ce4MnFe3Si4
_symmetry_space_group_name_H-M   'P 1'
_cell_length_a   7.24679344
_cell_length_b   4.33166000
_cell_length_c   6.41102577
_cell_angle_alpha   90.00000000
_cell_angle_beta   89.82330414
_cell_angle_gamma   90.00000000
_symmetry_Int_Tables_number   1
_chemical_formula_structural   Ce4MnFe3Si4
_chemical_formula_sum   'Ce4 Mn1 Fe3 Si4'
_cell_volume   201.24527905
_cell_formula_units_Z   1
loop_
 _symmetry_equiv_pos_site_id
 _symmetry_equiv_pos_as_xyz
  1  'x, y, z'
loop_
 _atom_site_type_symbol
 _atom_site_label
 _atom_site_symmetry_multiplicity
 _atom_site_fract_x
 _atom_site_fract_y
 _atom_site_fract_z
 _atom_site_occupancy
  Ce  Ce0  1  0.028437  0.250001  0.167383  1
  Ce  Ce1  1  0.528617  0.250001  0.331657  1
  Ce  Ce2  1  0.471353  0.750001  0.668329  1
  Ce  Ce3  1  0.969083  0.750001  0.832266  1
  Mn  Mn4  1  0.638650  0.750001  0.062716  1
  Fe  Fe5  1  0.136967  0.750001  0.437715  1
  Fe  Fe6  1  0.864992  0.250001  0.563654  1
  Fe  Fe7  1  0.362332  0.250001  0.935109  1
  Si  Si8  1  0.314013  0.750001  0.116094  1
  Si  Si9  1  0.815166  0.750001  0.383202  1
  Si  Si10  1  0.185029  0.250001  0.617643  1
  Si  Si11  1  0.685364  0.250001  0.884234  1
