# generated using pymatgen
data_YTm(ReN3)2
_symmetry_space_group_name_H-M   'P 1'
_cell_length_a   7.38017140
_cell_length_b   7.38039354
_cell_length_c   6.28027895
_cell_angle_alpha   72.67706744
_cell_angle_beta   72.67444668
_cell_angle_gamma   81.70396417
_symmetry_Int_Tables_number   1
_chemical_formula_structural   YTm(ReN3)2
_chemical_formula_sum   'Y2 Tm2 Re4 N12'
_cell_volume   311.16395274
_cell_formula_units_Z   2
loop_
 _symmetry_equiv_pos_site_id
 _symmetry_equiv_pos_as_xyz
  1  'x, y, z'
loop_
 _atom_site_type_symbol
 _atom_site_label
 _atom_site_symmetry_multiplicity
 _atom_site_fract_x
 _atom_site_fract_y
 _atom_site_fract_z
 _atom_site_occupancy
  Y  Y0  1  0.712151  0.287855  0.250000  1
  Y  Y1  1  0.287849  0.712145  0.750000  1
  Tm  Tm2  1  0.906360  0.093644  0.749997  1
  Tm  Tm3  1  0.093640  0.906356  0.250003  1
  Re  Re4  1  0.623222  0.795666  0.282169  1
  Re  Re5  1  0.204338  0.376783  0.217833  1
  Re  Re6  1  0.376778  0.204334  0.717831  1
  Re  Re7  1  0.795662  0.623217  0.782167  1
  N  N8  1  0.668604  0.635314  0.086140  1
  N  N9  1  0.372282  0.870691  0.337133  1
  N  N10  1  0.364687  0.331395  0.413862  1
  N  N11  1  0.129304  0.627717  0.162880  1
  N  N12  1  0.007840  0.215099  0.341435  1
  N  N13  1  0.784897  0.992173  0.158565  1
  N  N14  1  0.215103  0.007827  0.841435  1
  N  N15  1  0.627718  0.129309  0.662867  1
  N  N16  1  0.331396  0.364686  0.913860  1
  N  N17  1  0.870696  0.372283  0.837120  1
  N  N18  1  0.635313  0.668605  0.586138  1
  N  N19  1  0.992160  0.784901  0.658565  1
