# generated using pymatgen
data_La2Tm12Th6Si15Os
_symmetry_space_group_name_H-M   'P 1'
_cell_length_a   7.42814989
_cell_length_b   7.76664060
_cell_length_c   14.63205181
_cell_angle_alpha   90.04125269
_cell_angle_beta   90.09091456
_cell_angle_gamma   89.93808296
_symmetry_Int_Tables_number   1
_chemical_formula_structural   La2Tm12Th6Si15Os
_chemical_formula_sum   'La2 Tm12 Th6 Si15 Os1'
_cell_volume   844.14720243
_cell_formula_units_Z   1
loop_
 _symmetry_equiv_pos_site_id
 _symmetry_equiv_pos_as_xyz
  1  'x, y, z'
loop_
 _atom_site_type_symbol
 _atom_site_label
 _atom_site_symmetry_multiplicity
 _atom_site_fract_x
 _atom_site_fract_y
 _atom_site_fract_z
 _atom_site_occupancy
  La  La0  1  0.515590  0.569098  0.344775  1
  La  La1  1  0.014534  0.424621  0.656561  1
  Tm  Tm2  1  0.812308  0.578215  0.877656  1
  Tm  Tm3  1  0.331118  0.433651  0.123439  1
  Tm  Tm4  1  0.176137  0.925053  0.374959  1
  Tm  Tm5  1  0.675949  0.071670  0.627186  1
  Tm  Tm6  1  0.178881  0.925371  0.625902  1
  Tm  Tm7  1  0.676154  0.071017  0.372417  1
  Tm  Tm8  1  0.813699  0.576960  0.122879  1
  Tm  Tm9  1  0.332602  0.436034  0.876560  1
  Tm  Tm10  1  0.650114  0.244187  0.000433  1
  Tm  Tm11  1  0.160474  0.755439  0.000154  1
  Tm  Tm12  1  0.343984  0.258056  0.499732  1
  Tm  Tm13  1  0.844849  0.738128  0.499821  1
  Th  Th14  1  0.489827  0.923105  0.849749  1
  Th  Th15  1  0.989048  0.074342  0.152877  1
  Th  Th16  1  0.487553  0.924670  0.148323  1
  Th  Th17  1  0.984561  0.072268  0.848541  1
  Th  Th18  1  0.517922  0.570609  0.653461  1
  Th  Th19  1  0.013927  0.424022  0.344926  1
  Si  Si20  1  0.026495  0.355809  0.999316  1
  Si  Si21  1  0.473832  0.861700  0.500929  1
  Si  Si22  1  0.970311  0.135977  0.499292  1
  Si  Si23  1  0.653035  0.276839  0.790664  1
  Si  Si24  1  0.148147  0.718675  0.211417  1
  Si  Si25  1  0.341705  0.213307  0.286294  1
  Si  Si26  1  0.846599  0.784453  0.713569  1
  Si  Si27  1  0.350096  0.217143  0.712938  1
  Si  Si28  1  0.852350  0.782121  0.287446  1
  Si  Si29  1  0.658214  0.273157  0.208644  1
  Si  Si30  1  0.149256  0.722955  0.789150  1
  Si  Si31  1  0.780444  0.884959  0.000078  1
  Si  Si32  1  0.271462  0.125791  0.999304  1
  Si  Si33  1  0.221049  0.622471  0.499812  1
  Si  Si34  1  0.722439  0.374429  0.500365  1
  Os  Os35  1  0.525334  0.653693  0.000426  1
