# generated using pymatgen
data_Sc3In3PtRhAu
_symmetry_space_group_name_H-M   'P 1'
_cell_length_a   7.75399500
_cell_length_b   7.75399332
_cell_length_c   3.44153000
_cell_angle_alpha   90.00000000
_cell_angle_beta   90.00000000
_cell_angle_gamma   120.00000290
_symmetry_Int_Tables_number   1
_chemical_formula_structural   Sc3In3PtRhAu
_chemical_formula_sum   'Sc3 In3 Pt1 Rh1 Au1'
_cell_volume   179.19798333
_cell_formula_units_Z   1
loop_
 _symmetry_equiv_pos_site_id
 _symmetry_equiv_pos_as_xyz
  1  'x, y, z'
loop_
 _atom_site_type_symbol
 _atom_site_label
 _atom_site_symmetry_multiplicity
 _atom_site_fract_x
 _atom_site_fract_y
 _atom_site_fract_z
 _atom_site_occupancy
  Sc  Sc0  1  0.600301  0.982689  0.000000  1
  Sc  Sc1  1  0.382388  0.399699  0.000000  1
  Sc  Sc2  1  0.017311  0.617612  0.000000  1
  In  In3  1  0.728883  0.724289  0.500000  1
  In  In4  1  0.995407  0.271117  0.500000  1
  In  In5  1  0.275711  0.004593  0.500000  1
  Pt  Pt6  1  0.333333  0.666667  0.500000  1
  Rh  Rh7  1  0.000000  0.000000  0.000000  1
  Au  Au8  1  0.666667  0.333333  0.500000  1
