# generated using pymatgen
data_Y2Ga7Ni2Au
_symmetry_space_group_name_H-M   'P 1'
_cell_length_a   7.98780173
_cell_length_b   7.98780181
_cell_length_c   6.45854654
_cell_angle_alpha   90.79407350
_cell_angle_beta   89.20592462
_cell_angle_gamma   149.85940778
_symmetry_Int_Tables_number   1
_chemical_formula_structural   Y2Ga7Ni2Au
_chemical_formula_sum   'Y2 Ga7 Ni2 Au1'
_cell_volume   206.89747977
_cell_formula_units_Z   1
loop_
 _symmetry_equiv_pos_site_id
 _symmetry_equiv_pos_as_xyz
  1  'x, y, z'
loop_
 _atom_site_type_symbol
 _atom_site_label
 _atom_site_symmetry_multiplicity
 _atom_site_fract_x
 _atom_site_fract_y
 _atom_site_fract_z
 _atom_site_occupancy
  Y  Y0  1  0.378164  0.621836  0.737433  1
  Y  Y1  1  0.621836  0.378164  0.262567  1
  Ga  Ga2  1  0.000000  0.000000  0.500000  1
  Ga  Ga3  1  0.569327  0.430673  0.762252  1
  Ga  Ga4  1  0.430673  0.569327  0.237748  1
  Ga  Ga5  1  0.184293  0.815707  0.954930  1
  Ga  Ga6  1  0.815707  0.184293  0.045070  1
  Ga  Ga7  1  0.185818  0.814182  0.553744  1
  Ga  Ga8  1  0.814182  0.185818  0.446256  1
  Ni  Ni9  1  0.721589  0.278411  0.749898  1
  Ni  Ni10  1  0.278411  0.721589  0.250102  1
  Au  Au11  1  0.000000  0.000000  0.000000  1
