# generated using pymatgen
data_La2P7Ru11Rh
_symmetry_space_group_name_H-M   'P 1'
_cell_length_a   9.50588427
_cell_length_b   9.53135194
_cell_length_c   3.98353700
_cell_angle_alpha   90.00000000
_cell_angle_beta   90.00000000
_cell_angle_gamma   119.83272493
_symmetry_Int_Tables_number   1
_chemical_formula_structural   La2P7Ru11Rh
_chemical_formula_sum   'La2 P7 Ru11 Rh1'
_cell_volume   313.09496683
_cell_formula_units_Z   1
loop_
 _symmetry_equiv_pos_site_id
 _symmetry_equiv_pos_as_xyz
  1  'x, y, z'
loop_
 _atom_site_type_symbol
 _atom_site_label
 _atom_site_symmetry_multiplicity
 _atom_site_fract_x
 _atom_site_fract_y
 _atom_site_fract_z
 _atom_site_occupancy
  La  La0  1  0.666930  0.333943  0.500000  1
  La  La1  1  0.332468  0.664406  0.000000  1
  P  P2  1  0.606549  0.710528  0.500000  1
  P  P3  1  0.998670  0.999764  0.000000  1
  P  P4  1  0.281277  0.889885  0.500000  1
  P  P5  1  0.109397  0.394448  0.500000  1
  P  P6  1  0.892498  0.579991  0.000000  1
  P  P7  1  0.420791  0.311862  0.000000  1
  P  P8  1  0.692918  0.112858  0.000000  1
  Ru  Ru9  1  0.389220  0.438141  0.500000  1
  Ru  Ru10  1  0.912911  0.121686  0.500000  1
  Ru  Ru11  1  0.207114  0.087131  0.500000  1
  Ru  Ru12  1  0.880029  0.794736  0.500000  1
  Ru  Ru13  1  0.729058  0.891743  0.000000  1
  Ru  Ru14  1  0.108840  0.840175  0.000000  1
  Ru  Ru15  1  0.160411  0.268139  0.000000  1
  Ru  Ru16  1  0.424287  0.064646  0.000000  1
  Ru  Ru17  1  0.936614  0.358996  0.000000  1
  Ru  Ru18  1  0.642633  0.578138  0.000000  1
  Ru  Ru19  1  0.049637  0.609959  0.500000  1
  Rh  Rh20  1  0.557747  0.948826  0.500000  1
