# generated using pymatgen
data_YbCe3Er12(MgCo)4
_symmetry_space_group_name_H-M   'P 1'
_cell_length_a   9.48693514
_cell_length_b   9.54156706
_cell_length_c   9.54156600
_cell_angle_alpha   60.00000368
_cell_angle_beta   59.80932563
_cell_angle_gamma   59.80932531
_symmetry_Int_Tables_number   1
_chemical_formula_structural   YbCe3Er12(MgCo)4
_chemical_formula_sum   'Yb1 Ce3 Er12 Mg4 Co4'
_cell_volume   608.96540948
_cell_formula_units_Z   1
loop_
 _symmetry_equiv_pos_site_id
 _symmetry_equiv_pos_as_xyz
  1  'x, y, z'
loop_
 _atom_site_type_symbol
 _atom_site_label
 _atom_site_symmetry_multiplicity
 _atom_site_fract_x
 _atom_site_fract_y
 _atom_site_fract_z
 _atom_site_occupancy
  Yb  Yb0  1  0.206252  0.597916  0.597916  1
  Ce  Ce1  1  0.586115  0.593903  0.593903  1
  Ce  Ce2  1  0.586115  0.593903  0.226079  1
  Ce  Ce3  1  0.586115  0.226079  0.593903  1
  Er  Er4  1  0.064110  0.434985  0.434985  1
  Er  Er5  1  0.437278  0.064231  0.064231  1
  Er  Er6  1  0.437278  0.064231  0.434260  1
  Er  Er7  1  0.064110  0.434985  0.065920  1
  Er  Er8  1  0.437278  0.434260  0.064231  1
  Er  Er9  1  0.064110  0.065920  0.434985  1
  Er  Er10  1  0.183712  0.816016  0.816016  1
  Er  Er11  1  0.812743  0.187201  0.187201  1
  Er  Er12  1  0.812743  0.187201  0.812856  1
  Er  Er13  1  0.183712  0.816016  0.184256  1
  Er  Er14  1  0.812743  0.812856  0.187201  1
  Er  Er15  1  0.183712  0.184256  0.816016  1
  Mg  Mg16  1  0.825408  0.831600  0.831600  1
  Mg  Mg17  1  0.825408  0.831600  0.511392  1
  Mg  Mg18  1  0.825408  0.511392  0.831600  1
  Mg  Mg19  1  0.507195  0.830935  0.830935  1
  Co  Co20  1  0.414160  0.384089  0.384089  1
  Co  Co21  1  0.414160  0.384089  0.817663  1
  Co  Co22  1  0.414160  0.817663  0.384089  1
  Co  Co23  1  0.815982  0.394673  0.394673  1
