# generated using pymatgen
data_YbNpB6Os
_symmetry_space_group_name_H-M   'P 1'
_cell_length_a   3.59251700
_cell_length_b   9.22259200
_cell_length_c   11.32761200
_cell_angle_alpha   90.00000000
_cell_angle_beta   90.00000000
_cell_angle_gamma   90.00000000
_symmetry_Int_Tables_number   1
_chemical_formula_structural   YbNpB6Os
_chemical_formula_sum   'Yb4 Np4 B24 Os4'
_cell_volume   375.31004913
_cell_formula_units_Z   4
loop_
 _symmetry_equiv_pos_site_id
 _symmetry_equiv_pos_as_xyz
  1  'x, y, z'
loop_
 _atom_site_type_symbol
 _atom_site_label
 _atom_site_symmetry_multiplicity
 _atom_site_fract_x
 _atom_site_fract_y
 _atom_site_fract_z
 _atom_site_occupancy
  Yb  Yb0  1  0.000000  0.338053  0.407808  1
  Yb  Yb1  1  0.000000  0.661947  0.592192  1
  Yb  Yb2  1  0.000000  0.838053  0.092192  1
  Yb  Yb3  1  0.000000  0.161947  0.907808  1
  Np  Np4  1  0.000000  0.959248  0.401484  1
  Np  Np5  1  0.000000  0.040752  0.598516  1
  Np  Np6  1  0.000000  0.459248  0.098516  1
  Np  Np7  1  0.000000  0.540752  0.901484  1
  B  B8  1  0.500000  0.552582  0.430980  1
  B  B9  1  0.500000  0.447418  0.569020  1
  B  B10  1  0.500000  0.052582  0.069020  1
  B  B11  1  0.500000  0.947418  0.930980  1
  B  B12  1  0.500000  0.743366  0.422196  1
  B  B13  1  0.500000  0.256634  0.577804  1
  B  B14  1  0.500000  0.243366  0.077804  1
  B  B15  1  0.500000  0.756634  0.922196  1
  B  B16  1  0.500000  0.803118  0.274106  1
  B  B17  1  0.500000  0.196882  0.725894  1
  B  B18  1  0.500000  0.303118  0.225894  1
  B  B19  1  0.500000  0.696882  0.774106  1
  B  B20  1  0.500000  0.643766  0.188565  1
  B  B21  1  0.500000  0.356234  0.811435  1
  B  B22  1  0.500000  0.143766  0.311435  1
  B  B23  1  0.500000  0.856234  0.688565  1
  B  B24  1  0.500000  0.989217  0.219120  1
  B  B25  1  0.500000  0.010783  0.780880  1
  B  B26  1  0.500000  0.489217  0.280880  1
  B  B27  1  0.500000  0.510783  0.719120  1
  B  B28  1  0.500000  0.639216  0.038449  1
  B  B29  1  0.500000  0.360784  0.961551  1
  B  B30  1  0.500000  0.139216  0.461551  1
  B  B31  1  0.500000  0.860784  0.538449  1
  Os  Os32  1  0.000000  0.646062  0.318400  1
  Os  Os33  1  0.000000  0.353938  0.681600  1
  Os  Os34  1  0.000000  0.146062  0.181600  1
  Os  Os35  1  0.000000  0.853938  0.818400  1
