# generated using pymatgen
data_Lu4Bi3Te
_symmetry_space_group_name_H-M   'P 1'
_cell_length_a   7.59680823
_cell_length_b   7.59680839
_cell_length_c   7.59686400
_cell_angle_alpha   131.82045544
_cell_angle_beta   131.82045653
_cell_angle_gamma   70.51259409
_symmetry_Int_Tables_number   1
_chemical_formula_structural   Lu4Bi3Te
_chemical_formula_sum   'Lu4 Bi3 Te1'
_cell_volume   238.57847847
_cell_formula_units_Z   1
loop_
 _symmetry_equiv_pos_site_id
 _symmetry_equiv_pos_as_xyz
  1  'x, y, z'
loop_
 _atom_site_type_symbol
 _atom_site_label
 _atom_site_symmetry_multiplicity
 _atom_site_fract_x
 _atom_site_fract_y
 _atom_site_fract_z
 _atom_site_occupancy
  Lu  Lu0  1  0.249424  0.249426  0.000004  1
  Lu  Lu1  1  0.750573  0.750570  0.000005  1
  Lu  Lu2  1  0.500003  0.000019  0.500022  1
  Lu  Lu3  1  0.000005  0.499970  0.499964  1
  Bi  Bi4  1  0.500000  0.500007  0.000006  1
  Bi  Bi5  1  0.750005  0.250012  0.500003  1
  Bi  Bi6  1  0.249993  0.749995  0.500002  1
  Te  Te7  1  0.999997  0.000001  0.999993  1
