# generated using pymatgen
data_Yb3Al12NiOs3
_symmetry_space_group_name_H-M   'P 1'
_cell_length_a   8.81535300
_cell_length_b   8.81535306
_cell_length_c   9.50520900
_cell_angle_alpha   90.00000000
_cell_angle_beta   90.00000000
_cell_angle_gamma   119.99999602
_symmetry_Int_Tables_number   1
_chemical_formula_structural   Yb3Al12NiOs3
_chemical_formula_sum   'Yb6 Al24 Ni2 Os6'
_cell_volume   639.69320596
_cell_formula_units_Z   2
loop_
 _symmetry_equiv_pos_site_id
 _symmetry_equiv_pos_as_xyz
  1  'x, y, z'
loop_
 _atom_site_type_symbol
 _atom_site_label
 _atom_site_symmetry_multiplicity
 _atom_site_fract_x
 _atom_site_fract_y
 _atom_site_fract_z
 _atom_site_occupancy
  Yb  Yb0  1  0.195485  0.390972  0.250000  1
  Yb  Yb1  1  0.804515  0.609028  0.750000  1
  Yb  Yb2  1  0.609028  0.804515  0.250000  1
  Yb  Yb3  1  0.390972  0.195485  0.750000  1
  Yb  Yb4  1  0.195485  0.804515  0.250000  1
  Yb  Yb5  1  0.804515  0.195485  0.750000  1
  Al  Al6  1  0.333333  0.666667  0.000807  1
  Al  Al7  1  0.666667  0.333333  0.999193  1
  Al  Al8  1  0.666667  0.333333  0.500807  1
  Al  Al9  1  0.333333  0.666667  0.499193  1
  Al  Al10  1  0.159077  0.318154  0.575877  1
  Al  Al11  1  0.840923  0.681846  0.424123  1
  Al  Al12  1  0.681846  0.840923  0.575877  1
  Al  Al13  1  0.840923  0.681846  0.075877  1
  Al  Al14  1  0.318154  0.159077  0.424123  1
  Al  Al15  1  0.159077  0.318154  0.924123  1
  Al  Al16  1  0.159077  0.840923  0.575877  1
  Al  Al17  1  0.318154  0.159077  0.075877  1
  Al  Al18  1  0.840923  0.159077  0.424123  1
  Al  Al19  1  0.681846  0.840923  0.924123  1
  Al  Al20  1  0.840923  0.159077  0.075877  1
  Al  Al21  1  0.159077  0.840923  0.924123  1
  Al  Al22  1  0.559205  0.118408  0.250000  1
  Al  Al23  1  0.440795  0.881592  0.750000  1
  Al  Al24  1  0.881592  0.440795  0.250000  1
  Al  Al25  1  0.118408  0.559205  0.750000  1
  Al  Al26  1  0.559205  0.440795  0.250000  1
  Al  Al27  1  0.440795  0.559205  0.750000  1
  Al  Al28  1  0.000000  0.000000  0.250000  1
  Al  Al29  1  0.000000  0.000000  0.750000  1
  Ni  Ni30  1  0.000000  0.000000  0.000000  1
  Ni  Ni31  1  0.000000  0.000000  0.500000  1
  Os  Os32  1  0.500000  0.000000  0.000000  1
  Os  Os33  1  0.000000  0.500000  0.000000  1
  Os  Os34  1  0.500000  0.000000  0.500000  1
  Os  Os35  1  0.500000  0.500000  0.000000  1
  Os  Os36  1  0.000000  0.500000  0.500000  1
  Os  Os37  1  0.500000  0.500000  0.500000  1
