# generated using pymatgen
data_Cs2V2CdO7
_symmetry_space_group_name_H-M   'P 1'
_cell_length_a   10.81908300
_cell_length_b   5.88909155
_cell_length_c   17.11031900
_cell_angle_alpha   87.81607770
_cell_angle_beta   90.00000000
_cell_angle_gamma   90.00000000
_symmetry_Int_Tables_number   1
_chemical_formula_structural   Cs2V2CdO7
_chemical_formula_sum   'Cs8 V8 Cd4 O28'
_cell_volume   1089.38477100
_cell_formula_units_Z   4
loop_
 _symmetry_equiv_pos_site_id
 _symmetry_equiv_pos_as_xyz
  1  'x, y, z'
loop_
 _atom_site_type_symbol
 _atom_site_label
 _atom_site_symmetry_multiplicity
 _atom_site_fract_x
 _atom_site_fract_y
 _atom_site_fract_z
 _atom_site_occupancy
  Cs  Cs0  1  0.148034  0.223552  0.920161  1
  Cs  Cs1  1  0.648034  0.776448  0.579839  1
  Cs  Cs2  1  0.851966  0.776448  0.079839  1
  Cs  Cs3  1  0.351966  0.223552  0.420161  1
  Cs  Cs4  1  0.006941  0.244177  0.626104  1
  Cs  Cs5  1  0.506941  0.755823  0.873896  1
  Cs  Cs6  1  0.993059  0.755823  0.373896  1
  Cs  Cs7  1  0.493059  0.244177  0.126104  1
  V  V8  1  0.208300  0.747556  0.758796  1
  V  V9  1  0.708300  0.252444  0.741204  1
  V  V10  1  0.791700  0.252444  0.241204  1
  V  V11  1  0.291700  0.747556  0.258796  1
  V  V12  1  0.260004  0.744194  0.578700  1
  V  V13  1  0.760004  0.255806  0.921300  1
  V  V14  1  0.739996  0.255806  0.421300  1
  V  V15  1  0.239996  0.744194  0.078700  1
  Cd  Cd16  1  0.377770  0.238925  0.681819  1
  Cd  Cd17  1  0.877770  0.761075  0.818181  1
  Cd  Cd18  1  0.622230  0.761075  0.318181  1
  Cd  Cd19  1  0.122230  0.238925  0.181819  1
  O  O20  1  0.311575  0.463879  0.581010  1
  O  O21  1  0.811575  0.536121  0.918990  1
  O  O22  1  0.688425  0.536121  0.418990  1
  O  O23  1  0.188425  0.463879  0.081010  1
  O  O24  1  0.376182  0.937069  0.596262  1
  O  O25  1  0.876182  0.062931  0.903738  1
  O  O26  1  0.623818  0.062931  0.403738  1
  O  O27  1  0.123818  0.937069  0.096262  1
  O  O28  1  0.293169  0.992501  0.773351  1
  O  O29  1  0.793169  0.007499  0.726649  1
  O  O30  1  0.706831  0.007499  0.226649  1
  O  O31  1  0.206831  0.992501  0.273351  1
  O  O32  1  0.146709  0.765382  0.659518  1
  O  O33  1  0.646709  0.234618  0.840482  1
  O  O34  1  0.853291  0.234618  0.340482  1
  O  O35  1  0.353291  0.765382  0.159518  1
  O  O36  1  0.303612  0.514069  0.768990  1
  O  O37  1  0.803612  0.485931  0.731010  1
  O  O38  1  0.696388  0.485931  0.231010  1
  O  O39  1  0.196388  0.514069  0.268990  1
  O  O40  1  0.083400  0.725879  0.821456  1
  O  O41  1  0.583400  0.274121  0.678544  1
  O  O42  1  0.916600  0.274121  0.178544  1
  O  O43  1  0.416600  0.725879  0.321456  1
  O  O44  1  0.185061  0.813174  0.494306  1
  O  O45  1  0.685061  0.186826  0.005694  1
  O  O46  1  0.814939  0.186826  0.505694  1
  O  O47  1  0.314939  0.813174  0.994306  1
