# generated using pymatgen
data_RuF16
_symmetry_space_group_name_H-M   'P 1'
_cell_length_a   5.20271800
_cell_length_b   8.10254369
_cell_length_c   8.10254400
_cell_angle_alpha   120.00000944
_cell_angle_beta   90.00000000
_cell_angle_gamma   90.00000000
_symmetry_Int_Tables_number   1
_chemical_formula_structural   RuF16
_chemical_formula_sum   'Ru1 F16'
_cell_volume   295.80373712
_cell_formula_units_Z   1
loop_
 _symmetry_equiv_pos_site_id
 _symmetry_equiv_pos_as_xyz
  1  'x, y, z'
loop_
 _atom_site_type_symbol
 _atom_site_label
 _atom_site_symmetry_multiplicity
 _atom_site_fract_x
 _atom_site_fract_y
 _atom_site_fract_z
 _atom_site_occupancy
  Ru  Ru0  1  0.000000  0.000000  0.000000  1
  F  F1  1  0.065688  0.666667  0.333333  1
  F  F2  1  0.934312  0.333333  0.666667  1
  F  F3  1  0.610751  0.469970  0.939941  1
  F  F4  1  0.389249  0.530030  0.060059  1
  F  F5  1  0.610751  0.469970  0.530030  1
  F  F6  1  0.389249  0.530030  0.469970  1
  F  F7  1  0.610751  0.060059  0.530030  1
  F  F8  1  0.389249  0.939941  0.469970  1
  F  F9  1  0.792738  0.891962  0.783926  1
  F  F10  1  0.207262  0.108038  0.216074  1
  F  F11  1  0.792738  0.891962  0.108038  1
  F  F12  1  0.207262  0.108038  0.891962  1
  F  F13  1  0.792738  0.216074  0.108038  1
  F  F14  1  0.207262  0.783926  0.891962  1
  F  F15  1  0.791995  0.666667  0.333333  1
  F  F16  1  0.208005  0.333333  0.666667  1
