# generated using pymatgen
data_Lu6Sc4Si5P
_symmetry_space_group_name_H-M   'P 1'
_cell_length_a   8.11415700
_cell_length_b   8.11814195
_cell_length_c   5.89937900
_cell_angle_alpha   90.00000000
_cell_angle_beta   90.00000000
_cell_angle_gamma   119.98375128
_symmetry_Int_Tables_number   1
_chemical_formula_structural   Lu6Sc4Si5P
_chemical_formula_sum   'Lu6 Sc4 Si5 P1'
_cell_volume   336.59531112
_cell_formula_units_Z   1
loop_
 _symmetry_equiv_pos_site_id
 _symmetry_equiv_pos_as_xyz
  1  'x, y, z'
loop_
 _atom_site_type_symbol
 _atom_site_label
 _atom_site_symmetry_multiplicity
 _atom_site_fract_x
 _atom_site_fract_y
 _atom_site_fract_z
 _atom_site_occupancy
  Lu  Lu0  1  0.000172  0.755512  0.750000  1
  Lu  Lu1  1  0.001613  0.245112  0.250000  1
  Lu  Lu2  1  0.756501  0.754888  0.250000  1
  Lu  Lu3  1  0.752836  0.000000  0.750000  1
  Lu  Lu4  1  0.244659  0.244488  0.750000  1
  Lu  Lu5  1  0.246318  0.000000  0.250000  1
  Sc  Sc6  1  0.333543  0.667758  0.499459  1
  Sc  Sc7  1  0.665786  0.332242  0.000541  1
  Sc  Sc8  1  0.665786  0.332242  0.499459  1
  Sc  Sc9  1  0.333543  0.667758  0.000541  1
  Si  Si10  1  0.397827  0.397000  0.250000  1
  Si  Si11  1  0.000828  0.603000  0.250000  1
  Si  Si12  1  0.000098  0.397248  0.750000  1
  Si  Si13  1  0.602849  0.602752  0.750000  1
  Si  Si14  1  0.605345  0.000000  0.250000  1
  P  P15  1  0.392296  0.000000  0.750000  1
