# generated using pymatgen
data_Tb15Ce(CdTc)4
_symmetry_space_group_name_H-M   'P 1'
_cell_length_a   9.70627473
_cell_length_b   9.70627557
_cell_length_c   9.58203500
_cell_angle_alpha   60.42252236
_cell_angle_beta   60.42251958
_cell_angle_gamma   59.92924994
_symmetry_Int_Tables_number   1
_chemical_formula_structural   Tb15Ce(CdTc)4
_chemical_formula_sum   'Tb15 Ce1 Cd4 Tc4'
_cell_volume   642.03180599
_cell_formula_units_Z   1
loop_
 _symmetry_equiv_pos_site_id
 _symmetry_equiv_pos_as_xyz
  1  'x, y, z'
loop_
 _atom_site_type_symbol
 _atom_site_label
 _atom_site_symmetry_multiplicity
 _atom_site_fract_x
 _atom_site_fract_y
 _atom_site_fract_z
 _atom_site_occupancy
  Tb  Tb0  1  0.599668  0.599668  0.595182  1
  Tb  Tb1  1  0.193325  0.806634  0.808429  1
  Tb  Tb2  1  0.056015  0.056015  0.443985  1
  Tb  Tb3  1  0.440311  0.056222  0.061798  1
  Tb  Tb4  1  0.806634  0.193325  0.808429  1
  Tb  Tb5  1  0.440311  0.056222  0.441668  1
  Tb  Tb6  1  0.593097  0.215045  0.595928  1
  Tb  Tb7  1  0.812069  0.812069  0.187931  1
  Tb  Tb8  1  0.215045  0.593097  0.595928  1
  Tb  Tb9  1  0.806634  0.193325  0.191611  1
  Tb  Tb10  1  0.056222  0.440311  0.441668  1
  Tb  Tb11  1  0.193325  0.806634  0.191611  1
  Tb  Tb12  1  0.599668  0.599668  0.205483  1
  Tb  Tb13  1  0.181600  0.181600  0.818400  1
  Tb  Tb14  1  0.056222  0.440311  0.061798  1
  Ce  Ce15  1  0.437529  0.437529  0.062471  1
  Cd  Cd16  1  0.830120  0.830120  0.509361  1
  Cd  Cd17  1  0.830120  0.830120  0.830399  1
  Cd  Cd18  1  0.510627  0.832967  0.828202  1
  Cd  Cd19  1  0.832967  0.510627  0.828202  1
  Tc  Tc20  1  0.395770  0.395770  0.350877  1
  Tc  Tc21  1  0.840303  0.376646  0.391526  1
  Tc  Tc22  1  0.376646  0.840303  0.391526  1
  Tc  Tc23  1  0.395770  0.395770  0.857583  1
