# generated using pymatgen
data_Li14FeSnN8
_symmetry_space_group_name_H-M   'P 1'
_cell_length_a   6.90026000
_cell_length_b   6.90026000
_cell_length_c   4.89287200
_cell_angle_alpha   90.00000000
_cell_angle_beta   90.00000000
_cell_angle_gamma   90.00000000
_symmetry_Int_Tables_number   1
_chemical_formula_structural   Li14FeSnN8
_chemical_formula_sum   'Li14 Fe1 Sn1 N8'
_cell_volume   232.96719188
_cell_formula_units_Z   1
loop_
 _symmetry_equiv_pos_site_id
 _symmetry_equiv_pos_as_xyz
  1  'x, y, z'
loop_
 _atom_site_type_symbol
 _atom_site_label
 _atom_site_symmetry_multiplicity
 _atom_site_fract_x
 _atom_site_fract_y
 _atom_site_fract_z
 _atom_site_occupancy
  Li  Li0  1  0.500000  0.000000  0.532146  1
  Li  Li1  1  0.241467  0.758533  0.000000  1
  Li  Li2  1  0.000000  0.500000  0.937354  1
  Li  Li3  1  0.758533  0.241467  0.000000  1
  Li  Li4  1  0.266152  0.733848  0.500000  1
  Li  Li5  1  0.000000  0.000000  0.000000  1
  Li  Li6  1  0.500000  0.000000  0.062646  1
  Li  Li7  1  0.733848  0.733848  0.500000  1
  Li  Li8  1  0.266152  0.266152  0.500000  1
  Li  Li9  1  0.241467  0.241467  0.000000  1
  Li  Li10  1  0.758533  0.758533  0.000000  1
  Li  Li11  1  0.733848  0.266152  0.500000  1
  Li  Li12  1  0.000000  0.500000  0.467854  1
  Li  Li13  1  0.500000  0.500000  0.500000  1
  Fe  Fe14  1  0.500000  0.500000  0.000000  1
  Sn  Sn15  1  0.000000  0.000000  0.500000  1
  N  N16  1  0.000000  0.254792  0.731335  1
  N  N17  1  0.289467  0.500000  0.211099  1
  N  N18  1  0.500000  0.289467  0.788901  1
  N  N19  1  0.000000  0.745208  0.731335  1
  N  N20  1  0.500000  0.710533  0.788901  1
  N  N21  1  0.745208  0.000000  0.268665  1
  N  N22  1  0.710533  0.500000  0.211099  1
  N  N23  1  0.254792  0.000000  0.268665  1
