# generated using pymatgen
data_Ca4SnPb11
_symmetry_space_group_name_H-M   'P 1'
_cell_length_a   9.92249500
_cell_length_b   6.93217676
_cell_length_c   7.00258100
_cell_angle_alpha   88.91769125
_cell_angle_beta   90.00000000
_cell_angle_gamma   90.00000000
_symmetry_Int_Tables_number   1
_chemical_formula_structural   Ca4SnPb11
_chemical_formula_sum   'Ca4 Sn1 Pb11'
_cell_volume   481.58302356
_cell_formula_units_Z   1
loop_
 _symmetry_equiv_pos_site_id
 _symmetry_equiv_pos_as_xyz
  1  'x, y, z'
loop_
 _atom_site_type_symbol
 _atom_site_label
 _atom_site_symmetry_multiplicity
 _atom_site_fract_x
 _atom_site_fract_y
 _atom_site_fract_z
 _atom_site_occupancy
  Ca  Ca0  1  0.250000  0.008361  0.001443  1
  Ca  Ca1  1  0.250000  0.497575  0.505326  1
  Ca  Ca2  1  0.750000  0.995812  0.000204  1
  Ca  Ca3  1  0.750000  0.505215  0.498587  1
  Sn  Sn4  1  0.750000  0.496256  0.998065  1
  Pb  Pb5  1  0.995973  0.246325  0.745978  1
  Pb  Pb6  1  0.503980  0.254459  0.247357  1
  Pb  Pb7  1  0.501743  0.747398  0.247403  1
  Pb  Pb8  1  0.997106  0.746135  0.754946  1
  Pb  Pb9  1  0.998257  0.747398  0.247403  1
  Pb  Pb10  1  0.502894  0.746135  0.754946  1
  Pb  Pb11  1  0.504027  0.246325  0.745978  1
  Pb  Pb12  1  0.996020  0.254459  0.247357  1
  Pb  Pb13  1  0.250000  0.997995  0.501111  1
  Pb  Pb14  1  0.250000  0.506751  0.004282  1
  Pb  Pb15  1  0.750000  0.003399  0.499615  1
