# generated using pymatgen
data_Cs3Rb(CuSe)10
_symmetry_space_group_name_H-M   'P 1'
_cell_length_a   8.15314113
_cell_length_b   8.15314127
_cell_length_c   18.99644552
_cell_angle_alpha   89.85220353
_cell_angle_beta   90.14779715
_cell_angle_gamma   151.96924103
_symmetry_Int_Tables_number   1
_chemical_formula_structural   Cs3Rb(CuSe)10
_chemical_formula_sum   'Cs3 Rb1 Cu10 Se10'
_cell_volume   593.42827530
_cell_formula_units_Z   1
loop_
 _symmetry_equiv_pos_site_id
 _symmetry_equiv_pos_as_xyz
  1  'x, y, z'
loop_
 _atom_site_type_symbol
 _atom_site_label
 _atom_site_symmetry_multiplicity
 _atom_site_fract_x
 _atom_site_fract_y
 _atom_site_fract_z
 _atom_site_occupancy
  Cs  Cs0  1  0.520701  0.479299  0.121098  1
  Cs  Cs1  1  0.480101  0.519899  0.881789  1
  Cs  Cs2  1  0.480035  0.519965  0.616507  1
  Rb  Rb3  1  0.517912  0.482088  0.381474  1
  Cu  Cu4  1  0.687862  0.312138  0.749139  1
  Cu  Cu5  1  0.311598  0.688402  0.253033  1
  Cu  Cu6  1  0.730155  0.269845  0.953883  1
  Cu  Cu7  1  0.271900  0.728100  0.046866  1
  Cu  Cu8  1  0.272126  0.727874  0.451927  1
  Cu  Cu9  1  0.730140  0.269860  0.544670  1
  Cu  Cu10  1  0.790366  0.209634  0.352748  1
  Cu  Cu11  1  0.205122  0.794878  0.645806  1
  Cu  Cu12  1  0.205046  0.794954  0.852230  1
  Cu  Cu13  1  0.796287  0.203713  0.149360  1
  Se  Se14  1  0.099271  0.900729  0.748873  1
  Se  Se15  1  0.900719  0.099281  0.253897  1
  Se  Se16  1  0.203875  0.796125  0.162575  1
  Se  Se17  1  0.797417  0.202583  0.838041  1
  Se  Se18  1  0.797386  0.202614  0.660655  1
  Se  Se19  1  0.197482  0.802518  0.338475  1
  Se  Se20  1  0.860762  0.139238  0.029884  1
  Se  Se21  1  0.141174  0.858826  0.972128  1
  Se  Se22  1  0.141021  0.858979  0.525545  1
  Se  Se23  1  0.861543  0.138457  0.469400  1
