# generated using pymatgen
data_LaPr(SnHg)3
_symmetry_space_group_name_H-M   'P 1'
_cell_length_a   4.85180400
_cell_length_b   4.76386700
_cell_length_c   9.30495700
_cell_angle_alpha   90.00000000
_cell_angle_beta   90.00000000
_cell_angle_gamma   90.00000000
_symmetry_Int_Tables_number   1
_chemical_formula_structural   LaPr(SnHg)3
_chemical_formula_sum   'La1 Pr1 Sn3 Hg3'
_cell_volume   215.06871826
_cell_formula_units_Z   1
loop_
 _symmetry_equiv_pos_site_id
 _symmetry_equiv_pos_as_xyz
  1  'x, y, z'
loop_
 _atom_site_type_symbol
 _atom_site_label
 _atom_site_symmetry_multiplicity
 _atom_site_fract_x
 _atom_site_fract_y
 _atom_site_fract_z
 _atom_site_occupancy
  La  La0  1  0.000000  0.000000  0.502925  1
  Pr  Pr1  1  0.000000  0.000000  0.996150  1
  Sn  Sn2  1  0.500000  0.000000  0.750564  1
  Sn  Sn3  1  0.000000  0.500000  0.249350  1
  Sn  Sn4  1  0.000000  0.500000  0.750324  1
  Hg  Hg5  1  0.500000  0.500000  0.999413  1
  Hg  Hg6  1  0.500000  0.500000  0.499899  1
  Hg  Hg7  1  0.500000  0.000000  0.251376  1
