# generated using pymatgen
data_Er2Si2Tc
_symmetry_space_group_name_H-M   'P 1'
_cell_length_a   5.76425235
_cell_length_b   5.76425275
_cell_length_c   10.00941078
_cell_angle_alpha   63.71384013
_cell_angle_beta   63.71383896
_cell_angle_gamma   42.41014038
_symmetry_Int_Tables_number   1
_chemical_formula_structural   Er2Si2Tc
_chemical_formula_sum   'Er4 Si4 Tc2'
_cell_volume   197.38059415
_cell_formula_units_Z   2
loop_
 _symmetry_equiv_pos_site_id
 _symmetry_equiv_pos_as_xyz
  1  'x, y, z'
loop_
 _atom_site_type_symbol
 _atom_site_label
 _atom_site_symmetry_multiplicity
 _atom_site_fract_x
 _atom_site_fract_y
 _atom_site_fract_z
 _atom_site_occupancy
  Er  Er0  1  0.004685  0.004685  0.322890  1
  Er  Er1  1  0.187467  0.187467  0.890711  1
  Er  Er2  1  0.995315  0.995315  0.677110  1
  Er  Er3  1  0.812533  0.812533  0.109289  1
  Si  Si4  1  0.502794  0.502794  0.121492  1
  Si  Si5  1  0.497206  0.497206  0.878508  1
  Si  Si6  1  0.358557  0.358557  0.560769  1
  Si  Si7  1  0.641443  0.641443  0.439231  1
  Tc  Tc8  1  0.272583  0.272583  0.369975  1
  Tc  Tc9  1  0.727417  0.727417  0.630025  1
