# generated using pymatgen
data_Y5Sn3Ir
_symmetry_space_group_name_H-M   'P 1'
_cell_length_a   7.36356800
_cell_length_b   8.41018000
_cell_length_c   15.55160900
_cell_angle_alpha   90.00000000
_cell_angle_beta   90.00000000
_cell_angle_gamma   90.00000000
_symmetry_Int_Tables_number   1
_chemical_formula_structural   Y5Sn3Ir
_chemical_formula_sum   'Y20 Sn12 Ir4'
_cell_volume   963.09454126
_cell_formula_units_Z   4
loop_
 _symmetry_equiv_pos_site_id
 _symmetry_equiv_pos_as_xyz
  1  'x, y, z'
loop_
 _atom_site_type_symbol
 _atom_site_label
 _atom_site_symmetry_multiplicity
 _atom_site_fract_x
 _atom_site_fract_y
 _atom_site_fract_z
 _atom_site_occupancy
  Y  Y0  1  0.323206  0.839048  0.866224  1
  Y  Y1  1  0.823206  0.660952  0.633776  1
  Y  Y2  1  0.676794  0.160952  0.366224  1
  Y  Y3  1  0.176794  0.339048  0.133776  1
  Y  Y4  1  0.676794  0.160952  0.133776  1
  Y  Y5  1  0.176794  0.339048  0.366224  1
  Y  Y6  1  0.323206  0.839048  0.633776  1
  Y  Y7  1  0.823206  0.660952  0.866224  1
  Y  Y8  1  0.502546  0.303844  0.907026  1
  Y  Y9  1  0.002546  0.196156  0.592974  1
  Y  Y10  1  0.497454  0.696156  0.407026  1
  Y  Y11  1  0.997454  0.803844  0.092974  1
  Y  Y12  1  0.497454  0.696156  0.092974  1
  Y  Y13  1  0.997454  0.803844  0.407026  1
  Y  Y14  1  0.502546  0.303844  0.592974  1
  Y  Y15  1  0.002546  0.196156  0.907026  1
  Y  Y16  1  0.191537  0.508826  0.750000  1
  Y  Y17  1  0.691537  0.991174  0.750000  1
  Y  Y18  1  0.808463  0.491174  0.250000  1
  Y  Y19  1  0.308463  0.008826  0.250000  1
  Sn  Sn20  1  0.308379  0.037561  0.039263  1
  Sn  Sn21  1  0.808379  0.462439  0.460737  1
  Sn  Sn22  1  0.691621  0.962439  0.539263  1
  Sn  Sn23  1  0.191621  0.537561  0.960737  1
  Sn  Sn24  1  0.691621  0.962439  0.960737  1
  Sn  Sn25  1  0.191621  0.537561  0.539263  1
  Sn  Sn26  1  0.308379  0.037561  0.460737  1
  Sn  Sn27  1  0.808379  0.462439  0.039263  1
  Sn  Sn28  1  0.279618  0.143842  0.750000  1
  Sn  Sn29  1  0.779618  0.356158  0.750000  1
  Sn  Sn30  1  0.720382  0.856158  0.250000  1
  Sn  Sn31  1  0.220382  0.643842  0.250000  1
  Ir  Ir32  1  0.533418  0.629139  0.750000  1
  Ir  Ir33  1  0.033418  0.870861  0.750000  1
  Ir  Ir34  1  0.466582  0.370861  0.250000  1
  Ir  Ir35  1  0.966582  0.129139  0.250000  1
