# generated using pymatgen
data_Tb4DyZr3(P3Ir4)4
_symmetry_space_group_name_H-M   'P 1'
_cell_length_a   12.90062700
_cell_length_b   12.89993815
_cell_length_c   3.99342600
_cell_angle_alpha   90.00000000
_cell_angle_beta   90.00000000
_cell_angle_gamma   120.00176901
_symmetry_Int_Tables_number   1
_chemical_formula_structural   Tb4DyZr3(P3Ir4)4
_chemical_formula_sum   'Tb4 Dy1 Zr3 P12 Ir16'
_cell_volume   575.52868954
_cell_formula_units_Z   1
loop_
 _symmetry_equiv_pos_site_id
 _symmetry_equiv_pos_as_xyz
  1  'x, y, z'
loop_
 _atom_site_type_symbol
 _atom_site_label
 _atom_site_symmetry_multiplicity
 _atom_site_fract_x
 _atom_site_fract_y
 _atom_site_fract_z
 _atom_site_occupancy
  Tb  Tb0  1  0.333333  0.666668  0.500000  1
  Tb  Tb1  1  0.666667  0.333332  0.500000  1
  Tb  Tb2  1  0.000003  0.815050  0.000000  1
  Tb  Tb3  1  0.184953  0.184950  0.000000  1
  Dy  Dy4  1  0.815013  0.000000  0.000000  1
  Zr  Zr5  1  0.000005  0.449174  0.500000  1
  Zr  Zr6  1  0.550831  0.550826  0.500000  1
  Zr  Zr7  1  0.449199  0.000000  0.500000  1
  P  P8  1  0.999999  0.649195  0.500000  1
  P  P9  1  0.350804  0.350805  0.500000  1
  P  P10  1  0.649341  0.000000  0.500000  1
  P  P11  1  0.517288  0.686557  0.000000  1
  P  P12  1  0.313438  0.830743  0.000000  1
  P  P13  1  0.169263  0.482688  0.000000  1
  P  P14  1  0.482695  0.169257  0.000000  1
  P  P15  1  0.686574  0.517312  0.000000  1
  P  P16  1  0.830731  0.313443  0.000000  1
  P  P17  1  0.999920  0.176107  0.500000  1
  P  P18  1  0.823813  0.823893  0.500000  1
  P  P19  1  0.176186  0.000000  0.500000  1
  Ir  Ir20  1  0.507858  0.864131  0.000000  1
  Ir  Ir21  1  0.135854  0.643706  0.000000  1
  Ir  Ir22  1  0.356285  0.492144  0.000000  1
  Ir  Ir23  1  0.492150  0.356294  0.000000  1
  Ir  Ir24  1  0.864142  0.507856  0.000000  1
  Ir  Ir25  1  0.643728  0.135869  0.000000  1
  Ir  Ir26  1  0.999908  0.278810  0.000000  1
  Ir  Ir27  1  0.721098  0.721190  0.000000  1
  Ir  Ir28  1  0.278940  0.000000  0.000000  1
  Ir  Ir29  1  0.629029  0.807129  0.500000  1
  Ir  Ir30  1  0.193092  0.821906  0.500000  1
  Ir  Ir31  1  0.178086  0.371183  0.500000  1
  Ir  Ir32  1  0.371185  0.178094  0.500000  1
  Ir  Ir33  1  0.806903  0.628817  0.500000  1
  Ir  Ir34  1  0.821900  0.192871  0.500000  1
  Ir  Ir35  1  0.999786  0.000000  0.500000  1
