# generated using pymatgen
data_DyHo3Lu4(ReB6)4
_symmetry_space_group_name_H-M   'P 1'
_cell_length_a   3.64204700
_cell_length_b   9.10068900
_cell_length_c   11.48193400
_cell_angle_alpha   89.99976062
_cell_angle_beta   90.00000000
_cell_angle_gamma   90.00000000
_symmetry_Int_Tables_number   1
_chemical_formula_structural   DyHo3Lu4(ReB6)4
_chemical_formula_sum   'Dy1 Ho3 Lu4 Re4 B24'
_cell_volume   380.57027626
_cell_formula_units_Z   1
loop_
 _symmetry_equiv_pos_site_id
 _symmetry_equiv_pos_as_xyz
  1  'x, y, z'
loop_
 _atom_site_type_symbol
 _atom_site_label
 _atom_site_symmetry_multiplicity
 _atom_site_fract_x
 _atom_site_fract_y
 _atom_site_fract_z
 _atom_site_occupancy
  Dy  Dy0  1  0.000000  0.322989  0.413922  1
  Ho  Ho1  1  0.000000  0.676936  0.586100  1
  Ho  Ho2  1  0.000000  0.823082  0.086050  1
  Ho  Ho3  1  0.000000  0.176887  0.913942  1
  Lu  Lu4  1  0.000000  0.943555  0.370335  1
  Lu  Lu5  1  0.000000  0.056393  0.629695  1
  Lu  Lu6  1  0.000000  0.443573  0.129569  1
  Lu  Lu7  1  0.000000  0.556472  0.870420  1
  Re  Re8  1  0.000000  0.639892  0.320001  1
  Re  Re9  1  0.000000  0.360275  0.680089  1
  Re  Re10  1  0.000000  0.139585  0.179764  1
  Re  Re11  1  0.000000  0.860276  0.820120  1
  B  B12  1  0.500000  0.553819  0.432820  1
  B  B13  1  0.500000  0.446442  0.567336  1
  B  B14  1  0.500000  0.053598  0.067131  1
  B  B15  1  0.500000  0.946368  0.932839  1
  B  B16  1  0.500000  0.751018  0.418697  1
  B  B17  1  0.500000  0.249004  0.581549  1
  B  B18  1  0.500000  0.250949  0.081266  1
  B  B19  1  0.500000  0.749054  0.918675  1
  B  B20  1  0.500000  0.793400  0.265330  1
  B  B21  1  0.500000  0.206606  0.734709  1
  B  B22  1  0.500000  0.293285  0.234475  1
  B  B23  1  0.500000  0.706629  0.765360  1
  B  B24  1  0.500000  0.630447  0.184637  1
  B  B25  1  0.500000  0.369626  0.815345  1
  B  B26  1  0.500000  0.130244  0.315159  1
  B  B27  1  0.500000  0.869591  0.684701  1
  B  B28  1  0.500000  0.981699  0.212558  1
  B  B29  1  0.500000  0.018262  0.787423  1
  B  B30  1  0.500000  0.481928  0.287272  1
  B  B31  1  0.500000  0.518324  0.712648  1
  B  B32  1  0.500000  0.598348  0.027303  1
  B  B33  1  0.500000  0.401679  0.972685  1
  B  B34  1  0.500000  0.098097  0.472755  1
  B  B35  1  0.500000  0.901672  0.527319  1
