# generated using pymatgen
data_Ho7Er3(Pb3O)2
_symmetry_space_group_name_H-M   'P 1'
_cell_length_a   9.06556128
_cell_length_b   9.05694101
_cell_length_c   9.06103262
_cell_angle_alpha   125.67895864
_cell_angle_beta   125.70677646
_cell_angle_gamma   80.36806210
_symmetry_Int_Tables_number   1
_chemical_formula_structural   Ho7Er3(Pb3O)2
_chemical_formula_sum   'Ho7 Er3 Pb6 O2'
_cell_volume   473.52279851
_cell_formula_units_Z   1
loop_
 _symmetry_equiv_pos_site_id
 _symmetry_equiv_pos_as_xyz
  1  'x, y, z'
loop_
 _atom_site_type_symbol
 _atom_site_label
 _atom_site_symmetry_multiplicity
 _atom_site_fract_x
 _atom_site_fract_y
 _atom_site_fract_z
 _atom_site_occupancy
  Ho  Ho0  1  0.998390  0.199439  0.500016  1
  Ho  Ho1  1  0.800715  0.300769  0.799133  1
  Ho  Ho2  1  0.498401  0.998339  0.798945  1
  Ho  Ho3  1  0.501605  0.001665  0.201001  1
  Ho  Ho4  1  0.001632  0.800571  0.499961  1
  Ho  Ho5  1  0.499963  0.500027  0.000036  1
  Ho  Ho6  1  0.000027  0.999965  0.000034  1
  Er  Er7  1  0.199789  0.699712  0.201803  1
  Er  Er8  1  0.699615  0.497999  0.500011  1
  Er  Er9  1  0.300366  0.502008  0.499950  1
  Pb  Pb10  1  0.851456  0.351446  0.202858  1
  Pb  Pb11  1  0.148598  0.648598  0.797637  1
  Pb  Pb12  1  0.350987  0.148949  0.499693  1
  Pb  Pb13  1  0.749913  0.749604  0.999432  1
  Pb  Pb14  1  0.648484  0.850533  0.499724  1
  Pb  Pb15  1  0.250216  0.250531  0.000690  1
  O  O16  1  0.749830  0.250765  0.500003  1
  O  O17  1  0.250011  0.749080  0.499073  1
