# generated using pymatgen
data_Ho4Er2TcBi2
_symmetry_space_group_name_H-M   'P 1'
_cell_length_a   8.25612705
_cell_length_b   8.25407288
_cell_length_c   4.27840700
_cell_angle_alpha   90.00000000
_cell_angle_beta   90.00000000
_cell_angle_gamma   119.99176601
_symmetry_Int_Tables_number   1
_chemical_formula_structural   Ho4Er2TcBi2
_chemical_formula_sum   'Ho4 Er2 Tc1 Bi2'
_cell_volume   252.51862870
_cell_formula_units_Z   1
loop_
 _symmetry_equiv_pos_site_id
 _symmetry_equiv_pos_as_xyz
  1  'x, y, z'
loop_
 _atom_site_type_symbol
 _atom_site_label
 _atom_site_symmetry_multiplicity
 _atom_site_fract_x
 _atom_site_fract_y
 _atom_site_fract_z
 _atom_site_occupancy
  Ho  Ho0  1  0.000000  0.609388  0.500000  1
  Ho  Ho1  1  0.391225  0.391033  0.500000  1
  Ho  Ho2  1  0.000000  0.231853  0.000000  1
  Ho  Ho3  1  0.608775  0.999809  0.500000  1
  Er  Er4  1  0.231712  0.999929  0.000000  1
  Er  Er5  1  0.768288  0.768217  0.000000  1
  Tc  Tc6  1  0.000000  0.999394  0.500000  1
  Bi  Bi7  1  0.333697  0.667038  0.000000  1
  Bi  Bi8  1  0.666303  0.333340  0.000000  1
