# generated using pymatgen
data_Dy4Fe4P12Ir13Rh3
_symmetry_space_group_name_H-M   'P 1'
_cell_length_a   3.91634300
_cell_length_b   10.71248224
_cell_length_c   12.42775333
_cell_angle_alpha   89.97453011
_cell_angle_beta   90.00000000
_cell_angle_gamma   90.00000000
_symmetry_Int_Tables_number   1
_chemical_formula_structural   Dy4Fe4P12Ir13Rh3
_chemical_formula_sum   'Dy4 Fe4 P12 Ir13 Rh3'
_cell_volume   521.39086509
_cell_formula_units_Z   1
loop_
 _symmetry_equiv_pos_site_id
 _symmetry_equiv_pos_as_xyz
  1  'x, y, z'
loop_
 _atom_site_type_symbol
 _atom_site_label
 _atom_site_symmetry_multiplicity
 _atom_site_fract_x
 _atom_site_fract_y
 _atom_site_fract_z
 _atom_site_occupancy
  Dy  Dy0  1  0.250000  0.582402  0.711190  1
  Dy  Dy1  1  0.250000  0.918531  0.211228  1
  Dy  Dy2  1  0.750000  0.419047  0.288998  1
  Dy  Dy3  1  0.750000  0.081203  0.790239  1
  Fe  Fe4  1  0.250000  0.459024  0.931839  1
  Fe  Fe5  1  0.250000  0.044668  0.434654  1
  Fe  Fe6  1  0.750000  0.540115  0.067145  1
  Fe  Fe7  1  0.750000  0.962108  0.568639  1
  P  P8  1  0.250000  0.431575  0.104391  1
  P  P9  1  0.250000  0.067186  0.606571  1
  P  P10  1  0.750000  0.567458  0.894724  1
  P  P11  1  0.750000  0.930769  0.396357  1
  P  P12  1  0.250000  0.268792  0.868209  1
  P  P13  1  0.250000  0.231633  0.367729  1
  P  P14  1  0.750000  0.730656  0.131028  1
  P  P15  1  0.750000  0.769552  0.630891  1
  P  P16  1  0.250000  0.599913  0.386762  1
  P  P17  1  0.250000  0.900074  0.887365  1
  P  P18  1  0.750000  0.402102  0.613774  1
  P  P19  1  0.750000  0.098691  0.112930  1
  Ir  Ir20  1  0.750000  0.221537  0.511410  1
  Ir  Ir21  1  0.250000  0.408675  0.476434  1
  Ir  Ir22  1  0.250000  0.091292  0.976722  1
  Ir  Ir23  1  0.750000  0.590907  0.522887  1
  Ir  Ir24  1  0.750000  0.908399  0.022924  1
  Ir  Ir25  1  0.250000  0.234065  0.177014  1
  Ir  Ir26  1  0.250000  0.265352  0.674427  1
  Ir  Ir27  1  0.750000  0.765704  0.824085  1
  Ir  Ir28  1  0.750000  0.733924  0.323252  1
  Ir  Ir29  1  0.250000  0.880372  0.700405  1
  Ir  Ir30  1  0.250000  0.618163  0.199982  1
  Ir  Ir31  1  0.750000  0.116704  0.299658  1
  Ir  Ir32  1  0.750000  0.379773  0.799384  1
  Rh  Rh33  1  0.250000  0.719543  0.987367  1
  Rh  Rh34  1  0.250000  0.780425  0.486311  1
  Rh  Rh35  1  0.750000  0.279664  0.013075  1
