# generated using pymatgen
data_NdDy2PaPt4
_symmetry_space_group_name_H-M   'P 1'
_cell_length_a   4.58463600
_cell_length_b   5.63973250
_cell_length_c   7.08261777
_cell_angle_alpha   92.02777237
_cell_angle_beta   90.00000000
_cell_angle_gamma   90.00000000
_symmetry_Int_Tables_number   1
_chemical_formula_structural   NdDy2PaPt4
_chemical_formula_sum   'Nd1 Dy2 Pa1 Pt4'
_cell_volume   183.01434294
_cell_formula_units_Z   1
loop_
 _symmetry_equiv_pos_site_id
 _symmetry_equiv_pos_as_xyz
  1  'x, y, z'
loop_
 _atom_site_type_symbol
 _atom_site_label
 _atom_site_symmetry_multiplicity
 _atom_site_fract_x
 _atom_site_fract_y
 _atom_site_fract_z
 _atom_site_occupancy
  Nd  Nd0  1  0.750000  0.855594  0.814523  1
  Dy  Dy1  1  0.250000  0.355685  0.682425  1
  Dy  Dy2  1  0.250000  0.146053  0.182332  1
  Pa  Pa3  1  0.750000  0.643844  0.317523  1
  Pt  Pt4  1  0.250000  0.830824  0.527056  1
  Pt  Pt5  1  0.250000  0.652097  0.065042  1
  Pt  Pt6  1  0.750000  0.166625  0.444857  1
  Pt  Pt7  1  0.750000  0.349279  0.966243  1
