# generated using pymatgen
data_KRb3Sn2Se5
_symmetry_space_group_name_H-M   'P 1'
_cell_length_a   8.14179686
_cell_length_b   9.47900852
_cell_length_c   12.11687911
_cell_angle_alpha   73.58093911
_cell_angle_beta   70.38362919
_cell_angle_gamma   80.95210128
_symmetry_Int_Tables_number   1
_chemical_formula_structural   KRb3Sn2Se5
_chemical_formula_sum   'K2 Rb6 Sn4 Se10'
_cell_volume   842.92391419
_cell_formula_units_Z   2
loop_
 _symmetry_equiv_pos_site_id
 _symmetry_equiv_pos_as_xyz
  1  'x, y, z'
loop_
 _atom_site_type_symbol
 _atom_site_label
 _atom_site_symmetry_multiplicity
 _atom_site_fract_x
 _atom_site_fract_y
 _atom_site_fract_z
 _atom_site_occupancy
  K  K0  1  0.275699  0.500675  0.899801  1
  K  K1  1  0.724301  0.499325  0.100199  1
  Rb  Rb2  1  0.204002  0.000963  0.593634  1
  Rb  Rb3  1  0.795998  0.999037  0.406366  1
  Rb  Rb4  1  0.918518  0.514381  0.687645  1
  Rb  Rb5  1  0.081482  0.485619  0.312355  1
  Rb  Rb6  1  0.500000  0.500000  0.500000  1
  Rb  Rb7  1  0.000000  0.000000  0.000000  1
  Sn  Sn8  1  0.429391  0.843190  0.224319  1
  Sn  Sn9  1  0.570609  0.156810  0.775681  1
  Sn  Sn10  1  0.381699  0.158752  0.161251  1
  Sn  Sn11  1  0.618301  0.841248  0.838749  1
  Se  Se12  1  0.076193  0.247523  0.148351  1
  Se  Se13  1  0.923807  0.752477  0.851649  1
  Se  Se14  1  0.621749  0.256419  0.947622  1
  Se  Se15  1  0.378251  0.743581  0.052378  1
  Se  Se16  1  0.820828  0.243670  0.584344  1
  Se  Se17  1  0.179172  0.756330  0.415656  1
  Se  Se18  1  0.538910  0.748339  0.687260  1
  Se  Se19  1  0.461090  0.251661  0.312740  1
  Se  Se20  1  0.271926  0.249506  0.751758  1
  Se  Se21  1  0.728074  0.750494  0.248242  1
