# generated using pymatgen
data_Ho4Er6IrPt5
_symmetry_space_group_name_H-M   'P 1'
_cell_length_a   10.96660600
_cell_length_b   10.96660600
_cell_length_c   6.36631200
_cell_angle_alpha   90.00000000
_cell_angle_beta   90.00000000
_cell_angle_gamma   90.00000000
_symmetry_Int_Tables_number   1
_chemical_formula_structural   Ho4Er6IrPt5
_chemical_formula_sum   'Ho8 Er12 Ir2 Pt10'
_cell_volume   765.65372575
_cell_formula_units_Z   2
loop_
 _symmetry_equiv_pos_site_id
 _symmetry_equiv_pos_as_xyz
  1  'x, y, z'
loop_
 _atom_site_type_symbol
 _atom_site_label
 _atom_site_symmetry_multiplicity
 _atom_site_fract_x
 _atom_site_fract_y
 _atom_site_fract_z
 _atom_site_occupancy
  Ho  Ho0  1  0.291761  0.088101  0.376338  1
  Ho  Ho1  1  0.291761  0.911899  0.876338  1
  Ho  Ho2  1  0.708239  0.088101  0.876338  1
  Ho  Ho3  1  0.708239  0.911899  0.376338  1
  Ho  Ho4  1  0.588101  0.791761  0.876338  1
  Ho  Ho5  1  0.588101  0.208239  0.376338  1
  Ho  Ho6  1  0.411899  0.791761  0.376338  1
  Ho  Ho7  1  0.411899  0.208239  0.876338  1
  Er  Er8  1  0.205352  0.412780  0.623956  1
  Er  Er9  1  0.205352  0.587220  0.123956  1
  Er  Er10  1  0.794648  0.412780  0.123956  1
  Er  Er11  1  0.794648  0.587220  0.623956  1
  Er  Er12  1  0.912780  0.705352  0.123956  1
  Er  Er13  1  0.912780  0.294648  0.623956  1
  Er  Er14  1  0.087220  0.705352  0.623956  1
  Er  Er15  1  0.087220  0.294648  0.123956  1
  Er  Er16  1  0.000000  0.000000  0.500772  1
  Er  Er17  1  0.000000  0.000000  0.000772  1
  Er  Er18  1  0.500000  0.500000  0.000772  1
  Er  Er19  1  0.500000  0.500000  0.500772  1
  Ir  Ir20  1  0.000000  0.500000  0.879617  1
  Ir  Ir21  1  0.000000  0.500000  0.379617  1
  Pt  Pt22  1  0.846588  0.153342  0.250285  1
  Pt  Pt23  1  0.846588  0.846658  0.750285  1
  Pt  Pt24  1  0.153412  0.153342  0.750285  1
  Pt  Pt25  1  0.153412  0.846658  0.250285  1
  Pt  Pt26  1  0.653342  0.346588  0.750285  1
  Pt  Pt27  1  0.653342  0.653412  0.250285  1
  Pt  Pt28  1  0.346658  0.346588  0.250285  1
  Pt  Pt29  1  0.346658  0.653412  0.750285  1
  Pt  Pt30  1  0.500000  0.000000  0.116519  1
  Pt  Pt31  1  0.500000  0.000000  0.616519  1
