# generated using pymatgen
data_Hf18BeRe8B
_symmetry_space_group_name_H-M   'P 1'
_cell_length_a   8.46310300
_cell_length_b   8.46310308
_cell_length_c   8.60790900
_cell_angle_alpha   90.00000000
_cell_angle_beta   90.00000000
_cell_angle_gamma   120.00000358
_symmetry_Int_Tables_number   1
_chemical_formula_structural   Hf18BeRe8B
_chemical_formula_sum   'Hf18 Be1 Re8 B1'
_cell_volume   533.93395511
_cell_formula_units_Z   1
loop_
 _symmetry_equiv_pos_site_id
 _symmetry_equiv_pos_as_xyz
  1  'x, y, z'
loop_
 _atom_site_type_symbol
 _atom_site_label
 _atom_site_symmetry_multiplicity
 _atom_site_fract_x
 _atom_site_fract_y
 _atom_site_fract_z
 _atom_site_occupancy
  Hf  Hf0  1  0.198558  0.801442  0.447445  1
  Hf  Hf1  1  0.198558  0.397117  0.447445  1
  Hf  Hf2  1  0.602883  0.801442  0.447445  1
  Hf  Hf3  1  0.798933  0.201067  0.555722  1
  Hf  Hf4  1  0.798933  0.597865  0.555722  1
  Hf  Hf5  1  0.402135  0.201067  0.555722  1
  Hf  Hf6  1  0.798933  0.201067  0.944278  1
  Hf  Hf7  1  0.798933  0.597865  0.944278  1
  Hf  Hf8  1  0.402135  0.201067  0.944278  1
  Hf  Hf9  1  0.198558  0.801442  0.052555  1
  Hf  Hf10  1  0.198558  0.397117  0.052555  1
  Hf  Hf11  1  0.602883  0.801442  0.052555  1
  Hf  Hf12  1  0.540807  0.459193  0.250000  1
  Hf  Hf13  1  0.540807  0.081615  0.250000  1
  Hf  Hf14  1  0.918385  0.459193  0.250000  1
  Hf  Hf15  1  0.460102  0.539898  0.750000  1
  Hf  Hf16  1  0.460102  0.920204  0.750000  1
  Hf  Hf17  1  0.079796  0.539898  0.750000  1
  Be  Be18  1  0.333333  0.666667  0.250000  1
  Re  Re19  1  0.889256  0.110744  0.250000  1
  Re  Re20  1  0.889256  0.778513  0.250000  1
  Re  Re21  1  0.221487  0.110744  0.250000  1
  Re  Re22  1  0.110362  0.889638  0.750000  1
  Re  Re23  1  0.110362  0.220724  0.750000  1
  Re  Re24  1  0.779276  0.889638  0.750000  1
  Re  Re25  1  0.000000  0.000000  0.499800  1
  Re  Re26  1  0.000000  0.000000  0.000200  1
  B  B27  1  0.666667  0.333333  0.750000  1
