# generated using pymatgen
data_SrNdNi2(AsH2)2
_symmetry_space_group_name_H-M   'P 1'
_cell_length_a   4.20550400
_cell_length_b   4.20550374
_cell_length_c   8.51703800
_cell_angle_alpha   90.00000000
_cell_angle_beta   90.00000000
_cell_angle_gamma   120.00000204
_symmetry_Int_Tables_number   1
_chemical_formula_structural   SrNdNi2(AsH2)2
_chemical_formula_sum   'Sr1 Nd1 Ni2 As2 H4'
_cell_volume   130.45336367
_cell_formula_units_Z   1
loop_
 _symmetry_equiv_pos_site_id
 _symmetry_equiv_pos_as_xyz
  1  'x, y, z'
loop_
 _atom_site_type_symbol
 _atom_site_label
 _atom_site_symmetry_multiplicity
 _atom_site_fract_x
 _atom_site_fract_y
 _atom_site_fract_z
 _atom_site_occupancy
  Sr  Sr0  1  0.000000  0.000000  0.000000  1
  Nd  Nd1  1  0.000000  0.000000  0.500000  1
  Ni  Ni2  1  0.666667  0.333333  0.260481  1
  Ni  Ni3  1  0.333333  0.666667  0.739519  1
  As  As4  1  0.333333  0.666667  0.257272  1
  As  As5  1  0.666667  0.333333  0.742728  1
  H  H6  1  0.333333  0.666667  0.923342  1
  H  H7  1  0.666667  0.333333  0.076658  1
  H  H8  1  0.333333  0.666667  0.554075  1
  H  H9  1  0.666667  0.333333  0.445925  1
