# generated using pymatgen
data_Al4ZnRh5
_symmetry_space_group_name_H-M   'P 1'
_cell_length_a   2.99988500
_cell_length_b   2.99988500
_cell_length_c   15.17706600
_cell_angle_alpha   90.00000000
_cell_angle_beta   90.00000000
_cell_angle_gamma   90.00000000
_symmetry_Int_Tables_number   1
_chemical_formula_structural   Al4ZnRh5
_chemical_formula_sum   'Al4 Zn1 Rh5'
_cell_volume   136.58312203
_cell_formula_units_Z   1
loop_
 _symmetry_equiv_pos_site_id
 _symmetry_equiv_pos_as_xyz
  1  'x, y, z'
loop_
 _atom_site_type_symbol
 _atom_site_label
 _atom_site_symmetry_multiplicity
 _atom_site_fract_x
 _atom_site_fract_y
 _atom_site_fract_z
 _atom_site_occupancy
  Al  Al0  1  0.500000  0.500000  0.197836  1
  Al  Al1  1  0.500000  0.500000  0.399724  1
  Al  Al2  1  0.500000  0.500000  0.600276  1
  Al  Al3  1  0.500000  0.500000  0.802164  1
  Zn  Zn4  1  0.500000  0.500000  0.000000  1
  Rh  Rh5  1  0.000000  0.000000  0.895140  1
  Rh  Rh6  1  0.000000  0.000000  0.104860  1
  Rh  Rh7  1  0.000000  0.000000  0.301973  1
  Rh  Rh8  1  0.000000  0.000000  0.500000  1
  Rh  Rh9  1  0.000000  0.000000  0.698027  1
