# generated using pymatgen
data_Tb6Ho10CdIn3Ir4
_symmetry_space_group_name_H-M   'P 1'
_cell_length_a   9.63700096
_cell_length_b   9.65066892
_cell_length_c   9.65066900
_cell_angle_alpha   59.99999630
_cell_angle_beta   59.95306888
_cell_angle_gamma   59.95307429
_symmetry_Int_Tables_number   1
_chemical_formula_structural   Tb6Ho10CdIn3Ir4
_chemical_formula_sum   'Tb6 Ho10 Cd1 In3 Ir4'
_cell_volume   634.21032785
_cell_formula_units_Z   1
loop_
 _symmetry_equiv_pos_site_id
 _symmetry_equiv_pos_as_xyz
  1  'x, y, z'
loop_
 _atom_site_type_symbol
 _atom_site_label
 _atom_site_symmetry_multiplicity
 _atom_site_fract_x
 _atom_site_fract_y
 _atom_site_fract_z
 _atom_site_occupancy
  Tb  Tb0  1  0.189315  0.811790  0.811790  1
  Tb  Tb1  1  0.812077  0.188551  0.188551  1
  Tb  Tb2  1  0.812077  0.188551  0.810820  1
  Tb  Tb3  1  0.189315  0.811790  0.187107  1
  Tb  Tb4  1  0.812077  0.810820  0.188551  1
  Tb  Tb5  1  0.189315  0.187107  0.811790  1
  Ho  Ho6  1  0.599067  0.598765  0.598765  1
  Ho  Ho7  1  0.599067  0.598765  0.203404  1
  Ho  Ho8  1  0.599067  0.203404  0.598765  1
  Ho  Ho9  1  0.203063  0.598979  0.598979  1
  Ho  Ho10  1  0.059647  0.440173  0.440173  1
  Ho  Ho11  1  0.439641  0.060620  0.060620  1
  Ho  Ho12  1  0.439641  0.060620  0.439120  1
  Ho  Ho13  1  0.059647  0.440173  0.060007  1
  Ho  Ho14  1  0.439641  0.439120  0.060620  1
  Ho  Ho15  1  0.059647  0.060007  0.440173  1
  Cd  Cd16  1  0.504139  0.831954  0.831954  1
  In  In17  1  0.831509  0.832682  0.832682  1
  In  In18  1  0.831509  0.832682  0.503129  1
  In  In19  1  0.831509  0.503129  0.832682  1
  Ir  Ir20  1  0.391217  0.391223  0.391223  1
  Ir  Ir21  1  0.391217  0.391223  0.826336  1
  Ir  Ir22  1  0.391217  0.826336  0.391223  1
  Ir  Ir23  1  0.825383  0.391539  0.391539  1
