# generated using pymatgen
data_TlTcBr6
_symmetry_space_group_name_H-M   'P 1'
_cell_length_a   7.18352910
_cell_length_b   7.18738347
_cell_length_c   7.81165936
_cell_angle_alpha   89.73231308
_cell_angle_beta   116.59005947
_cell_angle_gamma   120.01199816
_symmetry_Int_Tables_number   1
_chemical_formula_structural   TlTcBr6
_chemical_formula_sum   'Tl1 Tc1 Br6'
_cell_volume   299.52995831
_cell_formula_units_Z   1
loop_
 _symmetry_equiv_pos_site_id
 _symmetry_equiv_pos_as_xyz
  1  'x, y, z'
loop_
 _atom_site_type_symbol
 _atom_site_label
 _atom_site_symmetry_multiplicity
 _atom_site_fract_x
 _atom_site_fract_y
 _atom_site_fract_z
 _atom_site_occupancy
  Tl  Tl0  1  0.239612  0.620785  0.859808  1
  Tc  Tc1  1  0.579932  0.289892  0.870014  1
  Br  Br2  1  0.439987  0.072193  0.090113  1
  Br  Br3  1  0.147315  0.209489  0.652488  1
  Br  Br4  1  0.716832  0.508057  0.648469  1
  Br  Br5  1  0.449237  0.939955  0.651550  1
  Br  Br6  1  0.716371  0.643389  0.086988  1
  Br  Br7  1  0.009715  0.365739  0.089073  1
