# generated using pymatgen
data_Y4Lu5ScCd3Ru
_symmetry_space_group_name_H-M   'P 1'
_cell_length_a   9.44467633
_cell_length_b   9.44467651
_cell_length_c   9.66680409
_cell_angle_alpha   89.92084247
_cell_angle_beta   90.07915996
_cell_angle_gamma   120.01547024
_symmetry_Int_Tables_number   1
_chemical_formula_structural   Y4Lu5ScCd3Ru
_chemical_formula_sum   'Y8 Lu10 Sc2 Cd6 Ru2'
_cell_volume   746.65407572
_cell_formula_units_Z   2
loop_
 _symmetry_equiv_pos_site_id
 _symmetry_equiv_pos_as_xyz
  1  'x, y, z'
loop_
 _atom_site_type_symbol
 _atom_site_label
 _atom_site_symmetry_multiplicity
 _atom_site_fract_x
 _atom_site_fract_y
 _atom_site_fract_z
 _atom_site_occupancy
  Y  Y0  1  0.207521  0.416204  0.058613  1
  Y  Y1  1  0.583796  0.792479  0.058613  1
  Y  Y2  1  0.541262  0.458738  0.251501  1
  Y  Y3  1  0.539860  0.080829  0.250749  1
  Y  Y4  1  0.919171  0.460140  0.250749  1
  Y  Y5  1  0.460386  0.539614  0.748044  1
  Y  Y6  1  0.459471  0.919988  0.748826  1
  Y  Y7  1  0.080012  0.540529  0.748826  1
  Lu  Lu8  1  0.209257  0.790743  0.441066  1
  Lu  Lu9  1  0.209083  0.418545  0.441745  1
  Lu  Lu10  1  0.581455  0.790917  0.441745  1
  Lu  Lu11  1  0.790663  0.209337  0.559155  1
  Lu  Lu12  1  0.790819  0.581264  0.559070  1
  Lu  Lu13  1  0.418736  0.209181  0.559070  1
  Lu  Lu14  1  0.790287  0.209713  0.940289  1
  Lu  Lu15  1  0.791013  0.580572  0.940547  1
  Lu  Lu16  1  0.419428  0.208987  0.940547  1
  Lu  Lu17  1  0.208200  0.791800  0.059322  1
  Sc  Sc18  1  0.000012  0.999988  0.499743  1
  Sc  Sc19  1  0.000696  0.999304  0.999511  1
  Cd  Cd20  1  0.889038  0.110962  0.250173  1
  Cd  Cd21  1  0.889264  0.778336  0.250161  1
  Cd  Cd22  1  0.221664  0.110736  0.250161  1
  Cd  Cd23  1  0.110923  0.889077  0.749820  1
  Cd  Cd24  1  0.110779  0.221563  0.749743  1
  Cd  Cd25  1  0.778437  0.889221  0.749743  1
  Ru  Ru26  1  0.332166  0.667834  0.252642  1
  Ru  Ru27  1  0.666603  0.333397  0.749825  1
