# generated using pymatgen
data_Ho4B16MoW3
_symmetry_space_group_name_H-M   'P 1'
_cell_length_a   3.61993100
_cell_length_b   6.02528800
_cell_length_c   11.64529100
_cell_angle_alpha   89.99837531
_cell_angle_beta   90.00000000
_cell_angle_gamma   90.00000000
_symmetry_Int_Tables_number   1
_chemical_formula_structural   Ho4B16MoW3
_chemical_formula_sum   'Ho4 B16 Mo1 W3'
_cell_volume   253.99691875
_cell_formula_units_Z   1
loop_
 _symmetry_equiv_pos_site_id
 _symmetry_equiv_pos_as_xyz
  1  'x, y, z'
loop_
 _atom_site_type_symbol
 _atom_site_label
 _atom_site_symmetry_multiplicity
 _atom_site_fract_x
 _atom_site_fract_y
 _atom_site_fract_z
 _atom_site_occupancy
  Ho  Ho0  1  0.000000  0.627287  0.350653  1
  Ho  Ho1  1  0.000000  0.373157  0.649555  1
  Ho  Ho2  1  0.000000  0.127020  0.149453  1
  Ho  Ho3  1  0.000000  0.872930  0.850165  1
  B  B4  1  0.500000  0.787417  0.186618  1
  B  B5  1  0.500000  0.212422  0.813199  1
  B  B6  1  0.500000  0.287420  0.313325  1
  B  B7  1  0.500000  0.713311  0.686269  1
  B  B8  1  0.500000  0.866795  0.031938  1
  B  B9  1  0.500000  0.133151  0.968024  1
  B  B10  1  0.500000  0.367215  0.468332  1
  B  B11  1  0.500000  0.633395  0.532189  1
  B  B12  1  0.500000  0.885512  0.452702  1
  B  B13  1  0.500000  0.113903  0.547780  1
  B  B14  1  0.500000  0.385833  0.047473  1
  B  B15  1  0.500000  0.614187  0.952464  1
  B  B16  1  0.500000  0.975916  0.306399  1
  B  B17  1  0.500000  0.023210  0.693513  1
  B  B18  1  0.500000  0.476299  0.193533  1
  B  B19  1  0.500000  0.524021  0.806316  1
  Mo  Mo20  1  0.000000  0.869365  0.584327  1
  W  W21  1  0.000000  0.630932  0.084831  1
  W  W22  1  0.000000  0.369001  0.915201  1
  W  W23  1  0.000000  0.130302  0.415741  1
