# generated using pymatgen
data_Mo(SeO3)2
_symmetry_space_group_name_H-M   'P 1'
_cell_length_a   9.33414679
_cell_length_b   9.33414632
_cell_length_c   9.33414606
_cell_angle_alpha   107.66445146
_cell_angle_beta   107.66444648
_cell_angle_gamma   113.14853464
_symmetry_Int_Tables_number   1
_chemical_formula_structural   Mo(SeO3)2
_chemical_formula_sum   'Mo4 Se8 O24'
_cell_volume   624.09250029
_cell_formula_units_Z   4
loop_
 _symmetry_equiv_pos_site_id
 _symmetry_equiv_pos_as_xyz
  1  'x, y, z'
loop_
 _atom_site_type_symbol
 _atom_site_label
 _atom_site_symmetry_multiplicity
 _atom_site_fract_x
 _atom_site_fract_y
 _atom_site_fract_z
 _atom_site_occupancy
  Mo  Mo0  1  0.625000  0.581872  0.456872  1
  Mo  Mo1  1  0.125000  0.168128  0.543128  1
  Mo  Mo2  1  0.418128  0.875000  0.043128  1
  Mo  Mo3  1  0.831872  0.375000  0.956872  1
  Se  Se4  1  0.850321  0.133953  0.171261  1
  Se  Se5  1  0.399679  0.070940  0.783632  1
  Se  Se6  1  0.929060  0.712692  0.328739  1
  Se  Se7  1  0.287308  0.616047  0.216368  1
  Se  Se8  1  0.866047  0.037308  0.716368  1
  Se  Se9  1  0.383953  0.600321  0.671261  1
  Se  Se10  1  0.320940  0.149679  0.283632  1
  Se  Se11  1  0.962692  0.679060  0.828739  1
  O  O12  1  0.401150  0.053870  0.964560  1
  O  O13  1  0.842013  0.457458  0.780773  1
  O  O14  1  0.160689  0.696130  0.847279  1
  O  O15  1  0.505105  0.783445  0.871537  1
  O  O16  1  0.848850  0.313410  0.152721  1
  O  O17  1  0.911907  0.633566  0.128463  1
  O  O18  1  0.707458  0.592013  0.280773  1
  O  O19  1  0.744895  0.116434  0.778341  1
  O  O20  1  0.303870  0.151150  0.464560  1
  O  O21  1  0.946130  0.910689  0.347279  1
  O  O22  1  0.089311  0.436590  0.035440  1
  O  O23  1  0.407987  0.688761  0.115445  1
  O  O24  1  0.366434  0.494895  0.278341  1
  O  O25  1  0.883566  0.661907  0.628463  1
  O  O26  1  0.033445  0.255105  0.371537  1
  O  O27  1  0.216555  0.088093  0.721659  1
  O  O28  1  0.573316  0.292542  0.884555  1
  O  O29  1  0.676684  0.061239  0.219227  1
  O  O30  1  0.542542  0.323316  0.384555  1
  O  O31  1  0.686590  0.839311  0.535440  1
  O  O32  1  0.563410  0.598850  0.652721  1
  O  O33  1  0.338093  0.966555  0.221659  1
  O  O34  1  0.938761  0.157987  0.615445  1
  O  O35  1  0.311239  0.426684  0.719227  1
