# generated using pymatgen
data_Ca4ErTm(RuO6)2
_symmetry_space_group_name_H-M   'P 1'
_cell_length_a   5.77817011
_cell_length_b   5.58523306
_cell_length_c   9.72203252
_cell_angle_alpha   55.48946026
_cell_angle_beta   89.97787451
_cell_angle_gamma   89.98487773
_symmetry_Int_Tables_number   1
_chemical_formula_structural   Ca4ErTm(RuO6)2
_chemical_formula_sum   'Ca4 Er1 Tm1 Ru2 O12'
_cell_volume   258.53982882
_cell_formula_units_Z   1
loop_
 _symmetry_equiv_pos_site_id
 _symmetry_equiv_pos_as_xyz
  1  'x, y, z'
loop_
 _atom_site_type_symbol
 _atom_site_label
 _atom_site_symmetry_multiplicity
 _atom_site_fract_x
 _atom_site_fract_y
 _atom_site_fract_z
 _atom_site_occupancy
  Ca  Ca0  1  0.554922  0.735368  0.749632  1
  Ca  Ca1  1  0.054591  0.265601  0.749389  1
  Ca  Ca2  1  0.945409  0.734399  0.250611  1
  Ca  Ca3  1  0.445078  0.264632  0.250368  1
  Er  Er4  1  0.500000  0.000000  0.000000  1
  Tm  Tm5  1  0.000000  0.000000  0.500000  1
  Ru  Ru6  1  0.000000  0.500000  0.000000  1
  Ru  Ru7  1  0.500000  0.500000  0.500000  1
  O  O8  1  0.540658  0.840739  0.265897  1
  O  O9  1  0.040452  0.158897  0.234968  1
  O  O10  1  0.459342  0.159261  0.734103  1
  O  O11  1  0.959548  0.841103  0.765032  1
  O  O12  1  0.785370  0.624463  0.558435  1
  O  O13  1  0.285386  0.377117  0.941180  1
  O  O14  1  0.214630  0.375537  0.441565  1
  O  O15  1  0.714614  0.622883  0.058820  1
  O  O16  1  0.187904  0.732092  0.054186  1
  O  O17  1  0.688895  0.267580  0.446152  1
  O  O18  1  0.812096  0.267908  0.945814  1
  O  O19  1  0.311105  0.732420  0.553848  1
