# generated using pymatgen
data_EuEr(SiPd2)2
_symmetry_space_group_name_H-M   'P 1'
_cell_length_a   5.55105000
_cell_length_b   6.99458100
_cell_length_c   7.42462500
_cell_angle_alpha   90.00000000
_cell_angle_beta   90.00000000
_cell_angle_gamma   90.00000000
_symmetry_Int_Tables_number   1
_chemical_formula_structural   EuEr(SiPd2)2
_chemical_formula_sum   'Eu2 Er2 Si4 Pd8'
_cell_volume   288.27791106
_cell_formula_units_Z   2
loop_
 _symmetry_equiv_pos_site_id
 _symmetry_equiv_pos_as_xyz
  1  'x, y, z'
loop_
 _atom_site_type_symbol
 _atom_site_label
 _atom_site_symmetry_multiplicity
 _atom_site_fract_x
 _atom_site_fract_y
 _atom_site_fract_z
 _atom_site_occupancy
  Eu  Eu0  1  0.134099  0.750000  0.529090  1
  Eu  Eu1  1  0.634099  0.250000  0.970910  1
  Er  Er2  1  0.856801  0.250000  0.473283  1
  Er  Er3  1  0.356801  0.750000  0.026717  1
  Si  Si4  1  0.858056  0.750000  0.880701  1
  Si  Si5  1  0.358056  0.250000  0.619299  1
  Si  Si6  1  0.137458  0.250000  0.127285  1
  Si  Si7  1  0.637458  0.750000  0.372715  1
  Pd  Pd8  1  0.907872  0.947467  0.176851  1
  Pd  Pd9  1  0.407872  0.052533  0.323149  1
  Pd  Pd10  1  0.098921  0.447282  0.826827  1
  Pd  Pd11  1  0.598921  0.552718  0.673173  1
  Pd  Pd12  1  0.098921  0.052718  0.826827  1
  Pd  Pd13  1  0.598921  0.947282  0.673173  1
  Pd  Pd14  1  0.907872  0.552533  0.176851  1
  Pd  Pd15  1  0.407872  0.447467  0.323149  1
