# generated using pymatgen
data_Ac2Pr2P7Ir8
_symmetry_space_group_name_H-M   'P 1'
_cell_length_a   4.03244200
_cell_length_b   13.02846263
_cell_length_c   13.40022499
_cell_angle_alpha   81.06417855
_cell_angle_beta   90.00000000
_cell_angle_gamma   90.00000000
_symmetry_Int_Tables_number   1
_chemical_formula_structural   Ac2Pr2P7Ir8
_chemical_formula_sum   'Ac4 Pr4 P14 Ir16'
_cell_volume   695.45668755
_cell_formula_units_Z   2
loop_
 _symmetry_equiv_pos_site_id
 _symmetry_equiv_pos_as_xyz
  1  'x, y, z'
loop_
 _atom_site_type_symbol
 _atom_site_label
 _atom_site_symmetry_multiplicity
 _atom_site_fract_x
 _atom_site_fract_y
 _atom_site_fract_z
 _atom_site_occupancy
  Ac  Ac0  1  0.250000  0.106348  0.788229  1
  Ac  Ac1  1  0.750000  0.893652  0.211771  1
  Ac  Ac2  1  0.250000  0.281715  0.105006  1
  Ac  Ac3  1  0.750000  0.718285  0.894994  1
  Pr  Pr4  1  0.250000  0.518077  0.293936  1
  Pr  Pr5  1  0.750000  0.481923  0.706064  1
  Pr  Pr6  1  0.250000  0.210002  0.439534  1
  Pr  Pr7  1  0.750000  0.789998  0.560466  1
  P  P8  1  0.250000  0.053591  0.096770  1
  P  P9  1  0.750000  0.946409  0.903230  1
  P  P10  1  0.250000  0.318339  0.684066  1
  P  P11  1  0.750000  0.681661  0.315934  1
  P  P12  1  0.250000  0.606759  0.562179  1
  P  P13  1  0.750000  0.393241  0.437821  1
  P  P14  1  0.250000  0.845041  0.715957  1
  P  P15  1  0.750000  0.154959  0.284043  1
  P  P16  1  0.750000  0.258563  0.915834  1
  P  P17  1  0.250000  0.741437  0.084166  1
  P  P18  1  0.750000  0.091324  0.587841  1
  P  P19  1  0.250000  0.908676  0.412159  1
  P  P20  1  0.750000  0.474844  0.127858  1
  P  P21  1  0.250000  0.525156  0.872142  1
  Ir  Ir22  1  0.250000  0.988280  0.575603  1
  Ir  Ir23  1  0.750000  0.011720  0.424397  1
  Ir  Ir24  1  0.250000  0.662773  0.728282  1
  Ir  Ir25  1  0.750000  0.337227  0.271718  1
  Ir  Ir26  1  0.250000  0.549657  0.049545  1
  Ir  Ir27  1  0.750000  0.450343  0.950455  1
  Ir  Ir28  1  0.250000  0.062530  0.273804  1
  Ir  Ir29  1  0.750000  0.937470  0.726196  1
  Ir  Ir30  1  0.250000  0.424515  0.525468  1
  Ir  Ir31  1  0.750000  0.575485  0.474532  1
  Ir  Ir32  1  0.250000  0.916207  0.998782  1
  Ir  Ir33  1  0.750000  0.083793  0.001218  1
  Ir  Ir34  1  0.250000  0.726792  0.398077  1
  Ir  Ir35  1  0.750000  0.273208  0.601923  1
  Ir  Ir36  1  0.250000  0.343578  0.856995  1
  Ir  Ir37  1  0.750000  0.656422  0.143005  1
