# generated using pymatgen
data_TbHo2TmIn4
_symmetry_space_group_name_H-M   'P 1'
_cell_length_a   6.48663124
_cell_length_b   6.48663266
_cell_length_c   10.30299000
_cell_angle_alpha   90.00000000
_cell_angle_beta   90.00000000
_cell_angle_gamma   103.84630752
_symmetry_Int_Tables_number   1
_chemical_formula_structural   TbHo2TmIn4
_chemical_formula_sum   'Tb2 Ho4 Tm2 In8'
_cell_volume   420.91529891
_cell_formula_units_Z   2
loop_
 _symmetry_equiv_pos_site_id
 _symmetry_equiv_pos_as_xyz
  1  'x, y, z'
loop_
 _atom_site_type_symbol
 _atom_site_label
 _atom_site_symmetry_multiplicity
 _atom_site_fract_x
 _atom_site_fract_y
 _atom_site_fract_z
 _atom_site_occupancy
  Tb  Tb0  1  0.751957  0.248043  0.500000  1
  Tb  Tb1  1  0.751957  0.248043  0.000000  1
  Ho  Ho2  1  0.523756  0.524340  0.250000  1
  Ho  Ho3  1  0.475660  0.476244  0.750000  1
  Ho  Ho4  1  0.248076  0.751924  0.500000  1
  Ho  Ho5  1  0.248076  0.751924  0.000000  1
  Tm  Tm6  1  0.982200  0.981636  0.250000  1
  Tm  Tm7  1  0.018364  0.017800  0.750000  1
  In  In8  1  0.250928  0.250880  0.013295  1
  In  In9  1  0.749120  0.749072  0.986705  1
  In  In10  1  0.250928  0.250880  0.486705  1
  In  In11  1  0.749120  0.749072  0.513295  1
  In  In12  1  0.486222  0.014291  0.250000  1
  In  In13  1  0.985709  0.513778  0.750000  1
  In  In14  1  0.512885  0.984957  0.750000  1
  In  In15  1  0.015043  0.487115  0.250000  1
