# generated using pymatgen
data_Rb12TaV3Te16
_symmetry_space_group_name_H-M   'P 1'
_cell_length_a   10.37282400
_cell_length_b   10.40409253
_cell_length_c   11.85686400
_cell_angle_alpha   90.00000000
_cell_angle_beta   90.00000000
_cell_angle_gamma   90.14328238
_symmetry_Int_Tables_number   1
_chemical_formula_structural   Rb12TaV3Te16
_chemical_formula_sum   'Rb12 Ta1 V3 Te16'
_cell_volume   1279.58663603
_cell_formula_units_Z   1
loop_
 _symmetry_equiv_pos_site_id
 _symmetry_equiv_pos_as_xyz
  1  'x, y, z'
loop_
 _atom_site_type_symbol
 _atom_site_label
 _atom_site_symmetry_multiplicity
 _atom_site_fract_x
 _atom_site_fract_y
 _atom_site_fract_z
 _atom_site_occupancy
  Rb  Rb0  1  0.366926  0.594131  0.750000  1
  Rb  Rb1  1  0.137524  0.093984  0.250000  1
  Rb  Rb2  1  0.636150  0.406935  0.250000  1
  Rb  Rb3  1  0.862462  0.902073  0.750000  1
  Rb  Rb4  1  0.951882  0.703290  0.454212  1
  Rb  Rb5  1  0.449125  0.800235  0.044825  1
  Rb  Rb6  1  0.548002  0.200491  0.542545  1
  Rb  Rb7  1  0.050491  0.296262  0.956630  1
  Rb  Rb8  1  0.050491  0.296262  0.543370  1
  Rb  Rb9  1  0.548002  0.200491  0.957455  1
  Rb  Rb10  1  0.449125  0.800235  0.455175  1
  Rb  Rb11  1  0.951882  0.703290  0.045788  1
  Ta  Ta12  1  0.784439  0.481960  0.750000  1
  V  V13  1  0.214260  0.517413  0.250000  1
  V  V14  1  0.715686  0.982307  0.250000  1
  V  V15  1  0.284401  0.019032  0.750000  1
  Te  Te16  1  0.332250  0.449414  0.423541  1
  Te  Te17  1  0.662480  0.552442  0.932658  1
  Te  Te18  1  0.834105  0.049421  0.075712  1
  Te  Te19  1  0.165812  0.951931  0.575864  1
  Te  Te20  1  0.017832  0.581335  0.750000  1
  Te  Te21  1  0.507134  0.922284  0.750000  1
  Te  Te22  1  0.492298  0.079130  0.250000  1
  Te  Te23  1  0.990863  0.421195  0.250000  1
  Te  Te24  1  0.802628  0.232305  0.750000  1
  Te  Te25  1  0.303023  0.258496  0.750000  1
  Te  Te26  1  0.697480  0.743086  0.250000  1
  Te  Te27  1  0.198604  0.757359  0.250000  1
  Te  Te28  1  0.662480  0.552442  0.567342  1
  Te  Te29  1  0.165812  0.951931  0.924136  1
  Te  Te30  1  0.834105  0.049421  0.424288  1
  Te  Te31  1  0.332250  0.449414  0.076459  1
