# generated using pymatgen
data_HoTh3(Si5Rh3)2
_symmetry_space_group_name_H-M   'P 1'
_cell_length_a   8.24228106
_cell_length_b   8.23301478
_cell_length_c   8.23301493
_cell_angle_alpha   138.20810996
_cell_angle_beta   105.41988222
_cell_angle_gamma   89.32692958
_symmetry_Int_Tables_number   1
_chemical_formula_structural   HoTh3(Si5Rh3)2
_chemical_formula_sum   'Ho1 Th3 Si10 Rh6'
_cell_volume   343.46333653
_cell_formula_units_Z   1
loop_
 _symmetry_equiv_pos_site_id
 _symmetry_equiv_pos_as_xyz
  1  'x, y, z'
loop_
 _atom_site_type_symbol
 _atom_site_label
 _atom_site_symmetry_multiplicity
 _atom_site_fract_x
 _atom_site_fract_y
 _atom_site_fract_z
 _atom_site_occupancy
  Ho  Ho0  1  0.898898  0.630490  0.268408  1
  Th  Th1  1  0.636894  0.869345  0.767550  1
  Th  Th2  1  0.363715  0.130940  0.232774  1
  Th  Th3  1  0.099070  0.367778  0.731292  1
  Si  Si4  1  0.274033  0.026126  0.750610  1
  Si  Si5  1  0.724404  0.971786  0.249922  1
  Si  Si6  1  0.724404  0.474482  0.752618  1
  Si  Si7  1  0.274033  0.523422  0.247907  1
  Si  Si8  1  0.455058  0.607289  0.847768  1
  Si  Si9  1  0.549603  0.396193  0.153410  1
  Si  Si10  1  0.761782  0.107865  0.653916  1
  Si  Si11  1  0.238138  0.890793  0.347346  1
  Si  Si12  1  0.000283  0.749979  0.746919  1
  Si  Si13  1  0.000283  0.253364  0.250304  1
  Rh  Rh14  1  0.250521  0.639569  0.610952  1
  Rh  Rh15  1  0.751421  0.361845  0.389575  1
  Rh  Rh16  1  0.027044  0.138367  0.888679  1
  Rh  Rh17  1  0.970990  0.860539  0.110451  1
  Rh  Rh18  1  0.499714  0.751217  0.251102  1
  Rh  Rh19  1  0.499714  0.248612  0.748498  1
