# generated using pymatgen
data_Tb2Co2Te
_symmetry_space_group_name_H-M   'P 1'
_cell_length_a   4.02497500
_cell_length_b   4.02497460
_cell_length_c   16.04680600
_cell_angle_alpha   90.00000000
_cell_angle_beta   90.00000000
_cell_angle_gamma   119.99997866
_symmetry_Int_Tables_number   1
_chemical_formula_structural   Tb2Co2Te
_chemical_formula_sum   'Tb4 Co4 Te2'
_cell_volume   225.13636936
_cell_formula_units_Z   2
loop_
 _symmetry_equiv_pos_site_id
 _symmetry_equiv_pos_as_xyz
  1  'x, y, z'
loop_
 _atom_site_type_symbol
 _atom_site_label
 _atom_site_symmetry_multiplicity
 _atom_site_fract_x
 _atom_site_fract_y
 _atom_site_fract_z
 _atom_site_occupancy
  Tb  Tb0  1  0.000000  0.000000  0.113656  1
  Tb  Tb1  1  0.000000  0.000000  0.613656  1
  Tb  Tb2  1  0.000000  0.000000  0.386344  1
  Tb  Tb3  1  0.000000  0.000000  0.886344  1
  Co  Co4  1  0.666667  0.333333  0.998626  1
  Co  Co5  1  0.333333  0.666667  0.001374  1
  Co  Co6  1  0.666667  0.333333  0.501374  1
  Co  Co7  1  0.333333  0.666667  0.498626  1
  Te  Te8  1  0.666667  0.333333  0.250000  1
  Te  Te9  1  0.333333  0.666667  0.750000  1
