# generated using pymatgen
data_Y20SiBi8As3
_symmetry_space_group_name_H-M   'P 1'
_cell_length_a   12.15074493
_cell_length_b   9.16560500
_cell_length_c   8.07819642
_cell_angle_alpha   90.00000000
_cell_angle_beta   89.80798708
_cell_angle_gamma   90.00000000
_symmetry_Int_Tables_number   1
_chemical_formula_structural   Y20SiBi8As3
_chemical_formula_sum   'Y20 Si1 Bi8 As3'
_cell_volume   899.65502806
_cell_formula_units_Z   1
loop_
 _symmetry_equiv_pos_site_id
 _symmetry_equiv_pos_as_xyz
  1  'x, y, z'
loop_
 _atom_site_type_symbol
 _atom_site_label
 _atom_site_symmetry_multiplicity
 _atom_site_fract_x
 _atom_site_fract_y
 _atom_site_fract_z
 _atom_site_occupancy
  Y  Y0  1  0.564434  0.050022  0.316181  1
  Y  Y1  1  0.064235  0.447119  0.183177  1
  Y  Y2  1  0.436431  0.554441  0.681785  1
  Y  Y3  1  0.935414  0.946928  0.816917  1
  Y  Y4  1  0.436431  0.945559  0.681785  1
  Y  Y5  1  0.935414  0.553072  0.816917  1
  Y  Y6  1  0.564434  0.449978  0.316181  1
  Y  Y7  1  0.064235  0.052881  0.183177  1
  Y  Y8  1  0.710605  0.250000  0.656895  1
  Y  Y9  1  0.210614  0.250000  0.842713  1
  Y  Y10  1  0.291824  0.750000  0.344631  1
  Y  Y11  1  0.786744  0.750000  0.159530  1
  Y  Y12  1  0.499658  0.250000  0.962823  1
  Y  Y13  1  0.000436  0.250000  0.536511  1
  Y  Y14  1  0.499391  0.750000  0.039430  1
  Y  Y15  1  0.000212  0.750000  0.462533  1
  Y  Y16  1  0.795213  0.250000  0.135477  1
  Y  Y17  1  0.294874  0.250000  0.365003  1
  Y  Y18  1  0.204297  0.750000  0.865351  1
  Y  Y19  1  0.704667  0.750000  0.633421  1
  Si  Si20  1  0.519815  0.750000  0.417252  1
  Bi  Bi21  1  0.827250  0.010174  0.427949  1
  Bi  Bi22  1  0.326104  0.490013  0.071341  1
  Bi  Bi23  1  0.173383  0.509575  0.572453  1
  Bi  Bi24  1  0.673522  0.990437  0.927885  1
  Bi  Bi25  1  0.173383  0.990425  0.572453  1
  Bi  Bi26  1  0.673522  0.509563  0.927885  1
  Bi  Bi27  1  0.827250  0.489826  0.427949  1
  Bi  Bi28  1  0.326104  0.009987  0.071341  1
  As  As29  1  0.981537  0.250000  0.916751  1
  As  As30  1  0.481473  0.250000  0.582880  1
  As  As31  1  0.017092  0.750000  0.083426  1
