# generated using pymatgen
data_Zr15Ta4NbSi16
_symmetry_space_group_name_H-M   'P 1'
_cell_length_a   7.04799699
_cell_length_b   7.04615763
_cell_length_c   12.92830824
_cell_angle_alpha   90.16448202
_cell_angle_beta   90.18733370
_cell_angle_gamma   90.01738688
_symmetry_Int_Tables_number   1
_chemical_formula_structural   Zr15Ta4NbSi16
_chemical_formula_sum   'Zr15 Ta4 Nb1 Si16'
_cell_volume   642.03045689
_cell_formula_units_Z   1
loop_
 _symmetry_equiv_pos_site_id
 _symmetry_equiv_pos_as_xyz
  1  'x, y, z'
loop_
 _atom_site_type_symbol
 _atom_site_label
 _atom_site_symmetry_multiplicity
 _atom_site_fract_x
 _atom_site_fract_y
 _atom_site_fract_z
 _atom_site_occupancy
  Zr  Zr0  1  0.854846  0.997820  0.373859  1
  Zr  Zr1  1  0.004972  0.146288  0.127742  1
  Zr  Zr2  1  0.998234  0.852722  0.625136  1
  Zr  Zr3  1  0.645172  0.497333  0.876174  1
  Zr  Zr4  1  0.501237  0.353398  0.623235  1
  Zr  Zr5  1  0.498565  0.644109  0.123919  1
  Zr  Zr6  1  0.145479  0.002610  0.873798  1
  Zr  Zr7  1  0.001724  0.650912  0.034860  1
  Zr  Zr8  1  0.001906  0.348817  0.531593  1
  Zr  Zr9  1  0.651117  0.998421  0.966595  1
  Zr  Zr10  1  0.150589  0.500144  0.783484  1
  Zr  Zr11  1  0.849021  0.498873  0.283778  1
  Zr  Zr12  1  0.501240  0.152047  0.218923  1
  Zr  Zr13  1  0.498456  0.847533  0.714449  1
  Zr  Zr14  1  0.347734  0.000833  0.466068  1
  Ta  Ta15  1  0.354565  0.507681  0.375481  1
  Ta  Ta16  1  0.672345  0.673409  0.498648  1
  Ta  Ta17  1  0.823882  0.175054  0.749870  1
  Ta  Ta18  1  0.177510  0.824016  0.251609  1
  Nb  Nb19  1  0.325310  0.325020  0.000868  1
  Si  Si20  1  0.052133  0.698857  0.434759  1
  Si  Si21  1  0.951235  0.300502  0.936351  1
  Si  Si22  1  0.699412  0.049054  0.563895  1
  Si  Si23  1  0.201485  0.452387  0.188660  1
  Si  Si24  1  0.800357  0.547622  0.685065  1
  Si  Si25  1  0.451281  0.198588  0.814020  1
  Si  Si26  1  0.547284  0.797854  0.314908  1
  Si  Si27  1  0.301131  0.950672  0.064995  1
  Si  Si28  1  0.852006  0.797569  0.820760  1
  Si  Si29  1  0.147397  0.210385  0.324493  1
  Si  Si30  1  0.797458  0.853216  0.178532  1
  Si  Si31  1  0.297605  0.645040  0.567923  1
  Si  Si32  1  0.703639  0.351590  0.071964  1
  Si  Si33  1  0.640268  0.299247  0.426229  1
  Si  Si34  1  0.352623  0.702886  0.928929  1
  Si  Si35  1  0.200784  0.147489  0.678425  1
