# generated using pymatgen
data_Li4Nd4Sn3Bi
_symmetry_space_group_name_H-M   'P 1'
_cell_length_a   9.60059116
_cell_length_b   9.59436181
_cell_length_c   7.64607863
_cell_angle_alpha   90.00000051
_cell_angle_beta   90.08240591
_cell_angle_gamma   119.97853733
_symmetry_Int_Tables_number   1
_chemical_formula_structural   Li4Nd4Sn3Bi
_chemical_formula_sum   'Li8 Nd8 Sn6 Bi2'
_cell_volume   610.06589288
_cell_formula_units_Z   2
loop_
 _symmetry_equiv_pos_site_id
 _symmetry_equiv_pos_as_xyz
  1  'x, y, z'
loop_
 _atom_site_type_symbol
 _atom_site_label
 _atom_site_symmetry_multiplicity
 _atom_site_fract_x
 _atom_site_fract_y
 _atom_site_fract_z
 _atom_site_occupancy
  Li  Li0  1  0.167447  0.333868  0.285004  1
  Li  Li1  1  0.167447  0.833579  0.285004  1
  Li  Li2  1  0.665724  0.832862  0.287259  1
  Li  Li3  1  0.830028  0.664934  0.788041  1
  Li  Li4  1  0.830028  0.165094  0.788041  1
  Li  Li5  1  0.336382  0.168191  0.790164  1
  Li  Li6  1  0.336557  0.668279  0.664397  1
  Li  Li7  1  0.666435  0.333217  0.167414  1
  Nd  Nd8  1  0.517299  0.026909  0.492223  1
  Nd  Nd9  1  0.517299  0.490391  0.492223  1
  Nd  Nd10  1  0.970439  0.485220  0.490105  1
  Nd  Nd11  1  0.491939  0.977727  0.997217  1
  Nd  Nd12  1  0.491939  0.514211  0.997217  1
  Nd  Nd13  1  0.020295  0.510147  0.999146  1
  Nd  Nd14  1  0.995233  0.997616  0.495404  1
  Nd  Nd15  1  0.995856  0.997928  0.003346  1
  Sn  Sn16  1  0.666454  0.833228  0.730728  1
  Sn  Sn17  1  0.833453  0.666454  0.230967  1
  Sn  Sn18  1  0.833453  0.166998  0.230967  1
  Sn  Sn19  1  0.333634  0.166817  0.230530  1
  Sn  Sn20  1  0.332921  0.666461  0.265890  1
  Sn  Sn21  1  0.667121  0.333560  0.765986  1
  Bi  Bi22  1  0.166309  0.333732  0.732351  1
  Bi  Bi23  1  0.166309  0.832578  0.732351  1
