# generated using pymatgen
data_Ca3Pr17Si15As
_symmetry_space_group_name_H-M   'P 1'
_cell_length_a   7.92531431
_cell_length_b   7.92677978
_cell_length_c   15.22254928
_cell_angle_alpha   90.03105477
_cell_angle_beta   89.83451425
_cell_angle_gamma   89.86749236
_symmetry_Int_Tables_number   1
_chemical_formula_structural   Ca3Pr17Si15As
_chemical_formula_sum   'Ca3 Pr17 Si15 As1'
_cell_volume   956.30766877
_cell_formula_units_Z   1
loop_
 _symmetry_equiv_pos_site_id
 _symmetry_equiv_pos_as_xyz
  1  'x, y, z'
loop_
 _atom_site_type_symbol
 _atom_site_label
 _atom_site_symmetry_multiplicity
 _atom_site_fract_x
 _atom_site_fract_y
 _atom_site_fract_z
 _atom_site_occupancy
  Ca  Ca0  1  0.310666  0.310293  0.000668  1
  Ca  Ca1  1  0.189821  0.809122  0.250178  1
  Ca  Ca2  1  0.807043  0.190637  0.750202  1
  Pr  Pr3  1  0.689977  0.691732  0.498577  1
  Pr  Pr4  1  0.380054  0.008882  0.445680  1
  Pr  Pr5  1  0.491493  0.875536  0.698246  1
  Pr  Pr6  1  0.510468  0.120869  0.196759  1
  Pr  Pr7  1  0.876003  0.489595  0.301721  1
  Pr  Pr8  1  0.121785  0.511638  0.804292  1
  Pr  Pr9  1  0.623291  0.988737  0.947768  1
  Pr  Pr10  1  0.007386  0.378867  0.550851  1
  Pr  Pr11  1  0.989212  0.621664  0.052562  1
  Pr  Pr12  1  0.127795  0.984786  0.875884  1
  Pr  Pr13  1  0.516563  0.626961  0.125936  1
  Pr  Pr14  1  0.481348  0.374363  0.627549  1
  Pr  Pr15  1  0.626979  0.517181  0.873814  1
  Pr  Pr16  1  0.373580  0.480201  0.373913  1
  Pr  Pr17  1  0.874240  0.018266  0.376477  1
  Pr  Pr18  1  0.983555  0.125854  0.123735  1
  Pr  Pr19  1  0.017385  0.871967  0.623571  1
  Si  Si20  1  0.330799  0.698454  0.951772  1
  Si  Si21  1  0.668625  0.304454  0.453037  1
  Si  Si22  1  0.699044  0.331956  0.048428  1
  Si  Si23  1  0.303861  0.668738  0.548446  1
  Si  Si24  1  0.800436  0.833529  0.200596  1
  Si  Si25  1  0.166481  0.199932  0.298420  1
  Si  Si26  1  0.835826  0.800097  0.799033  1
  Si  Si27  1  0.287318  0.919526  0.059325  1
  Si  Si28  1  0.580662  0.788560  0.309385  1
  Si  Si29  1  0.426847  0.211549  0.814011  1
  Si  Si30  1  0.789108  0.581106  0.689524  1
  Si  Si31  1  0.212394  0.419130  0.189686  1
  Si  Si32  1  0.707940  0.077218  0.560444  1
  Si  Si33  1  0.920817  0.288299  0.940247  1
  Si  Si34  1  0.077670  0.710187  0.440336  1
  As  As35  1  0.193527  0.170109  0.698930  1
