# generated using pymatgen
data_Lu12AlCo4Bi
_symmetry_space_group_name_H-M   'P 1'
_cell_length_a   8.20027433
_cell_length_b   8.20027577
_cell_length_c   8.20027492
_cell_angle_alpha   111.72992139
_cell_angle_beta   109.60935546
_cell_angle_gamma   107.10733571
_symmetry_Int_Tables_number   1
_chemical_formula_structural   Lu12AlCo4Bi
_chemical_formula_sum   'Lu12 Al1 Co4 Bi1'
_cell_volume   423.79509465
_cell_formula_units_Z   1
loop_
 _symmetry_equiv_pos_site_id
 _symmetry_equiv_pos_as_xyz
  1  'x, y, z'
loop_
 _atom_site_type_symbol
 _atom_site_label
 _atom_site_symmetry_multiplicity
 _atom_site_fract_x
 _atom_site_fract_y
 _atom_site_fract_z
 _atom_site_occupancy
  Lu  Lu0  1  0.439021  0.232056  0.206964  1
  Lu  Lu1  1  0.560979  0.767944  0.793036  1
  Lu  Lu2  1  0.025090  0.232056  0.793036  1
  Lu  Lu3  1  0.974910  0.767944  0.206964  1
  Lu  Lu4  1  0.179900  0.279154  0.459055  1
  Lu  Lu5  1  0.820100  0.720846  0.540945  1
  Lu  Lu6  1  0.179900  0.720846  0.900746  1
  Lu  Lu7  1  0.820100  0.279154  0.099254  1
  Lu  Lu8  1  0.321574  0.635923  0.314348  1
  Lu  Lu9  1  0.678426  0.364077  0.685652  1
  Lu  Lu10  1  0.321574  0.007226  0.685652  1
  Lu  Lu11  1  0.678426  0.992774  0.314348  1
  Al  Al12  1  0.000000  0.000000  0.000000  1
  Co  Co13  1  0.340647  0.000000  0.340647  1
  Co  Co14  1  0.659353  0.000000  0.659353  1
  Co  Co15  1  0.115828  0.615828  0.500000  1
  Co  Co16  1  0.884172  0.384172  0.500000  1
  Bi  Bi17  1  0.500000  0.500000  0.000000  1
