# generated using pymatgen
data_Nd2Cd2Ga6CoNi
_symmetry_space_group_name_H-M   'P 1'
_cell_length_a   4.26093586
_cell_length_b   6.54828000
_cell_length_c   8.30075321
_cell_angle_alpha   90.00000000
_cell_angle_beta   104.87194937
_cell_angle_gamma   90.00000000
_symmetry_Int_Tables_number   1
_chemical_formula_structural   Nd2Cd2Ga6CoNi
_chemical_formula_sum   'Nd2 Cd2 Ga6 Co1 Ni1'
_cell_volume   223.84759356
_cell_formula_units_Z   1
loop_
 _symmetry_equiv_pos_site_id
 _symmetry_equiv_pos_as_xyz
  1  'x, y, z'
loop_
 _atom_site_type_symbol
 _atom_site_label
 _atom_site_symmetry_multiplicity
 _atom_site_fract_x
 _atom_site_fract_y
 _atom_site_fract_z
 _atom_site_occupancy
  Nd  Nd0  1  0.875864  0.750000  0.751727  1
  Nd  Nd1  1  0.124475  0.250000  0.248952  1
  Cd  Cd2  1  0.499700  0.499984  0.999400  1
  Cd  Cd3  1  0.499700  0.000016  0.999400  1
  Ga  Ga4  1  0.075124  0.750000  0.150249  1
  Ga  Ga5  1  0.925923  0.250000  0.851845  1
  Ga  Ga6  1  0.690028  0.553260  0.380055  1
  Ga  Ga7  1  0.309543  0.449774  0.619087  1
  Ga  Ga8  1  0.690028  0.946740  0.380055  1
  Ga  Ga9  1  0.309543  0.050226  0.619087  1
  Co  Co10  1  0.220943  0.750000  0.441886  1
  Ni  Ni11  1  0.779129  0.250000  0.558257  1
