# generated using pymatgen
data_Sc2BeB2IrRh4
_symmetry_space_group_name_H-M   'P 1'
_cell_length_a   9.25100700
_cell_length_b   2.99893300
_cell_length_c   9.25180200
_cell_angle_alpha   90.00000000
_cell_angle_beta   90.00200040
_cell_angle_gamma   90.00000000
_symmetry_Int_Tables_number   1
_chemical_formula_structural   Sc2BeB2IrRh4
_chemical_formula_sum   'Sc4 Be2 B4 Ir2 Rh8'
_cell_volume   256.67413220
_cell_formula_units_Z   2
loop_
 _symmetry_equiv_pos_site_id
 _symmetry_equiv_pos_as_xyz
  1  'x, y, z'
loop_
 _atom_site_type_symbol
 _atom_site_label
 _atom_site_symmetry_multiplicity
 _atom_site_fract_x
 _atom_site_fract_y
 _atom_site_fract_z
 _atom_site_occupancy
  Sc  Sc0  1  0.674993  0.000000  0.175460  1
  Sc  Sc1  1  0.175415  0.000000  0.324850  1
  Sc  Sc2  1  0.823754  0.000000  0.675630  1
  Sc  Sc3  1  0.323703  0.000000  0.824223  1
  Be  Be4  1  0.001095  0.000000  0.001598  1
  Be  Be5  1  0.500181  0.000000  0.500134  1
  B  B6  1  0.370651  0.000000  0.128064  1
  B  B7  1  0.871862  0.000000  0.370789  1
  B  B8  1  0.128547  0.000000  0.628618  1
  B  B9  1  0.628413  0.000000  0.871371  1
  Ir  Ir10  1  0.209545  0.500000  0.067723  1
  Ir  Ir11  1  0.931816  0.500000  0.209516  1
  Rh  Rh12  1  0.500392  0.500000  0.999651  1
  Rh  Rh13  1  0.431839  0.500000  0.290396  1
  Rh  Rh14  1  0.709728  0.500000  0.431319  1
  Rh  Rh15  1  0.999666  0.500000  0.501399  1
  Rh  Rh16  1  0.290562  0.500000  0.569157  1
  Rh  Rh17  1  0.569576  0.500000  0.709663  1
  Rh  Rh18  1  0.068430  0.500000  0.789668  1
  Rh  Rh19  1  0.789828  0.500000  0.930767  1
