# generated using pymatgen
data_LiY3In3HgIr
_symmetry_space_group_name_H-M   'P 1'
_cell_length_a   7.88909400
_cell_length_b   7.88909416
_cell_length_c   3.84057800
_cell_angle_alpha   90.00000000
_cell_angle_beta   90.00000000
_cell_angle_gamma   119.99999933
_symmetry_Int_Tables_number   1
_chemical_formula_structural   LiY3In3HgIr
_chemical_formula_sum   'Li1 Y3 In3 Hg1 Ir1'
_cell_volume   207.00531420
_cell_formula_units_Z   1
loop_
 _symmetry_equiv_pos_site_id
 _symmetry_equiv_pos_as_xyz
  1  'x, y, z'
loop_
 _atom_site_type_symbol
 _atom_site_label
 _atom_site_symmetry_multiplicity
 _atom_site_fract_x
 _atom_site_fract_y
 _atom_site_fract_z
 _atom_site_occupancy
  Li  Li0  1  0.000000  0.000000  0.500000  1
  Y  Y1  1  0.397763  0.427904  0.500000  1
  Y  Y2  1  0.572096  0.969859  0.500000  1
  Y  Y3  1  0.030141  0.602237  0.500000  1
  In  In4  1  0.745869  0.749809  0.000000  1
  In  In5  1  0.250191  0.996060  0.000000  1
  In  In6  1  0.003940  0.254131  0.000000  1
  Hg  Hg7  1  0.666667  0.333333  0.000000  1
  Ir  Ir8  1  0.333333  0.666667  0.000000  1
