# generated using pymatgen
data_ErCo2SiC
_symmetry_space_group_name_H-M   'P 1'
_cell_length_a   5.54026323
_cell_length_b   5.54026344
_cell_length_c   6.68560100
_cell_angle_alpha   90.00000000
_cell_angle_beta   90.00000000
_cell_angle_gamma   141.28446251
_symmetry_Int_Tables_number   1
_chemical_formula_structural   ErCo2SiC
_chemical_formula_sum   'Er2 Co4 Si2 C2'
_cell_volume   128.35028327
_cell_formula_units_Z   2
loop_
 _symmetry_equiv_pos_site_id
 _symmetry_equiv_pos_as_xyz
  1  'x, y, z'
loop_
 _atom_site_type_symbol
 _atom_site_label
 _atom_site_symmetry_multiplicity
 _atom_site_fract_x
 _atom_site_fract_y
 _atom_site_fract_z
 _atom_site_occupancy
  Er  Er0  1  0.549954  0.450046  0.250000  1
  Er  Er1  1  0.450046  0.549954  0.750000  1
  Co  Co2  1  0.836054  0.163946  0.056056  1
  Co  Co3  1  0.163946  0.836054  0.943944  1
  Co  Co4  1  0.163946  0.836054  0.556056  1
  Co  Co5  1  0.836054  0.163946  0.443944  1
  Si  Si6  1  0.270917  0.729083  0.250000  1
  Si  Si7  1  0.729083  0.270917  0.750000  1
  C  C8  1  0.000000  0.000000  0.000000  1
  C  C9  1  0.000000  0.000000  0.500000  1
