# generated using pymatgen
data_CaDy4Pb3O
_symmetry_space_group_name_H-M   'P 1'
_cell_length_a   9.11275357
_cell_length_b   9.09283884
_cell_length_c   9.10345000
_cell_angle_alpha   125.68417889
_cell_angle_beta   125.74842558
_cell_angle_gamma   80.35005577
_symmetry_Int_Tables_number   1
_chemical_formula_structural   CaDy4Pb3O
_chemical_formula_sum   'Ca2 Dy8 Pb6 O2'
_cell_volume   479.79230244
_cell_formula_units_Z   2
loop_
 _symmetry_equiv_pos_site_id
 _symmetry_equiv_pos_as_xyz
  1  'x, y, z'
loop_
 _atom_site_type_symbol
 _atom_site_label
 _atom_site_symmetry_multiplicity
 _atom_site_fract_x
 _atom_site_fract_y
 _atom_site_fract_z
 _atom_site_occupancy
  Ca  Ca0  1  0.698875  0.499848  0.500000  1
  Ca  Ca1  1  0.301125  0.500152  0.500000  1
  Dy  Dy2  1  0.997105  0.204157  0.500000  1
  Dy  Dy3  1  0.798447  0.297583  0.796273  1
  Dy  Dy4  1  0.497826  0.998691  0.796273  1
  Dy  Dy5  1  0.502174  0.001309  0.203727  1
  Dy  Dy6  1  0.002895  0.795843  0.500000  1
  Dy  Dy7  1  0.500000  0.500000  0.000000  1
  Dy  Dy8  1  0.201553  0.702417  0.203727  1
  Dy  Dy9  1  0.000000  0.000000  0.000000  1
  Pb  Pb10  1  0.849300  0.349300  0.198600  1
  Pb  Pb11  1  0.150700  0.650700  0.801400  1
  Pb  Pb12  1  0.350056  0.150848  0.500000  1
  Pb  Pb13  1  0.756328  0.756328  0.012655  1
  Pb  Pb14  1  0.649944  0.849152  0.500000  1
  Pb  Pb15  1  0.243672  0.243672  0.987345  1
  O  O16  1  0.750140  0.243001  0.500000  1
  O  O17  1  0.249860  0.756999  0.500000  1
