# generated using pymatgen
data_NaBr11
_symmetry_space_group_name_H-M   'P 1'
_cell_length_a   7.59111671
_cell_length_b   7.26800971
_cell_length_c   12.08647261
_cell_angle_alpha   81.07123790
_cell_angle_beta   120.74874805
_cell_angle_gamma   79.51538954
_symmetry_Int_Tables_number   1
_chemical_formula_structural   NaBr11
_chemical_formula_sum   'Na1 Br11'
_cell_volume   538.66199020
_cell_formula_units_Z   1
loop_
 _symmetry_equiv_pos_site_id
 _symmetry_equiv_pos_as_xyz
  1  'x, y, z'
loop_
 _atom_site_type_symbol
 _atom_site_label
 _atom_site_symmetry_multiplicity
 _atom_site_fract_x
 _atom_site_fract_y
 _atom_site_fract_z
 _atom_site_occupancy
  Na  Na0  1  0.000008  0.500014  0.500003  1
  Br  Br1  1  0.000018  0.000009  0.000007  1
  Br  Br2  1  0.627274  0.745547  0.198718  1
  Br  Br3  1  0.352313  0.018623  0.196497  1
  Br  Br4  1  0.647706  0.981385  0.803513  1
  Br  Br5  1  0.372726  0.254442  0.801275  1
  Br  Br6  1  0.889992  0.475028  0.197266  1
  Br  Br7  1  0.325902  0.496988  0.412075  1
  Br  Br8  1  0.963242  0.132517  0.409099  1
  Br  Br9  1  0.036760  0.867491  0.590901  1
  Br  Br10  1  0.674098  0.503014  0.587924  1
  Br  Br11  1  0.109959  0.524940  0.802720  1
