# generated using pymatgen
data_PrHo7(Si4W3)4
_symmetry_space_group_name_H-M   'P 1'
_cell_length_a   6.78809834
_cell_length_b   6.94765523
_cell_length_c   12.92011210
_cell_angle_alpha   89.88727423
_cell_angle_beta   90.01421289
_cell_angle_gamma   89.93398763
_symmetry_Int_Tables_number   1
_chemical_formula_structural   PrHo7(Si4W3)4
_chemical_formula_sum   'Pr1 Ho7 Si16 W12'
_cell_volume   609.32854468
_cell_formula_units_Z   1
loop_
 _symmetry_equiv_pos_site_id
 _symmetry_equiv_pos_as_xyz
  1  'x, y, z'
loop_
 _atom_site_type_symbol
 _atom_site_label
 _atom_site_symmetry_multiplicity
 _atom_site_fract_x
 _atom_site_fract_y
 _atom_site_fract_z
 _atom_site_occupancy
  Pr  Pr0  1  0.996868  0.833733  0.591968  1
  Ho  Ho1  1  0.495419  0.667481  0.593554  1
  Ho  Ho2  1  0.995645  0.832156  0.906460  1
  Ho  Ho3  1  0.504835  0.331965  0.093574  1
  Ho  Ho4  1  0.005158  0.167624  0.405480  1
  Ho  Ho5  1  0.505119  0.333045  0.405694  1
  Ho  Ho6  1  0.004552  0.168121  0.093490  1
  Ho  Ho7  1  0.495370  0.667581  0.907750  1
  Si  Si8  1  0.659492  0.958135  0.451250  1
  Si  Si9  1  0.161947  0.542339  0.047130  1
  Si  Si10  1  0.337883  0.042134  0.953706  1
  Si  Si11  1  0.836591  0.453223  0.546404  1
  Si  Si12  1  0.342896  0.045275  0.546137  1
  Si  Si13  1  0.838271  0.458171  0.953283  1
  Si  Si14  1  0.661992  0.957766  0.047097  1
  Si  Si15  1  0.162577  0.539947  0.451236  1
  Si  Si16  1  0.463580  0.371118  0.750768  1
  Si  Si17  1  0.963132  0.132545  0.751616  1
  Si  Si18  1  0.535766  0.629228  0.249286  1
  Si  Si19  1  0.035934  0.870347  0.249938  1
  Si  Si20  1  0.693813  0.867251  0.751681  1
  Si  Si21  1  0.198958  0.630646  0.751735  1
  Si  Si22  1  0.303417  0.133490  0.249646  1
  Si  Si23  1  0.802996  0.366122  0.249472  1
  W  W24  1  0.666073  0.164836  0.626712  1
  W  W25  1  0.168524  0.336731  0.875564  1
  W  W26  1  0.331511  0.836453  0.125509  1
  W  W27  1  0.830852  0.661540  0.373167  1
  W  W28  1  0.332729  0.836236  0.373472  1
  W  W29  1  0.832066  0.663119  0.125412  1
  W  W30  1  0.667333  0.164092  0.875408  1
  W  W31  1  0.168379  0.336652  0.625804  1
  W  W32  1  0.833426  0.498940  0.750772  1
  W  W33  1  0.334486  0.002386  0.751155  1
  W  W34  1  0.166042  0.499896  0.249397  1
  W  W35  1  0.666364  0.999676  0.249268  1
