# generated using pymatgen
data_Dy10Bi5PbSe2
_symmetry_space_group_name_H-M   'P 1'
_cell_length_a   9.24948200
_cell_length_b   9.25918128
_cell_length_c   6.65265900
_cell_angle_alpha   90.00000000
_cell_angle_beta   90.00000000
_cell_angle_gamma   120.03469900
_symmetry_Int_Tables_number   1
_chemical_formula_structural   Dy10Bi5PbSe2
_chemical_formula_sum   'Dy10 Bi5 Pb1 Se2'
_cell_volume   493.24641327
_cell_formula_units_Z   1
loop_
 _symmetry_equiv_pos_site_id
 _symmetry_equiv_pos_as_xyz
  1  'x, y, z'
loop_
 _atom_site_type_symbol
 _atom_site_label
 _atom_site_symmetry_multiplicity
 _atom_site_fract_x
 _atom_site_fract_y
 _atom_site_fract_z
 _atom_site_occupancy
  Dy  Dy0  1  0.668801  0.333958  0.001158  1
  Dy  Dy1  1  0.331199  0.665158  0.001158  1
  Dy  Dy2  1  0.331199  0.665158  0.498842  1
  Dy  Dy3  1  0.668801  0.333958  0.498842  1
  Dy  Dy4  1  0.746497  0.746386  0.750000  1
  Dy  Dy5  1  0.253503  0.999888  0.750000  1
  Dy  Dy6  1  0.000000  0.253511  0.750000  1
  Dy  Dy7  1  0.250712  0.255004  0.250000  1
  Dy  Dy8  1  0.749288  0.004292  0.250000  1
  Dy  Dy9  1  0.000000  0.744717  0.250000  1
  Bi  Bi10  1  0.395334  0.394865  0.750000  1
  Bi  Bi11  1  0.604666  0.999531  0.750000  1
  Bi  Bi12  1  0.000000  0.603654  0.750000  1
  Bi  Bi13  1  0.605144  0.605658  0.250000  1
  Bi  Bi14  1  0.394856  0.000513  0.250000  1
  Pb  Pb15  1  0.000000  0.396001  0.250000  1
  Se  Se16  1  0.000000  0.998873  0.999735  1
  Se  Se17  1  0.000000  0.998873  0.500265  1
