# generated using pymatgen
data_TbDyEr2(Al3Ir)6
_symmetry_space_group_name_H-M   'P 1'
_cell_length_a   7.53350841
_cell_length_b   7.53426872
_cell_length_c   9.46125400
_cell_angle_alpha   90.00000000
_cell_angle_beta   90.00000000
_cell_angle_gamma   119.46527609
_symmetry_Int_Tables_number   1
_chemical_formula_structural   TbDyEr2(Al3Ir)6
_chemical_formula_sum   'Tb1 Dy1 Er2 Al18 Ir6'
_cell_volume   467.55495953
_cell_formula_units_Z   1
loop_
 _symmetry_equiv_pos_site_id
 _symmetry_equiv_pos_as_xyz
  1  'x, y, z'
loop_
 _atom_site_type_symbol
 _atom_site_label
 _atom_site_symmetry_multiplicity
 _atom_site_fract_x
 _atom_site_fract_y
 _atom_site_fract_z
 _atom_site_occupancy
  Tb  Tb0  1  0.005307  0.328391  0.250000  1
  Dy  Dy1  1  0.328425  0.005255  0.250000  1
  Er  Er2  1  0.994725  0.672011  0.750000  1
  Er  Er3  1  0.672055  0.994730  0.750000  1
  Al  Al4  1  0.129035  0.129075  0.750000  1
  Al  Al5  1  0.870267  0.870094  0.250000  1
  Al  Al6  1  0.000778  0.335381  0.575401  1
  Al  Al7  1  0.998828  0.664907  0.426078  1
  Al  Al8  1  0.998828  0.664907  0.073922  1
  Al  Al9  1  0.335360  0.000814  0.924663  1
  Al  Al10  1  0.000778  0.335381  0.924599  1
  Al  Al11  1  0.664446  0.998577  0.073904  1
  Al  Al12  1  0.664446  0.998577  0.426096  1
  Al  Al13  1  0.335360  0.000814  0.575337  1
  Al  Al14  1  0.333390  0.333181  0.050805  1
  Al  Al15  1  0.667043  0.667042  0.947661  1
  Al  Al16  1  0.667043  0.667042  0.552339  1
  Al  Al17  1  0.333390  0.333181  0.449195  1
  Al  Al18  1  0.339594  0.548896  0.750000  1
  Al  Al19  1  0.660380  0.451810  0.250000  1
  Al  Al20  1  0.548820  0.339612  0.750000  1
  Al  Al21  1  0.452005  0.660659  0.250000  1
  Ir  Ir22  1  0.672027  0.328136  0.500443  1
  Ir  Ir23  1  0.328207  0.672178  0.500457  1
  Ir  Ir24  1  0.328207  0.672178  0.999543  1
  Ir  Ir25  1  0.672027  0.328136  0.999557  1
  Ir  Ir26  1  0.999615  0.999517  0.500590  1
  Ir  Ir27  1  0.999615  0.999517  0.999410  1
