# generated using pymatgen
data_Ca3Yb(AlIr)4
_symmetry_space_group_name_H-M   'P 1'
_cell_length_a   4.14860800
_cell_length_b   7.19527780
_cell_length_c   7.83356416
_cell_angle_alpha   90.23677072
_cell_angle_beta   90.00000000
_cell_angle_gamma   90.00000000
_symmetry_Int_Tables_number   1
_chemical_formula_structural   Ca3Yb(AlIr)4
_chemical_formula_sum   'Ca3 Yb1 Al4 Ir4'
_cell_volume   233.83292560
_cell_formula_units_Z   1
loop_
 _symmetry_equiv_pos_site_id
 _symmetry_equiv_pos_as_xyz
  1  'x, y, z'
loop_
 _atom_site_type_symbol
 _atom_site_label
 _atom_site_symmetry_multiplicity
 _atom_site_fract_x
 _atom_site_fract_y
 _atom_site_fract_z
 _atom_site_occupancy
  Ca  Ca0  1  0.250000  0.023064  0.326000  1
  Ca  Ca1  1  0.250000  0.520446  0.173915  1
  Ca  Ca2  1  0.750000  0.978925  0.675462  1
  Yb  Yb3  1  0.750000  0.477789  0.825372  1
  Al  Al4  1  0.250000  0.141301  0.933009  1
  Al  Al5  1  0.250000  0.644387  0.565905  1
  Al  Al6  1  0.750000  0.856533  0.066347  1
  Al  Al7  1  0.750000  0.357586  0.433925  1
  Ir  Ir8  1  0.250000  0.293989  0.622033  1
  Ir  Ir9  1  0.250000  0.786617  0.880735  1
  Ir  Ir10  1  0.750000  0.709747  0.380750  1
  Ir  Ir11  1  0.750000  0.209616  0.116547  1
