# generated using pymatgen
data_CaSm2Er5(B6Ru)4
_symmetry_space_group_name_H-M   'P 1'
_cell_length_a   3.66160300
_cell_length_b   9.14309789
_cell_length_c   11.54810105
_cell_angle_alpha   89.91291588
_cell_angle_beta   90.00000000
_cell_angle_gamma   90.00000000
_symmetry_Int_Tables_number   1
_chemical_formula_structural   CaSm2Er5(B6Ru)4
_chemical_formula_sum   'Ca1 Sm2 Er5 B24 Ru4'
_cell_volume   386.61143783
_cell_formula_units_Z   1
loop_
 _symmetry_equiv_pos_site_id
 _symmetry_equiv_pos_as_xyz
  1  'x, y, z'
loop_
 _atom_site_type_symbol
 _atom_site_label
 _atom_site_symmetry_multiplicity
 _atom_site_fract_x
 _atom_site_fract_y
 _atom_site_fract_z
 _atom_site_occupancy
  Ca  Ca0  1  0.000000  0.322297  0.414049  1
  Sm  Sm1  1  0.000000  0.675736  0.585191  1
  Sm  Sm2  1  0.000000  0.823016  0.086175  1
  Er  Er3  1  0.000000  0.178251  0.914795  1
  Er  Er4  1  0.000000  0.944632  0.370866  1
  Er  Er5  1  0.000000  0.058149  0.628194  1
  Er  Er6  1  0.000000  0.442596  0.129352  1
  Er  Er7  1  0.000000  0.555560  0.872023  1
  B  B8  1  0.500000  0.554255  0.431400  1
  B  B9  1  0.500000  0.444136  0.568618  1
  B  B10  1  0.500000  0.055254  0.066470  1
  B  B11  1  0.500000  0.946658  0.931496  1
  B  B12  1  0.500000  0.749250  0.417844  1
  B  B13  1  0.500000  0.251060  0.581981  1
  B  B14  1  0.500000  0.248524  0.080162  1
  B  B15  1  0.500000  0.751144  0.918237  1
  B  B16  1  0.500000  0.791236  0.266347  1
  B  B17  1  0.500000  0.208724  0.734977  1
  B  B18  1  0.500000  0.290283  0.233128  1
  B  B19  1  0.500000  0.709754  0.766803  1
  B  B20  1  0.500000  0.630627  0.185897  1
  B  B21  1  0.500000  0.367702  0.816238  1
  B  B22  1  0.500000  0.131360  0.314055  1
  B  B23  1  0.500000  0.870068  0.685596  1
  B  B24  1  0.500000  0.985142  0.212325  1
  B  B25  1  0.500000  0.017530  0.787273  1
  B  B26  1  0.500000  0.483548  0.287089  1
  B  B27  1  0.500000  0.514543  0.713908  1
  B  B28  1  0.500000  0.604269  0.028899  1
  B  B29  1  0.500000  0.392938  0.971034  1
  B  B30  1  0.500000  0.102919  0.471725  1
  B  B31  1  0.500000  0.897986  0.528178  1
  Ru  Ru32  1  0.000000  0.639957  0.319537  1
  Ru  Ru33  1  0.000000  0.360190  0.681982  1
  Ru  Ru34  1  0.000000  0.138009  0.177670  1
  Ru  Ru35  1  0.000000  0.862697  0.820486  1
