# generated using pymatgen
data_K3AsRhCl9
_symmetry_space_group_name_H-M   'P 1'
_cell_length_a   7.18934700
_cell_length_b   7.18934713
_cell_length_c   18.36937800
_cell_angle_alpha   90.00000000
_cell_angle_beta   90.00000000
_cell_angle_gamma   120.00000400
_symmetry_Int_Tables_number   1
_chemical_formula_structural   K3AsRhCl9
_chemical_formula_sum   'K6 As2 Rh2 Cl18'
_cell_volume   822.25015589
_cell_formula_units_Z   2
loop_
 _symmetry_equiv_pos_site_id
 _symmetry_equiv_pos_as_xyz
  1  'x, y, z'
loop_
 _atom_site_type_symbol
 _atom_site_label
 _atom_site_symmetry_multiplicity
 _atom_site_fract_x
 _atom_site_fract_y
 _atom_site_fract_z
 _atom_site_occupancy
  K  K0  1  0.666667  0.333333  0.909346  1
  K  K1  1  0.333333  0.666667  0.409346  1
  K  K2  1  0.666667  0.333333  0.550517  1
  K  K3  1  0.333333  0.666667  0.050517  1
  K  K4  1  0.000000  0.000000  0.778851  1
  K  K5  1  0.000000  0.000000  0.278851  1
  As  As6  1  0.333333  0.666667  0.651872  1
  As  As7  1  0.666667  0.333333  0.151872  1
  Rh  Rh8  1  0.666667  0.333333  0.337055  1
  Rh  Rh9  1  0.333333  0.666667  0.837055  1
  Cl  Cl10  1  0.821820  0.643640  0.410239  1
  Cl  Cl11  1  0.178180  0.356360  0.910239  1
  Cl  Cl12  1  0.178180  0.821820  0.910239  1
  Cl  Cl13  1  0.174695  0.349390  0.585583  1
  Cl  Cl14  1  0.643640  0.821820  0.910239  1
  Cl  Cl15  1  0.356360  0.178180  0.410239  1
  Cl  Cl16  1  0.018317  0.509158  0.761630  1
  Cl  Cl17  1  0.821820  0.178180  0.410239  1
  Cl  Cl18  1  0.509158  0.018317  0.261630  1
  Cl  Cl19  1  0.490842  0.509158  0.761630  1
  Cl  Cl20  1  0.509158  0.490842  0.261630  1
  Cl  Cl21  1  0.981683  0.490842  0.261630  1
  Cl  Cl22  1  0.349390  0.174695  0.085583  1
  Cl  Cl23  1  0.490842  0.981683  0.761630  1
  Cl  Cl24  1  0.825305  0.650610  0.085583  1
  Cl  Cl25  1  0.174695  0.825305  0.585583  1
  Cl  Cl26  1  0.650610  0.825305  0.585583  1
  Cl  Cl27  1  0.825305  0.174695  0.085583  1
