# generated using pymatgen
data_TbY5Ta2(Co4P3)4
_symmetry_space_group_name_H-M   'P 1'
_cell_length_a   3.71706100
_cell_length_b   10.65069600
_cell_length_c   12.34605800
_cell_angle_alpha   90.00000000
_cell_angle_beta   90.00000000
_cell_angle_gamma   90.00000000
_symmetry_Int_Tables_number   1
_chemical_formula_structural   TbY5Ta2(Co4P3)4
_chemical_formula_sum   'Tb1 Y5 Ta2 Co16 P12'
_cell_volume   488.77163008
_cell_formula_units_Z   1
loop_
 _symmetry_equiv_pos_site_id
 _symmetry_equiv_pos_as_xyz
  1  'x, y, z'
loop_
 _atom_site_type_symbol
 _atom_site_label
 _atom_site_symmetry_multiplicity
 _atom_site_fract_x
 _atom_site_fract_y
 _atom_site_fract_z
 _atom_site_occupancy
  Tb  Tb0  1  0.000000  0.500000  0.526780  1
  Y  Y1  1  0.500000  0.000000  0.473489  1
  Y  Y2  1  0.500000  0.820434  0.204838  1
  Y  Y3  1  0.500000  0.179566  0.204838  1
  Y  Y4  1  0.000000  0.679703  0.795214  1
  Y  Y5  1  0.000000  0.320297  0.795214  1
  Ta  Ta6  1  0.500000  0.500000  0.156115  1
  Ta  Ta7  1  0.000000  0.000000  0.843759  1
  Co  Co8  1  0.500000  0.500000  0.702044  1
  Co  Co9  1  0.000000  0.000000  0.297916  1
  Co  Co10  1  0.000000  0.500000  0.986972  1
  Co  Co11  1  0.500000  0.000000  0.013019  1
  Co  Co12  1  0.500000  0.332831  0.992332  1
  Co  Co13  1  0.500000  0.667169  0.992332  1
  Co  Co14  1  0.000000  0.167135  0.007708  1
  Co  Co15  1  0.000000  0.832865  0.007708  1
  Co  Co16  1  0.500000  0.295264  0.432083  1
  Co  Co17  1  0.500000  0.704736  0.432083  1
  Co  Co18  1  0.000000  0.204495  0.567866  1
  Co  Co19  1  0.000000  0.795505  0.567866  1
  Co  Co20  1  0.500000  0.878011  0.705978  1
  Co  Co21  1  0.500000  0.121989  0.705978  1
  Co  Co22  1  0.000000  0.622054  0.294009  1
  Co  Co23  1  0.000000  0.377946  0.294009  1
  P  P24  1  0.500000  0.500000  0.882085  1
  P  P25  1  0.000000  0.000000  0.117972  1
  P  P26  1  0.500000  0.500000  0.355750  1
  P  P27  1  0.000000  0.000000  0.644157  1
  P  P28  1  0.500000  0.310476  0.615656  1
  P  P29  1  0.500000  0.689524  0.615656  1
  P  P30  1  0.000000  0.189304  0.384299  1
  P  P31  1  0.000000  0.810696  0.384299  1
  P  P32  1  0.500000  0.841324  0.893461  1
  P  P33  1  0.500000  0.158676  0.893461  1
  P  P34  1  0.000000  0.658745  0.106529  1
  P  P35  1  0.000000  0.341255  0.106529  1
