# generated using pymatgen
data_P12Os2Ru
_symmetry_space_group_name_H-M   'P 1'
_cell_length_a   4.74877830
_cell_length_b   7.20347724
_cell_length_c   7.58615192
_cell_angle_alpha   111.20838652
_cell_angle_beta   90.41807177
_cell_angle_gamma   100.40245354
_symmetry_Int_Tables_number   1
_chemical_formula_structural   P12Os2Ru
_chemical_formula_sum   'P12 Os2 Ru1'
_cell_volume   237.20512709
_cell_formula_units_Z   1
loop_
 _symmetry_equiv_pos_site_id
 _symmetry_equiv_pos_as_xyz
  1  'x, y, z'
loop_
 _atom_site_type_symbol
 _atom_site_label
 _atom_site_symmetry_multiplicity
 _atom_site_fract_x
 _atom_site_fract_y
 _atom_site_fract_z
 _atom_site_occupancy
  P  P0  1  0.608490  0.830549  0.768780  1
  P  P1  1  0.391271  0.169189  0.231463  1
  P  P2  1  0.794645  0.296122  0.124063  1
  P  P3  1  0.598623  0.367840  0.900326  1
  P  P4  1  0.400251  0.632409  0.099762  1
  P  P5  1  0.177826  0.162072  0.785488  1
  P  P6  1  0.821947  0.837493  0.214497  1
  P  P7  1  0.272806  0.427105  0.451963  1
  P  P8  1  0.727998  0.572492  0.549084  1
  P  P9  1  0.659078  0.086014  0.437689  1
  P  P10  1  0.341351  0.914403  0.561708  1
  P  P11  1  0.205417  0.703852  0.874987  1
  Os  Os12  1  0.058788  0.627332  0.328384  1
  Os  Os13  1  0.000125  0.000187  0.000155  1
  Ru  Ru14  1  0.941385  0.372940  0.671652  1
