# generated using pymatgen
data_DyY12ErRh6
_symmetry_space_group_name_H-M   'P 1'
_cell_length_a   9.81044600
_cell_length_b   9.81044510
_cell_length_c   6.24653700
_cell_angle_alpha   90.00000000
_cell_angle_beta   90.00000000
_cell_angle_gamma   119.99999628
_symmetry_Int_Tables_number   1
_chemical_formula_structural   DyY12ErRh6
_chemical_formula_sum   'Dy1 Y12 Er1 Rh6'
_cell_volume   520.65186484
_cell_formula_units_Z   1
loop_
 _symmetry_equiv_pos_site_id
 _symmetry_equiv_pos_as_xyz
  1  'x, y, z'
loop_
 _atom_site_type_symbol
 _atom_site_label
 _atom_site_symmetry_multiplicity
 _atom_site_fract_x
 _atom_site_fract_y
 _atom_site_fract_z
 _atom_site_occupancy
  Dy  Dy0  1  0.666667  0.333333  0.285595  1
  Y  Y1  1  0.751936  0.875968  0.988602  1
  Y  Y2  1  0.876384  0.123616  0.488894  1
  Y  Y3  1  0.540453  0.459547  0.798517  1
  Y  Y4  1  0.082175  0.541087  0.298529  1
  Y  Y5  1  0.458913  0.917825  0.298529  1
  Y  Y6  1  0.540453  0.080907  0.798517  1
  Y  Y7  1  0.919093  0.459547  0.798517  1
  Y  Y8  1  0.458913  0.541087  0.298529  1
  Y  Y9  1  0.124032  0.248064  0.988602  1
  Y  Y10  1  0.876384  0.752768  0.488894  1
  Y  Y11  1  0.247232  0.123616  0.488894  1
  Y  Y12  1  0.124032  0.875968  0.988602  1
  Er  Er13  1  0.333333  0.666667  0.783203  1
  Rh  Rh14  1  0.190818  0.809182  0.565813  1
  Rh  Rh15  1  0.380336  0.190168  0.064712  1
  Rh  Rh16  1  0.809832  0.619664  0.064712  1
  Rh  Rh17  1  0.190818  0.381637  0.565813  1
  Rh  Rh18  1  0.618363  0.809182  0.565813  1
  Rh  Rh19  1  0.809832  0.190168  0.064712  1
