# generated using pymatgen
data_Li2Tb7Ho(Sc5Si8)2
_symmetry_space_group_name_H-M   'P 1'
_cell_length_a   7.01974055
_cell_length_b   7.42113255
_cell_length_c   14.03402858
_cell_angle_alpha   89.97879040
_cell_angle_beta   90.02528352
_cell_angle_gamma   89.91868650
_symmetry_Int_Tables_number   1
_chemical_formula_structural   Li2Tb7Ho(Sc5Si8)2
_chemical_formula_sum   'Li2 Tb7 Ho1 Sc10 Si16'
_cell_volume   731.09379292
_cell_formula_units_Z   1
loop_
 _symmetry_equiv_pos_site_id
 _symmetry_equiv_pos_as_xyz
  1  'x, y, z'
loop_
 _atom_site_type_symbol
 _atom_site_label
 _atom_site_symmetry_multiplicity
 _atom_site_fract_x
 _atom_site_fract_y
 _atom_site_fract_z
 _atom_site_occupancy
  Li  Li0  1  0.159791  0.506330  0.749887  1
  Li  Li1  1  0.840374  0.493809  0.249993  1
  Tb  Tb2  1  0.010262  0.183525  0.098463  1
  Tb  Tb3  1  0.989722  0.816435  0.901420  1
  Tb  Tb4  1  0.484499  0.674053  0.902429  1
  Tb  Tb5  1  0.989753  0.816292  0.598540  1
  Tb  Tb6  1  0.515484  0.325961  0.097675  1
  Tb  Tb7  1  0.010318  0.183506  0.401655  1
  Tb  Tb8  1  0.515491  0.325963  0.402478  1
  Ho  Ho9  1  0.484705  0.674436  0.597863  1
  Sc  Sc10  1  0.341904  0.002506  0.250030  1
  Sc  Sc11  1  0.657999  0.997257  0.749905  1
  Sc  Sc12  1  0.325985  0.181928  0.626105  1
  Sc  Sc13  1  0.673978  0.818097  0.373967  1
  Sc  Sc14  1  0.165275  0.675047  0.372986  1
  Sc  Sc15  1  0.674074  0.818160  0.126122  1
  Sc  Sc16  1  0.834623  0.325165  0.626994  1
  Sc  Sc17  1  0.325937  0.181877  0.873852  1
  Sc  Sc18  1  0.834754  0.325051  0.872872  1
  Sc  Sc19  1  0.165157  0.675043  0.127055  1
  Si  Si20  1  0.029443  0.102377  0.749895  1
  Si  Si21  1  0.970599  0.897431  0.250040  1
  Si  Si22  1  0.464252  0.614882  0.250030  1
  Si  Si23  1  0.535280  0.385799  0.749750  1
  Si  Si24  1  0.288096  0.881524  0.749653  1
  Si  Si25  1  0.712294  0.117751  0.249997  1
  Si  Si26  1  0.220888  0.374639  0.250003  1
  Si  Si27  1  0.778352  0.625717  0.749581  1
  Si  Si28  1  0.159999  0.461791  0.533423  1
  Si  Si29  1  0.840849  0.538997  0.467022  1
  Si  Si30  1  0.344403  0.965910  0.461432  1
  Si  Si31  1  0.841053  0.538854  0.033073  1
  Si  Si32  1  0.655462  0.032687  0.538968  1
  Si  Si33  1  0.158863  0.461139  0.966901  1
  Si  Si34  1  0.655873  0.033580  0.961205  1
  Si  Si35  1  0.344209  0.966482  0.038735  1
