# generated using pymatgen
data_Yb5Ce3(Si3Pd)4
_symmetry_space_group_name_H-M   'P 1'
_cell_length_a   8.24240605
_cell_length_b   8.24240501
_cell_length_c   8.28727300
_cell_angle_alpha   90.00000000
_cell_angle_beta   90.00000000
_cell_angle_gamma   119.97584576
_symmetry_Int_Tables_number   1
_chemical_formula_structural   Yb5Ce3(Si3Pd)4
_chemical_formula_sum   'Yb5 Ce3 Si12 Pd4'
_cell_volume   487.70351648
_cell_formula_units_Z   1
loop_
 _symmetry_equiv_pos_site_id
 _symmetry_equiv_pos_as_xyz
  1  'x, y, z'
loop_
 _atom_site_type_symbol
 _atom_site_label
 _atom_site_symmetry_multiplicity
 _atom_site_fract_x
 _atom_site_fract_y
 _atom_site_fract_z
 _atom_site_occupancy
  Yb  Yb0  1  0.499801  0.999702  0.250000  1
  Yb  Yb1  1  0.500270  0.000346  0.750000  1
  Yb  Yb2  1  0.000298  0.500199  0.250000  1
  Yb  Yb3  1  0.999654  0.499730  0.750000  1
  Yb  Yb4  1  0.499908  0.500092  0.250000  1
  Ce  Ce5  1  0.500006  0.499994  0.750000  1
  Ce  Ce6  1  0.000057  0.999943  0.250000  1
  Ce  Ce7  1  0.999971  0.000029  0.750000  1
  Si  Si8  1  0.164048  0.328590  0.998967  1
  Si  Si9  1  0.835939  0.671377  0.999011  1
  Si  Si10  1  0.671410  0.835952  0.998967  1
  Si  Si11  1  0.835939  0.671377  0.500989  1
  Si  Si12  1  0.328623  0.164061  0.999011  1
  Si  Si13  1  0.164048  0.328590  0.501033  1
  Si  Si14  1  0.164812  0.835188  0.998356  1
  Si  Si15  1  0.328623  0.164061  0.500989  1
  Si  Si16  1  0.835186  0.164814  0.998856  1
  Si  Si17  1  0.671410  0.835952  0.501033  1
  Si  Si18  1  0.835186  0.164814  0.501144  1
  Si  Si19  1  0.164812  0.835188  0.501644  1
  Pd  Pd20  1  0.333272  0.666728  0.003067  1
  Pd  Pd21  1  0.666728  0.333272  0.003603  1
  Pd  Pd22  1  0.666728  0.333272  0.496397  1
  Pd  Pd23  1  0.333272  0.666728  0.496933  1
