# generated using pymatgen
data_Rb4VPPtS8
_symmetry_space_group_name_H-M   'P 1'
_cell_length_a   13.06997000
_cell_length_b   7.35309174
_cell_length_c   9.47447718
_cell_angle_alpha   85.36217038
_cell_angle_beta   90.00000000
_cell_angle_gamma   90.00000000
_symmetry_Int_Tables_number   1
_chemical_formula_structural   Rb4VPPtS8
_chemical_formula_sum   'Rb8 V2 P2 Pt2 S16'
_cell_volume   907.56029900
_cell_formula_units_Z   2
loop_
 _symmetry_equiv_pos_site_id
 _symmetry_equiv_pos_as_xyz
  1  'x, y, z'
loop_
 _atom_site_type_symbol
 _atom_site_label
 _atom_site_symmetry_multiplicity
 _atom_site_fract_x
 _atom_site_fract_y
 _atom_site_fract_z
 _atom_site_occupancy
  Rb  Rb0  1  0.133731  0.825255  0.675250  1
  Rb  Rb1  1  0.633731  0.174745  0.824750  1
  Rb  Rb2  1  0.866819  0.171499  0.322530  1
  Rb  Rb3  1  0.366819  0.828501  0.177470  1
  Rb  Rb4  1  0.348167  0.289363  0.543555  1
  Rb  Rb5  1  0.848167  0.710637  0.956445  1
  Rb  Rb6  1  0.649270  0.723028  0.464634  1
  Rb  Rb7  1  0.149270  0.276972  0.035366  1
  V  V8  1  0.423801  0.752723  0.764327  1
  V  V9  1  0.923801  0.247277  0.735673  1
  P  P10  1  0.580355  0.239149  0.241998  1
  P  P11  1  0.080355  0.760851  0.258002  1
  Pt  Pt12  1  0.997883  0.489569  0.510417  1
  Pt  Pt13  1  0.497883  0.510431  0.989583  1
  S  S14  1  0.086286  0.291154  0.675020  1
  S  S15  1  0.586286  0.708846  0.824980  1
  S  S16  1  0.930077  0.691030  0.327179  1
  S  S17  1  0.430077  0.308970  0.172821  1
  S  S18  1  0.401350  0.750590  0.541382  1
  S  S19  1  0.901350  0.249410  0.958618  1
  S  S20  1  0.602117  0.245227  0.451166  1
  S  S21  1  0.102117  0.754773  0.048834  1
  S  S22  1  0.146203  0.530344  0.370840  1
  S  S23  1  0.646203  0.469656  0.129160  1
  S  S24  1  0.838869  0.473615  0.626023  1
  S  S25  1  0.338869  0.526385  0.873977  1
  S  S26  1  0.368502  0.004896  0.831230  1
  S  S27  1  0.868502  0.995104  0.668770  1
  S  S28  1  0.626572  0.002462  0.168874  1
  S  S29  1  0.126572  0.997538  0.331126  1
