# generated using pymatgen
data_Er5Tm3Re3B24Os
_symmetry_space_group_name_H-M   'P 1'
_cell_length_a   3.64456900
_cell_length_b   9.11000678
_cell_length_c   11.48476600
_cell_angle_alpha   90.07373935
_cell_angle_beta   90.00000000
_cell_angle_gamma   90.00000000
_symmetry_Int_Tables_number   1
_chemical_formula_structural   Er5Tm3Re3B24Os
_chemical_formula_sum   'Er5 Tm3 Re3 B24 Os1'
_cell_volume   381.31743956
_cell_formula_units_Z   1
loop_
 _symmetry_equiv_pos_site_id
 _symmetry_equiv_pos_as_xyz
  1  'x, y, z'
loop_
 _atom_site_type_symbol
 _atom_site_label
 _atom_site_symmetry_multiplicity
 _atom_site_fract_x
 _atom_site_fract_y
 _atom_site_fract_z
 _atom_site_occupancy
  Er  Er0  1  0.000000  0.321251  0.414204  1
  Er  Er1  1  0.000000  0.677882  0.587643  1
  Er  Er2  1  0.000000  0.824015  0.084316  1
  Er  Er3  1  0.000000  0.177294  0.913511  1
  Er  Er4  1  0.000000  0.942410  0.370318  1
  Tm  Tm5  1  0.000000  0.056738  0.629288  1
  Tm  Tm6  1  0.000000  0.442620  0.129620  1
  Tm  Tm7  1  0.000000  0.557184  0.871029  1
  Re  Re8  1  0.000000  0.362401  0.678317  1
  Re  Re9  1  0.000000  0.138370  0.179686  1
  Re  Re10  1  0.000000  0.861917  0.820681  1
  B  B11  1  0.500000  0.553462  0.433107  1
  B  B12  1  0.500000  0.447283  0.566485  1
  B  B13  1  0.500000  0.052950  0.066560  1
  B  B14  1  0.500000  0.947311  0.933159  1
  B  B15  1  0.500000  0.748775  0.418838  1
  B  B16  1  0.500000  0.250079  0.580836  1
  B  B17  1  0.500000  0.249731  0.080967  1
  B  B18  1  0.500000  0.750766  0.919157  1
  B  B19  1  0.500000  0.790947  0.265203  1
  B  B20  1  0.500000  0.207898  0.734537  1
  B  B21  1  0.500000  0.292098  0.235156  1
  B  B22  1  0.500000  0.707778  0.765544  1
  B  B23  1  0.500000  0.630600  0.185318  1
  B  B24  1  0.500000  0.370034  0.814633  1
  B  B25  1  0.500000  0.130542  0.315292  1
  B  B26  1  0.500000  0.869459  0.685058  1
  B  B27  1  0.500000  0.981367  0.211916  1
  B  B28  1  0.500000  0.018814  0.787543  1
  B  B29  1  0.500000  0.482187  0.288006  1
  B  B30  1  0.500000  0.519162  0.712182  1
  B  B31  1  0.500000  0.601018  0.028633  1
  B  B32  1  0.500000  0.399370  0.972182  1
  B  B33  1  0.500000  0.100148  0.471941  1
  B  B34  1  0.500000  0.898410  0.528179  1
  Os  Os35  1  0.000000  0.637729  0.320955  1
