# generated using pymatgen
data_Ho4LuZr3(Co4As3)4
_symmetry_space_group_name_H-M   'P 1'
_cell_length_a   12.71895642
_cell_length_b   12.71895716
_cell_length_c   3.82457000
_cell_angle_alpha   90.00000000
_cell_angle_beta   90.00000000
_cell_angle_gamma   120.02935880
_symmetry_Int_Tables_number   1
_chemical_formula_structural   Ho4LuZr3(Co4As3)4
_chemical_formula_sum   'Ho4 Lu1 Zr3 Co16 As12'
_cell_volume   535.65809471
_cell_formula_units_Z   1
loop_
 _symmetry_equiv_pos_site_id
 _symmetry_equiv_pos_as_xyz
  1  'x, y, z'
loop_
 _atom_site_type_symbol
 _atom_site_label
 _atom_site_symmetry_multiplicity
 _atom_site_fract_x
 _atom_site_fract_y
 _atom_site_fract_z
 _atom_site_occupancy
  Ho  Ho0  1  0.817916  0.000082  0.500000  1
  Ho  Ho1  1  0.000082  0.817916  0.500000  1
  Ho  Ho2  1  0.333372  0.666827  0.000000  1
  Ho  Ho3  1  0.666827  0.333372  0.000000  1
  Lu  Lu4  1  0.182185  0.182185  0.500000  1
  Zr  Zr5  1  0.559510  0.559510  0.000000  1
  Zr  Zr6  1  0.439611  0.000300  0.000000  1
  Zr  Zr7  1  0.000300  0.439611  0.000000  1
  Co  Co8  1  0.719834  0.719834  0.500000  1
  Co  Co9  1  0.279885  0.000665  0.500000  1
  Co  Co10  1  0.000665  0.279885  0.500000  1
  Co  Co11  1  0.177689  0.372867  0.000000  1
  Co  Co12  1  0.626442  0.803928  0.000000  1
  Co  Co13  1  0.195918  0.822822  0.000000  1
  Co  Co14  1  0.803928  0.626442  0.000000  1
  Co  Co15  1  0.822822  0.195918  0.000000  1
  Co  Co16  1  0.372867  0.177689  0.000000  1
  Co  Co17  1  0.356648  0.479013  0.500000  1
  Co  Co18  1  0.520312  0.877297  0.500000  1
  Co  Co19  1  0.122706  0.643143  0.500000  1
  Co  Co20  1  0.877297  0.520312  0.500000  1
  Co  Co21  1  0.643143  0.122706  0.500000  1
  Co  Co22  1  0.479013  0.356648  0.500000  1
  Co  Co23  1  0.000667  0.000667  0.000000  1
  As  As24  1  0.823109  0.823109  0.000000  1
  As  As25  1  0.177313  0.001035  0.000000  1
  As  As26  1  0.001035  0.177313  0.000000  1
  As  As27  1  0.173735  0.482088  0.500000  1
  As  As28  1  0.517910  0.691319  0.500000  1
  As  As29  1  0.308419  0.826789  0.500000  1
  As  As30  1  0.691319  0.517910  0.500000  1
  As  As31  1  0.826789  0.308419  0.500000  1
  As  As32  1  0.482088  0.173735  0.500000  1
  As  As33  1  0.349697  0.349697  0.000000  1
  As  As34  1  0.648968  0.999976  0.000000  1
  As  As35  1  0.999976  0.648968  0.000000  1
