# generated using pymatgen
data_Th2Ni4AsPPt2
_symmetry_space_group_name_H-M   'P 1'
_cell_length_a   4.00025400
_cell_length_b   4.00025400
_cell_length_c   10.19727300
_cell_angle_alpha   90.00000000
_cell_angle_beta   90.00000000
_cell_angle_gamma   90.00000000
_symmetry_Int_Tables_number   1
_chemical_formula_structural   Th2Ni4AsPPt2
_chemical_formula_sum   'Th2 Ni4 As1 P1 Pt2'
_cell_volume   163.17708952
_cell_formula_units_Z   1
loop_
 _symmetry_equiv_pos_site_id
 _symmetry_equiv_pos_as_xyz
  1  'x, y, z'
loop_
 _atom_site_type_symbol
 _atom_site_label
 _atom_site_symmetry_multiplicity
 _atom_site_fract_x
 _atom_site_fract_y
 _atom_site_fract_z
 _atom_site_occupancy
  Th  Th0  1  0.000000  0.500000  0.740361  1
  Th  Th1  1  0.500000  0.000000  0.251626  1
  Ni  Ni2  1  0.000000  0.500000  0.335683  1
  Ni  Ni3  1  0.500000  0.000000  0.656187  1
  Ni  Ni4  1  0.500000  0.500000  0.010179  1
  Ni  Ni5  1  0.000000  0.000000  0.010179  1
  As  As6  1  0.500000  0.000000  0.882068  1
  P  P7  1  0.000000  0.500000  0.119915  1
  Pt  Pt8  1  0.000000  0.000000  0.496901  1
  Pt  Pt9  1  0.500000  0.500000  0.496901  1
