# generated using pymatgen
data_Cs2Zr(GeO3)3
_symmetry_space_group_name_H-M   'P 1'
_cell_length_a   7.46793000
_cell_length_b   7.46793042
_cell_length_c   10.83107700
_cell_angle_alpha   90.00000000
_cell_angle_beta   90.00000000
_cell_angle_gamma   120.00000700
_symmetry_Int_Tables_number   1
_chemical_formula_structural   Cs2Zr(GeO3)3
_chemical_formula_sum   'Cs4 Zr2 Ge6 O18'
_cell_volume   523.12171202
_cell_formula_units_Z   2
loop_
 _symmetry_equiv_pos_site_id
 _symmetry_equiv_pos_as_xyz
  1  'x, y, z'
loop_
 _atom_site_type_symbol
 _atom_site_label
 _atom_site_symmetry_multiplicity
 _atom_site_fract_x
 _atom_site_fract_y
 _atom_site_fract_z
 _atom_site_occupancy
  Cs  Cs0  1  0.333333  0.666667  0.060017  1
  Cs  Cs1  1  0.666667  0.333333  0.560017  1
  Cs  Cs2  1  0.666667  0.333333  0.939983  1
  Cs  Cs3  1  0.333333  0.666667  0.439983  1
  Zr  Zr4  1  0.000000  0.000000  0.000000  1
  Zr  Zr5  1  0.000000  0.000000  0.500000  1
  Ge  Ge6  1  0.378417  0.240235  0.250000  1
  Ge  Ge7  1  0.138183  0.378417  0.750000  1
  Ge  Ge8  1  0.240235  0.861817  0.750000  1
  Ge  Ge9  1  0.759765  0.138183  0.250000  1
  Ge  Ge10  1  0.861817  0.621583  0.250000  1
  Ge  Ge11  1  0.621583  0.759765  0.750000  1
  O  O12  1  0.491440  0.076716  0.250000  1
  O  O13  1  0.414725  0.491440  0.750000  1
  O  O14  1  0.076716  0.585275  0.750000  1
  O  O15  1  0.923284  0.414725  0.250000  1
  O  O16  1  0.585275  0.508560  0.250000  1
  O  O17  1  0.508560  0.923284  0.750000  1
  O  O18  1  0.247708  0.214000  0.111910  1
  O  O19  1  0.033708  0.247708  0.611910  1
  O  O20  1  0.214000  0.966292  0.611910  1
  O  O21  1  0.786000  0.033708  0.111910  1
  O  O22  1  0.966292  0.752292  0.111910  1
  O  O23  1  0.752292  0.786000  0.611910  1
  O  O24  1  0.752292  0.786000  0.888090  1
  O  O25  1  0.966292  0.752292  0.388090  1
  O  O26  1  0.786000  0.033708  0.388090  1
  O  O27  1  0.214000  0.966292  0.888090  1
  O  O28  1  0.033708  0.247708  0.888090  1
  O  O29  1  0.247708  0.214000  0.388090  1
