# generated using pymatgen
data_Er2Lu4Fe3Co13(TcP6)2
_symmetry_space_group_name_H-M   'P 1'
_cell_length_a   3.67832400
_cell_length_b   10.45530500
_cell_length_c   12.12576600
_cell_angle_alpha   90.00000000
_cell_angle_beta   90.00000000
_cell_angle_gamma   90.00000000
_symmetry_Int_Tables_number   1
_chemical_formula_structural   Er2Lu4Fe3Co13(TcP6)2
_chemical_formula_sum   'Er2 Lu4 Fe3 Co13 Tc2 P12'
_cell_volume   466.33270045
_cell_formula_units_Z   1
loop_
 _symmetry_equiv_pos_site_id
 _symmetry_equiv_pos_as_xyz
  1  'x, y, z'
loop_
 _atom_site_type_symbol
 _atom_site_label
 _atom_site_symmetry_multiplicity
 _atom_site_fract_x
 _atom_site_fract_y
 _atom_site_fract_z
 _atom_site_occupancy
  Er  Er0  1  0.000000  0.500033  0.526233  1
  Er  Er1  1  0.500000  0.999979  0.473743  1
  Lu  Lu2  1  0.500000  0.818917  0.204823  1
  Lu  Lu3  1  0.500000  0.181076  0.204875  1
  Lu  Lu4  1  0.000000  0.680848  0.795321  1
  Lu  Lu5  1  0.000000  0.318780  0.795549  1
  Fe  Fe6  1  0.000000  0.501395  0.987397  1
  Fe  Fe7  1  0.500000  0.999658  0.012698  1
  Fe  Fe8  1  0.500000  0.331053  0.990832  1
  Co  Co9  1  0.500000  0.500282  0.701449  1
  Co  Co10  1  0.000000  0.000021  0.298157  1
  Co  Co11  1  0.500000  0.669352  0.989688  1
  Co  Co12  1  0.000000  0.167585  0.010298  1
  Co  Co13  1  0.000000  0.831187  0.010334  1
  Co  Co14  1  0.500000  0.296379  0.431340  1
  Co  Co15  1  0.500000  0.703669  0.431293  1
  Co  Co16  1  0.000000  0.203575  0.568706  1
  Co  Co17  1  0.000000  0.796376  0.568638  1
  Co  Co18  1  0.500000  0.877784  0.707133  1
  Co  Co19  1  0.500000  0.121878  0.706729  1
  Co  Co20  1  0.000000  0.622260  0.292883  1
  Co  Co21  1  0.000000  0.377684  0.292863  1
  Tc  Tc22  1  0.500000  0.500940  0.156949  1
  Tc  Tc23  1  0.000000  0.999806  0.842989  1
  P  P24  1  0.500000  0.498755  0.881876  1
  P  P25  1  0.000000  0.000038  0.118563  1
  P  P26  1  0.500000  0.499908  0.349256  1
  P  P27  1  0.000000  0.000059  0.650673  1
  P  P28  1  0.500000  0.312044  0.617655  1
  P  P29  1  0.500000  0.688017  0.617479  1
  P  P30  1  0.000000  0.188086  0.382647  1
  P  P31  1  0.000000  0.812050  0.382583  1
  P  P32  1  0.500000  0.846083  0.892780  1
  P  P33  1  0.500000  0.154909  0.893117  1
  P  P34  1  0.000000  0.653939  0.107266  1
  P  P35  1  0.000000  0.345593  0.105187  1
