# generated using pymatgen
data_TmLu19(SiBi2)4
_symmetry_space_group_name_H-M   'P 1'
_cell_length_a   7.91143308
_cell_length_b   9.04122000
_cell_length_c   11.76058512
_cell_angle_alpha   90.00000000
_cell_angle_beta   89.98381838
_cell_angle_gamma   90.00000000
_symmetry_Int_Tables_number   1
_chemical_formula_structural   TmLu19(SiBi2)4
_chemical_formula_sum   'Tm1 Lu19 Si4 Bi8'
_cell_volume   841.22294141
_cell_formula_units_Z   1
loop_
 _symmetry_equiv_pos_site_id
 _symmetry_equiv_pos_as_xyz
  1  'x, y, z'
loop_
 _atom_site_type_symbol
 _atom_site_label
 _atom_site_symmetry_multiplicity
 _atom_site_fract_x
 _atom_site_fract_y
 _atom_site_fract_z
 _atom_site_occupancy
  Tm  Tm0  1  0.362929  0.250000  0.294836  1
  Lu  Lu1  1  0.678915  0.944411  0.437999  1
  Lu  Lu2  1  0.821096  0.555603  0.938028  1
  Lu  Lu3  1  0.321102  0.444428  0.562069  1
  Lu  Lu4  1  0.178838  0.055504  0.061887  1
  Lu  Lu5  1  0.321102  0.055572  0.562069  1
  Lu  Lu6  1  0.178838  0.444496  0.061887  1
  Lu  Lu7  1  0.678915  0.555589  0.437999  1
  Lu  Lu8  1  0.821096  0.944397  0.938028  1
  Lu  Lu9  1  0.331204  0.750000  0.287019  1
  Lu  Lu10  1  0.168813  0.750000  0.787004  1
  Lu  Lu11  1  0.668845  0.250000  0.713019  1
  Lu  Lu12  1  0.831300  0.250000  0.212988  1
  Lu  Lu13  1  0.038017  0.750000  0.497460  1
  Lu  Lu14  1  0.461988  0.750000  0.997437  1
  Lu  Lu15  1  0.961905  0.250000  0.502586  1
  Lu  Lu16  1  0.538141  0.250000  0.002426  1
  Lu  Lu17  1  0.862947  0.750000  0.205087  1
  Lu  Lu18  1  0.636989  0.750000  0.705073  1
  Lu  Lu19  1  0.136965  0.250000  0.794921  1
  Si  Si20  1  0.090973  0.750000  0.021344  1
  Si  Si21  1  0.409031  0.750000  0.521328  1
  Si  Si22  1  0.909006  0.250000  0.978647  1
  Si  Si23  1  0.591297  0.250000  0.479013  1
  Bi  Bi24  1  0.566978  0.987971  0.174821  1
  Bi  Bi25  1  0.933145  0.511886  0.674923  1
  Bi  Bi26  1  0.433115  0.488146  0.825086  1
  Bi  Bi27  1  0.066637  0.011708  0.325093  1
  Bi  Bi28  1  0.433115  0.011854  0.825086  1
  Bi  Bi29  1  0.066637  0.488292  0.325093  1
  Bi  Bi30  1  0.566978  0.512029  0.174821  1
  Bi  Bi31  1  0.933145  0.988114  0.674923  1
