# generated using pymatgen
data_Er4Sc4Re(TcB8)3
_symmetry_space_group_name_H-M   'P 1'
_cell_length_a   3.56907600
_cell_length_b   8.98268903
_cell_length_c   11.33910623
_cell_angle_alpha   90.02702256
_cell_angle_beta   90.00000000
_cell_angle_gamma   90.00000000
_symmetry_Int_Tables_number   1
_chemical_formula_structural   Er4Sc4Re(TcB8)3
_chemical_formula_sum   'Er4 Sc4 Re1 Tc3 B24'
_cell_volume   363.53056926
_cell_formula_units_Z   1
loop_
 _symmetry_equiv_pos_site_id
 _symmetry_equiv_pos_as_xyz
  1  'x, y, z'
loop_
 _atom_site_type_symbol
 _atom_site_label
 _atom_site_symmetry_multiplicity
 _atom_site_fract_x
 _atom_site_fract_y
 _atom_site_fract_z
 _atom_site_occupancy
  Er  Er0  1  0.000000  0.321881  0.413974  1
  Er  Er1  1  0.000000  0.678168  0.585790  1
  Er  Er2  1  0.000000  0.821643  0.086459  1
  Er  Er3  1  0.000000  0.178816  0.914069  1
  Sc  Sc4  1  0.000000  0.943806  0.370032  1
  Sc  Sc5  1  0.000000  0.056554  0.629251  1
  Sc  Sc6  1  0.000000  0.443680  0.130115  1
  Sc  Sc7  1  0.000000  0.555574  0.870330  1
  Re  Re8  1  0.000000  0.859591  0.818585  1
  Tc  Tc9  1  0.000000  0.640499  0.318712  1
  Tc  Tc10  1  0.000000  0.359389  0.681221  1
  Tc  Tc11  1  0.000000  0.140585  0.181616  1
  B  B12  1  0.500000  0.554146  0.433047  1
  B  B13  1  0.500000  0.445994  0.566897  1
  B  B14  1  0.500000  0.054173  0.067098  1
  B  B15  1  0.500000  0.946245  0.933362  1
  B  B16  1  0.500000  0.753896  0.418938  1
  B  B17  1  0.500000  0.246288  0.580890  1
  B  B18  1  0.500000  0.253866  0.081055  1
  B  B19  1  0.500000  0.745646  0.919317  1
  B  B20  1  0.500000  0.794974  0.264772  1
  B  B21  1  0.500000  0.205174  0.735047  1
  B  B22  1  0.500000  0.294877  0.235299  1
  B  B23  1  0.500000  0.704612  0.764713  1
  B  B24  1  0.500000  0.628935  0.183268  1
  B  B25  1  0.500000  0.370905  0.816786  1
  B  B26  1  0.500000  0.129042  0.316752  1
  B  B27  1  0.500000  0.871054  0.682924  1
  B  B28  1  0.500000  0.980827  0.213157  1
  B  B29  1  0.500000  0.019634  0.786663  1
  B  B30  1  0.500000  0.480918  0.286848  1
  B  B31  1  0.500000  0.518922  0.713196  1
  B  B32  1  0.500000  0.595909  0.026614  1
  B  B33  1  0.500000  0.403619  0.973640  1
  B  B34  1  0.500000  0.096113  0.473292  1
  B  B35  1  0.500000  0.904044  0.526270  1
