# generated using pymatgen
data_Dy5Ta3P12(IrRh3)4
_symmetry_space_group_name_H-M   'P 1'
_cell_length_a   12.80003800
_cell_length_b   12.80003743
_cell_length_c   3.93330600
_cell_angle_alpha   90.00000000
_cell_angle_beta   90.00000000
_cell_angle_gamma   119.99999630
_symmetry_Int_Tables_number   1
_chemical_formula_structural   Dy5Ta3P12(IrRh3)4
_chemical_formula_sum   'Dy5 Ta3 P12 Ir4 Rh12'
_cell_volume   558.09853330
_cell_formula_units_Z   1
loop_
 _symmetry_equiv_pos_site_id
 _symmetry_equiv_pos_as_xyz
  1  'x, y, z'
loop_
 _atom_site_type_symbol
 _atom_site_label
 _atom_site_symmetry_multiplicity
 _atom_site_fract_x
 _atom_site_fract_y
 _atom_site_fract_z
 _atom_site_occupancy
  Dy  Dy0  1  0.333333  0.666667  0.500000  1
  Dy  Dy1  1  0.666667  0.333333  0.500000  1
  Dy  Dy2  1  0.000000  0.813491  0.000000  1
  Dy  Dy3  1  0.186509  0.186509  0.000000  1
  Dy  Dy4  1  0.813491  0.000000  0.000000  1
  Ta  Ta5  1  0.000000  0.450536  0.500000  1
  Ta  Ta6  1  0.549464  0.549464  0.500000  1
  Ta  Ta7  1  0.450536  0.000000  0.500000  1
  P  P8  1  0.000000  0.642205  0.500000  1
  P  P9  1  0.357795  0.357795  0.500000  1
  P  P10  1  0.642205  0.000000  0.500000  1
  P  P11  1  0.516992  0.683138  0.000000  1
  P  P12  1  0.316862  0.833854  0.000000  1
  P  P13  1  0.166146  0.483008  0.000000  1
  P  P14  1  0.483008  0.166146  0.000000  1
  P  P15  1  0.683138  0.516992  0.000000  1
  P  P16  1  0.833854  0.316862  0.000000  1
  P  P17  1  0.000000  0.176320  0.500000  1
  P  P18  1  0.823680  0.823680  0.500000  1
  P  P19  1  0.176320  0.000000  0.500000  1
  Ir  Ir20  1  0.000000  0.281547  0.000000  1
  Ir  Ir21  1  0.718453  0.718453  0.000000  1
  Ir  Ir22  1  0.281547  0.000000  0.000000  1
  Ir  Ir23  1  0.000000  0.000000  0.500000  1
  Rh  Rh24  1  0.511197  0.866865  0.000000  1
  Rh  Rh25  1  0.133135  0.644335  0.000000  1
  Rh  Rh26  1  0.355665  0.488803  0.000000  1
  Rh  Rh27  1  0.488803  0.355665  0.000000  1
  Rh  Rh28  1  0.866865  0.511197  0.000000  1
  Rh  Rh29  1  0.644335  0.133135  0.000000  1
  Rh  Rh30  1  0.625215  0.802876  0.500000  1
  Rh  Rh31  1  0.197124  0.822339  0.500000  1
  Rh  Rh32  1  0.177661  0.374785  0.500000  1
  Rh  Rh33  1  0.374785  0.177661  0.500000  1
  Rh  Rh34  1  0.802876  0.625215  0.500000  1
  Rh  Rh35  1  0.822339  0.197124  0.500000  1
