# generated using pymatgen
data_Y6NiPt2Rh15
_symmetry_space_group_name_H-M   'P 1'
_cell_length_a   5.29482500
_cell_length_b   5.29482479
_cell_length_c   17.42182600
_cell_angle_alpha   90.00000000
_cell_angle_beta   90.00000000
_cell_angle_gamma   119.99999509
_symmetry_Int_Tables_number   1
_chemical_formula_structural   Y6NiPt2Rh15
_chemical_formula_sum   'Y6 Ni1 Pt2 Rh15'
_cell_volume   422.98749573
_cell_formula_units_Z   1
loop_
 _symmetry_equiv_pos_site_id
 _symmetry_equiv_pos_as_xyz
  1  'x, y, z'
loop_
 _atom_site_type_symbol
 _atom_site_label
 _atom_site_symmetry_multiplicity
 _atom_site_fract_x
 _atom_site_fract_y
 _atom_site_fract_z
 _atom_site_occupancy
  Y  Y0  1  0.333333  0.666667  0.957829  1
  Y  Y1  1  0.666667  0.333333  0.044726  1
  Y  Y2  1  0.666667  0.333333  0.455274  1
  Y  Y3  1  0.333333  0.666667  0.542171  1
  Y  Y4  1  0.333333  0.666667  0.750000  1
  Y  Y5  1  0.666667  0.333333  0.250000  1
  Ni  Ni6  1  0.333333  0.666667  0.250000  1
  Pt  Pt7  1  0.000000  0.000000  0.497293  1
  Pt  Pt8  1  0.000000  0.000000  0.002707  1
  Rh  Rh9  1  0.169187  0.830813  0.370456  1
  Rh  Rh10  1  0.169187  0.338374  0.370456  1
  Rh  Rh11  1  0.661626  0.830813  0.370456  1
  Rh  Rh12  1  0.832435  0.167565  0.625292  1
  Rh  Rh13  1  0.832435  0.664868  0.625292  1
  Rh  Rh14  1  0.335132  0.167565  0.625292  1
  Rh  Rh15  1  0.832435  0.167565  0.874708  1
  Rh  Rh16  1  0.832435  0.664868  0.874708  1
  Rh  Rh17  1  0.335132  0.167565  0.874708  1
  Rh  Rh18  1  0.169187  0.830813  0.129544  1
  Rh  Rh19  1  0.169187  0.338374  0.129544  1
  Rh  Rh20  1  0.661626  0.830813  0.129544  1
  Rh  Rh21  1  0.666667  0.333333  0.750000  1
  Rh  Rh22  1  0.000000  0.000000  0.250000  1
  Rh  Rh23  1  0.000000  0.000000  0.750000  1
