# generated using pymatgen
data_Sm6Nb3Al13Os7
_symmetry_space_group_name_H-M   'P 1'
_cell_length_a   9.13321826
_cell_length_b   9.13321922
_cell_length_c   9.13321963
_cell_angle_alpha   59.58450067
_cell_angle_beta   59.58449293
_cell_angle_gamma   59.58448846
_symmetry_Int_Tables_number   1
_chemical_formula_structural   Sm6Nb3Al13Os7
_chemical_formula_sum   'Sm6 Nb3 Al13 Os7'
_cell_volume   533.62390485
_cell_formula_units_Z   1
loop_
 _symmetry_equiv_pos_site_id
 _symmetry_equiv_pos_as_xyz
  1  'x, y, z'
loop_
 _atom_site_type_symbol
 _atom_site_label
 _atom_site_symmetry_multiplicity
 _atom_site_fract_x
 _atom_site_fract_y
 _atom_site_fract_z
 _atom_site_occupancy
  Sm  Sm0  1  0.709019  0.709019  0.283798  1
  Sm  Sm1  1  0.294450  0.707970  0.294450  1
  Sm  Sm2  1  0.707970  0.294450  0.294450  1
  Sm  Sm3  1  0.294450  0.294450  0.707970  1
  Sm  Sm4  1  0.709019  0.283798  0.709019  1
  Sm  Sm5  1  0.283798  0.709019  0.709019  1
  Nb  Nb6  1  0.877503  0.877503  0.361423  1
  Nb  Nb7  1  0.877503  0.361423  0.877503  1
  Nb  Nb8  1  0.361423  0.877503  0.877503  1
  Al  Al9  1  0.881077  0.881077  0.881077  1
  Al  Al10  1  0.121503  0.121503  0.640794  1
  Al  Al11  1  0.121503  0.640794  0.121503  1
  Al  Al12  1  0.640794  0.121503  0.121503  1
  Al  Al13  1  0.120200  0.120200  0.120200  1
  Al  Al14  1  0.671622  0.671622  0.988243  1
  Al  Al15  1  0.671622  0.988243  0.671622  1
  Al  Al16  1  0.988243  0.671622  0.671622  1
  Al  Al17  1  0.667459  0.667459  0.667459  1
  Al  Al18  1  0.329779  0.329779  0.013314  1
  Al  Al19  1  0.329779  0.013314  0.329779  1
  Al  Al20  1  0.013314  0.329779  0.329779  1
  Al  Al21  1  0.330497  0.330497  0.330497  1
  Os  Os22  1  0.002068  0.002068  0.002068  1
  Os  Os23  1  0.998493  0.998493  0.497865  1
  Os  Os24  1  0.502241  0.996069  0.502241  1
  Os  Os25  1  0.996069  0.502241  0.502241  1
  Os  Os26  1  0.502241  0.502241  0.996069  1
  Os  Os27  1  0.998493  0.497865  0.998493  1
  Os  Os28  1  0.497865  0.998493  0.998493  1
