# generated using pymatgen
data_Tm8Lu12Si15Ru
_symmetry_space_group_name_H-M   'P 1'
_cell_length_a   7.22264683
_cell_length_b   7.61753243
_cell_length_c   14.24169200
_cell_angle_alpha   90.00000000
_cell_angle_beta   90.00000000
_cell_angle_gamma   90.06964549
_symmetry_Int_Tables_number   1
_chemical_formula_structural   Tm8Lu12Si15Ru
_chemical_formula_sum   'Tm8 Lu12 Si15 Ru1'
_cell_volume   783.55946170
_cell_formula_units_Z   1
loop_
 _symmetry_equiv_pos_site_id
 _symmetry_equiv_pos_as_xyz
  1  'x, y, z'
loop_
 _atom_site_type_symbol
 _atom_site_label
 _atom_site_symmetry_multiplicity
 _atom_site_fract_x
 _atom_site_fract_y
 _atom_site_fract_z
 _atom_site_occupancy
  Tm  Tm0  1  0.017357  0.182932  0.096386  1
  Tm  Tm1  1  0.985474  0.827474  0.905330  1
  Tm  Tm2  1  0.483923  0.679690  0.905093  1
  Tm  Tm3  1  0.985474  0.827474  0.594670  1
  Tm  Tm4  1  0.517000  0.319243  0.096266  1
  Tm  Tm5  1  0.017357  0.182932  0.403614  1
  Tm  Tm6  1  0.517000  0.319243  0.403734  1
  Tm  Tm7  1  0.483923  0.679690  0.594907  1
  Lu  Lu8  1  0.155654  0.514536  0.750000  1
  Lu  Lu9  1  0.841052  0.488900  0.250000  1
  Lu  Lu10  1  0.342194  0.013766  0.250000  1
  Lu  Lu11  1  0.666363  0.988286  0.750000  1
  Lu  Lu12  1  0.311501  0.173016  0.627165  1
  Lu  Lu13  1  0.676655  0.824392  0.375224  1
  Lu  Lu14  1  0.174972  0.679770  0.375157  1
  Lu  Lu15  1  0.676655  0.824392  0.124776  1
  Lu  Lu16  1  0.836194  0.314569  0.626855  1
  Lu  Lu17  1  0.311501  0.173016  0.872835  1
  Lu  Lu18  1  0.836194  0.314569  0.873145  1
  Lu  Lu19  1  0.174972  0.679770  0.124843  1
  Si  Si20  1  0.972387  0.895188  0.250000  1
  Si  Si21  1  0.473806  0.607028  0.250000  1
  Si  Si22  1  0.526691  0.395563  0.750000  1
  Si  Si23  1  0.282466  0.863976  0.750000  1
  Si  Si24  1  0.718992  0.133947  0.250000  1
  Si  Si25  1  0.220394  0.368754  0.250000  1
  Si  Si26  1  0.770468  0.626095  0.750000  1
  Si  Si27  1  0.158890  0.472726  0.537614  1
  Si  Si28  1  0.844773  0.531788  0.462137  1
  Si  Si29  1  0.344305  0.969993  0.460365  1
  Si  Si30  1  0.844773  0.531788  0.037863  1
  Si  Si31  1  0.651223  0.031371  0.538424  1
  Si  Si32  1  0.158890  0.472726  0.962386  1
  Si  Si33  1  0.651223  0.031371  0.961576  1
  Si  Si34  1  0.344305  0.969993  0.039635  1
  Ru  Ru35  1  0.024994  0.090036  0.750000  1
