# generated using pymatgen
data_KTc12Br25
_symmetry_space_group_name_H-M   'P 1'
_cell_length_a   10.17566926
_cell_length_b   11.10274140
_cell_length_c   11.90543783
_cell_angle_alpha   82.63442720
_cell_angle_beta   73.93107562
_cell_angle_gamma   87.01984529
_symmetry_Int_Tables_number   1
_chemical_formula_structural   KTc12Br25
_chemical_formula_sum   'K1 Tc12 Br25'
_cell_volume   1281.64108556
_cell_formula_units_Z   1
loop_
 _symmetry_equiv_pos_site_id
 _symmetry_equiv_pos_as_xyz
  1  'x, y, z'
loop_
 _atom_site_type_symbol
 _atom_site_label
 _atom_site_symmetry_multiplicity
 _atom_site_fract_x
 _atom_site_fract_y
 _atom_site_fract_z
 _atom_site_occupancy
  K  K0  1  0.500000  0.000000  0.000000  1
  Tc  Tc1  1  0.832784  0.257789  0.127427  1
  Tc  Tc2  1  0.167216  0.742211  0.872573  1
  Tc  Tc3  1  0.761496  0.124238  0.283276  1
  Tc  Tc4  1  0.238504  0.875762  0.716724  1
  Tc  Tc5  1  0.064626  0.277428  0.191761  1
  Tc  Tc6  1  0.935374  0.722572  0.808239  1
  Tc  Tc7  1  0.849035  0.427686  0.265057  1
  Tc  Tc8  1  0.150965  0.572314  0.734943  1
  Tc  Tc9  1  0.775887  0.295380  0.422657  1
  Tc  Tc10  1  0.224113  0.704620  0.577343  1
  Tc  Tc11  1  0.991677  0.145627  0.349424  1
  Tc  Tc12  1  0.008323  0.854373  0.650576  1
  Br  Br13  1  0.944745  0.964141  0.263720  1
  Br  Br14  1  0.055255  0.035859  0.736280  1
  Br  Br15  1  0.970455  0.272255  0.512562  1
  Br  Br16  1  0.029545  0.727745  0.487438  1
  Br  Br17  1  0.657222  0.424760  0.170227  1
  Br  Br18  1  0.342778  0.575240  0.829773  1
  Br  Br19  1  0.085249  0.467248  0.277241  1
  Br  Br20  1  0.914751  0.532752  0.722759  1
  Br  Br21  1  0.000000  0.500000  0.000000  1
  Br  Br22  1  0.607923  0.970036  0.248886  1
  Br  Br23  1  0.392077  0.029964  0.751114  1
  Br  Br24  1  0.195129  0.035221  0.400883  1
  Br  Br25  1  0.804871  0.964779  0.599117  1
  Br  Br26  1  0.555606  0.220993  0.406895  1
  Br  Br27  1  0.444394  0.779007  0.593105  1
  Br  Br28  1  0.056670  0.164434  0.025660  1
  Br  Br29  1  0.943330  0.835566  0.974340  1
  Br  Br30  1  0.777644  0.637479  0.312657  1
  Br  Br31  1  0.222356  0.362521  0.687343  1
  Br  Br32  1  0.741053  0.217236  0.958870  1
  Br  Br33  1  0.258947  0.782764  0.041130  1
  Br  Br34  1  0.321615  0.265280  0.120382  1
  Br  Br35  1  0.678385  0.734720  0.879618  1
  Br  Br36  1  0.645606  0.402069  0.591120  1
  Br  Br37  1  0.354394  0.597931  0.408880  1
