# generated using pymatgen
data_Zn22Rh3Au
_symmetry_space_group_name_H-M   'P 1'
_cell_length_a   7.95181487
_cell_length_b   7.97479038
_cell_length_c   7.95181515
_cell_angle_alpha   109.52976374
_cell_angle_beta   109.41262170
_cell_angle_gamma   109.52975610
_symmetry_Int_Tables_number   1
_chemical_formula_structural   Zn22Rh3Au
_chemical_formula_sum   'Zn22 Rh3 Au1'
_cell_volume   387.89629749
_cell_formula_units_Z   1
loop_
 _symmetry_equiv_pos_site_id
 _symmetry_equiv_pos_as_xyz
  1  'x, y, z'
loop_
 _atom_site_type_symbol
 _atom_site_label
 _atom_site_symmetry_multiplicity
 _atom_site_fract_x
 _atom_site_fract_y
 _atom_site_fract_z
 _atom_site_occupancy
  Zn  Zn0  1  0.000000  0.790041  0.000000  1
  Zn  Zn1  1  0.781265  0.993002  0.000000  1
  Zn  Zn2  1  0.000000  0.993002  0.781265  1
  Zn  Zn3  1  0.218735  0.211737  0.218735  1
  Zn  Zn4  1  0.356361  0.621475  0.356361  1
  Zn  Zn5  1  0.266886  0.000886  0.649062  1
  Zn  Zn6  1  0.649062  0.000886  0.266886  1
  Zn  Zn7  1  0.273506  0.655285  0.000000  1
  Zn  Zn8  1  0.733114  0.734001  0.382176  1
  Zn  Zn9  1  0.382176  0.734001  0.733114  1
  Zn  Zn10  1  0.000000  0.655285  0.273506  1
  Zn  Zn11  1  0.000000  0.265114  0.643639  1
  Zn  Zn12  1  0.643639  0.265114  0.000000  1
  Zn  Zn13  1  0.350938  0.351824  0.617824  1
  Zn  Zn14  1  0.617824  0.351824  0.350938  1
  Zn  Zn15  1  0.726494  0.381779  0.726494  1
  Zn  Zn16  1  0.360136  0.355839  0.000000  1
  Zn  Zn17  1  0.000000  0.641306  0.644667  1
  Zn  Zn18  1  0.000000  0.355839  0.360136  1
  Zn  Zn19  1  0.355333  0.996639  0.355333  1
  Zn  Zn20  1  0.639864  0.995703  0.639864  1
  Zn  Zn21  1  0.644667  0.641306  0.000000  1
  Rh  Rh22  1  0.345103  0.001098  0.000000  1
  Rh  Rh23  1  0.000000  0.001098  0.345103  1
  Rh  Rh24  1  0.654897  0.655995  0.654897  1
  Au  Au25  1  0.000000  0.349921  0.000000  1
