# generated using pymatgen
data_Nd15Y(CdCo)4
_symmetry_space_group_name_H-M   'P 1'
_cell_length_a   9.80544780
_cell_length_b   9.80544790
_cell_length_c   9.83371500
_cell_angle_alpha   59.90458861
_cell_angle_beta   59.90458828
_cell_angle_gamma   60.14100020
_symmetry_Int_Tables_number   1
_chemical_formula_structural   Nd15Y(CdCo)4
_chemical_formula_sum   'Nd15 Y1 Cd4 Co4'
_cell_volume   668.29617115
_cell_formula_units_Z   1
loop_
 _symmetry_equiv_pos_site_id
 _symmetry_equiv_pos_as_xyz
  1  'x, y, z'
loop_
 _atom_site_type_symbol
 _atom_site_label
 _atom_site_symmetry_multiplicity
 _atom_site_fract_x
 _atom_site_fract_y
 _atom_site_fract_z
 _atom_site_occupancy
  Nd  Nd0  1  0.152392  0.539917  0.153845  1
  Nd  Nd1  1  0.686493  0.311265  0.689054  1
  Nd  Nd2  1  0.686493  0.311265  0.313187  1
  Nd  Nd3  1  0.939369  0.560708  0.562573  1
  Nd  Nd4  1  0.539917  0.152392  0.153845  1
  Nd  Nd5  1  0.155106  0.155106  0.539164  1
  Nd  Nd6  1  0.940652  0.940652  0.559348  1
  Nd  Nd7  1  0.311265  0.686493  0.313187  1
  Nd  Nd8  1  0.560708  0.939369  0.937350  1
  Nd  Nd9  1  0.560708  0.939369  0.562573  1
  Nd  Nd10  1  0.690022  0.690022  0.309978  1
  Nd  Nd11  1  0.560079  0.560079  0.939921  1
  Nd  Nd12  1  0.939369  0.560708  0.937350  1
  Nd  Nd13  1  0.311265  0.686493  0.689054  1
  Nd  Nd14  1  0.155106  0.155106  0.150624  1
  Y  Y15  1  0.309338  0.309338  0.690662  1
  Cd  Cd16  1  0.922367  0.238946  0.919344  1
  Cd  Cd17  1  0.920695  0.920695  0.920319  1
  Cd  Cd18  1  0.920695  0.920695  0.238291  1
  Cd  Cd19  1  0.238946  0.922367  0.919344  1
  Co  Co20  1  0.359308  0.359308  0.921380  1
  Co  Co21  1  0.358536  0.921863  0.359800  1
  Co  Co22  1  0.921863  0.358536  0.359800  1
  Co  Co23  1  0.359308  0.359308  0.360006  1
