# generated using pymatgen
data_SmDyTa4(B2Ru5)2
_symmetry_space_group_name_H-M   'P 1'
_cell_length_a   9.58923037
_cell_length_b   9.58922915
_cell_length_c   3.09436300
_cell_angle_alpha   90.00000000
_cell_angle_beta   90.00000000
_cell_angle_gamma   90.80930193
_symmetry_Int_Tables_number   1
_chemical_formula_structural   SmDyTa4(B2Ru5)2
_chemical_formula_sum   'Sm1 Dy1 Ta4 B4 Ru10'
_cell_volume   284.50858976
_cell_formula_units_Z   1
loop_
 _symmetry_equiv_pos_site_id
 _symmetry_equiv_pos_as_xyz
  1  'x, y, z'
loop_
 _atom_site_type_symbol
 _atom_site_label
 _atom_site_symmetry_multiplicity
 _atom_site_fract_x
 _atom_site_fract_y
 _atom_site_fract_z
 _atom_site_occupancy
  Sm  Sm0  1  0.176062  0.323938  0.000000  1
  Dy  Dy1  1  0.823287  0.676713  0.000000  1
  Ta  Ta2  1  0.324549  0.824505  0.000000  1
  Ta  Ta3  1  0.675495  0.175451  0.000000  1
  Ta  Ta4  1  0.501055  0.500448  0.000000  1
  Ta  Ta5  1  0.999552  0.998945  0.000000  1
  B  B6  1  0.620320  0.879680  0.000000  1
  B  B7  1  0.381119  0.118881  0.000000  1
  B  B8  1  0.121137  0.622504  0.000000  1
  B  B9  1  0.877496  0.378863  0.000000  1
  Ru  Ru10  1  0.559180  0.723464  0.500000  1
  Ru  Ru11  1  0.443143  0.275501  0.500000  1
  Ru  Ru12  1  0.082148  0.786012  0.500000  1
  Ru  Ru13  1  0.915607  0.213976  0.500000  1
  Ru  Ru14  1  0.286024  0.584393  0.500000  1
  Ru  Ru15  1  0.713988  0.417852  0.500000  1
  Ru  Ru16  1  0.224499  0.056857  0.500000  1
  Ru  Ru17  1  0.776536  0.940820  0.500000  1
  Ru  Ru18  1  0.500548  0.999452  0.500000  1
  Ru  Ru19  1  0.998254  0.501746  0.500000  1
