# generated using pymatgen
data_Nd3ErAl18(OsPd2)2
_symmetry_space_group_name_H-M   'P 1'
_cell_length_a   7.64616386
_cell_length_b   7.65822934
_cell_length_c   9.58905300
_cell_angle_alpha   90.00000000
_cell_angle_beta   90.00000000
_cell_angle_gamma   119.46486809
_symmetry_Int_Tables_number   1
_chemical_formula_structural   Nd3ErAl18(OsPd2)2
_chemical_formula_sum   'Nd3 Er1 Al18 Os2 Pd4'
_cell_volume   488.87183655
_cell_formula_units_Z   1
loop_
 _symmetry_equiv_pos_site_id
 _symmetry_equiv_pos_as_xyz
  1  'x, y, z'
loop_
 _atom_site_type_symbol
 _atom_site_label
 _atom_site_symmetry_multiplicity
 _atom_site_fract_x
 _atom_site_fract_y
 _atom_site_fract_z
 _atom_site_occupancy
  Nd  Nd0  1  0.995486  0.670488  0.250000  1
  Nd  Nd1  1  0.005488  0.328985  0.750000  1
  Nd  Nd2  1  0.670255  0.994429  0.250000  1
  Er  Er3  1  0.326442  0.005507  0.750000  1
  Al  Al4  1  0.129698  0.128716  0.250000  1
  Al  Al5  1  0.872464  0.871291  0.750000  1
  Al  Al6  1  0.002644  0.330243  0.074562  1
  Al  Al7  1  0.000181  0.671540  0.923082  1
  Al  Al8  1  0.000181  0.671540  0.576918  1
  Al  Al9  1  0.330478  0.002081  0.427931  1
  Al  Al10  1  0.002644  0.330243  0.425438  1
  Al  Al11  1  0.666946  0.997780  0.576910  1
  Al  Al12  1  0.666946  0.997780  0.923090  1
  Al  Al13  1  0.330478  0.002081  0.072069  1
  Al  Al14  1  0.330870  0.329043  0.553628  1
  Al  Al15  1  0.670060  0.669970  0.450238  1
  Al  Al16  1  0.670060  0.669970  0.049762  1
  Al  Al17  1  0.330870  0.329043  0.946372  1
  Al  Al18  1  0.342985  0.546309  0.250000  1
  Al  Al19  1  0.654438  0.450294  0.750000  1
  Al  Al20  1  0.545965  0.341872  0.250000  1
  Al  Al21  1  0.452917  0.659473  0.750000  1
  Os  Os22  1  0.001135  0.000707  0.998323  1
  Os  Os23  1  0.001135  0.000707  0.501677  1
  Pd  Pd24  1  0.671264  0.328104  0.999006  1
  Pd  Pd25  1  0.328354  0.671851  0.999103  1
  Pd  Pd26  1  0.328354  0.671851  0.500897  1
  Pd  Pd27  1  0.671264  0.328104  0.500994  1
