# generated using pymatgen
data_Y3CrCo7P6Rh
_symmetry_space_group_name_H-M   'P 1'
_cell_length_a   3.69212100
_cell_length_b   10.66394600
_cell_length_c   12.30743900
_cell_angle_alpha   90.00000000
_cell_angle_beta   90.00000000
_cell_angle_gamma   90.00000000
_symmetry_Int_Tables_number   1
_chemical_formula_structural   Y3CrCo7P6Rh
_chemical_formula_sum   'Y6 Cr2 Co14 P12 Rh2'
_cell_volume   484.57561394
_cell_formula_units_Z   2
loop_
 _symmetry_equiv_pos_site_id
 _symmetry_equiv_pos_as_xyz
  1  'x, y, z'
loop_
 _atom_site_type_symbol
 _atom_site_label
 _atom_site_symmetry_multiplicity
 _atom_site_fract_x
 _atom_site_fract_y
 _atom_site_fract_z
 _atom_site_occupancy
  Y  Y0  1  0.000000  0.500000  0.519119  1
  Y  Y1  1  0.500000  0.000000  0.480881  1
  Y  Y2  1  0.500000  0.814896  0.202996  1
  Y  Y3  1  0.500000  0.185104  0.202996  1
  Y  Y4  1  0.000000  0.685104  0.797004  1
  Y  Y5  1  0.000000  0.314896  0.797004  1
  Cr  Cr6  1  0.500000  0.500000  0.156348  1
  Cr  Cr7  1  0.000000  0.000000  0.843652  1
  Co  Co8  1  0.000000  0.500000  0.989693  1
  Co  Co9  1  0.500000  0.000000  0.010307  1
  Co  Co10  1  0.500000  0.332062  0.994349  1
  Co  Co11  1  0.500000  0.667938  0.994349  1
  Co  Co12  1  0.000000  0.167938  0.005651  1
  Co  Co13  1  0.000000  0.832062  0.005651  1
  Co  Co14  1  0.500000  0.297790  0.430660  1
  Co  Co15  1  0.500000  0.702210  0.430660  1
  Co  Co16  1  0.000000  0.202210  0.569340  1
  Co  Co17  1  0.000000  0.797790  0.569340  1
  Co  Co18  1  0.500000  0.881198  0.709877  1
  Co  Co19  1  0.500000  0.118802  0.709877  1
  Co  Co20  1  0.000000  0.618802  0.290123  1
  Co  Co21  1  0.000000  0.381198  0.290123  1
  P  P22  1  0.500000  0.500000  0.890493  1
  P  P23  1  0.000000  0.000000  0.109507  1
  P  P24  1  0.500000  0.500000  0.344334  1
  P  P25  1  0.000000  0.000000  0.655666  1
  P  P26  1  0.500000  0.303314  0.614336  1
  P  P27  1  0.500000  0.696686  0.614336  1
  P  P28  1  0.000000  0.196686  0.385664  1
  P  P29  1  0.000000  0.803314  0.385664  1
  P  P30  1  0.500000  0.847524  0.892660  1
  P  P31  1  0.500000  0.152476  0.892660  1
  P  P32  1  0.000000  0.652476  0.107340  1
  P  P33  1  0.000000  0.347524  0.107340  1
  Rh  Rh34  1  0.500000  0.500000  0.702666  1
  Rh  Rh35  1  0.000000  0.000000  0.297334  1
