# generated using pymatgen
data_CaHo2(GeRh2)3
_symmetry_space_group_name_H-M   'P 1'
_cell_length_a   5.60966200
_cell_length_b   5.60966217
_cell_length_c   15.47512600
_cell_angle_alpha   90.00000000
_cell_angle_beta   90.00000000
_cell_angle_gamma   119.99999897
_symmetry_Int_Tables_number   1
_chemical_formula_structural   CaHo2(GeRh2)3
_chemical_formula_sum   'Ca2 Ho4 Ge6 Rh12'
_cell_volume   421.73362833
_cell_formula_units_Z   2
loop_
 _symmetry_equiv_pos_site_id
 _symmetry_equiv_pos_as_xyz
  1  'x, y, z'
loop_
 _atom_site_type_symbol
 _atom_site_label
 _atom_site_symmetry_multiplicity
 _atom_site_fract_x
 _atom_site_fract_y
 _atom_site_fract_z
 _atom_site_occupancy
  Ca  Ca0  1  0.333333  0.666667  0.750000  1
  Ca  Ca1  1  0.666667  0.333333  0.250000  1
  Ho  Ho2  1  0.333333  0.666667  0.541057  1
  Ho  Ho3  1  0.666667  0.333333  0.458943  1
  Ho  Ho4  1  0.666667  0.333333  0.041057  1
  Ho  Ho5  1  0.333333  0.666667  0.958943  1
  Ge  Ge6  1  0.000000  0.000000  0.250000  1
  Ge  Ge7  1  0.000000  0.000000  0.750000  1
  Ge  Ge8  1  0.333333  0.666667  0.250000  1
  Ge  Ge9  1  0.666667  0.333333  0.750000  1
  Ge  Ge10  1  0.000000  0.000000  0.000000  1
  Ge  Ge11  1  0.000000  0.000000  0.500000  1
  Rh  Rh12  1  0.168736  0.337472  0.125758  1
  Rh  Rh13  1  0.831264  0.662528  0.874242  1
  Rh  Rh14  1  0.662528  0.831264  0.125758  1
  Rh  Rh15  1  0.831264  0.662528  0.625758  1
  Rh  Rh16  1  0.337472  0.168736  0.874242  1
  Rh  Rh17  1  0.168736  0.337472  0.374242  1
  Rh  Rh18  1  0.168736  0.831264  0.125758  1
  Rh  Rh19  1  0.337472  0.168736  0.625758  1
  Rh  Rh20  1  0.831264  0.168736  0.874242  1
  Rh  Rh21  1  0.662528  0.831264  0.374242  1
  Rh  Rh22  1  0.831264  0.168736  0.625758  1
  Rh  Rh23  1  0.168736  0.831264  0.374242  1
