# generated using pymatgen
data_MnBe8VOs2
_symmetry_space_group_name_H-M   'P 1'
_cell_length_a   4.30206300
_cell_length_b   4.30206338
_cell_length_c   7.02638700
_cell_angle_alpha   90.00000000
_cell_angle_beta   90.00000000
_cell_angle_gamma   120.00000475
_symmetry_Int_Tables_number   1
_chemical_formula_structural   MnBe8VOs2
_chemical_formula_sum   'Mn1 Be8 V1 Os2'
_cell_volume   112.62018793
_cell_formula_units_Z   1
loop_
 _symmetry_equiv_pos_site_id
 _symmetry_equiv_pos_as_xyz
  1  'x, y, z'
loop_
 _atom_site_type_symbol
 _atom_site_label
 _atom_site_symmetry_multiplicity
 _atom_site_fract_x
 _atom_site_fract_y
 _atom_site_fract_z
 _atom_site_occupancy
  Mn  Mn0  1  0.333333  0.666667  0.437023  1
  Be  Be1  1  0.000000  0.000000  0.001993  1
  Be  Be2  1  0.000000  0.000000  0.498949  1
  Be  Be3  1  0.831012  0.662022  0.251906  1
  Be  Be4  1  0.169722  0.830278  0.747024  1
  Be  Be5  1  0.660554  0.830278  0.747024  1
  Be  Be6  1  0.337978  0.168988  0.251906  1
  Be  Be7  1  0.831012  0.168988  0.251906  1
  Be  Be8  1  0.169722  0.339446  0.747024  1
  V  V9  1  0.666667  0.333333  0.937415  1
  Os  Os10  1  0.333333  0.666667  0.059920  1
  Os  Os11  1  0.666667  0.333333  0.567906  1
