# generated using pymatgen
data_Ce2U2ReB12Mo
_symmetry_space_group_name_H-M   'P 1'
_cell_length_a   3.72008800
_cell_length_b   9.33275000
_cell_length_c   11.44823200
_cell_angle_alpha   89.99662511
_cell_angle_beta   90.00000000
_cell_angle_gamma   90.00000000
_symmetry_Int_Tables_number   1
_chemical_formula_structural   Ce2U2ReB12Mo
_chemical_formula_sum   'Ce4 U4 Re2 B24 Mo2'
_cell_volume   397.46717426
_cell_formula_units_Z   2
loop_
 _symmetry_equiv_pos_site_id
 _symmetry_equiv_pos_as_xyz
  1  'x, y, z'
loop_
 _atom_site_type_symbol
 _atom_site_label
 _atom_site_symmetry_multiplicity
 _atom_site_fract_x
 _atom_site_fract_y
 _atom_site_fract_z
 _atom_site_occupancy
  Ce  Ce0  1  0.000000  0.335008  0.407907  1
  Ce  Ce1  1  0.000000  0.664992  0.592093  1
  Ce  Ce2  1  0.000000  0.835592  0.091909  1
  Ce  Ce3  1  0.000000  0.164408  0.908091  1
  U  U4  1  0.000000  0.957988  0.395471  1
  U  U5  1  0.000000  0.042012  0.604529  1
  U  U6  1  0.000000  0.456160  0.103968  1
  U  U7  1  0.000000  0.543840  0.896032  1
  Re  Re8  1  0.000000  0.646536  0.318867  1
  Re  Re9  1  0.000000  0.353464  0.681133  1
  B  B10  1  0.500000  0.553461  0.429906  1
  B  B11  1  0.500000  0.446539  0.570094  1
  B  B12  1  0.500000  0.053335  0.069508  1
  B  B13  1  0.500000  0.946665  0.930492  1
  B  B14  1  0.500000  0.744503  0.421941  1
  B  B15  1  0.500000  0.255497  0.578059  1
  B  B16  1  0.500000  0.245088  0.077293  1
  B  B17  1  0.500000  0.754912  0.922707  1
  B  B18  1  0.500000  0.802153  0.274340  1
  B  B19  1  0.500000  0.197847  0.725660  1
  B  B20  1  0.500000  0.303546  0.225971  1
  B  B21  1  0.500000  0.696454  0.774029  1
  B  B22  1  0.500000  0.643699  0.188577  1
  B  B23  1  0.500000  0.356301  0.811423  1
  B  B24  1  0.500000  0.143724  0.312698  1
  B  B25  1  0.500000  0.856276  0.687302  1
  B  B26  1  0.500000  0.988795  0.220278  1
  B  B27  1  0.500000  0.011205  0.779722  1
  B  B28  1  0.500000  0.490000  0.280519  1
  B  B29  1  0.500000  0.510000  0.719481  1
  B  B30  1  0.500000  0.637477  0.038496  1
  B  B31  1  0.500000  0.362523  0.961504  1
  B  B32  1  0.500000  0.137885  0.462637  1
  B  B33  1  0.500000  0.862115  0.537363  1
  Mo  Mo34  1  0.000000  0.146931  0.181988  1
  Mo  Mo35  1  0.000000  0.853069  0.818012  1
