# generated using pymatgen
data_Nb6Al2ZnGa(NiC)2
_symmetry_space_group_name_H-M   'P 1'
_cell_length_a   8.26634902
_cell_length_b   8.26644406
_cell_length_c   8.27625100
_cell_angle_alpha   59.96103216
_cell_angle_beta   59.96044304
_cell_angle_gamma   59.95008136
_symmetry_Int_Tables_number   1
_chemical_formula_structural   Nb6Al2ZnGa(NiC)2
_chemical_formula_sum   'Nb12 Al4 Zn2 Ga2 Ni4 C4'
_cell_volume   399.51144197
_cell_formula_units_Z   2
loop_
 _symmetry_equiv_pos_site_id
 _symmetry_equiv_pos_as_xyz
  1  'x, y, z'
loop_
 _atom_site_type_symbol
 _atom_site_label
 _atom_site_symmetry_multiplicity
 _atom_site_fract_x
 _atom_site_fract_y
 _atom_site_fract_z
 _atom_site_occupancy
  Nb  Nb0  1  0.812897  0.812902  0.187103  1
  Nb  Nb1  1  0.185286  0.185209  0.814746  1
  Nb  Nb2  1  0.813854  0.186764  0.814033  1
  Nb  Nb3  1  0.186772  0.813868  0.185303  1
  Nb  Nb4  1  0.186786  0.813868  0.814045  1
  Nb  Nb5  1  0.813856  0.186747  0.185350  1
  Nb  Nb6  1  0.435317  0.435278  0.064688  1
  Nb  Nb7  1  0.063306  0.063363  0.436665  1
  Nb  Nb8  1  0.435889  0.063832  0.436135  1
  Nb  Nb9  1  0.063827  0.435845  0.064196  1
  Nb  Nb10  1  0.063823  0.435844  0.436130  1
  Nb  Nb11  1  0.435888  0.063836  0.064138  1
  Al  Al12  1  0.420493  0.420578  0.742295  1
  Al  Al13  1  0.420518  0.420603  0.416578  1
  Al  Al14  1  0.503632  0.832535  0.831943  1
  Al  Al15  1  0.832634  0.503597  0.831909  1
  Zn  Zn16  1  0.745435  0.419581  0.417491  1
  Zn  Zn17  1  0.419571  0.745473  0.417478  1
  Ga  Ga18  1  0.833280  0.833197  0.499959  1
  Ga  Ga19  1  0.833282  0.833199  0.833562  1
  Ni  Ni20  1  0.124806  0.620675  0.627236  1
  Ni  Ni21  1  0.620509  0.125015  0.627242  1
  Ni  Ni22  1  0.625187  0.625144  0.118479  1
  Ni  Ni23  1  0.625163  0.625114  0.631272  1
  C  C24  1  0.625462  0.123416  0.125555  1
  C  C25  1  0.123428  0.625450  0.125555  1
  C  C26  1  0.124549  0.124532  0.624226  1
  C  C27  1  0.124549  0.124531  0.126685  1
