# generated using pymatgen
data_AcCrSe3
_symmetry_space_group_name_H-M   'P 1'
_cell_length_a   4.08115900
_cell_length_b   8.39981100
_cell_length_c   14.12800700
_cell_angle_alpha   90.00000000
_cell_angle_beta   90.00000000
_cell_angle_gamma   90.00000000
_symmetry_Int_Tables_number   1
_chemical_formula_structural   AcCrSe3
_chemical_formula_sum   'Ac4 Cr4 Se12'
_cell_volume   484.32170305
_cell_formula_units_Z   4
loop_
 _symmetry_equiv_pos_site_id
 _symmetry_equiv_pos_as_xyz
  1  'x, y, z'
loop_
 _atom_site_type_symbol
 _atom_site_label
 _atom_site_symmetry_multiplicity
 _atom_site_fract_x
 _atom_site_fract_y
 _atom_site_fract_z
 _atom_site_occupancy
  Ac  Ac0  1  0.250000  0.095939  0.171200  1
  Ac  Ac1  1  0.750000  0.404061  0.671200  1
  Ac  Ac2  1  0.250000  0.595939  0.328800  1
  Ac  Ac3  1  0.750000  0.904061  0.828800  1
  Cr  Cr4  1  0.750000  0.660506  0.051933  1
  Cr  Cr5  1  0.250000  0.339494  0.948067  1
  Cr  Cr6  1  0.750000  0.160506  0.448067  1
  Cr  Cr7  1  0.250000  0.839494  0.551933  1
  Se  Se8  1  0.250000  0.488941  0.103126  1
  Se  Se9  1  0.250000  0.836797  0.997379  1
  Se  Se10  1  0.750000  0.511059  0.896874  1
  Se  Se11  1  0.250000  0.336797  0.502621  1
  Se  Se12  1  0.750000  0.163203  0.002621  1
  Se  Se13  1  0.750000  0.807964  0.209783  1
  Se  Se14  1  0.250000  0.692036  0.709783  1
  Se  Se15  1  0.750000  0.307964  0.290217  1
  Se  Se16  1  0.250000  0.192036  0.790217  1
  Se  Se17  1  0.750000  0.663203  0.497379  1
  Se  Se18  1  0.250000  0.988941  0.396874  1
  Se  Se19  1  0.750000  0.011059  0.603126  1
