# generated using pymatgen
data_Nd3Y7In8Ir3Pt
_symmetry_space_group_name_H-M   'P 1'
_cell_length_a   3.71291400
_cell_length_b   8.13093951
_cell_length_c   18.43186312
_cell_angle_alpha   89.82054312
_cell_angle_beta   90.00000000
_cell_angle_gamma   90.00000000
_symmetry_Int_Tables_number   1
_chemical_formula_structural   Nd3Y7In8Ir3Pt
_chemical_formula_sum   'Nd3 Y7 In8 Ir3 Pt1'
_cell_volume   556.44561760
_cell_formula_units_Z   1
loop_
 _symmetry_equiv_pos_site_id
 _symmetry_equiv_pos_as_xyz
  1  'x, y, z'
loop_
 _atom_site_type_symbol
 _atom_site_label
 _atom_site_symmetry_multiplicity
 _atom_site_fract_x
 _atom_site_fract_y
 _atom_site_fract_z
 _atom_site_occupancy
  Nd  Nd0  1  0.000000  0.748948  0.279906  1
  Nd  Nd1  1  0.000000  0.999369  0.998846  1
  Nd  Nd2  1  0.000000  0.501554  0.500493  1
  Y  Y3  1  0.000000  0.117101  0.412687  1
  Y  Y4  1  0.000000  0.884253  0.591284  1
  Y  Y5  1  0.000000  0.382763  0.909144  1
  Y  Y6  1  0.000000  0.615789  0.086204  1
  Y  Y7  1  0.000000  0.233979  0.222167  1
  Y  Y8  1  0.000000  0.757090  0.777994  1
  Y  Y9  1  0.000000  0.257759  0.722074  1
  In  In10  1  0.500000  0.420577  0.349501  1
  In  In11  1  0.500000  0.571073  0.651313  1
  In  In12  1  0.500000  0.071003  0.848365  1
  In  In13  1  0.500000  0.930414  0.149227  1
  In  In14  1  0.500000  0.294395  0.067427  1
  In  In15  1  0.500000  0.701908  0.930147  1
  In  In16  1  0.500000  0.202941  0.569964  1
  In  In17  1  0.500000  0.799836  0.433258  1
  Ir  Ir18  1  0.500000  0.024670  0.304915  1
  Ir  Ir19  1  0.500000  0.985671  0.696247  1
  Ir  Ir20  1  0.500000  0.484918  0.803969  1
  Pt  Pt21  1  0.500000  0.513989  0.194866  1
