# generated using pymatgen
data_Ce2Cr3Fe3P7Ir6
_symmetry_space_group_name_H-M   'P 1'
_cell_length_a   9.33897600
_cell_length_b   9.33897560
_cell_length_c   3.83984900
_cell_angle_alpha   90.00000000
_cell_angle_beta   90.00000000
_cell_angle_gamma   120.00000142
_symmetry_Int_Tables_number   1
_chemical_formula_structural   Ce2Cr3Fe3P7Ir6
_chemical_formula_sum   'Ce2 Cr3 Fe3 P7 Ir6'
_cell_volume   290.03023326
_cell_formula_units_Z   1
loop_
 _symmetry_equiv_pos_site_id
 _symmetry_equiv_pos_as_xyz
  1  'x, y, z'
loop_
 _atom_site_type_symbol
 _atom_site_label
 _atom_site_symmetry_multiplicity
 _atom_site_fract_x
 _atom_site_fract_y
 _atom_site_fract_z
 _atom_site_occupancy
  Ce  Ce0  1  0.000000  0.000000  0.000000  1
  Ce  Ce1  1  0.333333  0.666667  0.500000  1
  Cr  Cr2  1  0.874106  0.423622  0.500000  1
  Cr  Cr3  1  0.549516  0.125894  0.500000  1
  Cr  Cr4  1  0.576378  0.450484  0.500000  1
  Fe  Fe5  1  0.821835  0.598563  0.000000  1
  Fe  Fe6  1  0.776729  0.178165  0.000000  1
  Fe  Fe7  1  0.401437  0.223271  0.000000  1
  P  P8  1  0.065638  0.625587  0.000000  1
  P  P9  1  0.559949  0.934362  0.000000  1
  P  P10  1  0.374413  0.440051  0.000000  1
  P  P11  1  0.777165  0.720040  0.500000  1
  P  P12  1  0.942874  0.222835  0.500000  1
  P  P13  1  0.279960  0.057126  0.500000  1
  P  P14  1  0.666667  0.333333  0.000000  1
  Ir  Ir15  1  0.095154  0.397260  0.000000  1
  Ir  Ir16  1  0.302105  0.904846  0.000000  1
  Ir  Ir17  1  0.602740  0.697895  0.000000  1
  Ir  Ir18  1  0.049946  0.769295  0.500000  1
  Ir  Ir19  1  0.719348  0.950054  0.500000  1
  Ir  Ir20  1  0.230705  0.280652  0.500000  1
