# generated using pymatgen
data_Lu4MgNi2Sb
_symmetry_space_group_name_H-M   'P 1'
_cell_length_a   8.44600553
_cell_length_b   8.44600607
_cell_length_c   8.44600561
_cell_angle_alpha   128.81758319
_cell_angle_beta   128.81759046
_cell_angle_gamma   75.30426282
_symmetry_Int_Tables_number   1
_chemical_formula_structural   Lu4MgNi2Sb
_chemical_formula_sum   'Lu8 Mg2 Ni4 Sb2'
_cell_volume   356.00417721
_cell_formula_units_Z   2
loop_
 _symmetry_equiv_pos_site_id
 _symmetry_equiv_pos_as_xyz
  1  'x, y, z'
loop_
 _atom_site_type_symbol
 _atom_site_label
 _atom_site_symmetry_multiplicity
 _atom_site_fract_x
 _atom_site_fract_y
 _atom_site_fract_z
 _atom_site_occupancy
  Lu  Lu0  1  0.796071  0.296071  0.833308  1
  Lu  Lu1  1  0.203929  0.703929  0.166692  1
  Lu  Lu2  1  0.462763  0.962763  0.166692  1
  Lu  Lu3  1  0.296071  0.462763  0.500000  1
  Lu  Lu4  1  0.037237  0.203929  0.500000  1
  Lu  Lu5  1  0.537237  0.037237  0.833308  1
  Lu  Lu6  1  0.703929  0.537237  0.500000  1
  Lu  Lu7  1  0.962763  0.796071  0.500000  1
  Mg  Mg8  1  0.000000  0.000000  0.000000  1
  Mg  Mg9  1  0.500000  0.500000  0.000000  1
  Ni  Ni10  1  0.126210  0.626210  0.752421  1
  Ni  Ni11  1  0.873790  0.373790  0.247579  1
  Ni  Ni12  1  0.626210  0.873790  0.500000  1
  Ni  Ni13  1  0.373790  0.126210  0.500000  1
  Sb  Sb14  1  0.250000  0.250000  0.000000  1
  Sb  Sb15  1  0.750000  0.750000  0.000000  1
