# generated using pymatgen
data_Dy3ErFe3Os5
_symmetry_space_group_name_H-M   'P 1'
_cell_length_a   5.26095231
_cell_length_b   5.29622543
_cell_length_c   9.14318523
_cell_angle_alpha   73.16438578
_cell_angle_beta   90.86439702
_cell_angle_gamma   120.22204344
_symmetry_Int_Tables_number   1
_chemical_formula_structural   Dy3ErFe3Os5
_chemical_formula_sum   'Dy3 Er1 Fe3 Os5'
_cell_volume   208.04937393
_cell_formula_units_Z   1
loop_
 _symmetry_equiv_pos_site_id
 _symmetry_equiv_pos_as_xyz
  1  'x, y, z'
loop_
 _atom_site_type_symbol
 _atom_site_label
 _atom_site_symmetry_multiplicity
 _atom_site_fract_x
 _atom_site_fract_y
 _atom_site_fract_z
 _atom_site_occupancy
  Dy  Dy0  1  0.378742  0.752413  0.873916  1
  Dy  Dy1  1  0.996241  0.997420  0.001401  1
  Dy  Dy2  1  0.499465  0.000110  0.499243  1
  Er  Er3  1  0.875708  0.750140  0.375429  1
  Fe  Fe4  1  0.687433  0.374995  0.937443  1
  Fe  Fe5  1  0.939829  0.375722  0.188385  1
  Fe  Fe6  1  0.435223  0.374290  0.686643  1
  Os  Os7  1  0.440392  0.373491  0.184541  1
  Os  Os8  1  0.934528  0.376550  0.690495  1
  Os  Os9  1  0.440392  0.882360  0.184541  1
  Os  Os10  1  0.934528  0.867481  0.690495  1
  Os  Os11  1  0.187519  0.375027  0.437465  1
