# generated using pymatgen
data_Sm5Y5(In3Cl)2
_symmetry_space_group_name_H-M   'P 1'
_cell_length_a   9.25311901
_cell_length_b   9.26388600
_cell_length_c   6.75559200
_cell_angle_alpha   89.99993886
_cell_angle_beta   89.99991429
_cell_angle_gamma   120.03778528
_symmetry_Int_Tables_number   1
_chemical_formula_structural   Sm5Y5(In3Cl)2
_chemical_formula_sum   'Sm5 Y5 In6 Cl2'
_cell_volume   501.31408990
_cell_formula_units_Z   1
loop_
 _symmetry_equiv_pos_site_id
 _symmetry_equiv_pos_as_xyz
  1  'x, y, z'
loop_
 _atom_site_type_symbol
 _atom_site_label
 _atom_site_symmetry_multiplicity
 _atom_site_fract_x
 _atom_site_fract_y
 _atom_site_fract_z
 _atom_site_occupancy
  Sm  Sm0  1  0.741835  0.741429  0.250000  1
  Sm  Sm1  1  0.258167  0.999593  0.250001  1
  Sm  Sm2  1  0.999997  0.257890  0.250001  1
  Sm  Sm3  1  0.258278  0.258218  0.749997  1
  Sm  Sm4  1  0.741713  0.999936  0.750001  1
  Y  Y5  1  0.667085  0.334083  0.999731  1
  Y  Y6  1  0.332908  0.666979  0.999737  1
  Y  Y7  1  0.667092  0.334090  0.500267  1
  Y  Y8  1  0.332919  0.666987  0.500260  1
  Y  Y9  1  0.000003  0.742086  0.750000  1
  In  In10  1  0.603252  0.000107  0.250000  1
  In  In11  1  0.000000  0.603410  0.250001  1
  In  In12  1  0.396753  0.396859  0.250001  1
  In  In13  1  0.394728  0.998501  0.749999  1
  In  In14  1  0.999999  0.397878  0.749999  1
  In  In15  1  0.605267  0.603763  0.750001  1
  Cl  Cl16  1  0.000002  0.999096  0.998728  1
  Cl  Cl17  1  0.000002  0.999095  0.501272  1
