# generated using pymatgen
data_PuNi2(PO5)2
_symmetry_space_group_name_H-M   'P 1'
_cell_length_a   5.18017480
_cell_length_b   5.68715179
_cell_length_c   7.66908300
_cell_angle_alpha   111.76398875
_cell_angle_beta   111.18832107
_cell_angle_gamma   90.00000285
_symmetry_Int_Tables_number   1
_chemical_formula_structural   PuNi2(PO5)2
_chemical_formula_sum   'Pu1 Ni2 P2 O10'
_cell_volume   193.28753379
_cell_formula_units_Z   1
loop_
 _symmetry_equiv_pos_site_id
 _symmetry_equiv_pos_as_xyz
  1  'x, y, z'
loop_
 _atom_site_type_symbol
 _atom_site_label
 _atom_site_symmetry_multiplicity
 _atom_site_fract_x
 _atom_site_fract_y
 _atom_site_fract_z
 _atom_site_occupancy
  Pu  Pu0  1  0.000000  0.000000  0.000000  1
  Ni  Ni1  1  0.499999  0.000000  0.500000  1
  Ni  Ni2  1  0.499999  0.500000  0.500000  1
  P  P3  1  0.881310  0.632850  0.265701  1
  P  P4  1  0.118688  0.367150  0.734299  1
  O  O5  1  0.824716  0.342789  0.129481  1
  O  O6  1  0.824716  0.786692  0.129481  1
  O  O7  1  0.318000  0.121919  0.243838  1
  O  O8  1  0.674473  0.687332  0.374663  1
  O  O9  1  0.191285  0.711211  0.422423  1
  O  O10  1  0.808716  0.288788  0.577576  1
  O  O11  1  0.325526  0.312667  0.625337  1
  O  O12  1  0.681999  0.878080  0.756162  1
  O  O13  1  0.175283  0.213309  0.870520  1
  O  O14  1  0.175283  0.657210  0.870520  1
