# generated using pymatgen
data_CaEr6Cd(Co3Sn11)2
_symmetry_space_group_name_H-M   'P 1'
_cell_length_a   9.64846600
_cell_length_b   9.64846679
_cell_length_c   10.01425200
_cell_angle_alpha   90.00000000
_cell_angle_beta   90.00000000
_cell_angle_gamma   120.00000414
_symmetry_Int_Tables_number   1
_chemical_formula_structural   CaEr6Cd(Co3Sn11)2
_chemical_formula_sum   'Ca1 Er6 Cd1 Co6 Sn22'
_cell_volume   807.35717014
_cell_formula_units_Z   1
loop_
 _symmetry_equiv_pos_site_id
 _symmetry_equiv_pos_as_xyz
  1  'x, y, z'
loop_
 _atom_site_type_symbol
 _atom_site_label
 _atom_site_symmetry_multiplicity
 _atom_site_fract_x
 _atom_site_fract_y
 _atom_site_fract_z
 _atom_site_occupancy
  Ca  Ca0  1  0.000000  0.000000  0.000000  1
  Er  Er1  1  0.479841  0.520159  0.306457  1
  Er  Er2  1  0.520159  0.479841  0.693543  1
  Er  Er3  1  0.479841  0.959685  0.306457  1
  Er  Er4  1  0.520159  0.040315  0.693543  1
  Er  Er5  1  0.040315  0.520159  0.306457  1
  Er  Er6  1  0.959685  0.479841  0.693543  1
  Cd  Cd7  1  0.000000  0.000000  0.500000  1
  Co  Co8  1  0.830525  0.169475  0.198799  1
  Co  Co9  1  0.169475  0.830525  0.801201  1
  Co  Co10  1  0.830525  0.661053  0.198799  1
  Co  Co11  1  0.169475  0.338947  0.801201  1
  Co  Co12  1  0.338947  0.169475  0.198799  1
  Co  Co13  1  0.661053  0.830525  0.801201  1
  Sn  Sn14  1  0.116963  0.883037  0.270913  1
  Sn  Sn15  1  0.883037  0.116963  0.729087  1
  Sn  Sn16  1  0.116963  0.233927  0.270913  1
  Sn  Sn17  1  0.883037  0.766073  0.729087  1
  Sn  Sn18  1  0.766073  0.883037  0.270913  1
  Sn  Sn19  1  0.233927  0.116963  0.729087  1
  Sn  Sn20  1  0.781939  0.218061  0.453825  1
  Sn  Sn21  1  0.218061  0.781939  0.546175  1
  Sn  Sn22  1  0.781939  0.563878  0.453825  1
  Sn  Sn23  1  0.218061  0.436122  0.546175  1
  Sn  Sn24  1  0.436122  0.218061  0.453825  1
  Sn  Sn25  1  0.563878  0.781939  0.546175  1
  Sn  Sn26  1  0.346114  0.000000  0.000000  1
  Sn  Sn27  1  0.653886  0.000000  0.000000  1
  Sn  Sn28  1  0.000000  0.346114  0.000000  1
  Sn  Sn29  1  0.000000  0.653886  0.000000  1
  Sn  Sn30  1  0.653886  0.653886  0.000000  1
  Sn  Sn31  1  0.346114  0.346114  0.000000  1
  Sn  Sn32  1  0.333333  0.666667  0.120505  1
  Sn  Sn33  1  0.666667  0.333333  0.879495  1
  Sn  Sn34  1  0.333333  0.666667  0.818595  1
  Sn  Sn35  1  0.666667  0.333333  0.181405  1
