# generated using pymatgen
data_Ni2Pd(AuO2)3
_symmetry_space_group_name_H-M   'P 1'
_cell_length_a   5.26897000
_cell_length_b   5.26896961
_cell_length_c   18.35460900
_cell_angle_alpha   90.00000000
_cell_angle_beta   90.00000000
_cell_angle_gamma   119.99998989
_symmetry_Int_Tables_number   1
_chemical_formula_structural   Ni2Pd(AuO2)3
_chemical_formula_sum   'Ni6 Pd3 Au9 O18'
_cell_volume   441.29319754
_cell_formula_units_Z   3
loop_
 _symmetry_equiv_pos_site_id
 _symmetry_equiv_pos_as_xyz
  1  'x, y, z'
loop_
 _atom_site_type_symbol
 _atom_site_label
 _atom_site_symmetry_multiplicity
 _atom_site_fract_x
 _atom_site_fract_y
 _atom_site_fract_z
 _atom_site_occupancy
  Ni  Ni0  1  0.106848  0.893152  0.333333  1
  Ni  Ni1  1  0.106848  0.213693  0.666667  1
  Ni  Ni2  1  0.786307  0.893152  0.000000  1
  Ni  Ni3  1  0.773593  0.226407  0.333333  1
  Ni  Ni4  1  0.773593  0.547184  0.666667  1
  Ni  Ni5  1  0.452816  0.226407  0.000000  1
  Pd  Pd6  1  0.440466  0.559534  0.333333  1
  Pd  Pd7  1  0.440466  0.880931  0.666667  1
  Pd  Pd8  1  0.119069  0.559534  0.000000  1
  Au  Au9  1  0.441139  0.220569  0.500000  1
  Au  Au10  1  0.779431  0.220569  0.833333  1
  Au  Au11  1  0.779431  0.558861  0.166667  1
  Au  Au12  1  0.117398  0.558700  0.500000  1
  Au  Au13  1  0.441300  0.558700  0.833333  1
  Au  Au14  1  0.441300  0.882602  0.166667  1
  Au  Au15  1  0.763761  0.881880  0.500000  1
  Au  Au16  1  0.118120  0.881880  0.833333  1
  Au  Au17  1  0.118120  0.236239  0.166667  1
  O  O18  1  0.771381  0.559644  0.277179  1
  O  O19  1  0.440356  0.211737  0.610512  1
  O  O20  1  0.788263  0.228619  0.943846  1
  O  O21  1  0.771381  0.211737  0.722821  1
  O  O22  1  0.440356  0.228619  0.389488  1
  O  O23  1  0.788263  0.559644  0.056154  1
  O  O24  1  0.440515  0.890749  0.277077  1
  O  O25  1  0.109251  0.549767  0.610410  1
  O  O26  1  0.450233  0.559485  0.943744  1
  O  O27  1  0.440515  0.549767  0.722923  1
  O  O28  1  0.109251  0.559485  0.389590  1
  O  O29  1  0.450233  0.890749  0.056256  1
  O  O30  1  0.109404  0.228414  0.277092  1
  O  O31  1  0.771586  0.880989  0.610425  1
  O  O32  1  0.119011  0.890596  0.943758  1
  O  O33  1  0.109404  0.880989  0.722908  1
  O  O34  1  0.771586  0.890596  0.389575  1
  O  O35  1  0.119011  0.228414  0.056242  1
