# generated using pymatgen
data_Sr8Cu3Si12Ag
_symmetry_space_group_name_H-M   'P 1'
_cell_length_a   11.78082321
_cell_length_b   10.23329953
_cell_length_c   8.27426261
_cell_angle_alpha   78.28106495
_cell_angle_beta   58.22298075
_cell_angle_gamma   43.44911314
_symmetry_Int_Tables_number   1
_chemical_formula_structural   Sr8Cu3Si12Ag
_chemical_formula_sum   'Sr8 Cu3 Si12 Ag1'
_cell_volume   555.10087743
_cell_formula_units_Z   1
loop_
 _symmetry_equiv_pos_site_id
 _symmetry_equiv_pos_as_xyz
  1  'x, y, z'
loop_
 _atom_site_type_symbol
 _atom_site_label
 _atom_site_symmetry_multiplicity
 _atom_site_fract_x
 _atom_site_fract_y
 _atom_site_fract_z
 _atom_site_occupancy
  Sr  Sr0  1  0.124615  0.122718  0.874779  1
  Sr  Sr1  1  0.874780  0.877889  0.124614  1
  Sr  Sr2  1  0.126196  0.123644  0.375896  1
  Sr  Sr3  1  0.375897  0.374265  0.126195  1
  Sr  Sr4  1  0.620058  0.624229  0.378543  1
  Sr  Sr5  1  0.378543  0.377172  0.620058  1
  Sr  Sr6  1  0.626225  0.625388  0.873857  1
  Sr  Sr7  1  0.873858  0.874530  0.626224  1
  Cu  Cu8  1  0.832965  0.167035  0.832965  1
  Cu  Cu9  1  0.166729  0.833271  0.166729  1
  Cu  Cu10  1  0.416927  0.083073  0.416927  1
  Si  Si11  1  0.912458  0.591239  0.424863  1
  Si  Si12  1  0.084929  0.412610  0.584203  1
  Si  Si13  1  0.424863  0.071440  0.912458  1
  Si  Si14  1  0.584203  0.918258  0.084929  1
  Si  Si15  1  0.332138  0.665746  0.836641  1
  Si  Si16  1  0.665913  0.332553  0.165095  1
  Si  Si17  1  0.836641  0.165474  0.332138  1
  Si  Si18  1  0.165095  0.836439  0.665913  1
  Si  Si19  1  0.911512  0.588489  0.911511  1
  Si  Si20  1  0.582261  0.917740  0.582260  1
  Si  Si21  1  0.332619  0.667382  0.332619  1
  Si  Si22  1  0.667265  0.332735  0.667265  1
  Ag  Ag23  1  0.083314  0.416686  0.083314  1
