# generated using pymatgen
data_IrI27
_symmetry_space_group_name_H-M   'P 1'
_cell_length_a   13.09579909
_cell_length_b   10.89511468
_cell_length_c   16.04410986
_cell_angle_alpha   121.69696539
_cell_angle_beta   74.46730742
_cell_angle_gamma   109.54600830
_symmetry_Int_Tables_number   1
_chemical_formula_structural   IrI27
_chemical_formula_sum   'Ir1 I27'
_cell_volume   1823.35780892
_cell_formula_units_Z   1
loop_
 _symmetry_equiv_pos_site_id
 _symmetry_equiv_pos_as_xyz
  1  'x, y, z'
loop_
 _atom_site_type_symbol
 _atom_site_label
 _atom_site_symmetry_multiplicity
 _atom_site_fract_x
 _atom_site_fract_y
 _atom_site_fract_z
 _atom_site_occupancy
  Ir  Ir0  1  0.683243  0.134875  0.080122  1
  I  I1  1  0.344505  0.839379  0.968074  1
  I  I2  1  0.313462  0.526206  0.939102  1
  I  I3  1  0.623155  0.311046  0.043704  1
  I  I4  1  0.589326  0.866295  0.442627  1
  I  I5  1  0.422577  0.235465  0.612556  1
  I  I6  1  0.738685  0.692936  0.015262  1
  I  I7  1  0.270458  0.250300  0.940930  1
  I  I8  1  0.708651  0.982218  0.155749  1
  I  I9  1  0.255446  0.947222  0.765397  1
  I  I10  1  0.496861  0.177368  0.204194  1
  I  I11  1  0.590049  0.894286  0.926332  1
  I  I12  1  0.207350  0.635286  0.619443  1
  I  I13  1  0.804307  0.368460  0.222913  1
  I  I14  1  0.109155  0.818039  0.007564  1
  I  I15  1  0.878366  0.124260  0.965727  1
  I  I16  1  0.076371  0.080458  0.224167  1
  I  I17  1  0.895631  0.881803  0.753479  1
  I  I18  1  0.272744  0.968994  0.490117  1
  I  I19  1  0.742083  0.128139  0.570124  1
  I  I20  1  0.323816  0.456233  0.626733  1
  I  I21  1  0.699860  0.620395  0.333467  1
  I  I22  1  0.887606  0.396209  0.700915  1
  I  I23  1  0.115184  0.695954  0.367678  1
  I  I24  1  0.945555  0.656895  0.553782  1
  I  I25  1  0.029501  0.313003  0.411726  1
  I  I26  1  0.212286  0.634181  0.175113  1
  I  I27  1  0.763767  0.364093  0.883004  1
