# generated using pymatgen
data_Th4Au3N4
_symmetry_space_group_name_H-M   'P 1'
_cell_length_a   6.96485100
_cell_length_b   6.96485111
_cell_length_c   8.49651700
_cell_angle_alpha   90.00000000
_cell_angle_beta   90.00000000
_cell_angle_gamma   145.85984614
_symmetry_Int_Tables_number   1
_chemical_formula_structural   Th4Au3N4
_chemical_formula_sum   'Th4 Au3 N4'
_cell_volume   231.31143300
_cell_formula_units_Z   1
loop_
 _symmetry_equiv_pos_site_id
 _symmetry_equiv_pos_as_xyz
  1  'x, y, z'
loop_
 _atom_site_type_symbol
 _atom_site_label
 _atom_site_symmetry_multiplicity
 _atom_site_fract_x
 _atom_site_fract_y
 _atom_site_fract_z
 _atom_site_occupancy
  Th  Th0  1  0.320864  0.679136  0.243721  1
  Th  Th1  1  0.983233  0.016767  0.500000  1
  Th  Th2  1  0.993006  0.006994  0.000000  1
  Th  Th3  1  0.320864  0.679136  0.756278  1
  Au  Au4  1  0.639971  0.360029  0.671674  1
  Au  Au5  1  0.639971  0.360029  0.328326  1
  Au  Au6  1  0.681628  0.318372  0.000000  1
  N  N7  1  0.408387  0.591613  0.000000  1
  N  N8  1  0.908264  0.091736  0.753072  1
  N  N9  1  0.908264  0.091736  0.246928  1
  N  N10  1  0.393438  0.606562  0.500000  1
