# generated using pymatgen
data_Tb3Mn2W3O14
_symmetry_space_group_name_H-M   'P 1'
_cell_length_a   7.20168970
_cell_length_b   7.20164990
_cell_length_c   7.20170584
_cell_angle_alpha   117.10220601
_cell_angle_beta   62.89818242
_cell_angle_gamma   117.10226942
_symmetry_Int_Tables_number   1
_chemical_formula_structural   Tb3Mn2W3O14
_chemical_formula_sum   'Tb3 Mn2 W3 O14'
_cell_volume   281.11615876
_cell_formula_units_Z   1
loop_
 _symmetry_equiv_pos_site_id
 _symmetry_equiv_pos_as_xyz
  1  'x, y, z'
loop_
 _atom_site_type_symbol
 _atom_site_label
 _atom_site_symmetry_multiplicity
 _atom_site_fract_x
 _atom_site_fract_y
 _atom_site_fract_z
 _atom_site_occupancy
  Tb  Tb0  1  0.999989  0.499999  0.000008  1
  Tb  Tb1  1  0.500002  0.000003  0.999994  1
  Tb  Tb2  1  0.500005  0.500004  0.499993  1
  Mn  Mn3  1  0.499992  0.500018  0.000008  1
  Mn  Mn4  1  0.000020  0.000021  0.500002  1
  W  W5  1  0.500006  0.999973  0.500010  1
  W  W6  1  0.000008  0.500005  0.499989  1
  W  W7  1  0.000006  0.999998  0.000006  1
  O  O8  1  0.621483  0.378522  0.121477  1
  O  O9  1  0.378492  0.621487  0.878506  1
  O  O10  1  0.084983  0.324203  0.175786  1
  O  O11  1  0.675788  0.915011  0.175781  1
  O  O12  1  0.675785  0.324209  0.584984  1
  O  O13  1  0.915007  0.675785  0.824219  1
  O  O14  1  0.324208  0.084974  0.824213  1
  O  O15  1  0.324211  0.675789  0.415020  1
  O  O16  1  0.643669  0.903478  0.596516  1
  O  O17  1  0.096511  0.356327  0.596517  1
  O  O18  1  0.096507  0.903475  0.143676  1
  O  O19  1  0.356347  0.096529  0.403475  1
  O  O20  1  0.903492  0.643672  0.403489  1
  O  O21  1  0.903488  0.096522  0.856333  1
