# generated using pymatgen
data_SmHoCr3O12
_symmetry_space_group_name_H-M   'P 1'
_cell_length_a   10.01861622
_cell_length_b   10.01898112
_cell_length_c   10.01867100
_cell_angle_alpha   58.21493777
_cell_angle_beta   58.21661163
_cell_angle_gamma   58.21589777
_symmetry_Int_Tables_number   1
_chemical_formula_structural   SmHoCr3O12
_chemical_formula_sum   'Sm2 Ho2 Cr6 O24'
_cell_volume   682.02413929
_cell_formula_units_Z   2
loop_
 _symmetry_equiv_pos_site_id
 _symmetry_equiv_pos_as_xyz
  1  'x, y, z'
loop_
 _atom_site_type_symbol
 _atom_site_label
 _atom_site_symmetry_multiplicity
 _atom_site_fract_x
 _atom_site_fract_y
 _atom_site_fract_z
 _atom_site_occupancy
  Sm  Sm0  1  0.641692  0.641677  0.641708  1
  Sm  Sm1  1  0.358299  0.358307  0.358314  1
  Ho  Ho2  1  0.142395  0.142382  0.142424  1
  Ho  Ho3  1  0.857589  0.857635  0.857574  1
  Cr  Cr4  1  0.754126  0.035029  0.464604  1
  Cr  Cr5  1  0.964946  0.535356  0.245866  1
  Cr  Cr6  1  0.535353  0.245872  0.964936  1
  Cr  Cr7  1  0.464649  0.754147  0.035073  1
  Cr  Cr8  1  0.035070  0.464652  0.754147  1
  Cr  Cr9  1  0.245861  0.964935  0.535413  1
  O  O10  1  0.920462  0.063454  0.294913  1
  O  O11  1  0.781466  0.000720  0.630974  1
  O  O12  1  0.999260  0.369047  0.218447  1
  O  O13  1  0.705045  0.079547  0.936516  1
  O  O14  1  0.587565  0.205055  0.439136  1
  O  O15  1  0.872359  0.492434  0.725565  1
  O  O16  1  0.507597  0.274378  0.127669  1
  O  O17  1  0.794904  0.560842  0.412439  1
  O  O18  1  0.936520  0.705083  0.079508  1
  O  O19  1  0.560788  0.412455  0.794885  1
  O  O20  1  0.369007  0.218487  0.999229  1
  O  O21  1  0.274391  0.127654  0.507663  1
  O  O22  1  0.725629  0.872308  0.492312  1
  O  O23  1  0.631004  0.781494  0.000803  1
  O  O24  1  0.439190  0.587546  0.205106  1
  O  O25  1  0.063493  0.294961  0.920461  1
  O  O26  1  0.205101  0.439172  0.587560  1
  O  O27  1  0.492412  0.725647  0.872310  1
  O  O28  1  0.127651  0.507606  0.274412  1
  O  O29  1  0.412426  0.794888  0.560876  1
  O  O30  1  0.294960  0.920460  0.063486  1
  O  O31  1  0.000769  0.630992  0.781522  1
  O  O32  1  0.218498  0.999245  0.369040  1
  O  O33  1  0.079525  0.936534  0.705105  1
