# generated using pymatgen
data_BCl7
_symmetry_space_group_name_H-M   'P 1'
_cell_length_a   5.86188467
_cell_length_b   6.45325079
_cell_length_c   9.67109851
_cell_angle_alpha   73.48074842
_cell_angle_beta   71.23963604
_cell_angle_gamma   90.90243523
_symmetry_Int_Tables_number   1
_chemical_formula_structural   BCl7
_chemical_formula_sum   'B1 Cl7'
_cell_volume   329.78234010
_cell_formula_units_Z   1
loop_
 _symmetry_equiv_pos_site_id
 _symmetry_equiv_pos_as_xyz
  1  'x, y, z'
loop_
 _atom_site_type_symbol
 _atom_site_label
 _atom_site_symmetry_multiplicity
 _atom_site_fract_x
 _atom_site_fract_y
 _atom_site_fract_z
 _atom_site_occupancy
  B  B0  1  0.906753  0.890439  0.814102  1
  Cl  Cl1  1  0.715759  0.504306  0.493356  1
  Cl  Cl2  1  0.551382  0.415425  0.363597  1
  Cl  Cl3  1  0.045788  0.950935  0.279726  1
  Cl  Cl4  1  0.255252  0.230503  0.144416  1
  Cl  Cl5  1  0.635388  0.715499  0.901091  1
  Cl  Cl6  1  0.925255  0.135463  0.853821  1
  Cl  Cl7  1  0.156205  0.819352  0.687551  1
