# generated using pymatgen
data_Tb4Cd2AgPd3
_symmetry_space_group_name_H-M   'P 1'
_cell_length_a   3.78892800
_cell_length_b   7.80030367
_cell_length_c   7.80030367
_cell_angle_alpha   89.65836834
_cell_angle_beta   90.00000000
_cell_angle_gamma   90.00000000
_symmetry_Int_Tables_number   1
_chemical_formula_structural   Tb4Cd2AgPd3
_chemical_formula_sum   'Tb4 Cd2 Ag1 Pd3'
_cell_volume   230.53223062
_cell_formula_units_Z   1
loop_
 _symmetry_equiv_pos_site_id
 _symmetry_equiv_pos_as_xyz
  1  'x, y, z'
loop_
 _atom_site_type_symbol
 _atom_site_label
 _atom_site_symmetry_multiplicity
 _atom_site_fract_x
 _atom_site_fract_y
 _atom_site_fract_z
 _atom_site_occupancy
  Tb  Tb0  1  0.500000  0.173324  0.673324  1
  Tb  Tb1  1  0.500000  0.842299  0.342299  1
  Tb  Tb2  1  0.500000  0.313199  0.165633  1
  Tb  Tb3  1  0.500000  0.665633  0.813199  1
  Cd  Cd4  1  0.000000  0.997384  0.998182  1
  Cd  Cd5  1  0.000000  0.498182  0.497384  1
  Ag  Ag6  1  0.000000  0.628968  0.128968  1
  Pd  Pd7  1  0.000000  0.372595  0.872595  1
  Pd  Pd8  1  0.000000  0.875372  0.633044  1
  Pd  Pd9  1  0.000000  0.133044  0.375372  1
