# generated using pymatgen
data_Er6Zn18PAu5
_symmetry_space_group_name_H-M   'P 1'
_cell_length_a   9.07363416
_cell_length_b   9.07407967
_cell_length_c   9.07408700
_cell_angle_alpha   59.99988056
_cell_angle_beta   59.99843171
_cell_angle_gamma   59.99834004
_symmetry_Int_Tables_number   1
_chemical_formula_structural   Er6Zn18PAu5
_chemical_formula_sum   'Er6 Zn18 P1 Au5'
_cell_volume   528.27590891
_cell_formula_units_Z   1
loop_
 _symmetry_equiv_pos_site_id
 _symmetry_equiv_pos_as_xyz
  1  'x, y, z'
loop_
 _atom_site_type_symbol
 _atom_site_label
 _atom_site_symmetry_multiplicity
 _atom_site_fract_x
 _atom_site_fract_y
 _atom_site_fract_z
 _atom_site_occupancy
  Er  Er0  1  0.711541  0.288405  0.288389  1
  Er  Er1  1  0.711536  0.288389  0.711681  1
  Er  Er2  1  0.711529  0.711676  0.288392  1
  Er  Er3  1  0.289376  0.712216  0.712201  1
  Er  Er4  1  0.289384  0.712204  0.286221  1
  Er  Er5  1  0.289383  0.286213  0.712199  1
  Zn  Zn6  1  0.875391  0.373226  0.875691  1
  Zn  Zn7  1  0.875393  0.875686  0.373229  1
  Zn  Zn8  1  0.875392  0.875691  0.875682  1
  Zn  Zn9  1  0.503621  0.998758  0.998757  1
  Zn  Zn10  1  0.503622  0.998757  0.498864  1
  Zn  Zn11  1  0.503623  0.498866  0.998757  1
  Zn  Zn12  1  0.998024  0.502364  0.502364  1
  Zn  Zn13  1  0.998017  0.502365  0.997251  1
  Zn  Zn14  1  0.998019  0.997250  0.502367  1
  Zn  Zn15  1  0.999495  0.000171  0.000167  1
  Zn  Zn16  1  0.004661  0.331782  0.331778  1
  Zn  Zn17  1  0.331968  0.005116  0.331456  1
  Zn  Zn18  1  0.331959  0.331454  0.005127  1
  Zn  Zn19  1  0.331961  0.331450  0.331459  1
  Zn  Zn20  1  0.992612  0.669130  0.669130  1
  Zn  Zn21  1  0.670064  0.992687  0.668621  1
  Zn  Zn22  1  0.670062  0.668626  0.992683  1
  Zn  Zn23  1  0.670060  0.668631  0.668625  1
  P  P24  1  0.499568  0.500144  0.500147  1
  Au  Au25  1  0.637261  0.120913  0.120915  1
  Au  Au26  1  0.119533  0.634369  0.123048  1
  Au  Au27  1  0.119533  0.123047  0.634371  1
  Au  Au28  1  0.119541  0.123041  0.123047  1
  Au  Au29  1  0.367872  0.877374  0.877380  1
