# generated using pymatgen
data_La9Yb(GeC)4
_symmetry_space_group_name_H-M   'P 1'
_cell_length_a   8.14906400
_cell_length_b   12.93010912
_cell_length_c   4.29044000
_cell_angle_alpha   90.00000000
_cell_angle_beta   90.00000000
_cell_angle_gamma   89.92486914
_symmetry_Int_Tables_number   1
_chemical_formula_structural   La9Yb(GeC)4
_chemical_formula_sum   'La9 Yb1 Ge4 C4'
_cell_volume   452.07592340
_cell_formula_units_Z   1
loop_
 _symmetry_equiv_pos_site_id
 _symmetry_equiv_pos_as_xyz
  1  'x, y, z'
loop_
 _atom_site_type_symbol
 _atom_site_label
 _atom_site_symmetry_multiplicity
 _atom_site_fract_x
 _atom_site_fract_y
 _atom_site_fract_z
 _atom_site_occupancy
  La  La0  1  0.182567  0.209194  0.000000  1
  La  La1  1  0.678609  0.287497  0.000000  1
  La  La2  1  0.000000  0.500000  0.000000  1
  La  La3  1  0.321392  0.712503  0.000000  1
  La  La4  1  0.817433  0.790806  0.000000  1
  La  La5  1  0.830735  0.059694  0.499998  1
  La  La6  1  0.332751  0.439119  0.499998  1
  La  La7  1  0.667250  0.560881  0.499998  1
  La  La8  1  0.169266  0.940306  0.499998  1
  Yb  Yb9  1  0.500000  0.000000  0.000000  1
  Ge  Ge10  1  0.463476  0.164534  0.499998  1
  Ge  Ge11  1  0.957055  0.328706  0.499998  1
  Ge  Ge12  1  0.042944  0.671294  0.499998  1
  Ge  Ge13  1  0.536525  0.835466  0.499998  1
  C  C14  1  0.042753  0.046359  0.000000  1
  C  C15  1  0.539711  0.452720  0.000000  1
  C  C16  1  0.460288  0.547280  0.000000  1
  C  C17  1  0.957248  0.953641  0.000000  1
