# generated using pymatgen
data_Tm3Al12NiOs3
_symmetry_space_group_name_H-M   'P 1'
_cell_length_a   8.87258400
_cell_length_b   8.73071771
_cell_length_c   9.49777100
_cell_angle_alpha   90.00000000
_cell_angle_beta   90.00000000
_cell_angle_gamma   120.53898744
_symmetry_Int_Tables_number   1
_chemical_formula_structural   Tm3Al12NiOs3
_chemical_formula_sum   'Tm6 Al24 Ni2 Os6'
_cell_volume   633.67699256
_cell_formula_units_Z   2
loop_
 _symmetry_equiv_pos_site_id
 _symmetry_equiv_pos_as_xyz
  1  'x, y, z'
loop_
 _atom_site_type_symbol
 _atom_site_label
 _atom_site_symmetry_multiplicity
 _atom_site_fract_x
 _atom_site_fract_y
 _atom_site_fract_z
 _atom_site_occupancy
  Tm  Tm0  1  0.196530  0.393061  0.250000  1
  Tm  Tm1  1  0.803470  0.606939  0.750000  1
  Tm  Tm2  1  0.613403  0.796224  0.250000  1
  Tm  Tm3  1  0.386597  0.203776  0.750000  1
  Tm  Tm4  1  0.182820  0.796224  0.250000  1
  Tm  Tm5  1  0.817180  0.203776  0.750000  1
  Al  Al6  1  0.335380  0.670762  0.023828  1
  Al  Al7  1  0.664620  0.329238  0.976172  1
  Al  Al8  1  0.664620  0.329238  0.523828  1
  Al  Al9  1  0.335380  0.670762  0.476172  1
  Al  Al10  1  0.165522  0.331044  0.574470  1
  Al  Al11  1  0.834478  0.668956  0.425530  1
  Al  Al12  1  0.673667  0.838979  0.576669  1
  Al  Al13  1  0.834478  0.668956  0.074470  1
  Al  Al14  1  0.326333  0.161021  0.423331  1
  Al  Al15  1  0.165522  0.331044  0.925530  1
  Al  Al16  1  0.165312  0.838979  0.576669  1
  Al  Al17  1  0.326333  0.161021  0.076669  1
  Al  Al18  1  0.834688  0.161021  0.423331  1
  Al  Al19  1  0.673667  0.838979  0.923331  1
  Al  Al20  1  0.834688  0.161021  0.076669  1
  Al  Al21  1  0.165312  0.838979  0.923331  1
  Al  Al22  1  0.554988  0.109975  0.250000  1
  Al  Al23  1  0.445012  0.890025  0.750000  1
  Al  Al24  1  0.872508  0.433478  0.250000  1
  Al  Al25  1  0.127492  0.566522  0.750000  1
  Al  Al26  1  0.560970  0.433478  0.250000  1
  Al  Al27  1  0.439030  0.566522  0.750000  1
  Al  Al28  1  0.999049  0.998097  0.250000  1
  Al  Al29  1  0.000951  0.001903  0.750000  1
  Ni  Ni30  1  0.500000  0.000000  0.000000  1
  Ni  Ni31  1  0.500000  0.000000  0.500000  1
  Os  Os32  1  0.000000  0.500000  0.000000  1
  Os  Os33  1  0.500000  0.500000  0.000000  1
  Os  Os34  1  0.000000  0.500000  0.500000  1
  Os  Os35  1  0.500000  0.500000  0.500000  1
  Os  Os36  1  0.000000  0.000000  0.000000  1
  Os  Os37  1  0.000000  0.000000  0.500000  1
