# generated using pymatgen
data_Hf8Cd4CoCu7
_symmetry_space_group_name_H-M   'P 1'
_cell_length_a   7.21805439
_cell_length_b   7.21805439
_cell_length_c   6.70176450
_cell_angle_alpha   90.10348025
_cell_angle_beta   90.10348025
_cell_angle_gamma   90.37398492
_symmetry_Int_Tables_number   1
_chemical_formula_structural   Hf8Cd4CoCu7
_chemical_formula_sum   'Hf8 Cd4 Co1 Cu7'
_cell_volume   349.15541840
_cell_formula_units_Z   1
loop_
 _symmetry_equiv_pos_site_id
 _symmetry_equiv_pos_as_xyz
  1  'x, y, z'
loop_
 _atom_site_type_symbol
 _atom_site_label
 _atom_site_symmetry_multiplicity
 _atom_site_fract_x
 _atom_site_fract_y
 _atom_site_fract_z
 _atom_site_occupancy
  Hf  Hf0  1  0.161264  0.161264  0.008690  1
  Hf  Hf1  1  0.854262  0.854262  0.995467  1
  Hf  Hf2  1  0.642725  0.344784  0.489878  1
  Hf  Hf3  1  0.344784  0.642725  0.489878  1
  Hf  Hf4  1  0.675607  0.310430  0.006045  1
  Hf  Hf5  1  0.310430  0.675607  0.006045  1
  Hf  Hf6  1  0.810992  0.810992  0.501939  1
  Hf  Hf7  1  0.195481  0.195481  0.493472  1
  Cd  Cd8  1  0.500005  0.995823  0.250132  1
  Cd  Cd9  1  0.498573  0.996132  0.749048  1
  Cd  Cd10  1  0.995823  0.500005  0.250132  1
  Cd  Cd11  1  0.996132  0.498573  0.749048  1
  Co  Co12  1  0.378493  0.378493  0.226503  1
  Cu  Cu13  1  0.624107  0.624107  0.789315  1
  Cu  Cu14  1  0.630079  0.630079  0.204293  1
  Cu  Cu15  1  0.877497  0.127944  0.709322  1
  Cu  Cu16  1  0.876730  0.123573  0.290712  1
  Cu  Cu17  1  0.375496  0.375496  0.790046  1
  Cu  Cu18  1  0.123573  0.876730  0.290712  1
  Cu  Cu19  1  0.127944  0.877497  0.709322  1
