# generated using pymatgen
data_Nd3ThCdPbAu4
_symmetry_space_group_name_H-M   'P 1'
_cell_length_a   8.17328700
_cell_length_b   8.18500109
_cell_length_c   3.93729800
_cell_angle_alpha   90.00000000
_cell_angle_beta   90.00000000
_cell_angle_gamma   91.35893671
_symmetry_Int_Tables_number   1
_chemical_formula_structural   Nd3ThCdPbAu4
_chemical_formula_sum   'Nd3 Th1 Cd1 Pb1 Au4'
_cell_volume   263.32470807
_cell_formula_units_Z   1
loop_
 _symmetry_equiv_pos_site_id
 _symmetry_equiv_pos_as_xyz
  1  'x, y, z'
loop_
 _atom_site_type_symbol
 _atom_site_label
 _atom_site_symmetry_multiplicity
 _atom_site_fract_x
 _atom_site_fract_y
 _atom_site_fract_z
 _atom_site_occupancy
  Nd  Nd0  1  0.324869  0.827095  0.500000  1
  Nd  Nd1  1  0.171166  0.324918  0.500000  1
  Nd  Nd2  1  0.829160  0.675838  0.500000  1
  Th  Th3  1  0.674702  0.169021  0.500000  1
  Cd  Cd4  1  0.497983  0.502471  0.000000  1
  Pb  Pb5  1  0.003718  0.999370  0.000000  1
  Au  Au6  1  0.130691  0.618252  0.000000  1
  Au  Au7  1  0.863785  0.378164  0.000000  1
  Au  Au8  1  0.620206  0.869741  0.000000  1
  Au  Au9  1  0.383722  0.135130  0.000000  1
