# generated using pymatgen
data_Nd3Gd(SeO3)6
_symmetry_space_group_name_H-M   'P 1'
_cell_length_a   7.32109784
_cell_length_b   8.36173467
_cell_length_c   9.30439850
_cell_angle_alpha   70.90524712
_cell_angle_beta   70.11522878
_cell_angle_gamma   66.13994781
_symmetry_Int_Tables_number   1
_chemical_formula_structural   Nd3Gd(SeO3)6
_chemical_formula_sum   'Nd3 Gd1 Se6 O18'
_cell_volume   477.80576324
_cell_formula_units_Z   1
loop_
 _symmetry_equiv_pos_site_id
 _symmetry_equiv_pos_as_xyz
  1  'x, y, z'
loop_
 _atom_site_type_symbol
 _atom_site_label
 _atom_site_symmetry_multiplicity
 _atom_site_fract_x
 _atom_site_fract_y
 _atom_site_fract_z
 _atom_site_occupancy
  Nd  Nd0  1  0.259104  0.266220  0.198039  1
  Nd  Nd1  1  0.335258  0.729224  0.589023  1
  Nd  Nd2  1  0.667076  0.266834  0.412277  1
  Gd  Gd3  1  0.739951  0.736532  0.802036  1
  Se  Se4  1  0.111993  0.240884  0.583815  1
  Se  Se5  1  0.427944  0.772839  0.198724  1
  Se  Se6  1  0.150068  0.754903  0.961366  1
  Se  Se7  1  0.848411  0.252798  0.034320  1
  Se  Se8  1  0.573647  0.222136  0.801386  1
  Se  Se9  1  0.887679  0.756784  0.420145  1
  O  O10  1  0.154810  0.019041  0.654428  1
  O  O11  1  0.166958  0.576087  0.115856  1
  O  O12  1  0.027961  0.708552  0.557303  1
  O  O13  1  0.339046  0.250158  0.441396  1
  O  O14  1  0.063041  0.700038  0.836842  1
  O  O15  1  0.597220  0.287849  0.148338  1
  O  O16  1  0.356730  0.205974  0.941803  1
  O  O17  1  0.364322  0.937110  0.301133  1
  O  O18  1  0.517196  0.593723  0.347328  1
  O  O19  1  0.487438  0.401538  0.652051  1
  O  O20  1  0.640826  0.056837  0.698752  1
  O  O21  1  0.641827  0.790686  0.053979  1
  O  O22  1  0.403448  0.713720  0.849034  1
  O  O23  1  0.932981  0.303884  0.162104  1
  O  O24  1  0.660611  0.750534  0.563575  1
  O  O25  1  0.970213  0.291552  0.446766  1
  O  O26  1  0.827772  0.435251  0.882772  1
  O  O27  1  0.846470  0.978313  0.345410  1
