# generated using pymatgen
data_Rb3Ta2Ag3Te8
_symmetry_space_group_name_H-M   'P 1'
_cell_length_a   14.15975557
_cell_length_b   14.15975555
_cell_length_c   16.40293117
_cell_angle_alpha   60.66543817
_cell_angle_beta   60.66543865
_cell_angle_gamma   26.22836465
_symmetry_Int_Tables_number   1
_chemical_formula_structural   Rb3Ta2Ag3Te8
_chemical_formula_sum   'Rb6 Ta4 Ag6 Te16'
_cell_volume   1256.19124890
_cell_formula_units_Z   2
loop_
 _symmetry_equiv_pos_site_id
 _symmetry_equiv_pos_as_xyz
  1  'x, y, z'
loop_
 _atom_site_type_symbol
 _atom_site_label
 _atom_site_symmetry_multiplicity
 _atom_site_fract_x
 _atom_site_fract_y
 _atom_site_fract_z
 _atom_site_occupancy
  Rb  Rb0  1  0.234088  0.375730  0.603402  1
  Rb  Rb1  1  0.765912  0.624270  0.396598  1
  Rb  Rb2  1  0.375730  0.234088  0.103402  1
  Rb  Rb3  1  0.000000  0.000000  0.500000  1
  Rb  Rb4  1  0.624270  0.765912  0.896598  1
  Rb  Rb5  1  0.000000  0.000000  0.000000  1
  Ta  Ta6  1  0.178403  0.572867  0.279250  1
  Ta  Ta7  1  0.572867  0.178403  0.779250  1
  Ta  Ta8  1  0.427133  0.821597  0.220750  1
  Ta  Ta9  1  0.821597  0.427133  0.720750  1
  Ag  Ag10  1  0.293625  0.706375  0.250000  1
  Ag  Ag11  1  0.071704  0.678202  0.782698  1
  Ag  Ag12  1  0.706375  0.293625  0.750000  1
  Ag  Ag13  1  0.678202  0.071704  0.282698  1
  Ag  Ag14  1  0.321798  0.928296  0.717302  1
  Ag  Ag15  1  0.928296  0.321798  0.217302  1
  Te  Te16  1  0.738629  0.685852  0.104949  1
  Te  Te17  1  0.571588  0.507683  0.348284  1
  Te  Te18  1  0.172388  0.019492  0.114542  1
  Te  Te19  1  0.428412  0.492317  0.651716  1
  Te  Te20  1  0.019492  0.172388  0.614542  1
  Te  Te21  1  0.086161  0.227711  0.818227  1
  Te  Te22  1  0.685852  0.738629  0.604949  1
  Te  Te23  1  0.492317  0.428412  0.151716  1
  Te  Te24  1  0.507683  0.571588  0.848284  1
  Te  Te25  1  0.314148  0.261371  0.395051  1
  Te  Te26  1  0.772289  0.913839  0.681773  1
  Te  Te27  1  0.827612  0.980508  0.885458  1
  Te  Te28  1  0.261371  0.314148  0.895051  1
  Te  Te29  1  0.980508  0.827612  0.385458  1
  Te  Te30  1  0.913839  0.772289  0.181773  1
  Te  Te31  1  0.227711  0.086161  0.318227  1
