# generated using pymatgen
data_CaLu7(Si4W3)4
_symmetry_space_group_name_H-M   'P 1'
_cell_length_a   6.70475360
_cell_length_b   6.89142424
_cell_length_c   12.83968006
_cell_angle_alpha   89.89609397
_cell_angle_beta   89.95699602
_cell_angle_gamma   89.76642243
_symmetry_Int_Tables_number   1
_chemical_formula_structural   CaLu7(Si4W3)4
_chemical_formula_sum   'Ca1 Lu7 Si16 W12'
_cell_volume   593.25521964
_cell_formula_units_Z   1
loop_
 _symmetry_equiv_pos_site_id
 _symmetry_equiv_pos_as_xyz
  1  'x, y, z'
loop_
 _atom_site_type_symbol
 _atom_site_label
 _atom_site_symmetry_multiplicity
 _atom_site_fract_x
 _atom_site_fract_y
 _atom_site_fract_z
 _atom_site_occupancy
  Ca  Ca0  1  0.996370  0.832513  0.590132  1
  Lu  Lu1  1  0.496484  0.668793  0.593327  1
  Lu  Lu2  1  0.995885  0.830077  0.906841  1
  Lu  Lu3  1  0.504711  0.330668  0.092610  1
  Lu  Lu4  1  0.004836  0.168730  0.407586  1
  Lu  Lu5  1  0.504257  0.331400  0.407330  1
  Lu  Lu6  1  0.005356  0.169000  0.092989  1
  Lu  Lu7  1  0.495966  0.669378  0.907032  1
  Si  Si8  1  0.661844  0.959512  0.453506  1
  Si  Si9  1  0.164071  0.542479  0.045518  1
  Si  Si10  1  0.335310  0.040387  0.954434  1
  Si  Si11  1  0.836878  0.458159  0.546419  1
  Si  Si12  1  0.337969  0.040644  0.546533  1
  Si  Si13  1  0.836100  0.457876  0.954927  1
  Si  Si14  1  0.664825  0.959354  0.045796  1
  Si  Si15  1  0.162856  0.541200  0.453248  1
  Si  Si16  1  0.466611  0.375331  0.750466  1
  Si  Si17  1  0.966091  0.126736  0.750026  1
  Si  Si18  1  0.532238  0.625190  0.249667  1
  Si  Si19  1  0.033346  0.872250  0.250551  1
  Si  Si20  1  0.699651  0.863854  0.749339  1
  Si  Si21  1  0.197732  0.639577  0.749488  1
  Si  Si22  1  0.301960  0.136833  0.249990  1
  Si  Si23  1  0.801714  0.360528  0.249976  1
  W  W24  1  0.665927  0.165635  0.625593  1
  W  W25  1  0.172082  0.339525  0.876080  1
  W  W26  1  0.330986  0.837274  0.125357  1
  W  W27  1  0.826153  0.659362  0.373588  1
  W  W28  1  0.331592  0.837207  0.374175  1
  W  W29  1  0.828085  0.660407  0.124758  1
  W  W30  1  0.668502  0.163452  0.875254  1
  W  W31  1  0.171779  0.338456  0.626019  1
  W  W32  1  0.836005  0.496838  0.751420  1
  W  W33  1  0.334833  0.000603  0.751679  1
  W  W34  1  0.164302  0.499592  0.249393  1
  W  W35  1  0.666691  0.001185  0.248952  1
