# generated using pymatgen
data_Ba2LiBeB3O8
_symmetry_space_group_name_H-M   'P 1'
_cell_length_a   6.77713200
_cell_length_b   8.99662977
_cell_length_c   13.45668070
_cell_angle_alpha   74.95690806
_cell_angle_beta   90.00000000
_cell_angle_gamma   90.00000000
_symmetry_Int_Tables_number   1
_chemical_formula_structural   Ba2LiBeB3O8
_chemical_formula_sum   'Ba8 Li4 Be4 B12 O32'
_cell_volume   792.35511686
_cell_formula_units_Z   4
loop_
 _symmetry_equiv_pos_site_id
 _symmetry_equiv_pos_as_xyz
  1  'x, y, z'
loop_
 _atom_site_type_symbol
 _atom_site_label
 _atom_site_symmetry_multiplicity
 _atom_site_fract_x
 _atom_site_fract_y
 _atom_site_fract_z
 _atom_site_occupancy
  Ba  Ba0  1  0.742516  0.640414  0.930628  1
  Ba  Ba1  1  0.242516  0.359586  0.569372  1
  Ba  Ba2  1  0.257484  0.359586  0.069372  1
  Ba  Ba3  1  0.757484  0.640414  0.430628  1
  Ba  Ba4  1  0.387967  0.038476  0.842541  1
  Ba  Ba5  1  0.887967  0.961524  0.657459  1
  Ba  Ba6  1  0.612033  0.961524  0.157459  1
  Ba  Ba7  1  0.112033  0.038476  0.342541  1
  Li  Li8  1  0.264706  0.627710  0.828891  1
  Li  Li9  1  0.764706  0.372290  0.671109  1
  Li  Li10  1  0.735294  0.372290  0.171109  1
  Li  Li11  1  0.235294  0.627710  0.328891  1
  Be  Be12  1  0.061993  0.328658  0.839695  1
  Be  Be13  1  0.561993  0.671342  0.660305  1
  Be  Be14  1  0.938007  0.671342  0.160305  1
  Be  Be15  1  0.438007  0.328658  0.339695  1
  B  B16  1  0.779439  0.265671  0.982744  1
  B  B17  1  0.279439  0.734329  0.517256  1
  B  B18  1  0.220561  0.734329  0.017256  1
  B  B19  1  0.720561  0.265671  0.482744  1
  B  B20  1  0.852450  0.071617  0.879224  1
  B  B21  1  0.352450  0.928383  0.620776  1
  B  B22  1  0.147550  0.928383  0.120776  1
  B  B23  1  0.647550  0.071617  0.379224  1
  B  B24  1  0.941320  0.592217  0.710785  1
  B  B25  1  0.441320  0.407783  0.789215  1
  B  B26  1  0.058680  0.407783  0.289215  1
  B  B27  1  0.558680  0.592217  0.210785  1
  O  O28  1  0.741513  0.124902  0.954688  1
  O  O29  1  0.241513  0.875098  0.545312  1
  O  O30  1  0.258487  0.875098  0.045312  1
  O  O31  1  0.758487  0.124902  0.454688  1
  O  O32  1  0.931462  0.359255  0.936241  1
  O  O33  1  0.431462  0.640745  0.563759  1
  O  O34  1  0.068538  0.640745  0.063759  1
  O  O35  1  0.568538  0.359255  0.436241  1
  O  O36  1  0.660807  0.297578  0.055976  1
  O  O37  1  0.160807  0.702422  0.444024  1
  O  O38  1  0.339193  0.702422  0.944024  1
  O  O39  1  0.839193  0.297578  0.555976  1
  O  O40  1  0.015681  0.150366  0.834322  1
  O  O41  1  0.515681  0.849634  0.665678  1
  O  O42  1  0.984319  0.849634  0.165678  1
  O  O43  1  0.484319  0.150366  0.334322  1
  O  O44  1  0.776444  0.946340  0.854082  1
  O  O45  1  0.276444  0.053660  0.645918  1
  O  O46  1  0.223556  0.053660  0.145918  1
  O  O47  1  0.723556  0.946340  0.354082  1
  O  O48  1  0.001958  0.439836  0.726395  1
  O  O49  1  0.501958  0.560164  0.773605  1
  O  O50  1  0.998042  0.560164  0.273605  1
  O  O51  1  0.498042  0.439836  0.226395  1
  O  O52  1  0.296517  0.354164  0.865448  1
  O  O53  1  0.796517  0.645836  0.634552  1
  O  O54  1  0.703483  0.645836  0.134552  1
  O  O55  1  0.203483  0.354164  0.365448  1
  O  O56  1  0.012992  0.685582  0.768244  1
  O  O57  1  0.512992  0.314418  0.731756  1
  O  O58  1  0.987008  0.314418  0.231756  1
  O  O59  1  0.487008  0.685582  0.268244  1
