# generated using pymatgen
data_Pr3ZnIr8
_symmetry_space_group_name_H-M   'P 1'
_cell_length_a   9.27336226
_cell_length_b   9.27336242
_cell_length_c   9.27336200
_cell_angle_alpha   33.85944238
_cell_angle_beta   33.85945195
_cell_angle_gamma   33.85944436
_symmetry_Int_Tables_number   1
_chemical_formula_structural   Pr3ZnIr8
_chemical_formula_sum   'Pr3 Zn1 Ir8'
_cell_volume   220.61102843
_cell_formula_units_Z   1
loop_
 _symmetry_equiv_pos_site_id
 _symmetry_equiv_pos_as_xyz
  1  'x, y, z'
loop_
 _atom_site_type_symbol
 _atom_site_label
 _atom_site_symmetry_multiplicity
 _atom_site_fract_x
 _atom_site_fract_y
 _atom_site_fract_z
 _atom_site_occupancy
  Pr  Pr0  1  0.858107  0.858107  0.858107  1
  Pr  Pr1  1  0.138818  0.138818  0.138818  1
  Pr  Pr2  1  0.999497  0.999497  0.999497  1
  Zn  Zn3  1  0.334277  0.334277  0.334277  1
  Ir  Ir4  1  0.416084  0.923286  0.416084  1
  Ir  Ir5  1  0.416084  0.416084  0.923286  1
  Ir  Ir6  1  0.923286  0.416084  0.416084  1
  Ir  Ir7  1  0.580725  0.083343  0.580725  1
  Ir  Ir8  1  0.580725  0.580725  0.083343  1
  Ir  Ir9  1  0.083343  0.580725  0.580725  1
  Ir  Ir10  1  0.667233  0.667233  0.667233  1
  Ir  Ir11  1  0.501820  0.501820  0.501820  1
