# generated using pymatgen
data_Th4Cd2CuPt3
_symmetry_space_group_name_H-M   'P 1'
_cell_length_a   7.92521600
_cell_length_b   7.92521513
_cell_length_c   3.81662700
_cell_angle_alpha   90.00000000
_cell_angle_beta   90.00000000
_cell_angle_gamma   90.22687126
_symmetry_Int_Tables_number   1
_chemical_formula_structural   Th4Cd2CuPt3
_chemical_formula_sum   'Th4 Cd2 Cu1 Pt3'
_cell_volume   239.71680531
_cell_formula_units_Z   1
loop_
 _symmetry_equiv_pos_site_id
 _symmetry_equiv_pos_as_xyz
  1  'x, y, z'
loop_
 _atom_site_type_symbol
 _atom_site_label
 _atom_site_symmetry_multiplicity
 _atom_site_fract_x
 _atom_site_fract_y
 _atom_site_fract_z
 _atom_site_occupancy
  Th  Th0  1  0.675023  0.175023  0.500000  1
  Th  Th1  1  0.328215  0.828215  0.500000  1
  Th  Th2  1  0.171534  0.323193  0.500000  1
  Th  Th3  1  0.823193  0.671534  0.500000  1
  Cd  Cd4  1  0.001234  0.994502  0.000000  1
  Cd  Cd5  1  0.494502  0.501234  0.000000  1
  Cu  Cu6  1  0.126596  0.626596  0.000000  1
  Pt  Pt7  1  0.879746  0.379746  0.000000  1
  Pt  Pt8  1  0.629850  0.870107  0.000000  1
  Pt  Pt9  1  0.370107  0.129850  0.000000  1
