# generated using pymatgen
data_VTc5As14
_symmetry_space_group_name_H-M   'P 1'
_cell_length_a   7.61485104
_cell_length_b   7.61485149
_cell_length_c   7.61485021
_cell_angle_alpha   109.17149982
_cell_angle_beta   110.07233866
_cell_angle_gamma   109.17150271
_symmetry_Int_Tables_number   1
_chemical_formula_structural   VTc5As14
_chemical_formula_sum   'V1 Tc5 As14'
_cell_volume   339.88063179
_cell_formula_units_Z   1
loop_
 _symmetry_equiv_pos_site_id
 _symmetry_equiv_pos_as_xyz
  1  'x, y, z'
loop_
 _atom_site_type_symbol
 _atom_site_label
 _atom_site_symmetry_multiplicity
 _atom_site_fract_x
 _atom_site_fract_y
 _atom_site_fract_z
 _atom_site_occupancy
  V  V0  1  0.658972  0.000000  0.658972  1
  Tc  Tc1  1  0.338479  0.000000  0.338479  1
  Tc  Tc2  1  0.999031  0.340768  0.339800  1
  Tc  Tc3  1  0.999031  0.659232  0.658263  1
  Tc  Tc4  1  0.339800  0.340768  0.999031  1
  Tc  Tc5  1  0.658263  0.659232  0.999031  1
  As  As6  1  0.749188  0.500000  0.249188  1
  As  As7  1  0.504117  0.751306  0.255424  1
  As  As8  1  0.504117  0.248694  0.752811  1
  As  As9  1  0.752811  0.248694  0.504117  1
  As  As10  1  0.255424  0.751306  0.504117  1
  As  As11  1  0.249188  0.500000  0.749188  1
  As  As12  1  0.999848  0.000000  0.331394  1
  As  As13  1  0.669561  0.000000  0.994986  1
  As  As14  1  0.999848  0.668454  0.999848  1
  As  As15  1  0.331394  0.331546  0.331394  1
  As  As16  1  0.994986  0.325425  0.994986  1
  As  As17  1  0.669561  0.674575  0.669561  1
  As  As18  1  0.331394  0.000000  0.999848  1
  As  As19  1  0.994986  0.000000  0.669561  1
