# generated using pymatgen
data_Tb5Y5(ZnB4)4
_symmetry_space_group_name_H-M   'P 1'
_cell_length_a   7.21938214
_cell_length_b   7.21947114
_cell_length_c   8.43593701
_cell_angle_alpha   89.99624494
_cell_angle_beta   89.99593788
_cell_angle_gamma   90.02244389
_symmetry_Int_Tables_number   1
_chemical_formula_structural   Tb5Y5(ZnB4)4
_chemical_formula_sum   'Tb5 Y5 Zn4 B16'
_cell_volume   439.68202231
_cell_formula_units_Z   1
loop_
 _symmetry_equiv_pos_site_id
 _symmetry_equiv_pos_as_xyz
  1  'x, y, z'
loop_
 _atom_site_type_symbol
 _atom_site_label
 _atom_site_symmetry_multiplicity
 _atom_site_fract_x
 _atom_site_fract_y
 _atom_site_fract_z
 _atom_site_occupancy
  Tb  Tb0  1  0.681993  0.182025  0.212895  1
  Tb  Tb1  1  0.318031  0.818062  0.786908  1
  Tb  Tb2  1  0.318044  0.818077  0.213012  1
  Tb  Tb3  1  0.818117  0.681855  0.213039  1
  Tb  Tb4  1  0.818098  0.681900  0.786935  1
  Y  Y5  1  0.682003  0.182033  0.787682  1
  Y  Y6  1  0.182033  0.317962  0.787802  1
  Y  Y7  1  0.181982  0.317988  0.212172  1
  Y  Y8  1  0.999989  0.000255  0.500044  1
  Y  Y9  1  0.499838  0.499801  0.500043  1
  Zn  Zn10  1  0.117388  0.617248  0.500007  1
  Zn  Zn11  1  0.882663  0.382525  0.500085  1
  Zn  Zn12  1  0.382519  0.117548  0.500055  1
  Zn  Zn13  1  0.617373  0.882695  0.500058  1
  B  B14  1  0.171778  0.040461  0.999940  1
  B  B15  1  0.828334  0.959723  0.999940  1
  B  B16  1  0.959601  0.171801  0.999959  1
  B  B17  1  0.328277  0.540320  0.999917  1
  B  B18  1  0.040393  0.828382  0.999919  1
  B  B19  1  0.671700  0.459537  0.999956  1
  B  B20  1  0.540312  0.671616  0.999939  1
  B  B21  1  0.459567  0.328172  0.999944  1
  B  B22  1  0.090859  0.590857  0.999982  1
  B  B23  1  0.909202  0.409196  0.000107  1
  B  B24  1  0.409276  0.090727  0.999990  1
  B  B25  1  0.590837  0.909162  0.999990  1
  B  B26  1  0.000050  0.000185  0.156790  1
  B  B27  1  0.999973  0.000227  0.843052  1
  B  B28  1  0.499905  0.499791  0.843051  1
  B  B29  1  0.499865  0.499868  0.156789  1
