# generated using pymatgen
data_Ho20Ir9Pt2Au
_symmetry_space_group_name_H-M   'P 1'
_cell_length_a   10.94683715
_cell_length_b   10.94683775
_cell_length_c   6.33089101
_cell_angle_alpha   89.95574404
_cell_angle_beta   89.95574858
_cell_angle_gamma   89.25590387
_symmetry_Int_Tables_number   1
_chemical_formula_structural   Ho20Ir9Pt2Au
_chemical_formula_sum   'Ho20 Ir9 Pt2 Au1'
_cell_volume   758.58682262
_cell_formula_units_Z   1
loop_
 _symmetry_equiv_pos_site_id
 _symmetry_equiv_pos_as_xyz
  1  'x, y, z'
loop_
 _atom_site_type_symbol
 _atom_site_label
 _atom_site_symmetry_multiplicity
 _atom_site_fract_x
 _atom_site_fract_y
 _atom_site_fract_z
 _atom_site_occupancy
  Ho  Ho0  1  0.290023  0.088465  0.375696  1
  Ho  Ho1  1  0.293090  0.914252  0.875870  1
  Ho  Ho2  1  0.703442  0.081073  0.865033  1
  Ho  Ho3  1  0.705297  0.903976  0.379393  1
  Ho  Ho4  1  0.590744  0.791944  0.878723  1
  Ho  Ho5  1  0.577657  0.206749  0.372803  1
  Ho  Ho6  1  0.412002  0.794135  0.372317  1
  Ho  Ho7  1  0.406942  0.207287  0.877619  1
  Ho  Ho8  1  0.208056  0.409256  0.621277  1
  Ho  Ho9  1  0.205865  0.587998  0.127683  1
  Ho  Ho10  1  0.793251  0.422343  0.127197  1
  Ho  Ho11  1  0.792713  0.593058  0.622381  1
  Ho  Ho12  1  0.911535  0.709977  0.124304  1
  Ho  Ho13  1  0.918927  0.296558  0.634967  1
  Ho  Ho14  1  0.085748  0.706910  0.624130  1
  Ho  Ho15  1  0.096024  0.294703  0.120607  1
  Ho  Ho16  1  0.003443  0.995566  0.500941  1
  Ho  Ho17  1  0.004434  0.996557  0.999059  1
  Ho  Ho18  1  0.499163  0.499251  0.000249  1
  Ho  Ho19  1  0.500749  0.500837  0.499751  1
  Ir  Ir20  1  0.847222  0.848032  0.749596  1
  Ir  Ir21  1  0.151968  0.152778  0.750404  1
  Ir  Ir22  1  0.155890  0.844110  0.250000  1
  Ir  Ir23  1  0.652594  0.651265  0.248840  1
  Ir  Ir24  1  0.348735  0.347406  0.251160  1
  Ir  Ir25  1  0.500457  0.000049  0.123832  1
  Ir  Ir26  1  0.499610  0.000196  0.622483  1
  Ir  Ir27  1  0.999804  0.500390  0.877517  1
  Ir  Ir28  1  0.999951  0.499543  0.376168  1
  Pt  Pt29  1  0.655565  0.344435  0.750000  1
  Pt  Pt30  1  0.345546  0.654454  0.750000  1
  Au  Au31  1  0.843551  0.156449  0.250000  1
