# generated using pymatgen
data_BaAsIrF12
_symmetry_space_group_name_H-M   'P 1'
_cell_length_a   5.62906200
_cell_length_b   5.78368500
_cell_length_c   8.35486300
_cell_angle_alpha   90.00000000
_cell_angle_beta   90.00000000
_cell_angle_gamma   90.00000000
_symmetry_Int_Tables_number   1
_chemical_formula_structural   BaAsIrF12
_chemical_formula_sum   'Ba1 As1 Ir1 F12'
_cell_volume   272.00694747
_cell_formula_units_Z   1
loop_
 _symmetry_equiv_pos_site_id
 _symmetry_equiv_pos_as_xyz
  1  'x, y, z'
loop_
 _atom_site_type_symbol
 _atom_site_label
 _atom_site_symmetry_multiplicity
 _atom_site_fract_x
 _atom_site_fract_y
 _atom_site_fract_z
 _atom_site_occupancy
  Ba  Ba0  1  0.000000  0.000000  0.004739  1
  As  As1  1  0.000000  0.500000  0.264499  1
  Ir  Ir2  1  0.500000  0.000000  0.735148  1
  F  F3  1  0.253247  0.228888  0.749710  1
  F  F4  1  0.746753  0.771112  0.749710  1
  F  F5  1  0.219520  0.720181  0.250035  1
  F  F6  1  0.780480  0.279819  0.250035  1
  F  F7  1  0.000000  0.500000  0.470647  1
  F  F8  1  0.500000  0.000000  0.511664  1
  F  F9  1  0.000000  0.500000  0.043567  1
  F  F10  1  0.500000  0.000000  0.970757  1
  F  F11  1  0.219520  0.279819  0.250035  1
  F  F12  1  0.780480  0.720181  0.250035  1
  F  F13  1  0.253247  0.771112  0.749710  1
  F  F14  1  0.746753  0.228888  0.749710  1
