# generated using pymatgen
data_Y2LuPa(ReN3)4
_symmetry_space_group_name_H-M   'P 1'
_cell_length_a   5.35365672
_cell_length_b   5.67094063
_cell_length_c   7.75979000
_cell_angle_alpha   90.00000000
_cell_angle_beta   90.00000000
_cell_angle_gamma   89.95949092
_symmetry_Int_Tables_number   1
_chemical_formula_structural   Y2LuPa(ReN3)4
_chemical_formula_sum   'Y2 Lu1 Pa1 Re4 N12'
_cell_volume   235.58925586
_cell_formula_units_Z   1
loop_
 _symmetry_equiv_pos_site_id
 _symmetry_equiv_pos_as_xyz
  1  'x, y, z'
loop_
 _atom_site_type_symbol
 _atom_site_label
 _atom_site_symmetry_multiplicity
 _atom_site_fract_x
 _atom_site_fract_y
 _atom_site_fract_z
 _atom_site_occupancy
  Y  Y0  1  0.509429  0.566040  0.750000  1
  Y  Y1  1  0.990058  0.067693  0.750000  1
  Lu  Lu2  1  0.021082  0.930678  0.250000  1
  Pa  Pa3  1  0.476363  0.426238  0.250000  1
  Re  Re4  1  0.505186  0.002972  0.506344  1
  Re  Re5  1  0.989706  0.505441  0.995783  1
  Re  Re6  1  0.989706  0.505441  0.504217  1
  Re  Re7  1  0.505186  0.002972  0.993656  1
  N  N8  1  0.696136  0.295318  0.543568  1
  N  N9  1  0.311774  0.691984  0.054908  1
  N  N10  1  0.193903  0.196112  0.054577  1
  N  N11  1  0.421386  0.984232  0.750000  1
  N  N12  1  0.898318  0.530939  0.250000  1
  N  N13  1  0.311774  0.691984  0.445092  1
  N  N14  1  0.801248  0.793940  0.955231  1
  N  N15  1  0.696136  0.295318  0.956432  1
  N  N16  1  0.801248  0.793940  0.544769  1
  N  N17  1  0.078958  0.484554  0.750000  1
  N  N18  1  0.193903  0.196112  0.445423  1
  N  N19  1  0.608497  0.038092  0.250000  1
