# generated using pymatgen
data_Rb6InFeSe6
_symmetry_space_group_name_H-M   'P 1'
_cell_length_a   10.98776062
_cell_length_b   10.98776232
_cell_length_c   13.85034400
_cell_angle_alpha   90.00000000
_cell_angle_beta   90.00000000
_cell_angle_gamma   140.65484791
_symmetry_Int_Tables_number   1
_chemical_formula_structural   Rb6InFeSe6
_chemical_formula_sum   'Rb12 In2 Fe2 Se12'
_cell_volume   1060.13642750
_cell_formula_units_Z   2
loop_
 _symmetry_equiv_pos_site_id
 _symmetry_equiv_pos_as_xyz
  1  'x, y, z'
loop_
 _atom_site_type_symbol
 _atom_site_label
 _atom_site_symmetry_multiplicity
 _atom_site_fract_x
 _atom_site_fract_y
 _atom_site_fract_z
 _atom_site_occupancy
  Rb  Rb0  1  0.845297  0.847128  0.334511  1
  Rb  Rb1  1  0.152872  0.154703  0.665489  1
  Rb  Rb2  1  0.652872  0.654703  0.834511  1
  Rb  Rb3  1  0.345297  0.347128  0.165489  1
  Rb  Rb4  1  0.841060  0.477107  0.127645  1
  Rb  Rb5  1  0.522893  0.158940  0.872355  1
  Rb  Rb6  1  0.022893  0.658940  0.627645  1
  Rb  Rb7  1  0.341060  0.977107  0.372355  1
  Rb  Rb8  1  0.159458  0.511384  0.870761  1
  Rb  Rb9  1  0.488616  0.840542  0.129239  1
  Rb  Rb10  1  0.988616  0.340542  0.370761  1
  Rb  Rb11  1  0.659458  0.011384  0.629239  1
  In  In12  1  0.083146  0.916854  0.000000  1
  In  In13  1  0.583146  0.416854  0.500000  1
  Fe  Fe14  1  0.915068  0.084932  0.000000  1
  Fe  Fe15  1  0.415068  0.584932  0.500000  1
  Se  Se16  1  0.009309  0.309863  0.113803  1
  Se  Se17  1  0.690137  0.990691  0.886197  1
  Se  Se18  1  0.190137  0.490691  0.613803  1
  Se  Se19  1  0.509309  0.809863  0.386197  1
  Se  Se20  1  0.973287  0.666297  0.878734  1
  Se  Se21  1  0.333703  0.026713  0.121266  1
  Se  Se22  1  0.833703  0.526713  0.378734  1
  Se  Se23  1  0.473287  0.166297  0.621266  1
  Se  Se24  1  0.786454  0.801301  0.083102  1
  Se  Se25  1  0.198699  0.213546  0.916898  1
  Se  Se26  1  0.698699  0.713546  0.583102  1
  Se  Se27  1  0.286454  0.301301  0.416898  1
