# generated using pymatgen
data_Gd2Sc2ReB12Os
_symmetry_space_group_name_H-M   'P 1'
_cell_length_a   3.58990000
_cell_length_b   9.01151110
_cell_length_c   11.41541268
_cell_angle_alpha   90.06603534
_cell_angle_beta   90.00000000
_cell_angle_gamma   90.00000000
_symmetry_Int_Tables_number   1
_chemical_formula_structural   Gd2Sc2ReB12Os
_chemical_formula_sum   'Gd4 Sc4 Re2 B24 Os2'
_cell_volume   369.29319170
_cell_formula_units_Z   2
loop_
 _symmetry_equiv_pos_site_id
 _symmetry_equiv_pos_as_xyz
  1  'x, y, z'
loop_
 _atom_site_type_symbol
 _atom_site_label
 _atom_site_symmetry_multiplicity
 _atom_site_fract_x
 _atom_site_fract_y
 _atom_site_fract_z
 _atom_site_occupancy
  Gd  Gd0  1  0.000000  0.319755  0.413333  1
  Gd  Gd1  1  0.000000  0.680245  0.586667  1
  Gd  Gd2  1  0.000000  0.821918  0.085248  1
  Gd  Gd3  1  0.000000  0.178082  0.914752  1
  Sc  Sc4  1  0.000000  0.945120  0.371418  1
  Sc  Sc5  1  0.000000  0.054880  0.628582  1
  Sc  Sc6  1  0.000000  0.442998  0.127814  1
  Sc  Sc7  1  0.000000  0.557002  0.872186  1
  Re  Re8  1  0.000000  0.140934  0.182360  1
  Re  Re9  1  0.000000  0.859066  0.817640  1
  B  B10  1  0.500000  0.555112  0.432084  1
  B  B11  1  0.500000  0.444888  0.567916  1
  B  B12  1  0.500000  0.054370  0.067854  1
  B  B13  1  0.500000  0.945630  0.932146  1
  B  B14  1  0.500000  0.753364  0.417840  1
  B  B15  1  0.500000  0.246636  0.582160  1
  B  B16  1  0.500000  0.253505  0.081880  1
  B  B17  1  0.500000  0.746495  0.918120  1
  B  B18  1  0.500000  0.793387  0.265625  1
  B  B19  1  0.500000  0.206613  0.734375  1
  B  B20  1  0.500000  0.294443  0.234680  1
  B  B21  1  0.500000  0.705557  0.765320  1
  B  B22  1  0.500000  0.628600  0.183792  1
  B  B23  1  0.500000  0.371400  0.816208  1
  B  B24  1  0.500000  0.128931  0.316920  1
  B  B25  1  0.500000  0.871069  0.683080  1
  B  B26  1  0.500000  0.981400  0.214585  1
  B  B27  1  0.500000  0.018600  0.785415  1
  B  B28  1  0.500000  0.482147  0.286062  1
  B  B29  1  0.500000  0.517853  0.713938  1
  B  B30  1  0.500000  0.596827  0.026609  1
  B  B31  1  0.500000  0.403173  0.973391  1
  B  B32  1  0.500000  0.097011  0.473807  1
  B  B33  1  0.500000  0.902989  0.526193  1
  Os  Os34  1  0.000000  0.640178  0.318749  1
  Os  Os35  1  0.000000  0.359822  0.681251  1
