# generated using pymatgen
data_PrNd11(IrBr3)4
_symmetry_space_group_name_H-M   'P 1'
_cell_length_a   10.49178519
_cell_length_b   10.49178470
_cell_length_c   10.50284102
_cell_angle_alpha   109.48948197
_cell_angle_beta   109.48947801
_cell_angle_gamma   109.44403323
_symmetry_Int_Tables_number   1
_chemical_formula_structural   PrNd11(IrBr3)4
_chemical_formula_sum   'Pr1 Nd11 Ir4 Br12'
_cell_volume   889.88434948
_cell_formula_units_Z   1
loop_
 _symmetry_equiv_pos_site_id
 _symmetry_equiv_pos_as_xyz
  1  'x, y, z'
loop_
 _atom_site_type_symbol
 _atom_site_label
 _atom_site_symmetry_multiplicity
 _atom_site_fract_x
 _atom_site_fract_y
 _atom_site_fract_z
 _atom_site_occupancy
  Pr  Pr0  1  0.234717  0.265283  0.750000  1
  Nd  Nd1  1  0.468285  0.484174  0.234655  1
  Nd  Nd2  1  0.750198  0.234199  0.265989  1
  Nd  Nd3  1  0.749346  0.015619  0.483682  1
  Nd  Nd4  1  0.233944  0.468245  0.483571  1
  Nd  Nd5  1  0.265801  0.749802  0.234011  1
  Nd  Nd6  1  0.031755  0.266056  0.016429  1
  Nd  Nd7  1  0.015826  0.031715  0.265345  1
  Nd  Nd8  1  0.484381  0.750654  0.016318  1
  Nd  Nd9  1  0.484046  0.233890  0.467870  1
  Nd  Nd10  1  0.015715  0.484285  0.750000  1
  Nd  Nd11  1  0.266110  0.015954  0.032130  1
  Ir  Ir12  1  0.250029  0.249971  0.250000  1
  Ir  Ir13  1  0.499976  0.000024  0.250000  1
  Ir  Ir14  1  0.999064  0.249940  0.499147  1
  Ir  Ir15  1  0.250060  0.500936  0.000853  1
  Br  Br16  1  0.250003  0.754178  0.745943  1
  Br  Br17  1  0.509703  0.505941  0.754037  1
  Br  Br18  1  0.991644  0.745918  0.995790  1
  Br  Br19  1  0.745822  0.249997  0.754057  1
  Br  Br20  1  0.994059  0.990297  0.745963  1
  Br  Br21  1  0.249928  0.994493  0.502651  1
  Br  Br22  1  0.754082  0.508356  0.504210  1
  Br  Br23  1  0.505507  0.250072  0.997349  1
  Br  Br24  1  0.754133  0.745867  0.250000  1
  Br  Br25  1  0.745914  0.995841  0.991635  1
  Br  Br26  1  0.995795  0.504205  0.250000  1
  Br  Br27  1  0.504159  0.754086  0.508365  1
