# generated using pymatgen
data_Tb(PrSn4)3
_symmetry_space_group_name_H-M   'P 1'
_cell_length_a   12.24679371
_cell_length_b   12.24679361
_cell_length_c   12.24679454
_cell_angle_alpha   31.35456821
_cell_angle_beta   31.35457053
_cell_angle_gamma   31.35457222
_symmetry_Int_Tables_number   1
_chemical_formula_structural   Tb(PrSn4)3
_chemical_formula_sum   'Tb1 Pr3 Sn12'
_cell_volume   441.41464937
_cell_formula_units_Z   1
loop_
 _symmetry_equiv_pos_site_id
 _symmetry_equiv_pos_as_xyz
  1  'x, y, z'
loop_
 _atom_site_type_symbol
 _atom_site_label
 _atom_site_symmetry_multiplicity
 _atom_site_fract_x
 _atom_site_fract_y
 _atom_site_fract_z
 _atom_site_occupancy
  Tb  Tb0  1  0.293822  0.293822  0.293822  1
  Pr  Pr1  1  0.878119  0.878119  0.878119  1
  Pr  Pr2  1  0.121702  0.121702  0.121702  1
  Pr  Pr3  1  0.706120  0.706120  0.706120  1
  Sn  Sn4  1  0.293022  0.791861  0.791861  1
  Sn  Sn5  1  0.791861  0.791861  0.293022  1
  Sn  Sn6  1  0.865447  0.382045  0.382045  1
  Sn  Sn7  1  0.382045  0.382045  0.865447  1
  Sn  Sn8  1  0.382045  0.865447  0.382045  1
  Sn  Sn9  1  0.617147  0.137958  0.617147  1
  Sn  Sn10  1  0.137958  0.617147  0.617147  1
  Sn  Sn11  1  0.617147  0.617147  0.137958  1
  Sn  Sn12  1  0.791861  0.293022  0.791861  1
  Sn  Sn13  1  0.209234  0.703238  0.209234  1
  Sn  Sn14  1  0.209234  0.209234  0.703238  1
  Sn  Sn15  1  0.703238  0.209234  0.209234  1
