# generated using pymatgen
data_Nd10Si16Hg
_symmetry_space_group_name_H-M   'P 1'
_cell_length_a   11.51945692
_cell_length_b   11.51674935
_cell_length_c   11.51945880
_cell_angle_alpha   144.96394912
_cell_angle_beta   136.28416210
_cell_angle_gamma   57.21405961
_symmetry_Int_Tables_number   1
_chemical_formula_structural   Nd10Si16Hg
_chemical_formula_sum   'Nd10 Si16 Hg1'
_cell_volume   601.43157724
_cell_formula_units_Z   1
loop_
 _symmetry_equiv_pos_site_id
 _symmetry_equiv_pos_as_xyz
  1  'x, y, z'
loop_
 _atom_site_type_symbol
 _atom_site_label
 _atom_site_symmetry_multiplicity
 _atom_site_fract_x
 _atom_site_fract_y
 _atom_site_fract_z
 _atom_site_occupancy
  Nd  Nd0  1  0.052215  0.566629  0.023651  1
  Nd  Nd1  1  0.351685  0.367291  0.518104  1
  Nd  Nd2  1  0.155991  0.162893  0.519222  1
  Nd  Nd3  1  0.449677  0.963847  0.014022  1
  Nd  Nd4  1  0.643671  0.162893  0.006903  1
  Nd  Nd5  1  0.949826  0.963847  0.514170  1
  Nd  Nd6  1  0.849187  0.367291  0.015606  1
  Nd  Nd7  1  0.542978  0.566629  0.514414  1
  Nd  Nd8  1  0.255576  0.768691  0.018479  1
  Nd  Nd9  1  0.750212  0.768691  0.513115  1
  Si  Si10  1  0.111694  0.059777  0.948083  1
  Si  Si11  1  0.796034  0.180785  0.384750  1
  Si  Si12  1  0.299804  0.900574  0.600771  1
  Si  Si13  1  0.400259  0.501879  0.101621  1
  Si  Si14  1  0.884860  0.857566  0.972707  1
  Si  Si15  1  0.103314  0.708223  0.604910  1
  Si  Si16  1  0.198443  0.603816  0.405373  1
  Si  Si17  1  0.700430  0.297376  0.596947  1
  Si  Si18  1  0.004549  0.431307  0.426758  1
  Si  Si19  1  0.708366  0.653619  0.945253  1
  Si  Si20  1  0.600891  0.701551  0.100659  1
  Si  Si21  1  0.999035  0.085047  0.086013  1
  Si  Si22  1  0.501269  0.413251  0.911982  1
  Si  Si23  1  0.292387  0.240424  0.948038  1
  Si  Si24  1  0.591571  0.037596  0.446024  1
  Si  Si25  1  0.408651  0.851987  0.443335  1
  Hg  Hg26  1  0.897427  0.505437  0.608010  1
