# generated using pymatgen
data_AcCeMnNi3As4
_symmetry_space_group_name_H-M   'P 1'
_cell_length_a   4.28764400
_cell_length_b   4.31059900
_cell_length_c   9.74241900
_cell_angle_alpha   90.00000000
_cell_angle_beta   90.00000000
_cell_angle_gamma   90.00000000
_symmetry_Int_Tables_number   1
_chemical_formula_structural   AcCeMnNi3As4
_chemical_formula_sum   'Ac1 Ce1 Mn1 Ni3 As4'
_cell_volume   180.06244648
_cell_formula_units_Z   1
loop_
 _symmetry_equiv_pos_site_id
 _symmetry_equiv_pos_as_xyz
  1  'x, y, z'
loop_
 _atom_site_type_symbol
 _atom_site_label
 _atom_site_symmetry_multiplicity
 _atom_site_fract_x
 _atom_site_fract_y
 _atom_site_fract_z
 _atom_site_occupancy
  Ac  Ac0  1  0.500000  0.000000  0.243335  1
  Ce  Ce1  1  0.000000  0.500000  0.756760  1
  Mn  Mn2  1  0.500000  0.500000  0.507929  1
  Ni  Ni3  1  0.500000  0.000000  0.881842  1
  Ni  Ni4  1  0.000000  0.500000  0.108687  1
  Ni  Ni5  1  0.000000  0.000000  0.509072  1
  As  As6  1  0.000000  0.500000  0.370250  1
  As  As7  1  0.500000  0.500000  0.991542  1
  As  As8  1  0.000000  0.000000  0.991725  1
  As  As9  1  0.500000  0.000000  0.638858  1
