# generated using pymatgen
data_Dy4TcOs6W
_symmetry_space_group_name_H-M   'P 1'
_cell_length_a   5.24161670
_cell_length_b   5.24161736
_cell_length_c   8.98895700
_cell_angle_alpha   90.00000000
_cell_angle_beta   90.00000000
_cell_angle_gamma   116.49378514
_symmetry_Int_Tables_number   1
_chemical_formula_structural   Dy4TcOs6W
_chemical_formula_sum   'Dy4 Tc1 Os6 W1'
_cell_volume   221.03168990
_cell_formula_units_Z   1
loop_
 _symmetry_equiv_pos_site_id
 _symmetry_equiv_pos_as_xyz
  1  'x, y, z'
loop_
 _atom_site_type_symbol
 _atom_site_label
 _atom_site_symmetry_multiplicity
 _atom_site_fract_x
 _atom_site_fract_y
 _atom_site_fract_z
 _atom_site_occupancy
  Dy  Dy0  1  0.328509  0.671491  0.437322  1
  Dy  Dy1  1  0.666577  0.333423  0.564850  1
  Dy  Dy2  1  0.666577  0.333423  0.935150  1
  Dy  Dy3  1  0.328509  0.671491  0.062678  1
  Tc  Tc4  1  0.176035  0.823965  0.750000  1
  Os  Os5  1  0.993924  0.006076  0.502547  1
  Os  Os6  1  0.993924  0.006076  0.997453  1
  Os  Os7  1  0.825297  0.650139  0.250000  1
  Os  Os8  1  0.349861  0.174703  0.250000  1
  Os  Os9  1  0.171895  0.338977  0.750000  1
  Os  Os10  1  0.661023  0.828105  0.750000  1
  W  W11  1  0.837868  0.162132  0.250000  1
