# generated using pymatgen
data_Nd2Zr3Si7Pt9
_symmetry_space_group_name_H-M   'P 1'
_cell_length_a   10.08083200
_cell_length_b   10.08083234
_cell_length_c   4.06969300
_cell_angle_alpha   90.00000000
_cell_angle_beta   90.00000000
_cell_angle_gamma   119.99999887
_symmetry_Int_Tables_number   1
_chemical_formula_structural   Nd2Zr3Si7Pt9
_chemical_formula_sum   'Nd2 Zr3 Si7 Pt9'
_cell_volume   358.16657579
_cell_formula_units_Z   1
loop_
 _symmetry_equiv_pos_site_id
 _symmetry_equiv_pos_as_xyz
  1  'x, y, z'
loop_
 _atom_site_type_symbol
 _atom_site_label
 _atom_site_symmetry_multiplicity
 _atom_site_fract_x
 _atom_site_fract_y
 _atom_site_fract_z
 _atom_site_occupancy
  Nd  Nd0  1  0.000000  0.000000  0.000000  1
  Nd  Nd1  1  0.333333  0.666667  0.500000  1
  Zr  Zr2  1  0.891046  0.455219  0.500000  1
  Zr  Zr3  1  0.564173  0.108954  0.500000  1
  Zr  Zr4  1  0.544781  0.435827  0.500000  1
  Si  Si5  1  0.250222  0.202068  0.500000  1
  Si  Si6  1  0.797932  0.048155  0.500000  1
  Si  Si7  1  0.951845  0.749778  0.500000  1
  Si  Si8  1  0.559509  0.646007  0.000000  1
  Si  Si9  1  0.353993  0.913501  0.000000  1
  Si  Si10  1  0.086499  0.440491  0.000000  1
  Si  Si11  1  0.666667  0.333333  0.000000  1
  Pt  Pt12  1  0.220906  0.939016  0.500000  1
  Pt  Pt13  1  0.060984  0.281891  0.500000  1
  Pt  Pt14  1  0.718109  0.779094  0.500000  1
  Pt  Pt15  1  0.310618  0.409807  0.000000  1
  Pt  Pt16  1  0.590193  0.900812  0.000000  1
  Pt  Pt17  1  0.099188  0.689382  0.000000  1
  Pt  Pt18  1  0.385246  0.173409  0.000000  1
  Pt  Pt19  1  0.826591  0.211838  0.000000  1
  Pt  Pt20  1  0.788162  0.614754  0.000000  1
