# generated using pymatgen
data_KHoUSe4
_symmetry_space_group_name_H-M   'P 1'
_cell_length_a   4.19995600
_cell_length_b   7.09107374
_cell_length_c   8.35866452
_cell_angle_alpha   73.69954090
_cell_angle_beta   90.00000000
_cell_angle_gamma   90.00000000
_symmetry_Int_Tables_number   1
_chemical_formula_structural   KHoUSe4
_chemical_formula_sum   'K1 Ho1 U1 Se4'
_cell_volume   238.93279313
_cell_formula_units_Z   1
loop_
 _symmetry_equiv_pos_site_id
 _symmetry_equiv_pos_as_xyz
  1  'x, y, z'
loop_
 _atom_site_type_symbol
 _atom_site_label
 _atom_site_symmetry_multiplicity
 _atom_site_fract_x
 _atom_site_fract_y
 _atom_site_fract_z
 _atom_site_occupancy
  K  K0  1  0.000000  0.500000  0.500000  1
  Ho  Ho1  1  0.500000  0.500000  0.000000  1
  U  U2  1  0.000000  0.000000  0.000000  1
  Se  Se3  1  0.500000  0.771629  0.197247  1
  Se  Se4  1  0.000000  0.266338  0.192305  1
  Se  Se5  1  0.500000  0.228371  0.802753  1
  Se  Se6  1  0.000000  0.733662  0.807695  1
