# generated using pymatgen
data_TbYbY2Ni13C4
_symmetry_space_group_name_H-M   'P 1'
_cell_length_a   8.37282115
_cell_length_b   8.37282223
_cell_length_c   3.85757000
_cell_angle_alpha   90.00000000
_cell_angle_beta   90.00000000
_cell_angle_gamma   90.98464163
_symmetry_Int_Tables_number   1
_chemical_formula_structural   TbYbY2Ni13C4
_chemical_formula_sum   'Tb1 Yb1 Y2 Ni13 C4'
_cell_volume   270.39170643
_cell_formula_units_Z   1
loop_
 _symmetry_equiv_pos_site_id
 _symmetry_equiv_pos_as_xyz
  1  'x, y, z'
loop_
 _atom_site_type_symbol
 _atom_site_label
 _atom_site_symmetry_multiplicity
 _atom_site_fract_x
 _atom_site_fract_y
 _atom_site_fract_z
 _atom_site_occupancy
  Tb  Tb0  1  0.812813  0.187187  0.500000  1
  Yb  Yb1  1  0.191947  0.808053  0.500000  1
  Y  Y2  1  0.346021  0.349110  0.500000  1
  Y  Y3  1  0.650890  0.653979  0.500000  1
  Ni  Ni4  1  0.000809  0.999191  0.000000  1
  Ni  Ni5  1  0.215379  0.571241  0.000000  1
  Ni  Ni6  1  0.784487  0.431629  0.000000  1
  Ni  Ni7  1  0.428759  0.784621  0.000000  1
  Ni  Ni8  1  0.568371  0.215513  0.000000  1
  Ni  Ni9  1  0.998242  0.501762  0.500000  1
  Ni  Ni10  1  0.498238  0.001758  0.500000  1
  Ni  Ni11  1  0.072954  0.290423  0.000000  1
  Ni  Ni12  1  0.925901  0.710361  0.000000  1
  Ni  Ni13  1  0.709577  0.927046  0.000000  1
  Ni  Ni14  1  0.289639  0.074099  0.000000  1
  Ni  Ni15  1  0.124367  0.116256  0.500000  1
  Ni  Ni16  1  0.883744  0.875633  0.500000  1
  C  C17  1  0.000702  0.501531  0.000000  1
  C  C18  1  0.498469  0.999298  0.000000  1
  C  C19  1  0.442216  0.557784  0.000000  1
  C  C20  1  0.556476  0.443524  0.000000  1
