# generated using pymatgen
data_Er4NiB16Ir3
_symmetry_space_group_name_H-M   'P 1'
_cell_length_a   6.95157059
_cell_length_b   6.95157055
_cell_length_c   6.95157051
_cell_angle_alpha   112.28299812
_cell_angle_beta   111.25312175
_cell_angle_gamma   104.97097021
_symmetry_Int_Tables_number   1
_chemical_formula_structural   Er4NiB16Ir3
_chemical_formula_sum   'Er4 Ni1 B16 Ir3'
_cell_volume   257.39225012
_cell_formula_units_Z   1
loop_
 _symmetry_equiv_pos_site_id
 _symmetry_equiv_pos_as_xyz
  1  'x, y, z'
loop_
 _atom_site_type_symbol
 _atom_site_label
 _atom_site_symmetry_multiplicity
 _atom_site_fract_x
 _atom_site_fract_y
 _atom_site_fract_z
 _atom_site_occupancy
  Er  Er0  1  0.215455  0.212950  0.002505  1
  Er  Er1  1  0.789555  0.787050  0.002505  1
  Er  Er2  1  0.749386  0.248822  0.500564  1
  Er  Er3  1  0.251741  0.751178  0.500564  1
  Ni  Ni4  1  0.256623  0.500000  0.756623  1
  B  B5  1  0.414096  0.419278  0.532071  1
  B  B6  1  0.890094  0.890650  0.474456  1
  B  B7  1  0.583805  0.109348  0.999444  1
  B  B8  1  0.112792  0.580722  0.994818  1
  B  B9  1  0.583805  0.584361  0.474456  1
  B  B10  1  0.112794  0.117976  0.532071  1
  B  B11  1  0.890094  0.415638  0.999444  1
  B  B12  1  0.414095  0.882024  0.994818  1
  B  B13  1  0.108520  0.270297  0.378819  1
  B  B14  1  0.894222  0.735643  0.629865  1
  B  B15  1  0.894222  0.264357  0.158580  1
  B  B16  1  0.108520  0.729703  0.838224  1
  B  B17  1  0.732471  0.892098  0.624568  1
  B  B18  1  0.263908  0.108809  0.372717  1
  B  B19  1  0.732471  0.107901  0.840373  1
  B  B20  1  0.263908  0.891190  0.155098  1
  Ir  Ir21  1  0.496919  0.266174  0.763093  1
  Ir  Ir22  1  0.496919  0.733827  0.230745  1
  Ir  Ir23  1  0.743580  0.500000  0.243579  1
