# generated using pymatgen
data_Pr5HfMoO12
_symmetry_space_group_name_H-M   'P 1'
_cell_length_a   7.17396299
_cell_length_b   7.17396426
_cell_length_c   7.72901009
_cell_angle_alpha   74.46629206
_cell_angle_beta   74.46628187
_cell_angle_gamma   51.15105687
_symmetry_Int_Tables_number   1
_chemical_formula_structural   Pr5HfMoO12
_chemical_formula_sum   'Pr5 Hf1 Mo1 O12'
_cell_volume   295.82294379
_cell_formula_units_Z   1
loop_
 _symmetry_equiv_pos_site_id
 _symmetry_equiv_pos_as_xyz
  1  'x, y, z'
loop_
 _atom_site_type_symbol
 _atom_site_label
 _atom_site_symmetry_multiplicity
 _atom_site_fract_x
 _atom_site_fract_y
 _atom_site_fract_z
 _atom_site_occupancy
  Pr  Pr0  1  0.307110  0.300350  0.360884  1
  Pr  Pr1  1  0.699650  0.692890  0.639116  1
  Pr  Pr2  1  0.690284  0.696686  0.169300  1
  Pr  Pr3  1  0.303314  0.309716  0.830700  1
  Pr  Pr4  1  0.004413  0.995587  0.500000  1
  Hf  Hf5  1  0.760934  0.239066  0.000000  1
  Mo  Mo6  1  0.245784  0.754216  0.000000  1
  O  O7  1  0.095820  0.597609  0.573991  1
  O  O8  1  0.006871  0.991798  0.181581  1
  O  O9  1  0.402391  0.904180  0.426009  1
  O  O10  1  0.498588  0.503938  0.179307  1
  O  O11  1  0.104473  0.584982  0.079181  1
  O  O12  1  0.906134  0.406749  0.420372  1
  O  O13  1  0.008202  0.993129  0.818419  1
  O  O14  1  0.593251  0.093865  0.579628  1
  O  O15  1  0.496062  0.501412  0.820693  1
  O  O16  1  0.564780  0.103078  0.081292  1
  O  O17  1  0.415018  0.895527  0.920819  1
  O  O18  1  0.896922  0.435220  0.918708  1
