# generated using pymatgen
data_TbEr11InCo4Pt
_symmetry_space_group_name_H-M   'P 1'
_cell_length_a   8.25613352
_cell_length_b   8.25613283
_cell_length_c   8.25492567
_cell_angle_alpha   110.96534383
_cell_angle_beta   110.74439064
_cell_angle_gamma   106.74433462
_symmetry_Int_Tables_number   1
_chemical_formula_structural   TbEr11InCo4Pt
_chemical_formula_sum   'Tb1 Er11 In1 Co4 Pt1'
_cell_volume   432.38818437
_cell_formula_units_Z   1
loop_
 _symmetry_equiv_pos_site_id
 _symmetry_equiv_pos_as_xyz
  1  'x, y, z'
loop_
 _atom_site_type_symbol
 _atom_site_label
 _atom_site_symmetry_multiplicity
 _atom_site_fract_x
 _atom_site_fract_y
 _atom_site_fract_z
 _atom_site_occupancy
  Tb  Tb0  1  0.186045  0.290042  0.476087  1
  Er  Er1  1  0.814711  0.710312  0.525022  1
  Er  Er2  1  0.185679  0.711040  0.896719  1
  Er  Er3  1  0.813601  0.289570  0.103171  1
  Er  Er4  1  0.315518  0.620639  0.304361  1
  Er  Er5  1  0.685428  0.379840  0.695578  1
  Er  Er6  1  0.315738  0.010151  0.695578  1
  Er  Er7  1  0.683722  0.988842  0.304361  1
  Er  Er8  1  0.415845  0.216976  0.197940  1
  Er  Er9  1  0.585318  0.783851  0.802272  1
  Er  Er10  1  0.018421  0.216954  0.802272  1
  Er  Er11  1  0.980964  0.782095  0.197940  1
  In  In12  1  0.500156  0.500074  0.000230  1
  Co  Co13  1  0.111538  0.612943  0.500038  1
  Co  Co14  1  0.887094  0.388500  0.500038  1
  Co  Co15  1  0.378195  0.999378  0.377573  1
  Co  Co16  1  0.622058  0.999945  0.622003  1
  Pt  Pt17  1  0.999968  0.998849  0.998817  1
