# generated using pymatgen
data_Tb5P12Ir16Rh3
_symmetry_space_group_name_H-M   'P 1'
_cell_length_a   12.73273700
_cell_length_b   12.73273701
_cell_length_c   3.97482200
_cell_angle_alpha   90.00000000
_cell_angle_beta   90.00000000
_cell_angle_gamma   119.99999738
_symmetry_Int_Tables_number   1
_chemical_formula_structural   Tb5P12Ir16Rh3
_chemical_formula_sum   'Tb5 P12 Ir16 Rh3'
_cell_volume   558.07409753
_cell_formula_units_Z   1
loop_
 _symmetry_equiv_pos_site_id
 _symmetry_equiv_pos_as_xyz
  1  'x, y, z'
loop_
 _atom_site_type_symbol
 _atom_site_label
 _atom_site_symmetry_multiplicity
 _atom_site_fract_x
 _atom_site_fract_y
 _atom_site_fract_z
 _atom_site_occupancy
  Tb  Tb0  1  0.333333  0.666667  0.500000  1
  Tb  Tb1  1  0.666667  0.333333  0.500000  1
  Tb  Tb2  1  0.000000  0.813958  0.000000  1
  Tb  Tb3  1  0.186042  0.186042  0.000000  1
  Tb  Tb4  1  0.813958  0.000000  0.000000  1
  P  P5  1  0.000000  0.640177  0.500000  1
  P  P6  1  0.359823  0.359823  0.500000  1
  P  P7  1  0.640177  0.000000  0.500000  1
  P  P8  1  0.516740  0.687098  0.000000  1
  P  P9  1  0.312902  0.829642  0.000000  1
  P  P10  1  0.170358  0.483260  0.000000  1
  P  P11  1  0.483260  0.170358  0.000000  1
  P  P12  1  0.687098  0.516740  0.000000  1
  P  P13  1  0.829642  0.312902  0.000000  1
  P  P14  1  0.000000  0.179257  0.500000  1
  P  P15  1  0.820743  0.820743  0.500000  1
  P  P16  1  0.179257  0.000000  0.500000  1
  Ir  Ir17  1  0.507779  0.866932  0.000000  1
  Ir  Ir18  1  0.133068  0.640848  0.000000  1
  Ir  Ir19  1  0.359152  0.492221  0.000000  1
  Ir  Ir20  1  0.492221  0.359152  0.000000  1
  Ir  Ir21  1  0.866932  0.507779  0.000000  1
  Ir  Ir22  1  0.640848  0.133068  0.000000  1
  Ir  Ir23  1  0.000000  0.283536  0.000000  1
  Ir  Ir24  1  0.716464  0.716464  0.000000  1
  Ir  Ir25  1  0.283536  0.000000  0.000000  1
  Ir  Ir26  1  0.625516  0.805812  0.500000  1
  Ir  Ir27  1  0.194188  0.819704  0.500000  1
  Ir  Ir28  1  0.180296  0.374484  0.500000  1
  Ir  Ir29  1  0.374484  0.180296  0.500000  1
  Ir  Ir30  1  0.805812  0.625516  0.500000  1
  Ir  Ir31  1  0.819704  0.194188  0.500000  1
  Ir  Ir32  1  0.000000  0.000000  0.500000  1
  Rh  Rh33  1  0.000000  0.461088  0.500000  1
  Rh  Rh34  1  0.538912  0.538912  0.500000  1
  Rh  Rh35  1  0.461088  0.000000  0.500000  1
