# generated using pymatgen
data_La7Nd(TmRu2)2
_symmetry_space_group_name_H-M   'P 1'
_cell_length_a   6.65855871
_cell_length_b   7.23838686
_cell_length_c   9.01293812
_cell_angle_alpha   94.69603519
_cell_angle_beta   111.20301765
_cell_angle_gamma   89.95954690
_symmetry_Int_Tables_number   1
_chemical_formula_structural   La7Nd(TmRu2)2
_chemical_formula_sum   'La7 Nd1 Tm2 Ru4'
_cell_volume   403.43700487
_cell_formula_units_Z   1
loop_
 _symmetry_equiv_pos_site_id
 _symmetry_equiv_pos_as_xyz
  1  'x, y, z'
loop_
 _atom_site_type_symbol
 _atom_site_label
 _atom_site_symmetry_multiplicity
 _atom_site_fract_x
 _atom_site_fract_y
 _atom_site_fract_z
 _atom_site_occupancy
  La  La0  1  0.793940  0.094565  0.816219  1
  La  La1  1  0.980983  0.408102  0.182836  1
  La  La2  1  0.201531  0.906367  0.182580  1
  La  La3  1  0.021251  0.594179  0.815773  1
  La  La4  1  0.214128  0.181375  0.579984  1
  La  La5  1  0.633896  0.318786  0.424162  1
  La  La6  1  0.789113  0.819676  0.421589  1
  Nd  Nd7  1  0.364518  0.685076  0.572239  1
  Tm  Tm8  1  0.434052  0.249156  0.001491  1
  Tm  Tm9  1  0.565770  0.749675  0.997141  1
  Ru  Ru10  1  0.606882  0.417636  0.787098  1
  Ru  Ru11  1  0.813489  0.076322  0.214440  1
  Ru  Ru12  1  0.396743  0.576071  0.216227  1
  Ru  Ru13  1  0.183704  0.923012  0.788220  1
