# generated using pymatgen
data_Y16MgIn3Pd4
_symmetry_space_group_name_H-M   'P 1'
_cell_length_a   9.78773472
_cell_length_b   9.77847959
_cell_length_c   9.77848000
_cell_angle_alpha   59.99999863
_cell_angle_beta   60.03127338
_cell_angle_gamma   60.03127035
_symmetry_Int_Tables_number   1
_chemical_formula_structural   Y16MgIn3Pd4
_chemical_formula_sum   'Y16 Mg1 In3 Pd4'
_cell_volume   662.08689473
_cell_formula_units_Z   1
loop_
 _symmetry_equiv_pos_site_id
 _symmetry_equiv_pos_as_xyz
  1  'x, y, z'
loop_
 _atom_site_type_symbol
 _atom_site_label
 _atom_site_symmetry_multiplicity
 _atom_site_fract_x
 _atom_site_fract_y
 _atom_site_fract_z
 _atom_site_occupancy
  Y  Y0  1  0.352293  0.351284  0.351284  1
  Y  Y1  1  0.352293  0.351284  0.945140  1
  Y  Y2  1  0.352293  0.945140  0.351284  1
  Y  Y3  1  0.942999  0.352334  0.352334  1
  Y  Y4  1  0.809156  0.190421  0.190421  1
  Y  Y5  1  0.187847  0.811746  0.811746  1
  Y  Y6  1  0.187847  0.811746  0.188662  1
  Y  Y7  1  0.809156  0.190421  0.810002  1
  Y  Y8  1  0.187847  0.188662  0.811746  1
  Y  Y9  1  0.809156  0.810002  0.190421  1
  Y  Y10  1  0.935005  0.564857  0.564857  1
  Y  Y11  1  0.564562  0.935863  0.935863  1
  Y  Y12  1  0.564562  0.935863  0.563711  1
  Y  Y13  1  0.935005  0.564857  0.935280  1
  Y  Y14  1  0.564562  0.563711  0.935863  1
  Y  Y15  1  0.935005  0.935280  0.564857  1
  Mg  Mg16  1  0.264646  0.578451  0.578451  1
  In  In17  1  0.582205  0.583503  0.583503  1
  In  In18  1  0.582205  0.583503  0.250787  1
  In  In19  1  0.582205  0.250787  0.583503  1
  Pd  Pd20  1  0.143319  0.143965  0.143965  1
  Pd  Pd21  1  0.143319  0.143965  0.568751  1
  Pd  Pd22  1  0.143319  0.568751  0.143965  1
  Pd  Pd23  1  0.569191  0.143603  0.143603  1
