# generated using pymatgen
data_LaDyCCl
_symmetry_space_group_name_H-M   'P 1'
_cell_length_a   7.43016074
_cell_length_b   7.43016040
_cell_length_c   7.43015968
_cell_angle_alpha   29.12548540
_cell_angle_beta   29.12549058
_cell_angle_gamma   29.12548381
_symmetry_Int_Tables_number   1
_chemical_formula_structural   LaDyCCl
_chemical_formula_sum   'La1 Dy1 C1 Cl1'
_cell_volume   85.96696654
_cell_formula_units_Z   1
loop_
 _symmetry_equiv_pos_site_id
 _symmetry_equiv_pos_as_xyz
  1  'x, y, z'
loop_
 _atom_site_type_symbol
 _atom_site_label
 _atom_site_symmetry_multiplicity
 _atom_site_fract_x
 _atom_site_fract_y
 _atom_site_fract_z
 _atom_site_occupancy
  La  La0  1  0.769971  0.769971  0.769971  1
  Dy  Dy1  1  0.230905  0.230905  0.230905  1
  C  C2  1  0.507507  0.507507  0.507507  1
  Cl  Cl3  1  0.991617  0.991617  0.991617  1
