# generated using pymatgen
data_TbNd19Si15Cl
_symmetry_space_group_name_H-M   'P 1'
_cell_length_a   7.80863375
_cell_length_b   7.90216278
_cell_length_c   15.24680492
_cell_angle_alpha   88.84639548
_cell_angle_beta   85.32174350
_cell_angle_gamma   89.61229394
_symmetry_Int_Tables_number   1
_chemical_formula_structural   TbNd19Si15Cl
_chemical_formula_sum   'Tb1 Nd19 Si15 Cl1'
_cell_volume   937.46871719
_cell_formula_units_Z   1
loop_
 _symmetry_equiv_pos_site_id
 _symmetry_equiv_pos_as_xyz
  1  'x, y, z'
loop_
 _atom_site_type_symbol
 _atom_site_label
 _atom_site_symmetry_multiplicity
 _atom_site_fract_x
 _atom_site_fract_y
 _atom_site_fract_z
 _atom_site_occupancy
  Tb  Tb0  1  0.171720  0.516411  0.748569  1
  Nd  Nd1  1  0.864547  0.348549  0.614556  1
  Nd  Nd2  1  0.470734  0.691300  0.896397  1
  Nd  Nd3  1  0.969196  0.817289  0.897546  1
  Nd  Nd4  1  0.176190  0.674404  0.121539  1
  Nd  Nd5  1  0.675175  0.813601  0.122028  1
  Nd  Nd6  1  0.324510  0.184597  0.880247  1
  Nd  Nd7  1  0.136751  0.658213  0.385589  1
  Nd  Nd8  1  0.031173  0.182262  0.104722  1
  Nd  Nd9  1  0.364910  0.176509  0.615368  1
  Nd  Nd10  1  0.827960  0.483284  0.240939  1
  Nd  Nd11  1  0.330517  0.996175  0.253200  1
  Nd  Nd12  1  0.485891  0.302165  0.394845  1
  Nd  Nd13  1  0.825283  0.323355  0.878925  1
  Nd  Nd14  1  0.019082  0.842802  0.607501  1
  Nd  Nd15  1  0.496657  0.704315  0.611122  1
  Nd  Nd16  1  0.991163  0.157825  0.392985  1
  Nd  Nd17  1  0.632894  0.826193  0.386064  1
  Nd  Nd18  1  0.671776  0.005998  0.746361  1
  Nd  Nd19  1  0.529695  0.306199  0.103841  1
  Si  Si20  1  0.447304  0.596842  0.254526  1
  Si  Si21  1  0.217352  0.369182  0.250744  1
  Si  Si22  1  0.550366  0.405219  0.750580  1
  Si  Si23  1  0.638282  0.026797  0.958956  1
  Si  Si24  1  0.050968  0.119274  0.750902  1
  Si  Si25  1  0.783127  0.628505  0.751433  1
  Si  Si26  1  0.716784  0.110783  0.250134  1
  Si  Si27  1  0.290865  0.965039  0.455893  1
  Si  Si28  1  0.948591  0.885573  0.251335  1
  Si  Si29  1  0.363157  0.971056  0.042294  1
  Si  Si30  1  0.717265  0.035788  0.540866  1
  Si  Si31  1  0.138523  0.477017  0.957236  1
  Si  Si32  1  0.211215  0.490644  0.552551  1
  Si  Si33  1  0.862568  0.524225  0.040709  1
  Si  Si34  1  0.278416  0.886109  0.754099  1
  Cl  Cl35  1  0.789390  0.496504  0.435395  1
