# generated using pymatgen
data_LiDyY3Co19P12
_symmetry_space_group_name_H-M   'P 1'
_cell_length_a   3.66069600
_cell_length_b   10.26808411
_cell_length_c   11.79193546
_cell_angle_alpha   90.09446981
_cell_angle_beta   90.00000000
_cell_angle_gamma   90.00000000
_symmetry_Int_Tables_number   1
_chemical_formula_structural   LiDyY3Co19P12
_chemical_formula_sum   'Li1 Dy1 Y3 Co19 P12'
_cell_volume   443.23861108
_cell_formula_units_Z   1
loop_
 _symmetry_equiv_pos_site_id
 _symmetry_equiv_pos_as_xyz
  1  'x, y, z'
loop_
 _atom_site_type_symbol
 _atom_site_label
 _atom_site_symmetry_multiplicity
 _atom_site_fract_x
 _atom_site_fract_y
 _atom_site_fract_z
 _atom_site_occupancy
  Li  Li0  1  0.250000  0.796473  0.490566  1
  Dy  Dy1  1  0.750000  0.082274  0.797968  1
  Y  Y2  1  0.250000  0.918042  0.201543  1
  Y  Y3  1  0.750000  0.418638  0.296901  1
  Y  Y4  1  0.250000  0.581198  0.703239  1
  Co  Co5  1  0.750000  0.210993  0.510357  1
  Co  Co6  1  0.750000  0.284181  0.007632  1
  Co  Co7  1  0.250000  0.715568  0.991950  1
  Co  Co8  1  0.250000  0.093970  0.988009  1
  Co  Co9  1  0.750000  0.906887  0.012997  1
  Co  Co10  1  0.750000  0.591318  0.512502  1
  Co  Co11  1  0.250000  0.403847  0.487687  1
  Co  Co12  1  0.250000  0.276909  0.675925  1
  Co  Co13  1  0.750000  0.720162  0.321497  1
  Co  Co14  1  0.750000  0.779550  0.827624  1
  Co  Co15  1  0.250000  0.221660  0.175512  1
  Co  Co16  1  0.250000  0.616314  0.197019  1
  Co  Co17  1  0.750000  0.381723  0.800645  1
  Co  Co18  1  0.750000  0.119653  0.301146  1
  Co  Co19  1  0.250000  0.881128  0.700200  1
  Co  Co20  1  0.250000  0.034908  0.432310  1
  Co  Co21  1  0.750000  0.966700  0.567213  1
  Co  Co22  1  0.750000  0.531664  0.066735  1
  Co  Co23  1  0.250000  0.467032  0.931454  1
  P  P24  1  0.250000  0.078625  0.612696  1
  P  P25  1  0.750000  0.921485  0.384497  1
  P  P26  1  0.750000  0.580797  0.887962  1
  P  P27  1  0.250000  0.418888  0.111235  1
  P  P28  1  0.250000  0.230483  0.368159  1
  P  P29  1  0.750000  0.770574  0.637267  1
  P  P30  1  0.750000  0.728297  0.130431  1
  P  P31  1  0.250000  0.270288  0.869090  1
  P  P32  1  0.250000  0.898515  0.893367  1
  P  P33  1  0.750000  0.102872  0.108204  1
  P  P34  1  0.750000  0.396669  0.607365  1
  P  P35  1  0.250000  0.601714  0.391095  1
