# generated using pymatgen
data_SrLaHo5FeBr12
_symmetry_space_group_name_H-M   'P 1'
_cell_length_a   9.29988681
_cell_length_b   9.10036904
_cell_length_c   9.35164916
_cell_angle_alpha   105.03159649
_cell_angle_beta   106.00929855
_cell_angle_gamma   106.62673169
_symmetry_Int_Tables_number   1
_chemical_formula_structural   SrLaHo5FeBr12
_chemical_formula_sum   'Sr1 La1 Ho5 Fe1 Br12'
_cell_volume   678.00655288
_cell_formula_units_Z   1
loop_
 _symmetry_equiv_pos_site_id
 _symmetry_equiv_pos_as_xyz
  1  'x, y, z'
loop_
 _atom_site_type_symbol
 _atom_site_label
 _atom_site_symmetry_multiplicity
 _atom_site_fract_x
 _atom_site_fract_y
 _atom_site_fract_z
 _atom_site_occupancy
  Sr  Sr0  1  0.499506  0.505271  0.493880  1
  La  La1  1  0.907174  0.713843  0.984971  1
  Ho  Ho2  1  0.091194  0.275828  0.016512  1
  Ho  Ho3  1  0.308290  0.015696  0.102003  1
  Ho  Ho4  1  0.017565  0.099020  0.305053  1
  Ho  Ho5  1  0.983264  0.903047  0.697922  1
  Ho  Ho6  1  0.690840  0.978137  0.899372  1
  Fe  Fe7  1  0.992786  0.977555  0.001423  1
  Br  Br8  1  0.238246  0.683829  0.080878  1
  Br  Br9  1  0.437806  0.359090  0.135729  1
  Br  Br10  1  0.676986  0.074545  0.214569  1
  Br  Br11  1  0.931678  0.792226  0.341450  1
  Br  Br12  1  0.135651  0.439903  0.350609  1
  Br  Br13  1  0.360578  0.140454  0.442866  1
  Br  Br14  1  0.642588  0.873288  0.560907  1
  Br  Br15  1  0.857543  0.556190  0.623795  1
  Br  Br16  1  0.078392  0.224397  0.689676  1
  Br  Br17  1  0.325526  0.936738  0.788323  1
  Br  Br18  1  0.536952  0.635338  0.844274  1
  Br  Br19  1  0.787434  0.315607  0.925788  1
