# generated using pymatgen
data_Hf6Al7Ni16
_symmetry_space_group_name_H-M   'P 1'
_cell_length_a   8.21883600
_cell_length_b   8.21883623
_cell_length_c   8.21883600
_cell_angle_alpha   119.99999906
_cell_angle_beta   90.00000000
_cell_angle_gamma   119.99999906
_symmetry_Int_Tables_number   1
_chemical_formula_structural   Hf6Al7Ni16
_chemical_formula_sum   'Hf6 Al7 Ni16'
_cell_volume   392.56897186
_cell_formula_units_Z   1
loop_
 _symmetry_equiv_pos_site_id
 _symmetry_equiv_pos_as_xyz
  1  'x, y, z'
loop_
 _atom_site_type_symbol
 _atom_site_label
 _atom_site_symmetry_multiplicity
 _atom_site_fract_x
 _atom_site_fract_y
 _atom_site_fract_z
 _atom_site_occupancy
  Hf  Hf0  1  0.205185  0.000000  0.205185  1
  Hf  Hf1  1  0.205185  0.410368  0.205185  1
  Hf  Hf2  1  0.794816  0.000000  0.205185  1
  Hf  Hf3  1  0.794815  0.000000  0.794815  1
  Hf  Hf4  1  0.205185  0.000000  0.794816  1
  Hf  Hf5  1  0.794816  0.589632  0.794816  1
  Al  Al6  1  0.499999  0.000000  0.000000  1
  Al  Al7  1  0.000000  0.499999  0.000000  1
  Al  Al8  1  0.499999  0.499999  0.000000  1
  Al  Al9  1  0.000000  0.000000  0.499999  1
  Al  Al10  1  0.000000  0.499999  0.499999  1
  Al  Al11  1  0.499999  0.499999  0.499999  1
  Al  Al12  1  0.500000  0.000000  0.500000  1
  Ni  Ni13  1  0.379659  0.759318  0.138977  1
  Ni  Ni14  1  0.504579  0.336386  0.168193  1
  Ni  Ni15  1  0.831808  0.336386  0.168193  1
  Ni  Ni16  1  0.831808  0.663615  0.168193  1
  Ni  Ni17  1  0.620342  0.240682  0.379659  1
  Ni  Ni18  1  0.138977  0.759318  0.379659  1
  Ni  Ni19  1  0.620342  0.759318  0.379659  1
  Ni  Ni20  1  0.831808  0.663615  0.495422  1
  Ni  Ni21  1  0.168193  0.336386  0.504579  1
  Ni  Ni22  1  0.379659  0.240682  0.620342  1
  Ni  Ni23  1  0.861024  0.240682  0.620342  1
  Ni  Ni24  1  0.379659  0.759318  0.620342  1
  Ni  Ni25  1  0.168193  0.336386  0.831808  1
  Ni  Ni26  1  0.168193  0.663615  0.831808  1
  Ni  Ni27  1  0.495422  0.663615  0.831808  1
  Ni  Ni28  1  0.620342  0.240682  0.861024  1
