# generated using pymatgen
data_TbPr6(HoPb2)3
_symmetry_space_group_name_H-M   'P 1'
_cell_length_a   9.31944300
_cell_length_b   9.31944291
_cell_length_c   6.80759400
_cell_angle_alpha   90.00000000
_cell_angle_beta   90.00000000
_cell_angle_gamma   120.00000385
_symmetry_Int_Tables_number   1
_chemical_formula_structural   TbPr6(HoPb2)3
_chemical_formula_sum   'Tb1 Pr6 Ho3 Pb6'
_cell_volume   512.04033207
_cell_formula_units_Z   1
loop_
 _symmetry_equiv_pos_site_id
 _symmetry_equiv_pos_as_xyz
  1  'x, y, z'
loop_
 _atom_site_type_symbol
 _atom_site_label
 _atom_site_symmetry_multiplicity
 _atom_site_fract_x
 _atom_site_fract_y
 _atom_site_fract_z
 _atom_site_occupancy
  Tb  Tb0  1  0.333333  0.666667  0.000000  1
  Pr  Pr1  1  0.239810  0.000046  0.250043  1
  Pr  Pr2  1  0.239810  0.239764  0.749957  1
  Pr  Pr3  1  0.999954  0.760190  0.749957  1
  Pr  Pr4  1  0.999954  0.239764  0.250043  1
  Pr  Pr5  1  0.760236  0.760190  0.250043  1
  Pr  Pr6  1  0.760236  0.000046  0.749957  1
  Ho  Ho7  1  0.666667  0.333333  0.500000  1
  Ho  Ho8  1  0.666667  0.333333  0.000000  1
  Ho  Ho9  1  0.333333  0.666667  0.500000  1
  Pb  Pb10  1  0.600932  0.000151  0.250111  1
  Pb  Pb11  1  0.600932  0.600781  0.749889  1
  Pb  Pb12  1  0.999849  0.399068  0.749889  1
  Pb  Pb13  1  0.999849  0.600781  0.250111  1
  Pb  Pb14  1  0.399219  0.399068  0.250111  1
  Pb  Pb15  1  0.399219  0.000151  0.749889  1
