# generated using pymatgen
data_Rb6YHoBi4
_symmetry_space_group_name_H-M   'P 1'
_cell_length_a   10.38197380
_cell_length_b   10.38197467
_cell_length_c   10.38197408
_cell_angle_alpha   128.12067356
_cell_angle_beta   70.57163980
_cell_angle_gamma   135.66846840
_symmetry_Int_Tables_number   1
_chemical_formula_structural   Rb6YHoBi4
_chemical_formula_sum   'Rb6 Y1 Ho1 Bi4'
_cell_volume   602.99641521
_cell_formula_units_Z   1
loop_
 _symmetry_equiv_pos_site_id
 _symmetry_equiv_pos_as_xyz
  1  'x, y, z'
loop_
 _atom_site_type_symbol
 _atom_site_label
 _atom_site_symmetry_multiplicity
 _atom_site_fract_x
 _atom_site_fract_y
 _atom_site_fract_z
 _atom_site_occupancy
  Rb  Rb0  1  0.250000  0.250000  0.000000  1
  Rb  Rb1  1  0.750000  0.750000  0.000000  1
  Rb  Rb2  1  0.313994  0.806449  0.120395  1
  Rb  Rb3  1  0.186006  0.306402  0.492455  1
  Rb  Rb4  1  0.813947  0.693552  0.507546  1
  Rb  Rb5  1  0.686053  0.193597  0.879604  1
  Y  Y6  1  0.250000  0.749999  0.499999  1
  Ho  Ho7  1  0.750000  0.250000  0.500000  1
  Bi  Bi8  1  0.901276  0.304205  0.206092  1
  Bi  Bi9  1  0.598724  0.804818  0.402929  1
  Bi  Bi10  1  0.401889  0.195795  0.597071  1
  Bi  Bi11  1  0.098111  0.695182  0.793907  1
