# generated using pymatgen
data_Sr8IrRhO12
_symmetry_space_group_name_H-M   'P 1'
_cell_length_a   6.94026332
_cell_length_b   6.94026404
_cell_length_c   6.94026324
_cell_angle_alpha   90.37090676
_cell_angle_beta   90.37090628
_cell_angle_gamma   90.37091456
_symmetry_Int_Tables_number   1
_chemical_formula_structural   Sr8IrRhO12
_chemical_formula_sum   'Sr8 Ir1 Rh1 O12'
_cell_volume   334.27235853
_cell_formula_units_Z   1
loop_
 _symmetry_equiv_pos_site_id
 _symmetry_equiv_pos_as_xyz
  1  'x, y, z'
loop_
 _atom_site_type_symbol
 _atom_site_label
 _atom_site_symmetry_multiplicity
 _atom_site_fract_x
 _atom_site_fract_y
 _atom_site_fract_z
 _atom_site_occupancy
  Sr  Sr0  1  0.747444  0.747444  0.747444  1
  Sr  Sr1  1  0.252556  0.252556  0.252556  1
  Sr  Sr2  1  0.255401  0.613475  0.880392  1
  Sr  Sr3  1  0.880392  0.255401  0.613475  1
  Sr  Sr4  1  0.613475  0.880392  0.255401  1
  Sr  Sr5  1  0.744599  0.386525  0.119608  1
  Sr  Sr6  1  0.119608  0.744599  0.386525  1
  Sr  Sr7  1  0.386525  0.119608  0.744599  1
  Ir  Ir8  1  0.000000  0.000000  0.000000  1
  Rh  Rh9  1  0.500000  0.500000  0.500000  1
  O  O10  1  0.069805  0.281011  0.943250  1
  O  O11  1  0.943250  0.069805  0.281011  1
  O  O12  1  0.281011  0.943250  0.069805  1
  O  O13  1  0.424983  0.559465  0.211344  1
  O  O14  1  0.211344  0.424983  0.559465  1
  O  O15  1  0.559465  0.211344  0.424983  1
  O  O16  1  0.930195  0.718989  0.056750  1
  O  O17  1  0.056750  0.930195  0.718989  1
  O  O18  1  0.718989  0.056750  0.930195  1
  O  O19  1  0.575017  0.440535  0.788656  1
  O  O20  1  0.440535  0.788656  0.575017  1
  O  O21  1  0.788656  0.575017  0.440535  1
