# generated using pymatgen
data_Na3LiTeO5
_symmetry_space_group_name_H-M   'P 1'
_cell_length_a   5.74855519
_cell_length_b   6.10222343
_cell_length_c   7.86281992
_cell_angle_alpha   76.64114805
_cell_angle_beta   70.29022600
_cell_angle_gamma   73.60186475
_symmetry_Int_Tables_number   1
_chemical_formula_structural   Na3LiTeO5
_chemical_formula_sum   'Na6 Li2 Te2 O10'
_cell_volume   246.26419548
_cell_formula_units_Z   2
loop_
 _symmetry_equiv_pos_site_id
 _symmetry_equiv_pos_as_xyz
  1  'x, y, z'
loop_
 _atom_site_type_symbol
 _atom_site_label
 _atom_site_symmetry_multiplicity
 _atom_site_fract_x
 _atom_site_fract_y
 _atom_site_fract_z
 _atom_site_occupancy
  Na  Na0  1  0.702363  0.058930  0.582802  1
  Na  Na1  1  0.308350  0.448257  0.393368  1
  Na  Na2  1  0.519552  0.742000  0.989918  1
  Na  Na3  1  0.691650  0.551743  0.606632  1
  Na  Na4  1  0.297637  0.941070  0.417198  1
  Na  Na5  1  0.480448  0.258000  0.010082  1
  Li  Li6  1  0.872790  0.370972  0.153732  1
  Li  Li7  1  0.127210  0.629028  0.846268  1
  Te  Te8  1  0.104648  0.156014  0.803047  1
  Te  Te9  1  0.895352  0.843986  0.196953  1
  O  O10  1  0.016185  0.220517  0.581695  1
  O  O11  1  0.848561  0.942904  0.933901  1
  O  O12  1  0.849883  0.420856  0.895919  1
  O  O13  1  0.641568  0.662240  0.271059  1
  O  O14  1  0.983815  0.779483  0.418305  1
  O  O15  1  0.353244  0.876630  0.731116  1
  O  O16  1  0.646756  0.123370  0.268884  1
  O  O17  1  0.151439  0.057096  0.066099  1
  O  O18  1  0.150117  0.579144  0.104081  1
  O  O19  1  0.358432  0.337760  0.728941  1
