# generated using pymatgen
data_Pr4MgCo4(P4Rh5)3
_symmetry_space_group_name_H-M   'P 1'
_cell_length_a   3.91162800
_cell_length_b   10.86415422
_cell_length_c   12.56095546
_cell_angle_alpha   90.07246302
_cell_angle_beta   90.00000000
_cell_angle_gamma   90.00000000
_symmetry_Int_Tables_number   1
_chemical_formula_structural   Pr4MgCo4(P4Rh5)3
_chemical_formula_sum   'Pr4 Mg1 Co4 P12 Rh15'
_cell_volume   533.79659152
_cell_formula_units_Z   1
loop_
 _symmetry_equiv_pos_site_id
 _symmetry_equiv_pos_as_xyz
  1  'x, y, z'
loop_
 _atom_site_type_symbol
 _atom_site_label
 _atom_site_symmetry_multiplicity
 _atom_site_fract_x
 _atom_site_fract_y
 _atom_site_fract_z
 _atom_site_occupancy
  Pr  Pr0  1  0.250000  0.583566  0.705356  1
  Pr  Pr1  1  0.250000  0.917803  0.208598  1
  Pr  Pr2  1  0.750000  0.415924  0.292712  1
  Pr  Pr3  1  0.750000  0.082691  0.791852  1
  Mg  Mg4  1  0.250000  0.703702  0.987018  1
  Co  Co5  1  0.250000  0.463801  0.935428  1
  Co  Co6  1  0.250000  0.035115  0.434130  1
  Co  Co7  1  0.750000  0.536300  0.062895  1
  Co  Co8  1  0.750000  0.965275  0.563719  1
  P  P9  1  0.250000  0.423428  0.105242  1
  P  P10  1  0.250000  0.075886  0.603295  1
  P  P11  1  0.750000  0.571453  0.890004  1
  P  P12  1  0.750000  0.924745  0.395105  1
  P  P13  1  0.250000  0.273253  0.871331  1
  P  P14  1  0.250000  0.224421  0.373913  1
  P  P15  1  0.750000  0.726567  0.134871  1
  P  P16  1  0.750000  0.776572  0.627013  1
  P  P17  1  0.250000  0.600952  0.391027  1
  P  P18  1  0.250000  0.903498  0.886821  1
  P  P19  1  0.750000  0.397144  0.610668  1
  P  P20  1  0.750000  0.102586  0.109227  1
  Rh  Rh21  1  0.250000  0.784170  0.487100  1
  Rh  Rh22  1  0.750000  0.292451  0.020051  1
  Rh  Rh23  1  0.750000  0.215768  0.512130  1
  Rh  Rh24  1  0.250000  0.407401  0.483606  1
  Rh  Rh25  1  0.250000  0.096763  0.982667  1
  Rh  Rh26  1  0.750000  0.592368  0.518198  1
  Rh  Rh27  1  0.750000  0.906758  0.016899  1
  Rh  Rh28  1  0.250000  0.227074  0.179215  1
  Rh  Rh29  1  0.250000  0.273996  0.674966  1
  Rh  Rh30  1  0.750000  0.774675  0.822338  1
  Rh  Rh31  1  0.750000  0.725194  0.325695  1
  Rh  Rh32  1  0.250000  0.885855  0.694336  1
  Rh  Rh33  1  0.250000  0.617424  0.196244  1
  Rh  Rh34  1  0.750000  0.115066  0.302519  1
  Rh  Rh35  1  0.750000  0.380355  0.803811  1
