# generated using pymatgen
data_Sr7Ca5(YSi2)8
_symmetry_space_group_name_H-M   'P 1'
_cell_length_a   7.53253599
_cell_length_b   7.91297126
_cell_length_c   15.07325600
_cell_angle_alpha   90.15163579
_cell_angle_beta   90.20237735
_cell_angle_gamma   89.97822744
_symmetry_Int_Tables_number   1
_chemical_formula_structural   Sr7Ca5(YSi2)8
_chemical_formula_sum   'Sr7 Ca5 Y8 Si16'
_cell_volume   898.42870364
_cell_formula_units_Z   1
loop_
 _symmetry_equiv_pos_site_id
 _symmetry_equiv_pos_as_xyz
  1  'x, y, z'
loop_
 _atom_site_type_symbol
 _atom_site_label
 _atom_site_symmetry_multiplicity
 _atom_site_fract_x
 _atom_site_fract_y
 _atom_site_fract_z
 _atom_site_occupancy
  Sr  Sr0  1  0.978467  0.822546  0.403482  1
  Sr  Sr1  1  0.477842  0.678724  0.096587  1
  Sr  Sr2  1  0.520837  0.322823  0.596426  1
  Sr  Sr3  1  0.022729  0.178026  0.905065  1
  Sr  Sr4  1  0.021297  0.177534  0.596636  1
  Sr  Sr5  1  0.523263  0.323143  0.904274  1
  Sr  Sr6  1  0.477824  0.676936  0.403005  1
  Ca  Ca7  1  0.975310  0.816749  0.097138  1
  Ca  Ca8  1  0.351192  0.015087  0.750206  1
  Ca  Ca9  1  0.850962  0.485646  0.750329  1
  Ca  Ca10  1  0.148436  0.515949  0.248964  1
  Ca  Ca11  1  0.650089  0.982878  0.248859  1
  Y  Y12  1  0.317303  0.177464  0.120860  1
  Y  Y13  1  0.817836  0.320445  0.377806  1
  Y  Y14  1  0.181794  0.680678  0.879592  1
  Y  Y15  1  0.681316  0.820875  0.621491  1
  Y  Y16  1  0.317342  0.178040  0.377010  1
  Y  Y17  1  0.818865  0.321006  0.121513  1
  Y  Y18  1  0.181617  0.679091  0.621630  1
  Y  Y19  1  0.684131  0.821683  0.879302  1
  Si  Si20  1  0.860368  0.536296  0.537601  1
  Si  Si21  1  0.363105  0.964516  0.962375  1
  Si  Si22  1  0.638449  0.036566  0.461834  1
  Si  Si23  1  0.139315  0.467982  0.039622  1
  Si  Si24  1  0.138889  0.462495  0.461933  1
  Si  Si25  1  0.643472  0.034382  0.038925  1
  Si  Si26  1  0.359973  0.963261  0.537343  1
  Si  Si27  1  0.861884  0.541093  0.964223  1
  Si  Si28  1  0.971416  0.880836  0.750135  1
  Si  Si29  1  0.471134  0.620183  0.750519  1
  Si  Si30  1  0.528580  0.381019  0.249141  1
  Si  Si31  1  0.027507  0.117090  0.248123  1
  Si  Si32  1  0.241415  0.402994  0.750554  1
  Si  Si33  1  0.741514  0.097980  0.750469  1
  Si  Si34  1  0.255241  0.899586  0.247441  1
  Si  Si35  1  0.759287  0.598400  0.249591  1
