# generated using pymatgen
data_Tb4Dy8Os3Ru
_symmetry_space_group_name_H-M   'P 1'
_cell_length_a   6.33709801
_cell_length_b   7.37206540
_cell_length_c   9.12714700
_cell_angle_alpha   90.00000000
_cell_angle_beta   90.00000000
_cell_angle_gamma   90.04389400
_symmetry_Int_Tables_number   1
_chemical_formula_structural   Tb4Dy8Os3Ru
_chemical_formula_sum   'Tb4 Dy8 Os3 Ru1'
_cell_volume   426.39737346
_cell_formula_units_Z   1
loop_
 _symmetry_equiv_pos_site_id
 _symmetry_equiv_pos_as_xyz
  1  'x, y, z'
loop_
 _atom_site_type_symbol
 _atom_site_label
 _atom_site_symmetry_multiplicity
 _atom_site_fract_x
 _atom_site_fract_y
 _atom_site_fract_z
 _atom_site_occupancy
  Tb  Tb0  1  0.868792  0.539628  0.250000  1
  Tb  Tb1  1  0.632552  0.038664  0.250000  1
  Tb  Tb2  1  0.131407  0.461596  0.750000  1
  Tb  Tb3  1  0.368582  0.961773  0.750000  1
  Dy  Dy4  1  0.331527  0.675144  0.062857  1
  Dy  Dy5  1  0.169267  0.175885  0.436513  1
  Dy  Dy6  1  0.669717  0.324338  0.563275  1
  Dy  Dy7  1  0.829552  0.824066  0.935525  1
  Dy  Dy8  1  0.669717  0.324338  0.936725  1
  Dy  Dy9  1  0.829552  0.824066  0.564475  1
  Dy  Dy10  1  0.331527  0.675144  0.437143  1
  Dy  Dy11  1  0.169267  0.175885  0.063487  1
  Os  Os12  1  0.459613  0.383818  0.250000  1
  Os  Os13  1  0.959692  0.115685  0.750000  1
  Os  Os14  1  0.540554  0.616068  0.750000  1
  Ru  Ru15  1  0.038681  0.883905  0.250000  1
