# generated using pymatgen
data_TbDyCu4
_symmetry_space_group_name_H-M   'P 1'
_cell_length_a   5.47537360
_cell_length_b   5.47537357
_cell_length_c   5.47537497
_cell_angle_alpha   133.99745950
_cell_angle_beta   102.21953928
_cell_angle_gamma   95.37738386
_symmetry_Int_Tables_number   1
_chemical_formula_structural   TbDyCu4
_chemical_formula_sum   'Tb1 Dy1 Cu4'
_cell_volume   108.43305362
_cell_formula_units_Z   1
loop_
 _symmetry_equiv_pos_site_id
 _symmetry_equiv_pos_as_xyz
  1  'x, y, z'
loop_
 _atom_site_type_symbol
 _atom_site_label
 _atom_site_symmetry_multiplicity
 _atom_site_fract_x
 _atom_site_fract_y
 _atom_site_fract_z
 _atom_site_occupancy
  Tb  Tb0  1  0.793220  0.543220  0.250000  1
  Dy  Dy1  1  0.207042  0.457042  0.750000  1
  Cu  Cu2  1  0.385535  0.835153  0.550382  1
  Cu  Cu3  1  0.613759  0.164716  0.449043  1
  Cu  Cu4  1  0.215673  0.164716  0.050957  1
  Cu  Cu5  1  0.784771  0.835153  0.949618  1
