# generated using pymatgen
data_Ba8Sr2Si5Bi
_symmetry_space_group_name_H-M   'P 1'
_cell_length_a   8.50501200
_cell_length_b   8.50501200
_cell_length_c   16.98306000
_cell_angle_alpha   90.00000000
_cell_angle_beta   90.00000000
_cell_angle_gamma   90.00000000
_symmetry_Int_Tables_number   1
_chemical_formula_structural   Ba8Sr2Si5Bi
_chemical_formula_sum   'Ba16 Sr4 Si10 Bi2'
_cell_volume   1228.47353626
_cell_formula_units_Z   2
loop_
 _symmetry_equiv_pos_site_id
 _symmetry_equiv_pos_as_xyz
  1  'x, y, z'
loop_
 _atom_site_type_symbol
 _atom_site_label
 _atom_site_symmetry_multiplicity
 _atom_site_fract_x
 _atom_site_fract_y
 _atom_site_fract_z
 _atom_site_occupancy
  Ba  Ba0  1  0.310964  0.669479  0.117440  1
  Ba  Ba1  1  0.169479  0.189036  0.117440  1
  Ba  Ba2  1  0.328764  0.691308  0.393034  1
  Ba  Ba3  1  0.669479  0.689036  0.882560  1
  Ba  Ba4  1  0.191308  0.171236  0.393034  1
  Ba  Ba5  1  0.671236  0.308692  0.393034  1
  Ba  Ba6  1  0.171236  0.808692  0.606966  1
  Ba  Ba7  1  0.330521  0.310964  0.882560  1
  Ba  Ba8  1  0.189036  0.830521  0.882560  1
  Ba  Ba9  1  0.828764  0.191308  0.606966  1
  Ba  Ba10  1  0.308692  0.328764  0.606966  1
  Ba  Ba11  1  0.808692  0.828764  0.393034  1
  Ba  Ba12  1  0.810964  0.169479  0.882560  1
  Ba  Ba13  1  0.830521  0.810964  0.117440  1
  Ba  Ba14  1  0.689036  0.330521  0.117440  1
  Ba  Ba15  1  0.691308  0.671236  0.606966  1
  Sr  Sr16  1  0.500000  0.000000  0.719676  1
  Sr  Sr17  1  0.500000  0.000000  0.242093  1
  Sr  Sr18  1  0.000000  0.500000  0.280324  1
  Sr  Sr19  1  0.000000  0.500000  0.757907  1
  Si  Si20  1  0.103978  0.105542  0.747313  1
  Si  Si21  1  0.394458  0.603978  0.747313  1
  Si  Si22  1  0.603978  0.605542  0.252687  1
  Si  Si23  1  0.105542  0.896022  0.252687  1
  Si  Si24  1  0.605542  0.396022  0.747313  1
  Si  Si25  1  0.896022  0.894458  0.747313  1
  Si  Si26  1  0.396022  0.394458  0.252687  1
  Si  Si27  1  0.894458  0.103978  0.252687  1
  Si  Si28  1  0.500000  0.000000  0.512192  1
  Si  Si29  1  0.000000  0.500000  0.487808  1
  Bi  Bi30  1  0.000000  0.500000  0.985551  1
  Bi  Bi31  1  0.500000  0.000000  0.014449  1
