# generated using pymatgen
data_NaPu2Se3
_symmetry_space_group_name_H-M   'P 1'
_cell_length_a   7.30955759
_cell_length_b   7.30955612
_cell_length_c   7.30955737
_cell_angle_alpha   146.63118848
_cell_angle_beta   132.50996599
_cell_angle_gamma   59.27848516
_symmetry_Int_Tables_number   1
_chemical_formula_structural   NaPu2Se3
_chemical_formula_sum   'Na1 Pu2 Se3'
_cell_volume   156.96764989
_cell_formula_units_Z   1
loop_
 _symmetry_equiv_pos_site_id
 _symmetry_equiv_pos_as_xyz
  1  'x, y, z'
loop_
 _atom_site_type_symbol
 _atom_site_label
 _atom_site_symmetry_multiplicity
 _atom_site_fract_x
 _atom_site_fract_y
 _atom_site_fract_z
 _atom_site_occupancy
  Na  Na0  1  0.000000  0.000000  0.000000  1
  Pu  Pu1  1  0.663438  0.663438  0.000000  1
  Pu  Pu2  1  0.336562  0.336562  0.000000  1
  Se  Se3  1  0.500000  0.000000  0.500000  1
  Se  Se4  1  0.177147  0.677147  0.500000  1
  Se  Se5  1  0.822853  0.322853  0.500000  1
