# generated using pymatgen
data_DyNp(Ni2P)4
_symmetry_space_group_name_H-M   'P 1'
_cell_length_a   7.12187398
_cell_length_b   7.12187398
_cell_length_c   3.62793400
_cell_angle_alpha   90.00000000
_cell_angle_beta   90.00000000
_cell_angle_gamma   90.49699211
_symmetry_Int_Tables_number   1
_chemical_formula_structural   DyNp(Ni2P)4
_chemical_formula_sum   'Dy1 Np1 Ni8 P4'
_cell_volume   184.00584075
_cell_formula_units_Z   1
loop_
 _symmetry_equiv_pos_site_id
 _symmetry_equiv_pos_as_xyz
  1  'x, y, z'
loop_
 _atom_site_type_symbol
 _atom_site_label
 _atom_site_symmetry_multiplicity
 _atom_site_fract_x
 _atom_site_fract_y
 _atom_site_fract_z
 _atom_site_occupancy
  Dy  Dy0  1  0.500000  0.500000  0.500000  1
  Np  Np1  1  0.000000  0.000000  0.000000  1
  Ni  Ni2  1  0.586485  0.836516  0.000000  1
  Ni  Ni3  1  0.836516  0.586485  0.000000  1
  Ni  Ni4  1  0.163484  0.413515  0.000000  1
  Ni  Ni5  1  0.413515  0.163484  0.000000  1
  Ni  Ni6  1  0.659521  0.087965  0.500000  1
  Ni  Ni7  1  0.912035  0.340479  0.500000  1
  Ni  Ni8  1  0.087965  0.659521  0.500000  1
  Ni  Ni9  1  0.340479  0.912035  0.500000  1
  P  P10  1  0.721460  0.278540  0.000000  1
  P  P11  1  0.278540  0.721460  0.000000  1
  P  P12  1  0.784105  0.784105  0.500000  1
  P  P13  1  0.215895  0.215895  0.500000  1
