# generated using pymatgen
data_Gd2B6MoW
_symmetry_space_group_name_H-M   'P 1'
_cell_length_a   3.16727200
_cell_length_b   5.49913675
_cell_length_c   6.88566621
_cell_angle_alpha   77.40008225
_cell_angle_beta   90.00000000
_cell_angle_gamma   90.00000000
_symmetry_Int_Tables_number   1
_chemical_formula_structural   Gd2B6MoW
_chemical_formula_sum   'Gd2 B6 Mo1 W1'
_cell_volume   117.04119942
_cell_formula_units_Z   1
loop_
 _symmetry_equiv_pos_site_id
 _symmetry_equiv_pos_as_xyz
  1  'x, y, z'
loop_
 _atom_site_type_symbol
 _atom_site_label
 _atom_site_symmetry_multiplicity
 _atom_site_fract_x
 _atom_site_fract_y
 _atom_site_fract_z
 _atom_site_occupancy
  Gd  Gd0  1  0.750000  0.827616  0.707220  1
  Gd  Gd1  1  0.250000  0.172032  0.292671  1
  B  B2  1  0.250000  0.578698  0.473015  1
  B  B3  1  0.750000  0.421503  0.525673  1
  B  B4  1  0.250000  0.587327  0.995560  1
  B  B5  1  0.750000  0.412818  0.005149  1
  B  B6  1  0.250000  0.916879  0.993819  1
  B  B7  1  0.750000  0.082956  0.006691  1
  Mo  Mo8  1  0.250000  0.313088  0.781992  1
  W  W9  1  0.750000  0.687083  0.218211  1
