# generated using pymatgen
data_PrY2Ho(Ir2O7)2
_symmetry_space_group_name_H-M   'P 1'
_cell_length_a   7.32635670
_cell_length_b   7.26373060
_cell_length_c   7.26443404
_cell_angle_alpha   60.00319696
_cell_angle_beta   60.29009549
_cell_angle_gamma   60.28236282
_symmetry_Int_Tables_number   1
_chemical_formula_structural   PrY2Ho(Ir2O7)2
_chemical_formula_sum   'Pr1 Y2 Ho1 Ir4 O14'
_cell_volume   274.54312805
_cell_formula_units_Z   1
loop_
 _symmetry_equiv_pos_site_id
 _symmetry_equiv_pos_as_xyz
  1  'x, y, z'
loop_
 _atom_site_type_symbol
 _atom_site_label
 _atom_site_symmetry_multiplicity
 _atom_site_fract_x
 _atom_site_fract_y
 _atom_site_fract_z
 _atom_site_occupancy
  Pr  Pr0  1  0.625000  0.125000  0.125000  1
  Y  Y1  1  0.125000  0.125000  0.125000  1
  Y  Y2  1  0.125000  0.625000  0.125000  1
  Ho  Ho3  1  0.125000  0.125000  0.625000  1
  Ir  Ir4  1  0.625000  0.625000  0.625000  1
  Ir  Ir5  1  0.125000  0.625000  0.625000  1
  Ir  Ir6  1  0.625000  0.125000  0.625000  1
  Ir  Ir7  1  0.625000  0.625000  0.125000  1
  O  O8  1  0.961124  0.537761  0.540679  1
  O  O9  1  0.288876  0.289563  0.709321  1
  O  O10  1  0.960928  0.539555  0.959962  1
  O  O11  1  0.719758  0.289250  0.289581  1
  O  O12  1  0.530242  0.548589  0.960419  1
  O  O13  1  0.528457  0.961049  0.549445  1
  O  O14  1  0.530242  0.960750  0.960419  1
  O  O15  1  0.238622  0.253006  0.255367  1
  O  O16  1  0.288876  0.712239  0.709321  1
  O  O17  1  0.721543  0.288951  0.700555  1
  O  O18  1  0.011378  0.996994  0.994633  1
  O  O19  1  0.961124  0.960437  0.540679  1
  O  O20  1  0.289072  0.710445  0.290038  1
  O  O21  1  0.719758  0.701411  0.289581  1
