# generated using pymatgen
data_Y2Tm6Cd2RuPt
_symmetry_space_group_name_H-M   'P 1'
_cell_length_a   9.57192498
_cell_length_b   9.56521609
_cell_length_c   9.62429335
_cell_angle_alpha   59.84169670
_cell_angle_beta   59.77265927
_cell_angle_gamma   59.64577346
_symmetry_Int_Tables_number   1
_chemical_formula_structural   Y2Tm6Cd2RuPt
_chemical_formula_sum   'Y4 Tm12 Cd4 Ru2 Pt2'
_cell_volume   619.59275484
_cell_formula_units_Z   2
loop_
 _symmetry_equiv_pos_site_id
 _symmetry_equiv_pos_as_xyz
  1  'x, y, z'
loop_
 _atom_site_type_symbol
 _atom_site_label
 _atom_site_symmetry_multiplicity
 _atom_site_fract_x
 _atom_site_fract_y
 _atom_site_fract_z
 _atom_site_occupancy
  Y  Y0  1  0.559624  0.937314  0.566334  1
  Y  Y1  1  0.937314  0.559624  0.936728  1
  Y  Y2  1  0.563574  0.563574  0.936426  1
  Y  Y3  1  0.937815  0.937815  0.562185  1
  Tm  Tm4  1  0.349994  0.349386  0.351212  1
  Tm  Tm5  1  0.349386  0.349994  0.949408  1
  Tm  Tm6  1  0.346000  0.955439  0.349693  1
  Tm  Tm7  1  0.955439  0.346000  0.348869  1
  Tm  Tm8  1  0.816596  0.186575  0.188759  1
  Tm  Tm9  1  0.186575  0.816596  0.808071  1
  Tm  Tm10  1  0.186620  0.816364  0.189390  1
  Tm  Tm11  1  0.816364  0.186620  0.807626  1
  Tm  Tm12  1  0.187019  0.187019  0.812981  1
  Tm  Tm13  1  0.809412  0.809412  0.190588  1
  Tm  Tm14  1  0.940101  0.555840  0.564045  1
  Tm  Tm15  1  0.555840  0.940101  0.940013  1
  Cd  Cd16  1  0.579912  0.578663  0.580808  1
  Cd  Cd17  1  0.578663  0.579912  0.260617  1
  Cd  Cd18  1  0.579636  0.256073  0.582613  1
  Cd  Cd19  1  0.256073  0.579636  0.581677  1
  Ru  Ru20  1  0.146639  0.143383  0.137554  1
  Ru  Ru21  1  0.143383  0.146639  0.572425  1
  Pt  Pt22  1  0.143984  0.574038  0.141734  1
  Pt  Pt23  1  0.574038  0.143984  0.140245  1
