# generated using pymatgen
data_LaY15In4(IrRu)2
_symmetry_space_group_name_H-M   'P 1'
_cell_length_a   9.74971577
_cell_length_b   9.76381423
_cell_length_c   9.74971562
_cell_angle_alpha   59.95215296
_cell_angle_beta   59.48318104
_cell_angle_gamma   59.95214871
_symmetry_Int_Tables_number   1
_chemical_formula_structural   LaY15In4(IrRu)2
_chemical_formula_sum   'La1 Y15 In4 Ir2 Ru2'
_cell_volume   653.20773517
_cell_formula_units_Z   1
loop_
 _symmetry_equiv_pos_site_id
 _symmetry_equiv_pos_as_xyz
  1  'x, y, z'
loop_
 _atom_site_type_symbol
 _atom_site_label
 _atom_site_symmetry_multiplicity
 _atom_site_fract_x
 _atom_site_fract_y
 _atom_site_fract_z
 _atom_site_occupancy
  La  La0  1  0.813087  0.186913  0.813087  1
  Y  Y1  1  0.942461  0.559570  0.557711  1
  Y  Y2  1  0.562025  0.937975  0.562025  1
  Y  Y3  1  0.806139  0.193808  0.195812  1
  Y  Y4  1  0.191990  0.808010  0.191990  1
  Y  Y5  1  0.349046  0.957420  0.349046  1
  Y  Y6  1  0.942461  0.940259  0.557711  1
  Y  Y7  1  0.557711  0.940259  0.942461  1
  Y  Y8  1  0.195812  0.804242  0.806139  1
  Y  Y9  1  0.346726  0.350129  0.953018  1
  Y  Y10  1  0.557711  0.559570  0.942461  1
  Y  Y11  1  0.349046  0.344491  0.349046  1
  Y  Y12  1  0.195812  0.193808  0.806139  1
  Y  Y13  1  0.806139  0.804242  0.195812  1
  Y  Y14  1  0.937438  0.562562  0.937438  1
  Y  Y15  1  0.953018  0.350129  0.346726  1
  In  In16  1  0.580743  0.587098  0.580743  1
  In  In17  1  0.580743  0.251417  0.580743  1
  In  In18  1  0.582069  0.583038  0.251857  1
  In  In19  1  0.251857  0.583038  0.582069  1
  Ir  Ir20  1  0.141729  0.577497  0.141729  1
  Ir  Ir21  1  0.141729  0.139045  0.141729  1
  Ru  Ru22  1  0.127450  0.142743  0.587064  1
  Ru  Ru23  1  0.587064  0.142743  0.127450  1
