# generated using pymatgen
data_YNbB2Ru5W
_symmetry_space_group_name_H-M   'P 1'
_cell_length_a   9.55884623
_cell_length_b   9.55884508
_cell_length_c   3.05243500
_cell_angle_alpha   90.00000000
_cell_angle_beta   90.00000000
_cell_angle_gamma   90.58846943
_symmetry_Int_Tables_number   1
_chemical_formula_structural   YNbB2Ru5W
_chemical_formula_sum   'Y2 Nb2 B4 Ru10 W2'
_cell_volume   278.89094647
_cell_formula_units_Z   2
loop_
 _symmetry_equiv_pos_site_id
 _symmetry_equiv_pos_as_xyz
  1  'x, y, z'
loop_
 _atom_site_type_symbol
 _atom_site_label
 _atom_site_symmetry_multiplicity
 _atom_site_fract_x
 _atom_site_fract_y
 _atom_site_fract_z
 _atom_site_occupancy
  Y  Y0  1  0.823395  0.676605  0.000000  1
  Y  Y1  1  0.176605  0.323395  0.000000  1
  Nb  Nb2  1  0.324251  0.824251  0.000000  1
  Nb  Nb3  1  0.675749  0.175749  0.000000  1
  B  B4  1  0.619644  0.880356  0.000000  1
  B  B5  1  0.380356  0.119644  0.000000  1
  B  B6  1  0.121186  0.621186  0.000000  1
  B  B7  1  0.878814  0.378814  0.000000  1
  Ru  Ru8  1  0.560975  0.720685  0.500000  1
  Ru  Ru9  1  0.439025  0.279315  0.500000  1
  Ru  Ru10  1  0.079207  0.787145  0.500000  1
  Ru  Ru11  1  0.920793  0.212855  0.500000  1
  Ru  Ru12  1  0.287145  0.579207  0.500000  1
  Ru  Ru13  1  0.712855  0.420793  0.500000  1
  Ru  Ru14  1  0.220685  0.060975  0.500000  1
  Ru  Ru15  1  0.779315  0.939025  0.500000  1
  Ru  Ru16  1  0.500000  0.000000  0.500000  1
  Ru  Ru17  1  0.000000  0.500000  0.500000  1
  W  W18  1  0.500000  0.500000  0.000000  1
  W  W19  1  0.000000  0.000000  0.000000  1
