# generated using pymatgen
data_Nd6Cd3HgIrPd12
_symmetry_space_group_name_H-M   'P 1'
_cell_length_a   8.54482504
_cell_length_b   8.54482415
_cell_length_c   8.54482400
_cell_angle_alpha   109.49262193
_cell_angle_beta   109.49261836
_cell_angle_gamma   109.49262464
_symmetry_Int_Tables_number   1
_chemical_formula_structural   Nd6Cd3HgIrPd12
_chemical_formula_sum   'Nd6 Cd3 Hg1 Ir1 Pd12'
_cell_volume   479.89137456
_cell_formula_units_Z   1
loop_
 _symmetry_equiv_pos_site_id
 _symmetry_equiv_pos_as_xyz
  1  'x, y, z'
loop_
 _atom_site_type_symbol
 _atom_site_label
 _atom_site_symmetry_multiplicity
 _atom_site_fract_x
 _atom_site_fract_y
 _atom_site_fract_z
 _atom_site_occupancy
  Nd  Nd0  1  0.001425  0.297750  0.297750  1
  Nd  Nd1  1  0.998575  0.702250  0.702250  1
  Nd  Nd2  1  0.297750  0.001425  0.297750  1
  Nd  Nd3  1  0.702250  0.702250  0.998575  1
  Nd  Nd4  1  0.702250  0.998575  0.702250  1
  Nd  Nd5  1  0.297750  0.297750  0.001425  1
  Cd  Cd6  1  0.000000  0.000000  0.500000  1
  Cd  Cd7  1  0.500000  0.000000  0.000000  1
  Cd  Cd8  1  0.000000  0.500000  0.000000  1
  Hg  Hg9  1  0.500000  0.500000  0.500000  1
  Ir  Ir10  1  0.000000  0.000000  0.000000  1
  Pd  Pd11  1  0.342098  0.657902  0.000000  1
  Pd  Pd12  1  0.000000  0.342098  0.657902  1
  Pd  Pd13  1  0.657902  0.000000  0.342098  1
  Pd  Pd14  1  0.313606  0.658494  0.658494  1
  Pd  Pd15  1  0.658494  0.313606  0.658494  1
  Pd  Pd16  1  0.686394  0.341506  0.341506  1
  Pd  Pd17  1  0.341506  0.686394  0.341506  1
  Pd  Pd18  1  0.341506  0.341506  0.686394  1
  Pd  Pd19  1  0.000000  0.657902  0.342098  1
  Pd  Pd20  1  0.658494  0.658494  0.313606  1
  Pd  Pd21  1  0.342098  0.000000  0.657902  1
  Pd  Pd22  1  0.657902  0.342098  0.000000  1
