# generated using pymatgen
data_Sm4Th(TcB3)2
_symmetry_space_group_name_H-M   'P 1'
_cell_length_a   5.58382867
_cell_length_b   5.58383004
_cell_length_c   8.64116361
_cell_angle_alpha   71.14981630
_cell_angle_beta   71.14981290
_cell_angle_gamma   60.00000176
_symmetry_Int_Tables_number   1
_chemical_formula_structural   Sm4Th(TcB3)2
_chemical_formula_sum   'Sm4 Th1 Tc2 B6'
_cell_volume   216.48188626
_cell_formula_units_Z   1
loop_
 _symmetry_equiv_pos_site_id
 _symmetry_equiv_pos_as_xyz
  1  'x, y, z'
loop_
 _atom_site_type_symbol
 _atom_site_label
 _atom_site_symmetry_multiplicity
 _atom_site_fract_x
 _atom_site_fract_y
 _atom_site_fract_z
 _atom_site_occupancy
  Sm  Sm0  1  0.750770  0.750770  0.747691  1
  Sm  Sm1  1  0.249230  0.249230  0.252309  1
  Sm  Sm2  1  0.582494  0.582494  0.252517  1
  Sm  Sm3  1  0.417506  0.417506  0.747483  1
  Th  Th4  1  0.000000  0.000000  0.000000  1
  Tc  Tc5  1  0.888218  0.888218  0.335345  1
  Tc  Tc6  1  0.111782  0.111782  0.664655  1
  B  B7  1  0.500000  0.170055  0.500000  1
  B  B8  1  0.829945  0.500000  0.500000  1
  B  B9  1  0.170055  0.829946  0.500000  1
  B  B10  1  0.170055  0.500000  0.500000  1
  B  B11  1  0.829945  0.170055  0.500000  1
  B  B12  1  0.500000  0.829945  0.500000  1
