# generated using pymatgen
data_Pr16MgCd2InIr4
_symmetry_space_group_name_H-M   'P 1'
_cell_length_a   10.06230173
_cell_length_b   10.06229524
_cell_length_c   10.05328306
_cell_angle_alpha   60.03261283
_cell_angle_beta   60.03244222
_cell_angle_gamma   60.03325246
_symmetry_Int_Tables_number   1
_chemical_formula_structural   Pr16MgCd2InIr4
_chemical_formula_sum   'Pr16 Mg1 Cd2 In1 Ir4'
_cell_volume   720.29397424
_cell_formula_units_Z   1
loop_
 _symmetry_equiv_pos_site_id
 _symmetry_equiv_pos_as_xyz
  1  'x, y, z'
loop_
 _atom_site_type_symbol
 _atom_site_label
 _atom_site_symmetry_multiplicity
 _atom_site_fract_x
 _atom_site_fract_y
 _atom_site_fract_z
 _atom_site_occupancy
  Pr  Pr0  1  0.346964  0.346964  0.347011  1
  Pr  Pr1  1  0.349097  0.349097  0.954167  1
  Pr  Pr2  1  0.348650  0.955749  0.348775  1
  Pr  Pr3  1  0.955749  0.348651  0.348775  1
  Pr  Pr4  1  0.810746  0.188463  0.188827  1
  Pr  Pr5  1  0.191079  0.807613  0.807555  1
  Pr  Pr6  1  0.188462  0.810746  0.188827  1
  Pr  Pr7  1  0.807614  0.191079  0.807555  1
  Pr  Pr8  1  0.189820  0.189821  0.809737  1
  Pr  Pr9  1  0.808789  0.808789  0.190246  1
  Pr  Pr10  1  0.942358  0.560907  0.560861  1
  Pr  Pr11  1  0.560696  0.940268  0.937860  1
  Pr  Pr12  1  0.560906  0.942358  0.560861  1
  Pr  Pr13  1  0.940267  0.560697  0.937860  1
  Pr  Pr14  1  0.561814  0.561814  0.939091  1
  Pr  Pr15  1  0.939946  0.939946  0.560023  1
  Mg  Mg16  1  0.575093  0.575094  0.272662  1
  Cd  Cd17  1  0.579744  0.259393  0.579136  1
  Cd  Cd18  1  0.259393  0.579744  0.579137  1
  In  In19  1  0.580614  0.580613  0.581077  1
  Ir  Ir20  1  0.141956  0.141957  0.141227  1
  Ir  Ir21  1  0.142317  0.142317  0.575285  1
  Ir  Ir22  1  0.142323  0.575597  0.141722  1
  Ir  Ir23  1  0.575597  0.142323  0.141722  1
