# generated using pymatgen
data_PrNdB8Ir7Rh
_symmetry_space_group_name_H-M   'P 1'
_cell_length_a   3.99506773
_cell_length_b   7.69518550
_cell_length_c   7.69656211
_cell_angle_alpha   90.07060526
_cell_angle_beta   89.89649254
_cell_angle_gamma   89.97474395
_symmetry_Int_Tables_number   1
_chemical_formula_structural   PrNdB8Ir7Rh
_chemical_formula_sum   'Pr1 Nd1 B8 Ir7 Rh1'
_cell_volume   236.61318243
_cell_formula_units_Z   1
loop_
 _symmetry_equiv_pos_site_id
 _symmetry_equiv_pos_as_xyz
  1  'x, y, z'
loop_
 _atom_site_type_symbol
 _atom_site_label
 _atom_site_symmetry_multiplicity
 _atom_site_fract_x
 _atom_site_fract_y
 _atom_site_fract_z
 _atom_site_occupancy
  Pr  Pr0  1  0.752085  0.749901  0.750013  1
  Nd  Nd1  1  0.249431  0.250009  0.251308  1
  B  B2  1  0.357375  0.908806  0.029734  1
  B  B3  1  0.358194  0.590076  0.468381  1
  B  B4  1  0.857165  0.529518  0.091850  1
  B  B5  1  0.858392  0.971137  0.409032  1
  B  B6  1  0.641995  0.091619  0.969204  1
  B  B7  1  0.642838  0.406654  0.527669  1
  B  B8  1  0.141700  0.467723  0.910506  1
  B  B9  1  0.141485  0.031975  0.591089  1
  Ir  Ir10  1  0.142527  0.091317  0.859635  1
  Ir  Ir11  1  0.638875  0.141824  0.592095  1
  Ir  Ir12  1  0.640681  0.359977  0.908242  1
  Ir  Ir13  1  0.859736  0.590603  0.360077  1
  Ir  Ir14  1  0.857258  0.910318  0.141228  1
  Ir  Ir15  1  0.358753  0.859457  0.409128  1
  Ir  Ir16  1  0.358328  0.640473  0.091172  1
  Rh  Rh17  1  0.143180  0.408613  0.639639  1
