# generated using pymatgen
data_NpPa2F12
_symmetry_space_group_name_H-M   'P 1'
_cell_length_a   8.46458085
_cell_length_b   8.46458082
_cell_length_c   8.50755602
_cell_angle_alpha   63.18766336
_cell_angle_beta   63.18766903
_cell_angle_gamma   80.24256964
_symmetry_Int_Tables_number   1
_chemical_formula_structural   NpPa2F12
_chemical_formula_sum   'Np2 Pa4 F24'
_cell_volume   485.09358777
_cell_formula_units_Z   2
loop_
 _symmetry_equiv_pos_site_id
 _symmetry_equiv_pos_as_xyz
  1  'x, y, z'
loop_
 _atom_site_type_symbol
 _atom_site_label
 _atom_site_symmetry_multiplicity
 _atom_site_fract_x
 _atom_site_fract_y
 _atom_site_fract_z
 _atom_site_occupancy
  Np  Np0  1  0.788025  0.211975  0.250000  1
  Np  Np1  1  0.211975  0.788025  0.750000  1
  Pa  Pa2  1  0.633867  0.776498  0.169585  1
  Pa  Pa3  1  0.776498  0.633867  0.669585  1
  Pa  Pa4  1  0.366133  0.223502  0.830415  1
  Pa  Pa5  1  0.223502  0.366133  0.330415  1
  F  F6  1  0.743016  0.683128  0.396052  1
  F  F7  1  0.589642  0.192141  0.576841  1
  F  F8  1  0.731028  0.504777  0.220089  1
  F  F9  1  0.316872  0.256984  0.103948  1
  F  F10  1  0.073889  0.172895  0.037384  1
  F  F11  1  0.192141  0.589642  0.076841  1
  F  F12  1  0.410358  0.807859  0.423159  1
  F  F13  1  0.394001  0.605999  0.250000  1
  F  F14  1  0.605999  0.394001  0.750000  1
  F  F15  1  0.504777  0.731028  0.720089  1
  F  F16  1  0.827105  0.926111  0.462616  1
  F  F17  1  0.172895  0.073889  0.537384  1
  F  F18  1  0.268972  0.495223  0.779911  1
  F  F19  1  0.256984  0.316872  0.603948  1
  F  F20  1  0.718302  0.025785  0.150196  1
  F  F21  1  0.000000  0.500000  0.500000  1
  F  F22  1  0.974215  0.281698  0.349804  1
  F  F23  1  0.807859  0.410358  0.923159  1
  F  F24  1  0.495223  0.268972  0.279911  1
  F  F25  1  0.926111  0.827105  0.962616  1
  F  F26  1  0.281698  0.974215  0.849804  1
  F  F27  1  0.683128  0.743016  0.896052  1
  F  F28  1  0.025785  0.718302  0.650196  1
  F  F29  1  0.500000  0.000000  0.000000  1
