# generated using pymatgen
data_Dy2Si2Se
_symmetry_space_group_name_H-M   'P 1'
_cell_length_a   4.03107200
_cell_length_b   4.03107271
_cell_length_c   7.62672600
_cell_angle_alpha   90.00000000
_cell_angle_beta   90.00000000
_cell_angle_gamma   120.00001058
_symmetry_Int_Tables_number   1
_chemical_formula_structural   Dy2Si2Se
_chemical_formula_sum   'Dy2 Si2 Se1'
_cell_volume   107.32722895
_cell_formula_units_Z   1
loop_
 _symmetry_equiv_pos_site_id
 _symmetry_equiv_pos_as_xyz
  1  'x, y, z'
loop_
 _atom_site_type_symbol
 _atom_site_label
 _atom_site_symmetry_multiplicity
 _atom_site_fract_x
 _atom_site_fract_y
 _atom_site_fract_z
 _atom_site_occupancy
  Dy  Dy0  1  0.000000  0.000000  0.249356  1
  Dy  Dy1  1  0.000000  0.000000  0.750644  1
  Si  Si2  1  0.333333  0.666667  0.500000  1
  Si  Si3  1  0.666667  0.333333  0.500000  1
  Se  Se4  1  0.666667  0.333333  0.000000  1
