# generated using pymatgen
data_Dy11Ho(Si3Ir)4
_symmetry_space_group_name_H-M   'P 1'
_cell_length_a   4.24012700
_cell_length_b   10.64947439
_cell_length_c   12.30757344
_cell_angle_alpha   89.95057838
_cell_angle_beta   90.00000000
_cell_angle_gamma   90.00000000
_symmetry_Int_Tables_number   1
_chemical_formula_structural   Dy11Ho(Si3Ir)4
_chemical_formula_sum   'Dy11 Ho1 Si12 Ir4'
_cell_volume   555.74979674
_cell_formula_units_Z   1
loop_
 _symmetry_equiv_pos_site_id
 _symmetry_equiv_pos_as_xyz
  1  'x, y, z'
loop_
 _atom_site_type_symbol
 _atom_site_label
 _atom_site_symmetry_multiplicity
 _atom_site_fract_x
 _atom_site_fract_y
 _atom_site_fract_z
 _atom_site_occupancy
  Dy  Dy0  1  0.250000  0.880647  0.020374  1
  Dy  Dy1  1  0.250000  0.619279  0.520263  1
  Dy  Dy2  1  0.750000  0.119702  0.979101  1
  Dy  Dy3  1  0.750000  0.379718  0.480017  1
  Dy  Dy4  1  0.250000  0.918639  0.603398  1
  Dy  Dy5  1  0.250000  0.581570  0.103685  1
  Dy  Dy6  1  0.750000  0.081076  0.397159  1
  Dy  Dy7  1  0.750000  0.418780  0.896239  1
  Dy  Dy8  1  0.250000  0.659052  0.800922  1
  Dy  Dy9  1  0.250000  0.841727  0.301060  1
  Dy  Dy10  1  0.750000  0.340218  0.199122  1
  Ho  Ho11  1  0.750000  0.158763  0.699520  1
  Si  Si12  1  0.250000  0.010431  0.820516  1
  Si  Si13  1  0.250000  0.489626  0.321006  1
  Si  Si14  1  0.750000  0.990888  0.179087  1
  Si  Si15  1  0.750000  0.510076  0.678838  1
  Si  Si16  1  0.250000  0.246218  0.840227  1
  Si  Si17  1  0.250000  0.253310  0.341313  1
  Si  Si18  1  0.750000  0.754299  0.159435  1
  Si  Si19  1  0.750000  0.745996  0.658950  1
  Si  Si20  1  0.250000  0.200595  0.544855  1
  Si  Si21  1  0.250000  0.298711  0.043246  1
  Si  Si22  1  0.750000  0.798155  0.456430  1
  Si  Si23  1  0.750000  0.701996  0.956218  1
  Ir  Ir24  1  0.250000  0.389229  0.681373  1
  Ir  Ir25  1  0.250000  0.111025  0.181299  1
  Ir  Ir26  1  0.750000  0.610513  0.318563  1
  Ir  Ir27  1  0.750000  0.889763  0.817784  1
