# generated using pymatgen
data_Ta4CrTcB4
_symmetry_space_group_name_H-M   'P 1'
_cell_length_a   5.97881400
_cell_length_b   5.97881400
_cell_length_c   3.28398600
_cell_angle_alpha   90.00000000
_cell_angle_beta   90.00000000
_cell_angle_gamma   90.00000000
_symmetry_Int_Tables_number   1
_chemical_formula_structural   Ta4CrTcB4
_chemical_formula_sum   'Ta4 Cr1 Tc1 B4'
_cell_volume   117.39007568
_cell_formula_units_Z   1
loop_
 _symmetry_equiv_pos_site_id
 _symmetry_equiv_pos_as_xyz
  1  'x, y, z'
loop_
 _atom_site_type_symbol
 _atom_site_label
 _atom_site_symmetry_multiplicity
 _atom_site_fract_x
 _atom_site_fract_y
 _atom_site_fract_z
 _atom_site_occupancy
  Ta  Ta0  1  0.682821  0.174475  0.500000  1
  Ta  Ta1  1  0.317179  0.825525  0.500000  1
  Ta  Ta2  1  0.174475  0.317179  0.500000  1
  Ta  Ta3  1  0.825525  0.682821  0.500000  1
  Cr  Cr4  1  0.000000  0.000000  0.000000  1
  Tc  Tc5  1  0.500000  0.500000  0.000000  1
  B  B6  1  0.110318  0.612803  0.000000  1
  B  B7  1  0.889682  0.387197  0.000000  1
  B  B8  1  0.612803  0.889682  0.000000  1
  B  B9  1  0.387197  0.110318  0.000000  1
