# generated using pymatgen
data_Pr4Tm12Cd4Ir3Pt
_symmetry_space_group_name_H-M   'P 1'
_cell_length_a   9.66506590
_cell_length_b   9.63063572
_cell_length_c   9.63063720
_cell_angle_alpha   60.07015025
_cell_angle_beta   59.95184074
_cell_angle_gamma   59.95188406
_symmetry_Int_Tables_number   1
_chemical_formula_structural   Pr4Tm12Cd4Ir3Pt
_chemical_formula_sum   'Pr4 Tm12 Cd4 Ir3 Pt1'
_cell_volume   633.74245956
_cell_formula_units_Z   1
loop_
 _symmetry_equiv_pos_site_id
 _symmetry_equiv_pos_as_xyz
  1  'x, y, z'
loop_
 _atom_site_type_symbol
 _atom_site_label
 _atom_site_symmetry_multiplicity
 _atom_site_fract_x
 _atom_site_fract_y
 _atom_site_fract_z
 _atom_site_occupancy
  Pr  Pr0  1  0.564572  0.935420  0.565020  1
  Pr  Pr1  1  0.936495  0.565292  0.934871  1
  Pr  Pr2  1  0.564572  0.565021  0.935419  1
  Pr  Pr3  1  0.936495  0.934870  0.565294  1
  Tm  Tm4  1  0.351263  0.344825  0.344824  1
  Tm  Tm5  1  0.348110  0.354831  0.955084  1
  Tm  Tm6  1  0.348111  0.955084  0.354830  1
  Tm  Tm7  1  0.950657  0.349098  0.349098  1
  Tm  Tm8  1  0.808854  0.186142  0.186142  1
  Tm  Tm9  1  0.184175  0.815028  0.815028  1
  Tm  Tm10  1  0.190117  0.807417  0.189197  1
  Tm  Tm11  1  0.812021  0.186124  0.811091  1
  Tm  Tm12  1  0.190116  0.189197  0.807418  1
  Tm  Tm13  1  0.812021  0.811092  0.186124  1
  Tm  Tm14  1  0.950292  0.550030  0.550029  1
  Tm  Tm15  1  0.553425  0.948642  0.948642  1
  Cd  Cd16  1  0.584342  0.577333  0.577333  1
  Cd  Cd17  1  0.577710  0.583761  0.260230  1
  Cd  Cd18  1  0.577711  0.260229  0.583762  1
  Cd  Cd19  1  0.260612  0.578190  0.578190  1
  Ir  Ir20  1  0.137661  0.149332  0.575151  1
  Ir  Ir21  1  0.137662  0.575151  0.149332  1
  Ir  Ir22  1  0.575399  0.138410  0.138409  1
  Pt  Pt23  1  0.147607  0.139481  0.139482  1
