# generated using pymatgen
data_TmThZn5Si
_symmetry_space_group_name_H-M   'P 1'
_cell_length_a   8.24169400
_cell_length_b   8.24169484
_cell_length_c   8.77608400
_cell_angle_alpha   90.00000000
_cell_angle_beta   90.00000000
_cell_angle_gamma   149.52857646
_symmetry_Int_Tables_number   1
_chemical_formula_structural   TmThZn5Si
_chemical_formula_sum   'Tm2 Th2 Zn10 Si2'
_cell_volume   302.29762051
_cell_formula_units_Z   2
loop_
 _symmetry_equiv_pos_site_id
 _symmetry_equiv_pos_as_xyz
  1  'x, y, z'
loop_
 _atom_site_type_symbol
 _atom_site_label
 _atom_site_symmetry_multiplicity
 _atom_site_fract_x
 _atom_site_fract_y
 _atom_site_fract_z
 _atom_site_occupancy
  Tm  Tm0  1  0.197231  0.802769  0.250000  1
  Tm  Tm1  1  0.802769  0.197231  0.750000  1
  Th  Th2  1  0.000000  0.000000  0.500000  1
  Th  Th3  1  0.000000  0.000000  0.000000  1
  Zn  Zn4  1  0.810358  0.189642  0.393956  1
  Zn  Zn5  1  0.189642  0.810358  0.606044  1
  Zn  Zn6  1  0.810358  0.189642  0.106044  1
  Zn  Zn7  1  0.189642  0.810358  0.893956  1
  Zn  Zn8  1  0.651380  0.348620  0.472914  1
  Zn  Zn9  1  0.348620  0.651380  0.527086  1
  Zn  Zn10  1  0.651380  0.348620  0.027086  1
  Zn  Zn11  1  0.348620  0.651380  0.972914  1
  Zn  Zn12  1  0.400394  0.599606  0.250000  1
  Zn  Zn13  1  0.599606  0.400394  0.750000  1
  Si  Si14  1  0.555340  0.444660  0.250000  1
  Si  Si15  1  0.444660  0.555340  0.750000  1
