# generated using pymatgen
data_Cs3OsN3
_symmetry_space_group_name_H-M   'P 1'
_cell_length_a   8.97120245
_cell_length_b   8.96969669
_cell_length_c   6.32192300
_cell_angle_alpha   90.00000000
_cell_angle_beta   90.00000000
_cell_angle_gamma   119.90022471
_symmetry_Int_Tables_number   1
_chemical_formula_structural   Cs3OsN3
_chemical_formula_sum   'Cs6 Os2 N6'
_cell_volume   441.00550588
_cell_formula_units_Z   2
loop_
 _symmetry_equiv_pos_site_id
 _symmetry_equiv_pos_as_xyz
  1  'x, y, z'
loop_
 _atom_site_type_symbol
 _atom_site_label
 _atom_site_symmetry_multiplicity
 _atom_site_fract_x
 _atom_site_fract_y
 _atom_site_fract_z
 _atom_site_occupancy
  Cs  Cs0  1  0.374888  0.102956  0.250000  1
  Cs  Cs1  1  0.896052  0.270264  0.250000  1
  Cs  Cs2  1  0.727363  0.622583  0.250000  1
  Cs  Cs3  1  0.626374  0.897491  0.750000  1
  Cs  Cs4  1  0.103811  0.730730  0.750000  1
  Cs  Cs5  1  0.272264  0.377049  0.750000  1
  Os  Os6  1  0.667686  0.335143  0.750000  1
  Os  Os7  1  0.331922  0.664679  0.250000  1
  N  N8  1  0.457623  0.152062  0.750000  1
  N  N9  1  0.850447  0.307107  0.750000  1
  N  N10  1  0.695218  0.545754  0.750000  1
  N  N11  1  0.542929  0.846307  0.250000  1
  N  N12  1  0.149913  0.694077  0.250000  1
  N  N13  1  0.303509  0.453798  0.250000  1
