# generated using pymatgen
data_NdY2Sc3(SnPt)6
_symmetry_space_group_name_H-M   'P 1'
_cell_length_a   7.53826712
_cell_length_b   7.54379819
_cell_length_c   7.74146700
_cell_angle_alpha   90.00000000
_cell_angle_beta   90.00000000
_cell_angle_gamma   119.95543521
_symmetry_Int_Tables_number   1
_chemical_formula_structural   NdY2Sc3(SnPt)6
_chemical_formula_sum   'Nd1 Y2 Sc3 Sn6 Pt6'
_cell_volume   381.42603569
_cell_formula_units_Z   1
loop_
 _symmetry_equiv_pos_site_id
 _symmetry_equiv_pos_as_xyz
  1  'x, y, z'
loop_
 _atom_site_type_symbol
 _atom_site_label
 _atom_site_symmetry_multiplicity
 _atom_site_fract_x
 _atom_site_fract_y
 _atom_site_fract_z
 _atom_site_occupancy
  Nd  Nd0  1  0.404662  0.998255  0.750000  1
  Y  Y1  1  0.596363  0.597576  0.750000  1
  Y  Y2  1  0.001257  0.403798  0.750000  1
  Sc  Sc3  1  0.392686  0.002919  0.250000  1
  Sc  Sc4  1  0.610205  0.606785  0.250000  1
  Sc  Sc5  1  0.997289  0.389969  0.250000  1
  Sn  Sn6  1  0.267444  0.269875  0.009931  1
  Sn  Sn7  1  0.000728  0.731764  0.010068  1
  Sn  Sn8  1  0.000728  0.731764  0.489932  1
  Sn  Sn9  1  0.731389  0.998273  0.486990  1
  Sn  Sn10  1  0.267444  0.269875  0.490069  1
  Sn  Sn11  1  0.731389  0.998273  0.013010  1
  Pt  Pt12  1  0.994439  0.000048  0.750000  1
  Pt  Pt13  1  0.001640  0.000118  0.250000  1
  Pt  Pt14  1  0.668260  0.335506  0.034182  1
  Pt  Pt15  1  0.332909  0.664848  0.455347  1
  Pt  Pt16  1  0.332909  0.664848  0.044653  1
  Pt  Pt17  1  0.668260  0.335506  0.465818  1
