# generated using pymatgen
data_AcHf(TcO4)6
_symmetry_space_group_name_H-M   'P 1'
_cell_length_a   10.08516000
_cell_length_b   10.08515834
_cell_length_c   6.05379400
_cell_angle_alpha   90.00000000
_cell_angle_beta   90.00000000
_cell_angle_gamma   119.99999232
_symmetry_Int_Tables_number   1
_chemical_formula_structural   AcHf(TcO4)6
_chemical_formula_sum   'Ac1 Hf1 Tc6 O24'
_cell_volume   533.24134812
_cell_formula_units_Z   1
loop_
 _symmetry_equiv_pos_site_id
 _symmetry_equiv_pos_as_xyz
  1  'x, y, z'
loop_
 _atom_site_type_symbol
 _atom_site_label
 _atom_site_symmetry_multiplicity
 _atom_site_fract_x
 _atom_site_fract_y
 _atom_site_fract_z
 _atom_site_occupancy
  Ac  Ac0  1  0.333333  0.666667  0.250000  1
  Hf  Hf1  1  0.666667  0.333333  0.750000  1
  Tc  Tc2  1  0.062248  0.367467  0.750000  1
  Tc  Tc3  1  0.410162  0.298983  0.250000  1
  Tc  Tc4  1  0.632533  0.694779  0.750000  1
  Tc  Tc5  1  0.888821  0.589838  0.250000  1
  Tc  Tc6  1  0.305221  0.937752  0.750000  1
  Tc  Tc7  1  0.701017  0.111179  0.250000  1
  O  O8  1  0.512296  0.648951  0.520744  1
  O  O9  1  0.351049  0.863343  0.520744  1
  O  O10  1  0.805139  0.701426  0.250000  1
  O  O11  1  0.114378  0.879703  0.750000  1
  O  O12  1  0.298574  0.103713  0.250000  1
  O  O13  1  0.120297  0.234677  0.750000  1
  O  O14  1  0.528269  0.359750  0.011248  1
  O  O15  1  0.896287  0.194861  0.250000  1
  O  O16  1  0.086793  0.704294  0.250000  1
  O  O17  1  0.136657  0.487704  0.979256  1
  O  O18  1  0.136657  0.487704  0.520744  1
  O  O19  1  0.861617  0.282182  0.750000  1
  O  O20  1  0.295706  0.382499  0.250000  1
  O  O21  1  0.717818  0.579435  0.750000  1
  O  O22  1  0.831481  0.471731  0.488752  1
  O  O23  1  0.420565  0.138383  0.750000  1
  O  O24  1  0.640250  0.168519  0.011248  1
  O  O25  1  0.512296  0.648951  0.979256  1
  O  O26  1  0.351049  0.863343  0.979256  1
  O  O27  1  0.640250  0.168519  0.488752  1
  O  O28  1  0.528269  0.359750  0.488752  1
  O  O29  1  0.831481  0.471731  0.011248  1
  O  O30  1  0.765323  0.885622  0.750000  1
  O  O31  1  0.617501  0.913207  0.250000  1
