# generated using pymatgen
data_La5Ga2Os3
_symmetry_space_group_name_H-M   'P 1'
_cell_length_a   8.63738425
_cell_length_b   8.63738447
_cell_length_c   8.63738500
_cell_angle_alpha   109.47121954
_cell_angle_beta   109.47122004
_cell_angle_gamma   109.47122073
_symmetry_Int_Tables_number   1
_chemical_formula_structural   La5Ga2Os3
_chemical_formula_sum   'La10 Ga4 Os6'
_cell_volume   496.04935352
_cell_formula_units_Z   2
loop_
 _symmetry_equiv_pos_site_id
 _symmetry_equiv_pos_as_xyz
  1  'x, y, z'
loop_
 _atom_site_type_symbol
 _atom_site_label
 _atom_site_symmetry_multiplicity
 _atom_site_fract_x
 _atom_site_fract_y
 _atom_site_fract_z
 _atom_site_occupancy
  La  La0  1  0.784548  0.784548  0.784548  1
  La  La1  1  0.311350  0.561350  0.750000  1
  La  La2  1  0.750000  0.311350  0.561350  1
  La  La3  1  0.561350  0.750000  0.311350  1
  La  La4  1  0.715452  0.500000  0.000000  1
  La  La5  1  0.000000  0.715452  0.500000  1
  La  La6  1  0.500000  0.000000  0.715452  1
  La  La7  1  0.250000  0.188650  0.938650  1
  La  La8  1  0.938650  0.250000  0.188650  1
  La  La9  1  0.188650  0.938650  0.250000  1
  Ga  Ga10  1  0.412532  0.412532  0.412532  1
  Ga  Ga11  1  0.087468  0.500000  0.000000  1
  Ga  Ga12  1  0.000000  0.087468  0.500000  1
  Ga  Ga13  1  0.500000  0.000000  0.087468  1
  Os  Os14  1  0.881732  0.131732  0.750000  1
  Os  Os15  1  0.750000  0.881732  0.131732  1
  Os  Os16  1  0.131732  0.750000  0.881732  1
  Os  Os17  1  0.250000  0.618268  0.368268  1
  Os  Os18  1  0.368268  0.250000  0.618268  1
  Os  Os19  1  0.618268  0.368268  0.250000  1
