# generated using pymatgen
data_Sm4ErTm3(B6Ru)4
_symmetry_space_group_name_H-M   'P 1'
_cell_length_a   3.67477100
_cell_length_b   9.15479401
_cell_length_c   11.56264002
_cell_angle_alpha   90.00613399
_cell_angle_beta   90.00000000
_cell_angle_gamma   90.00000000
_symmetry_Int_Tables_number   1
_chemical_formula_structural   Sm4ErTm3(B6Ru)4
_chemical_formula_sum   'Sm4 Er1 Tm3 B24 Ru4'
_cell_volume   388.98769173
_cell_formula_units_Z   1
loop_
 _symmetry_equiv_pos_site_id
 _symmetry_equiv_pos_as_xyz
  1  'x, y, z'
loop_
 _atom_site_type_symbol
 _atom_site_label
 _atom_site_symmetry_multiplicity
 _atom_site_fract_x
 _atom_site_fract_y
 _atom_site_fract_z
 _atom_site_occupancy
  Sm  Sm0  1  0.000000  0.322473  0.414404  1
  Sm  Sm1  1  0.000000  0.677554  0.585741  1
  Sm  Sm2  1  0.000000  0.822304  0.085541  1
  Sm  Sm3  1  0.000000  0.177679  0.914326  1
  Er  Er4  1  0.000000  0.944043  0.372103  1
  Tm  Tm5  1  0.000000  0.056040  0.628144  1
  Tm  Tm6  1  0.000000  0.444047  0.127870  1
  Tm  Tm7  1  0.000000  0.555954  0.872050  1
  B  B8  1  0.500000  0.555559  0.431421  1
  B  B9  1  0.500000  0.444281  0.568634  1
  B  B10  1  0.500000  0.055704  0.068508  1
  B  B11  1  0.500000  0.944312  0.931381  1
  B  B12  1  0.500000  0.749618  0.418019  1
  B  B13  1  0.500000  0.250083  0.582026  1
  B  B14  1  0.500000  0.250027  0.081954  1
  B  B15  1  0.500000  0.750030  0.917998  1
  B  B16  1  0.500000  0.790963  0.266201  1
  B  B17  1  0.500000  0.208731  0.733733  1
  B  B18  1  0.500000  0.291447  0.233653  1
  B  B19  1  0.500000  0.708699  0.766297  1
  B  B20  1  0.500000  0.630546  0.184510  1
  B  B21  1  0.500000  0.369362  0.815420  1
  B  B22  1  0.500000  0.130941  0.315274  1
  B  B23  1  0.500000  0.869327  0.684632  1
  B  B24  1  0.500000  0.984759  0.213677  1
  B  B25  1  0.500000  0.015429  0.786084  1
  B  B26  1  0.500000  0.484467  0.286029  1
  B  B27  1  0.500000  0.515445  0.713947  1
  B  B28  1  0.500000  0.603050  0.028109  1
  B  B29  1  0.500000  0.396930  0.971847  1
  B  B30  1  0.500000  0.103520  0.472072  1
  B  B31  1  0.500000  0.896751  0.528488  1
  Ru  Ru32  1  0.000000  0.638891  0.319583  1
  Ru  Ru33  1  0.000000  0.360811  0.680450  1
  Ru  Ru34  1  0.000000  0.139485  0.180202  1
  Ru  Ru35  1  0.000000  0.860740  0.819673  1
