# generated using pymatgen
data_Dy2CoRu2W
_symmetry_space_group_name_H-M   'P 1'
_cell_length_a   5.52846278
_cell_length_b   5.17659615
_cell_length_c   5.52846321
_cell_angle_alpha   123.76060730
_cell_angle_beta   119.08084814
_cell_angle_gamma   89.60852719
_symmetry_Int_Tables_number   1
_chemical_formula_structural   Dy2CoRu2W
_chemical_formula_sum   'Dy2 Co1 Ru2 W1'
_cell_volume   107.14185785
_cell_formula_units_Z   1
loop_
 _symmetry_equiv_pos_site_id
 _symmetry_equiv_pos_as_xyz
  1  'x, y, z'
loop_
 _atom_site_type_symbol
 _atom_site_label
 _atom_site_symmetry_multiplicity
 _atom_site_fract_x
 _atom_site_fract_y
 _atom_site_fract_z
 _atom_site_occupancy
  Dy  Dy0  1  0.371185  0.115241  0.244054  1
  Dy  Dy1  1  0.628815  0.884759  0.755946  1
  Co  Co2  1  0.000000  0.500000  0.000000  1
  Ru  Ru3  1  0.000000  0.500000  0.500000  1
  Ru  Ru4  1  0.500000  0.500000  0.000000  1
  W  W5  1  0.000000  0.000000  0.500000  1
