# generated using pymatgen
data_Y3Ho17Co3Bi8Os
_symmetry_space_group_name_H-M   'P 1'
_cell_length_a   7.95271707
_cell_length_b   8.90843700
_cell_length_c   12.39567132
_cell_angle_alpha   90.00000000
_cell_angle_beta   89.69632547
_cell_angle_gamma   90.00000000
_symmetry_Int_Tables_number   1
_chemical_formula_structural   Y3Ho17Co3Bi8Os
_chemical_formula_sum   'Y3 Ho17 Co3 Bi8 Os1'
_cell_volume   878.17485390
_cell_formula_units_Z   1
loop_
 _symmetry_equiv_pos_site_id
 _symmetry_equiv_pos_as_xyz
  1  'x, y, z'
loop_
 _atom_site_type_symbol
 _atom_site_label
 _atom_site_symmetry_multiplicity
 _atom_site_fract_x
 _atom_site_fract_y
 _atom_site_fract_z
 _atom_site_occupancy
  Y  Y0  1  0.653607  0.250000  0.299082  1
  Y  Y1  1  0.846492  0.250000  0.797849  1
  Y  Y2  1  0.117328  0.250000  0.191220  1
  Ho  Ho3  1  0.345743  0.750000  0.701030  1
  Ho  Ho4  1  0.154801  0.750000  0.206255  1
  Ho  Ho5  1  0.880813  0.750000  0.805296  1
  Ho  Ho6  1  0.383729  0.250000  0.688504  1
  Ho  Ho7  1  0.615211  0.750000  0.313273  1
  Ho  Ho8  1  0.674580  0.536905  0.563329  1
  Ho  Ho9  1  0.324404  0.462123  0.437546  1
  Ho  Ho10  1  0.176190  0.457201  0.935229  1
  Ho  Ho11  1  0.324404  0.037877  0.437546  1
  Ho  Ho12  1  0.824740  0.537986  0.063307  1
  Ho  Ho13  1  0.674580  0.963095  0.563329  1
  Ho  Ho14  1  0.824740  0.962014  0.063307  1
  Ho  Ho15  1  0.176190  0.042799  0.935229  1
  Ho  Ho16  1  0.052338  0.750000  0.498275  1
  Ho  Ho17  1  0.947731  0.250000  0.502192  1
  Ho  Ho18  1  0.555460  0.250000  0.003093  1
  Ho  Ho19  1  0.443338  0.750000  0.996323  1
  Co  Co20  1  0.929672  0.250000  0.009385  1
  Co  Co21  1  0.564584  0.250000  0.508759  1
  Co  Co22  1  0.433695  0.750000  0.492728  1
  Bi  Bi23  1  0.571289  0.508661  0.826438  1
  Bi  Bi24  1  0.429981  0.491969  0.173189  1
  Bi  Bi25  1  0.072387  0.490786  0.671728  1
  Bi  Bi26  1  0.429981  0.008031  0.173189  1
  Bi  Bi27  1  0.927675  0.509394  0.327845  1
  Bi  Bi28  1  0.571289  0.991339  0.826438  1
  Bi  Bi29  1  0.927675  0.990606  0.327845  1
  Bi  Bi30  1  0.072387  0.009214  0.671728  1
  Os  Os31  1  0.072968  0.750000  0.989516  1
