# generated using pymatgen
data_Dy2Er2Tm8InCo4Ir
_symmetry_space_group_name_H-M   'P 1'
_cell_length_a   8.22153436
_cell_length_b   8.22311371
_cell_length_c   8.22105467
_cell_angle_alpha   111.18299754
_cell_angle_beta   110.81032191
_cell_angle_gamma   106.48496694
_symmetry_Int_Tables_number   1
_chemical_formula_structural   Dy2Er2Tm8InCo4Ir
_chemical_formula_sum   'Dy2 Er2 Tm8 In1 Co4 Ir1'
_cell_volume   426.85375301
_cell_formula_units_Z   1
loop_
 _symmetry_equiv_pos_site_id
 _symmetry_equiv_pos_as_xyz
  1  'x, y, z'
loop_
 _atom_site_type_symbol
 _atom_site_label
 _atom_site_symmetry_multiplicity
 _atom_site_fract_x
 _atom_site_fract_y
 _atom_site_fract_z
 _atom_site_occupancy
  Dy  Dy0  1  0.184014  0.285684  0.469379  1
  Dy  Dy1  1  0.815986  0.714316  0.530621  1
  Er  Er2  1  0.023338  0.218564  0.806216  1
  Er  Er3  1  0.976662  0.781436  0.193784  1
  Tm  Tm4  1  0.184135  0.715519  0.899442  1
  Tm  Tm5  1  0.815865  0.284481  0.100558  1
  Tm  Tm6  1  0.314918  0.621469  0.305694  1
  Tm  Tm7  1  0.685082  0.378531  0.694306  1
  Tm  Tm8  1  0.316096  0.009222  0.694615  1
  Tm  Tm9  1  0.683904  0.990778  0.305385  1
  Tm  Tm10  1  0.412324  0.216996  0.193879  1
  Tm  Tm11  1  0.587676  0.783004  0.806121  1
  In  In12  1  0.500000  0.500000  0.000000  1
  Co  Co13  1  0.112444  0.612374  0.500073  1
  Co  Co14  1  0.887556  0.387626  0.499927  1
  Co  Co15  1  0.377530  0.999449  0.376747  1
  Co  Co16  1  0.622470  0.000551  0.623253  1
  Ir  Ir17  1  0.000000  0.000000  0.000000  1
