# generated using pymatgen
data_Ho4FeNi13
_symmetry_space_group_name_H-M   'P 1'
_cell_length_a   4.91590590
_cell_length_b   4.97272642
_cell_length_c   12.40383945
_cell_angle_alpha   78.43666961
_cell_angle_beta   78.60869802
_cell_angle_gamma   59.61691572
_symmetry_Int_Tables_number   1
_chemical_formula_structural   Ho4FeNi13
_chemical_formula_sum   'Ho4 Fe1 Ni13'
_cell_volume   254.60263243
_cell_formula_units_Z   1
loop_
 _symmetry_equiv_pos_site_id
 _symmetry_equiv_pos_as_xyz
  1  'x, y, z'
loop_
 _atom_site_type_symbol
 _atom_site_label
 _atom_site_symmetry_multiplicity
 _atom_site_fract_x
 _atom_site_fract_y
 _atom_site_fract_z
 _atom_site_occupancy
  Ho  Ho0  1  0.948232  0.948176  0.155414  1
  Ho  Ho1  1  0.051768  0.051824  0.844586  1
  Ho  Ho2  1  0.852998  0.852302  0.442398  1
  Ho  Ho3  1  0.147002  0.147698  0.557602  1
  Fe  Fe4  1  0.000000  0.500000  0.000000  1
  Ni  Ni5  1  0.500000  0.500000  0.500000  1
  Ni  Ni6  1  0.726168  0.719684  0.834465  1
  Ni  Ni7  1  0.273832  0.280316  0.165535  1
  Ni  Ni8  1  0.617358  0.608809  0.165025  1
  Ni  Ni9  1  0.382642  0.391191  0.834975  1
  Ni  Ni10  1  0.500000  0.000000  0.000000  1
  Ni  Ni11  1  0.500000  0.500000  0.000000  1
  Ni  Ni12  1  0.389631  0.390144  0.329482  1
  Ni  Ni13  1  0.891267  0.388880  0.330974  1
  Ni  Ni14  1  0.389631  0.890744  0.329482  1
  Ni  Ni15  1  0.610369  0.609856  0.670518  1
  Ni  Ni16  1  0.108733  0.611120  0.669026  1
  Ni  Ni17  1  0.610369  0.109256  0.670518  1
