# generated using pymatgen
data_Ac14Mn13O42
_symmetry_space_group_name_H-M   'P 1'
_cell_length_a   9.92288105
_cell_length_b   9.92288131
_cell_length_c   9.92288100
_cell_angle_alpha   100.23966893
_cell_angle_beta   100.23966920
_cell_angle_gamma   100.23967682
_symmetry_Int_Tables_number   1
_chemical_formula_structural   Ac14Mn13O42
_chemical_formula_sum   'Ac14 Mn13 O42'
_cell_volume   923.78947362
_cell_formula_units_Z   1
loop_
 _symmetry_equiv_pos_site_id
 _symmetry_equiv_pos_as_xyz
  1  'x, y, z'
loop_
 _atom_site_type_symbol
 _atom_site_label
 _atom_site_symmetry_multiplicity
 _atom_site_fract_x
 _atom_site_fract_y
 _atom_site_fract_z
 _atom_site_occupancy
  Ac  Ac0  1  0.321038  0.036735  0.894007  1
  Ac  Ac1  1  0.678962  0.963265  0.105993  1
  Ac  Ac2  1  0.036735  0.894007  0.321038  1
  Ac  Ac3  1  0.105993  0.678962  0.963265  1
  Ac  Ac4  1  0.467232  0.605407  0.190132  1
  Ac  Ac5  1  0.733603  0.733603  0.733603  1
  Ac  Ac6  1  0.394593  0.809868  0.532768  1
  Ac  Ac7  1  0.894007  0.321038  0.036735  1
  Ac  Ac8  1  0.532768  0.394593  0.809868  1
  Ac  Ac9  1  0.809868  0.532768  0.394593  1
  Ac  Ac10  1  0.190132  0.467232  0.605407  1
  Ac  Ac11  1  0.266397  0.266397  0.266397  1
  Ac  Ac12  1  0.605407  0.190132  0.467232  1
  Ac  Ac13  1  0.963265  0.105993  0.678962  1
  Mn  Mn14  1  0.643126  0.071086  0.786305  1
  Mn  Mn15  1  0.000000  0.000000  0.000000  1
  Mn  Mn16  1  0.714712  0.861509  0.427899  1
  Mn  Mn17  1  0.786305  0.643126  0.071086  1
  Mn  Mn18  1  0.427899  0.714712  0.861509  1
  Mn  Mn19  1  0.356874  0.928914  0.213695  1
  Mn  Mn20  1  0.071086  0.786305  0.643126  1
  Mn  Mn21  1  0.138491  0.572101  0.285288  1
  Mn  Mn22  1  0.213695  0.356874  0.928914  1
  Mn  Mn23  1  0.861509  0.427899  0.714712  1
  Mn  Mn24  1  0.928914  0.213695  0.356874  1
  Mn  Mn25  1  0.572101  0.285288  0.138491  1
  Mn  Mn26  1  0.285288  0.138491  0.572101  1
  O  O27  1  0.809025  0.031623  0.914260  1
  O  O28  1  0.031623  0.914260  0.809025  1
  O  O29  1  0.190975  0.968377  0.085740  1
  O  O30  1  0.794716  0.050214  0.402496  1
  O  O31  1  0.515746  0.906895  0.835347  1
  O  O32  1  0.914260  0.809025  0.031623  1
  O  O33  1  0.745292  0.775574  0.237439  1
  O  O34  1  0.315412  0.058506  0.380399  1
  O  O35  1  0.835347  0.515746  0.906895  1
  O  O36  1  0.402496  0.794716  0.050214  1
  O  O37  1  0.684588  0.941494  0.619601  1
  O  O38  1  0.658816  0.478152  0.114672  1
  O  O39  1  0.224426  0.762561  0.254708  1
  O  O40  1  0.619601  0.684588  0.941494  1
  O  O41  1  0.906895  0.835347  0.515746  1
  O  O42  1  0.050214  0.402496  0.794716  1
  O  O43  1  0.949786  0.597504  0.205284  1
  O  O44  1  0.521848  0.885328  0.341184  1
  O  O45  1  0.341184  0.521848  0.885328  1
  O  O46  1  0.205284  0.949786  0.597504  1
  O  O47  1  0.164653  0.484254  0.093105  1
  O  O48  1  0.114672  0.658816  0.478152  1
  O  O49  1  0.941494  0.619601  0.684588  1
  O  O50  1  0.318247  0.548353  0.366537  1
  O  O51  1  0.085740  0.190975  0.968377  1
  O  O52  1  0.762561  0.254708  0.224426  1
  O  O53  1  0.237439  0.745292  0.775574  1
  O  O54  1  0.380399  0.315412  0.058506  1
  O  O55  1  0.681753  0.451647  0.633463  1
  O  O56  1  0.058506  0.380399  0.315412  1
  O  O57  1  0.633463  0.681753  0.451647  1
  O  O58  1  0.597504  0.205284  0.949786  1
  O  O59  1  0.885328  0.341184  0.521848  1
  O  O60  1  0.451647  0.633463  0.681753  1
  O  O61  1  0.968377  0.085740  0.190975  1
  O  O62  1  0.548353  0.366537  0.318247  1
  O  O63  1  0.366537  0.318247  0.548353  1
  O  O64  1  0.775574  0.237439  0.745292  1
  O  O65  1  0.093105  0.164653  0.484254  1
  O  O66  1  0.484254  0.093105  0.164653  1
  O  O67  1  0.254708  0.224426  0.762561  1
  O  O68  1  0.478152  0.114672  0.658816  1
