# generated using pymatgen
data_CaYFeIr3
_symmetry_space_group_name_H-M   'P 1'
_cell_length_a   5.16801081
_cell_length_b   5.47152649
_cell_length_c   5.47152700
_cell_angle_alpha   60.00000298
_cell_angle_beta   58.03745318
_cell_angle_gamma   58.03745272
_symmetry_Int_Tables_number   1
_chemical_formula_structural   CaYFeIr3
_chemical_formula_sum   'Ca1 Y1 Fe1 Ir3'
_cell_volume   106.04359910
_cell_formula_units_Z   1
loop_
 _symmetry_equiv_pos_site_id
 _symmetry_equiv_pos_as_xyz
  1  'x, y, z'
loop_
 _atom_site_type_symbol
 _atom_site_label
 _atom_site_symmetry_multiplicity
 _atom_site_fract_x
 _atom_site_fract_y
 _atom_site_fract_z
 _atom_site_occupancy
  Ca  Ca0  1  0.502471  0.499177  0.499177  1
  Y  Y1  1  0.748080  0.750640  0.750640  1
  Fe  Fe2  1  0.625319  0.124894  0.124894  1
  Ir  Ir3  1  0.124710  0.125493  0.125493  1
  Ir  Ir4  1  0.124710  0.125493  0.624305  1
  Ir  Ir5  1  0.124710  0.624305  0.125493  1
