# generated using pymatgen
data_Pr2Zr3Si7Pt9
_symmetry_space_group_name_H-M   'P 1'
_cell_length_a   10.06479700
_cell_length_b   10.06479735
_cell_length_c   4.05350300
_cell_angle_alpha   90.00000000
_cell_angle_beta   90.00000000
_cell_angle_gamma   120.00000214
_symmetry_Int_Tables_number   1
_chemical_formula_structural   Pr2Zr3Si7Pt9
_chemical_formula_sum   'Pr2 Zr3 Si7 Pt9'
_cell_volume   355.60771616
_cell_formula_units_Z   1
loop_
 _symmetry_equiv_pos_site_id
 _symmetry_equiv_pos_as_xyz
  1  'x, y, z'
loop_
 _atom_site_type_symbol
 _atom_site_label
 _atom_site_symmetry_multiplicity
 _atom_site_fract_x
 _atom_site_fract_y
 _atom_site_fract_z
 _atom_site_occupancy
  Pr  Pr0  1  0.000000  0.000000  0.000000  1
  Pr  Pr1  1  0.333333  0.666667  0.500000  1
  Zr  Zr2  1  0.891146  0.454977  0.500000  1
  Zr  Zr3  1  0.563830  0.108854  0.500000  1
  Zr  Zr4  1  0.545023  0.436170  0.500000  1
  Si  Si5  1  0.250992  0.202700  0.500000  1
  Si  Si6  1  0.797300  0.048294  0.500000  1
  Si  Si7  1  0.951706  0.749008  0.500000  1
  Si  Si8  1  0.559451  0.645933  0.000000  1
  Si  Si9  1  0.354067  0.913518  0.000000  1
  Si  Si10  1  0.086482  0.440549  0.000000  1
  Si  Si11  1  0.666667  0.333333  0.000000  1
  Pt  Pt12  1  0.221511  0.938978  0.500000  1
  Pt  Pt13  1  0.061022  0.282533  0.500000  1
  Pt  Pt14  1  0.717467  0.778489  0.500000  1
  Pt  Pt15  1  0.310443  0.408769  0.000000  1
  Pt  Pt16  1  0.591231  0.901674  0.000000  1
  Pt  Pt17  1  0.098326  0.689557  0.000000  1
  Pt  Pt18  1  0.385802  0.173279  0.000000  1
  Pt  Pt19  1  0.826721  0.212524  0.000000  1
  Pt  Pt20  1  0.787476  0.614198  0.000000  1
