# generated using pymatgen
data_CeNdHgPt2
_symmetry_space_group_name_H-M   'P 1'
_cell_length_a   7.86337700
_cell_length_b   7.88091700
_cell_length_c   3.77436500
_cell_angle_alpha   90.00000000
_cell_angle_beta   90.00000000
_cell_angle_gamma   90.00000000
_symmetry_Int_Tables_number   1
_chemical_formula_structural   CeNdHgPt2
_chemical_formula_sum   'Ce2 Nd2 Hg2 Pt4'
_cell_volume   233.89974473
_cell_formula_units_Z   2
loop_
 _symmetry_equiv_pos_site_id
 _symmetry_equiv_pos_as_xyz
  1  'x, y, z'
loop_
 _atom_site_type_symbol
 _atom_site_label
 _atom_site_symmetry_multiplicity
 _atom_site_fract_x
 _atom_site_fract_y
 _atom_site_fract_z
 _atom_site_occupancy
  Ce  Ce0  1  0.829114  0.671616  0.500000  1
  Ce  Ce1  1  0.670886  0.171616  0.500000  1
  Nd  Nd2  1  0.170738  0.327133  0.500000  1
  Nd  Nd3  1  0.329262  0.827133  0.500000  1
  Hg  Hg4  1  0.498135  0.502688  0.000000  1
  Hg  Hg5  1  0.001865  0.002688  0.000000  1
  Pt  Pt6  1  0.641249  0.869974  0.000000  1
  Pt  Pt7  1  0.115323  0.628589  0.000000  1
  Pt  Pt8  1  0.858751  0.369974  0.000000  1
  Pt  Pt9  1  0.384677  0.128589  0.000000  1
