# generated using pymatgen
data_LiY2ErIn3HgRh
_symmetry_space_group_name_H-M   'P 1'
_cell_length_a   7.86355600
_cell_length_b   7.86186588
_cell_length_c   3.78471500
_cell_angle_alpha   90.00000000
_cell_angle_beta   90.00000000
_cell_angle_gamma   120.11171682
_symmetry_Int_Tables_number   1
_chemical_formula_structural   LiY2ErIn3HgRh
_chemical_formula_sum   'Li1 Y2 Er1 In3 Hg1 Rh1'
_cell_volume   202.40369042
_cell_formula_units_Z   1
loop_
 _symmetry_equiv_pos_site_id
 _symmetry_equiv_pos_as_xyz
  1  'x, y, z'
loop_
 _atom_site_type_symbol
 _atom_site_label
 _atom_site_symmetry_multiplicity
 _atom_site_fract_x
 _atom_site_fract_y
 _atom_site_fract_z
 _atom_site_occupancy
  Li  Li0  1  0.999266  0.000121  0.500000  1
  Y  Y1  1  0.029863  0.606450  0.500000  1
  Y  Y2  1  0.394329  0.423973  0.500000  1
  Er  Er3  1  0.574208  0.967112  0.500000  1
  In  In4  1  0.255546  0.998141  0.000000  1
  In  In5  1  0.742553  0.745217  0.000000  1
  In  In6  1  0.001716  0.257260  0.000000  1
  Hg  Hg7  1  0.666343  0.331310  0.000000  1
  Rh  Rh8  1  0.336177  0.670416  0.000000  1
