# generated using pymatgen
data_Zr3Ta2Re17Tc7
_symmetry_space_group_name_H-M   'P 1'
_cell_length_a   8.48286777
_cell_length_b   8.48286860
_cell_length_c   8.47453400
_cell_angle_alpha   109.47744006
_cell_angle_beta   109.47744921
_cell_angle_gamma   109.57083436
_symmetry_Int_Tables_number   1
_chemical_formula_structural   Zr3Ta2Re17Tc7
_chemical_formula_sum   'Zr3 Ta2 Re17 Tc7'
_cell_volume   468.78855701
_cell_formula_units_Z   1
loop_
 _symmetry_equiv_pos_site_id
 _symmetry_equiv_pos_as_xyz
  1  'x, y, z'
loop_
 _atom_site_type_symbol
 _atom_site_label
 _atom_site_symmetry_multiplicity
 _atom_site_fract_x
 _atom_site_fract_y
 _atom_site_fract_z
 _atom_site_occupancy
  Zr  Zr0  1  0.000277  0.000277  0.999544  1
  Zr  Zr1  1  0.625433  0.999230  0.999576  1
  Zr  Zr2  1  0.999230  0.625433  0.999576  1
  Ta  Ta3  1  0.000542  0.000542  0.628001  1
  Ta  Ta4  1  0.371692  0.371692  0.372445  1
  Re  Re5  1  0.001251  0.681297  0.398839  1
  Re  Re6  1  0.681297  0.001251  0.398839  1
  Re  Re7  1  0.600516  0.600516  0.280764  1
  Re  Re8  1  0.281759  0.602695  0.601817  1
  Re  Re9  1  0.602695  0.281759  0.601817  1
  Re  Re10  1  0.376565  0.197085  0.000630  1
  Re  Re11  1  0.178792  0.806324  0.803401  1
  Re  Re12  1  0.375475  0.002777  0.196280  1
  Re  Re13  1  0.197085  0.376565  0.000630  1
  Re  Re14  1  0.002777  0.375475  0.196280  1
  Re  Re15  1  0.806324  0.178792  0.803401  1
  Re  Re16  1  0.806035  0.806035  0.182126  1
  Re  Re17  1  0.002740  0.195898  0.379454  1
  Re  Re18  1  0.195898  0.002740  0.379454  1
  Re  Re19  1  0.621868  0.621868  0.815137  1
  Re  Re20  1  0.816025  0.622764  0.620355  1
  Re  Re21  1  0.622764  0.816025  0.620355  1
  Tc  Tc22  1  0.395245  0.678262  0.000511  1
  Tc  Tc23  1  0.719291  0.322577  0.321944  1
  Tc  Tc24  1  0.396923  0.001981  0.678767  1
  Tc  Tc25  1  0.678262  0.395245  0.000511  1
  Tc  Tc26  1  0.001981  0.396923  0.678767  1
  Tc  Tc27  1  0.322577  0.719291  0.321944  1
  Tc  Tc28  1  0.318682  0.318682  0.718840  1
