# generated using pymatgen
data_Ti4PdRhO
_symmetry_space_group_name_H-M   'P 1'
_cell_length_a   8.26558647
_cell_length_b   8.26558648
_cell_length_c   8.26558600
_cell_angle_alpha   60.00000193
_cell_angle_beta   60.00000190
_cell_angle_gamma   59.99999668
_symmetry_Int_Tables_number   1
_chemical_formula_structural   Ti4PdRhO
_chemical_formula_sum   'Ti16 Pd4 Rh4 O4'
_cell_volume   399.30615155
_cell_formula_units_Z   4
loop_
 _symmetry_equiv_pos_site_id
 _symmetry_equiv_pos_as_xyz
  1  'x, y, z'
loop_
 _atom_site_type_symbol
 _atom_site_label
 _atom_site_symmetry_multiplicity
 _atom_site_fract_x
 _atom_site_fract_y
 _atom_site_fract_z
 _atom_site_occupancy
  Ti  Ti0  1  0.113728  0.628757  0.628757  1
  Ti  Ti1  1  0.628757  0.113728  0.628757  1
  Ti  Ti2  1  0.628757  0.628757  0.113728  1
  Ti  Ti3  1  0.628757  0.628757  0.628757  1
  Ti  Ti4  1  0.819524  0.819524  0.180476  1
  Ti  Ti5  1  0.180476  0.180476  0.819524  1
  Ti  Ti6  1  0.819524  0.180476  0.819524  1
  Ti  Ti7  1  0.180476  0.819524  0.180476  1
  Ti  Ti8  1  0.180476  0.819524  0.819524  1
  Ti  Ti9  1  0.819524  0.180476  0.180476  1
  Ti  Ti10  1  0.431589  0.431589  0.068411  1
  Ti  Ti11  1  0.068411  0.068411  0.431589  1
  Ti  Ti12  1  0.431589  0.068411  0.431589  1
  Ti  Ti13  1  0.068411  0.431589  0.068411  1
  Ti  Ti14  1  0.068411  0.431589  0.431589  1
  Ti  Ti15  1  0.431589  0.068411  0.068411  1
  Pd  Pd16  1  0.767691  0.410769  0.410769  1
  Pd  Pd17  1  0.410769  0.767691  0.410769  1
  Pd  Pd18  1  0.410769  0.410769  0.767691  1
  Pd  Pd19  1  0.410769  0.410769  0.410769  1
  Rh  Rh20  1  0.470017  0.843328  0.843328  1
  Rh  Rh21  1  0.843328  0.470017  0.843328  1
  Rh  Rh22  1  0.843328  0.843328  0.470017  1
  Rh  Rh23  1  0.843328  0.843328  0.843328  1
  O  O24  1  0.623570  0.125477  0.125477  1
  O  O25  1  0.125477  0.623570  0.125477  1
  O  O26  1  0.125477  0.125477  0.623570  1
  O  O27  1  0.125477  0.125477  0.125477  1
