# generated using pymatgen
data_Zr3SiAs5
_symmetry_space_group_name_H-M   'P 1'
_cell_length_a   3.68761300
_cell_length_b   6.75366692
_cell_length_c   27.53261611
_cell_angle_alpha   89.79332539
_cell_angle_beta   90.00000000
_cell_angle_gamma   90.00000000
_symmetry_Int_Tables_number   1
_chemical_formula_structural   Zr3SiAs5
_chemical_formula_sum   'Zr12 Si4 As20'
_cell_volume   685.69286376
_cell_formula_units_Z   4
loop_
 _symmetry_equiv_pos_site_id
 _symmetry_equiv_pos_as_xyz
  1  'x, y, z'
loop_
 _atom_site_type_symbol
 _atom_site_label
 _atom_site_symmetry_multiplicity
 _atom_site_fract_x
 _atom_site_fract_y
 _atom_site_fract_z
 _atom_site_occupancy
  Zr  Zr0  1  0.500000  0.729917  0.719791  1
  Zr  Zr1  1  0.500000  0.725797  0.387414  1
  Zr  Zr2  1  0.500000  0.725928  0.054071  1
  Zr  Zr3  1  0.500000  0.228902  0.780463  1
  Zr  Zr4  1  0.500000  0.231465  0.446701  1
  Zr  Zr5  1  0.500000  0.230919  0.113804  1
  Zr  Zr6  1  0.000000  0.270703  0.944898  1
  Zr  Zr7  1  0.000000  0.269836  0.610788  1
  Zr  Zr8  1  0.000000  0.270589  0.278091  1
  Zr  Zr9  1  0.000000  0.770686  0.888009  1
  Zr  Zr10  1  0.000000  0.770418  0.555398  1
  Zr  Zr11  1  0.000000  0.771842  0.220907  1
  Si  Si12  1  0.500000  0.628212  0.818306  1
  Si  Si13  1  0.500000  0.628606  0.485709  1
  Si  Si14  1  0.500000  0.627997  0.152196  1
  Si  Si15  1  0.500000  0.128959  0.681585  1
  As  As16  1  0.500000  0.582566  0.950838  1
  As  As17  1  0.500000  0.585245  0.618388  1
  As  As18  1  0.500000  0.582782  0.283758  1
  As  As19  1  0.500000  0.083791  0.882454  1
  As  As20  1  0.500000  0.084380  0.548646  1
  As  As21  1  0.500000  0.084187  0.215650  1
  As  As22  1  0.000000  0.393330  0.713877  1
  As  As23  1  0.000000  0.412074  0.382704  1
  As  As24  1  0.000000  0.411861  0.049817  1
  As  As25  1  0.000000  0.894982  0.785633  1
  As  As26  1  0.000000  0.898266  0.452513  1
  As  As27  1  0.000000  0.898557  0.119054  1
  As  As28  1  0.500000  0.122325  0.347793  1
  As  As29  1  0.500000  0.122695  0.014557  1
  As  As30  1  0.000000  0.394559  0.845593  1
  As  As31  1  0.000000  0.394043  0.512085  1
  As  As32  1  0.000000  0.394916  0.179057  1
  As  As33  1  0.000000  0.877151  0.985903  1
  As  As34  1  0.000000  0.894560  0.654408  1
  As  As35  1  0.000000  0.876953  0.319143  1
