# generated using pymatgen
data_Tb10Nd6Cd4Ru3Pt
_symmetry_space_group_name_H-M   'P 1'
_cell_length_a   9.73829500
_cell_length_b   9.82153135
_cell_length_c   9.82153100
_cell_angle_alpha   59.99999783
_cell_angle_beta   59.71684952
_cell_angle_gamma   59.71684953
_symmetry_Int_Tables_number   1
_chemical_formula_structural   Tb10Nd6Cd4Ru3Pt
_chemical_formula_sum   'Tb10 Nd6 Cd4 Ru3 Pt1'
_cell_volume   661.38493753
_cell_formula_units_Z   1
loop_
 _symmetry_equiv_pos_site_id
 _symmetry_equiv_pos_as_xyz
  1  'x, y, z'
loop_
 _atom_site_type_symbol
 _atom_site_label
 _atom_site_symmetry_multiplicity
 _atom_site_fract_x
 _atom_site_fract_y
 _atom_site_fract_z
 _atom_site_occupancy
  Tb  Tb0  1  0.342694  0.348807  0.348807  1
  Tb  Tb1  1  0.342694  0.348807  0.959692  1
  Tb  Tb2  1  0.342694  0.959692  0.348807  1
  Tb  Tb3  1  0.967757  0.344081  0.344081  1
  Tb  Tb4  1  0.816115  0.188059  0.188059  1
  Tb  Tb5  1  0.187523  0.812817  0.812817  1
  Tb  Tb6  1  0.187523  0.812817  0.186843  1
  Tb  Tb7  1  0.816115  0.188059  0.807766  1
  Tb  Tb8  1  0.187523  0.186843  0.812817  1
  Tb  Tb9  1  0.816115  0.807766  0.188059  1
  Nd  Nd10  1  0.937521  0.561338  0.561338  1
  Nd  Nd11  1  0.557549  0.939783  0.939783  1
  Nd  Nd12  1  0.557549  0.939783  0.562885  1
  Nd  Nd13  1  0.937521  0.561338  0.939803  1
  Nd  Nd14  1  0.557549  0.562885  0.939783  1
  Nd  Nd15  1  0.937521  0.939803  0.561338  1
  Cd  Cd16  1  0.579685  0.578620  0.578620  1
  Cd  Cd17  1  0.579685  0.578620  0.263076  1
  Cd  Cd18  1  0.579685  0.263076  0.578620  1
  Cd  Cd19  1  0.261979  0.579341  0.579341  1
  Ru  Ru20  1  0.143463  0.138097  0.138097  1
  Ru  Ru21  1  0.143463  0.138097  0.580344  1
  Ru  Ru22  1  0.143463  0.580344  0.138097  1
  Pt  Pt23  1  0.576616  0.141128  0.141128  1
