# generated using pymatgen
data_La4YbPr5Ru4
_symmetry_space_group_name_H-M   'P 1'
_cell_length_a   9.03573993
_cell_length_b   9.04945896
_cell_length_c   7.38957869
_cell_angle_alpha   84.41493199
_cell_angle_beta   84.16778584
_cell_angle_gamma   43.40777992
_symmetry_Int_Tables_number   1
_chemical_formula_structural   La4YbPr5Ru4
_chemical_formula_sum   'La4 Yb1 Pr5 Ru4'
_cell_volume   412.82859882
_cell_formula_units_Z   1
loop_
 _symmetry_equiv_pos_site_id
 _symmetry_equiv_pos_as_xyz
  1  'x, y, z'
loop_
 _atom_site_type_symbol
 _atom_site_label
 _atom_site_symmetry_multiplicity
 _atom_site_fract_x
 _atom_site_fract_y
 _atom_site_fract_z
 _atom_site_occupancy
  La  La0  1  0.017030  0.792532  0.904458  1
  La  La1  1  0.202520  0.987920  0.595228  1
  La  La2  1  0.988865  0.200331  0.091274  1
  La  La3  1  0.794102  0.013375  0.404651  1
  Yb  Yb4  1  0.361707  0.209363  0.816265  1
  Pr  Pr5  1  0.789015  0.639289  0.683113  1
  Pr  Pr6  1  0.636799  0.793487  0.182177  1
  Pr  Pr7  1  0.210799  0.361440  0.314382  1
  Pr  Pr8  1  0.572510  0.422535  0.750516  1
  Pr  Pr9  1  0.426300  0.575575  0.251406  1
  Ru  Ru10  1  0.158148  0.623939  0.586053  1
  Ru  Ru11  1  0.383797  0.832022  0.913497  1
  Ru  Ru12  1  0.836399  0.387010  0.414565  1
  Ru  Ru13  1  0.622009  0.161182  0.092414  1
