# generated using pymatgen
data_Tb11LuCo5Sn
_symmetry_space_group_name_H-M   'P 1'
_cell_length_a   8.31987501
_cell_length_b   8.31987495
_cell_length_c   8.32490296
_cell_angle_alpha   107.12185781
_cell_angle_beta   110.71403565
_cell_angle_gamma   110.57905601
_symmetry_Int_Tables_number   1
_chemical_formula_structural   Tb11LuCo5Sn
_chemical_formula_sum   'Tb11 Lu1 Co5 Sn1'
_cell_volume   443.17617182
_cell_formula_units_Z   1
loop_
 _symmetry_equiv_pos_site_id
 _symmetry_equiv_pos_as_xyz
  1  'x, y, z'
loop_
 _atom_site_type_symbol
 _atom_site_label
 _atom_site_symmetry_multiplicity
 _atom_site_fract_x
 _atom_site_fract_y
 _atom_site_fract_z
 _atom_site_occupancy
  Tb  Tb0  1  0.480192  0.293088  0.185830  1
  Tb  Tb1  1  0.105917  0.291990  0.815187  1
  Tb  Tb2  1  0.892743  0.705640  0.185830  1
  Tb  Tb3  1  0.523195  0.709269  0.815187  1
  Tb  Tb4  1  0.304496  0.618806  0.312589  1
  Tb  Tb5  1  0.307916  0.992751  0.687149  1
  Tb  Tb6  1  0.694399  0.379233  0.687149  1
  Tb  Tb7  1  0.693783  0.008094  0.312589  1
  Tb  Tb8  1  0.190953  0.206926  0.397878  1
  Tb  Tb9  1  0.807062  0.793471  0.600533  1
  Tb  Tb10  1  0.192546  0.792954  0.985499  1
  Lu  Lu11  1  0.806777  0.206688  0.013466  1
  Co  Co12  1  0.499681  0.611731  0.111413  1
  Co  Co13  1  0.501419  0.387764  0.889183  1
  Co  Co14  1  0.378861  0.999458  0.378319  1
  Co  Co15  1  0.623199  0.001047  0.624246  1
  Co  Co16  1  0.997393  0.001812  0.999206  1
  Sn  Sn17  1  0.999467  0.499278  0.498746  1
