# generated using pymatgen
data_Li4CeNd3As8
_symmetry_space_group_name_H-M   'P 1'
_cell_length_a   5.64927500
_cell_length_b   5.64459761
_cell_length_c   20.87403613
_cell_angle_alpha   89.91516878
_cell_angle_beta   90.00000000
_cell_angle_gamma   90.00000000
_symmetry_Int_Tables_number   1
_chemical_formula_structural   Li4CeNd3As8
_chemical_formula_sum   'Li8 Ce2 Nd6 As16'
_cell_volume   665.62811703
_cell_formula_units_Z   2
loop_
 _symmetry_equiv_pos_site_id
 _symmetry_equiv_pos_as_xyz
  1  'x, y, z'
loop_
 _atom_site_type_symbol
 _atom_site_label
 _atom_site_symmetry_multiplicity
 _atom_site_fract_x
 _atom_site_fract_y
 _atom_site_fract_z
 _atom_site_occupancy
  Li  Li0  1  0.500617  0.744238  0.749309  1
  Li  Li1  1  0.999655  0.257226  0.250679  1
  Li  Li2  1  0.500584  0.240422  0.749216  1
  Li  Li3  1  0.500345  0.257226  0.250679  1
  Li  Li4  1  0.999383  0.744238  0.749309  1
  Li  Li5  1  0.999567  0.757663  0.250639  1
  Li  Li6  1  0.999416  0.240422  0.749216  1
  Li  Li7  1  0.500433  0.757663  0.250639  1
  Ce  Ce8  1  0.250000  0.004337  0.385492  1
  Ce  Ce9  1  0.250000  0.495398  0.616875  1
  Nd  Nd10  1  0.750000  0.492791  0.882332  1
  Nd  Nd11  1  0.750000  0.504595  0.386659  1
  Nd  Nd12  1  0.750000  0.995786  0.610940  1
  Nd  Nd13  1  0.750000  0.006879  0.115333  1
  Nd  Nd14  1  0.250000  0.995075  0.886922  1
  Nd  Nd15  1  0.250000  0.505249  0.115489  1
  As  As16  1  0.250000  0.994019  0.666145  1
  As  As17  1  0.750000  0.005841  0.334342  1
  As  As18  1  0.750000  0.507414  0.173539  1
  As  As19  1  0.979590  0.736154  0.999607  1
  As  As20  1  0.017076  0.737974  0.500302  1
  As  As21  1  0.250000  0.505861  0.333410  1
  As  As22  1  0.014773  0.261938  0.500177  1
  As  As23  1  0.520410  0.736154  0.999607  1
  As  As24  1  0.485227  0.261938  0.500177  1
  As  As25  1  0.482924  0.737974  0.500302  1
  As  As26  1  0.993017  0.264612  0.000101  1
  As  As27  1  0.250000  0.007126  0.172638  1
  As  As28  1  0.250000  0.492526  0.826500  1
  As  As29  1  0.750000  0.494177  0.666222  1
  As  As30  1  0.750000  0.992474  0.827101  1
  As  As31  1  0.506983  0.264612  0.000101  1
