# generated using pymatgen
data_YbTa8AlS16
_symmetry_space_group_name_H-M   'P 1'
_cell_length_a   6.69759400
_cell_length_b   6.69759576
_cell_length_c   12.98855500
_cell_angle_alpha   90.00000000
_cell_angle_beta   90.00000000
_cell_angle_gamma   120.00000120
_symmetry_Int_Tables_number   1
_chemical_formula_structural   YbTa8AlS16
_chemical_formula_sum   'Yb1 Ta8 Al1 S16'
_cell_volume   504.57904833
_cell_formula_units_Z   1
loop_
 _symmetry_equiv_pos_site_id
 _symmetry_equiv_pos_as_xyz
  1  'x, y, z'
loop_
 _atom_site_type_symbol
 _atom_site_label
 _atom_site_symmetry_multiplicity
 _atom_site_fract_x
 _atom_site_fract_y
 _atom_site_fract_z
 _atom_site_occupancy
  Yb  Yb0  1  0.000000  0.000000  0.500000  1
  Ta  Ta1  1  0.000000  0.000000  0.231912  1
  Ta  Ta2  1  0.000000  0.000000  0.768088  1
  Ta  Ta3  1  0.504962  0.009922  0.230361  1
  Ta  Ta4  1  0.990078  0.495038  0.230361  1
  Ta  Ta5  1  0.504962  0.495038  0.230361  1
  Ta  Ta6  1  0.495038  0.990078  0.769639  1
  Ta  Ta7  1  0.009922  0.504962  0.769639  1
  Ta  Ta8  1  0.495038  0.504962  0.769639  1
  Al  Al9  1  0.000000  0.000000  0.000000  1
  S  S10  1  0.333333  0.666667  0.890211  1
  S  S11  1  0.666667  0.333333  0.109789  1
  S  S12  1  0.666667  0.333333  0.353725  1
  S  S13  1  0.333333  0.666667  0.646275  1
  S  S14  1  0.168469  0.831531  0.349875  1
  S  S15  1  0.168469  0.336938  0.349875  1
  S  S16  1  0.663062  0.831531  0.349875  1
  S  S17  1  0.831531  0.168469  0.650125  1
  S  S18  1  0.831531  0.663062  0.650125  1
  S  S19  1  0.336938  0.168469  0.650125  1
  S  S20  1  0.831697  0.168303  0.889421  1
  S  S21  1  0.831697  0.663397  0.889421  1
  S  S22  1  0.336603  0.168303  0.889421  1
  S  S23  1  0.168303  0.831697  0.110579  1
  S  S24  1  0.168303  0.336603  0.110579  1
  S  S25  1  0.663397  0.831697  0.110579  1
