# generated using pymatgen
data_Er2Ga2IrPt
_symmetry_space_group_name_H-M   'P 1'
_cell_length_a   4.40618400
_cell_length_b   6.76704400
_cell_length_c   7.69162200
_cell_angle_alpha   90.00000000
_cell_angle_beta   90.00000000
_cell_angle_gamma   90.00000000
_symmetry_Int_Tables_number   1
_chemical_formula_structural   Er2Ga2IrPt
_chemical_formula_sum   'Er4 Ga4 Ir2 Pt2'
_cell_volume   229.33987021
_cell_formula_units_Z   2
loop_
 _symmetry_equiv_pos_site_id
 _symmetry_equiv_pos_as_xyz
  1  'x, y, z'
loop_
 _atom_site_type_symbol
 _atom_site_label
 _atom_site_symmetry_multiplicity
 _atom_site_fract_x
 _atom_site_fract_y
 _atom_site_fract_z
 _atom_site_occupancy
  Er  Er0  1  0.250000  0.985483  0.304500  1
  Er  Er1  1  0.250000  0.485483  0.195500  1
  Er  Er2  1  0.750000  0.020688  0.690147  1
  Er  Er3  1  0.750000  0.520688  0.809853  1
  Ga  Ga4  1  0.250000  0.332558  0.569122  1
  Ga  Ga5  1  0.250000  0.832558  0.930878  1
  Ga  Ga6  1  0.750000  0.662697  0.425629  1
  Ga  Ga7  1  0.750000  0.162697  0.074371  1
  Ir  Ir8  1  0.750000  0.771208  0.103682  1
  Ir  Ir9  1  0.750000  0.271208  0.396318  1
  Pt  Pt10  1  0.250000  0.227367  0.895559  1
  Pt  Pt11  1  0.250000  0.727367  0.604441  1
