# generated using pymatgen
data_ErTm11(OsPd)2
_symmetry_space_group_name_H-M   'P 1'
_cell_length_a   7.21043621
_cell_length_b   8.99942400
_cell_length_c   6.37408100
_cell_angle_alpha   90.00000000
_cell_angle_beta   89.74181024
_cell_angle_gamma   90.00000000
_symmetry_Int_Tables_number   1
_chemical_formula_structural   ErTm11(OsPd)2
_chemical_formula_sum   'Er1 Tm11 Os2 Pd2'
_cell_volume   413.60846758
_cell_formula_units_Z   1
loop_
 _symmetry_equiv_pos_site_id
 _symmetry_equiv_pos_as_xyz
  1  'x, y, z'
loop_
 _atom_site_type_symbol
 _atom_site_label
 _atom_site_symmetry_multiplicity
 _atom_site_fract_x
 _atom_site_fract_y
 _atom_site_fract_z
 _atom_site_occupancy
  Er  Er0  1  0.024528  0.250000  0.620133  1
  Tm  Tm1  1  0.975418  0.750000  0.379630  1
  Tm  Tm2  1  0.460837  0.750000  0.121541  1
  Tm  Tm3  1  0.539376  0.250000  0.878611  1
  Tm  Tm4  1  0.174828  0.057546  0.165158  1
  Tm  Tm5  1  0.824828  0.941881  0.834729  1
  Tm  Tm6  1  0.315377  0.938268  0.680745  1
  Tm  Tm7  1  0.824828  0.558119  0.834729  1
  Tm  Tm8  1  0.684573  0.061177  0.319124  1
  Tm  Tm9  1  0.174828  0.442454  0.165158  1
  Tm  Tm10  1  0.684573  0.438823  0.319124  1
  Tm  Tm11  1  0.315377  0.561732  0.680745  1
  Os  Os12  1  0.113443  0.750000  0.965383  1
  Os  Os13  1  0.886302  0.250000  0.035646  1
  Pd  Pd14  1  0.389658  0.250000  0.459192  1
  Pd  Pd15  1  0.611223  0.750000  0.540350  1
