# generated using pymatgen
data_Tb2Ho6Hf7Si16Mo5
_symmetry_space_group_name_H-M   'P 1'
_cell_length_a   7.12534044
_cell_length_b   7.12258615
_cell_length_c   13.05734221
_cell_angle_alpha   89.76417113
_cell_angle_beta   89.97795294
_cell_angle_gamma   90.10579741
_symmetry_Int_Tables_number   1
_chemical_formula_structural   Tb2Ho6Hf7Si16Mo5
_chemical_formula_sum   'Tb2 Ho6 Hf7 Si16 Mo5'
_cell_volume   662.66443682
_cell_formula_units_Z   1
loop_
 _symmetry_equiv_pos_site_id
 _symmetry_equiv_pos_as_xyz
  1  'x, y, z'
loop_
 _atom_site_type_symbol
 _atom_site_label
 _atom_site_symmetry_multiplicity
 _atom_site_fract_x
 _atom_site_fract_y
 _atom_site_fract_z
 _atom_site_occupancy
  Tb  Tb0  1  0.345269  0.999028  0.784033  1
  Tb  Tb1  1  0.655547  0.001505  0.284200  1
  Ho  Ho2  1  0.999233  0.345324  0.218835  1
  Ho  Ho3  1  0.001491  0.656528  0.713906  1
  Ho  Ho4  1  0.154813  0.500545  0.465654  1
  Ho  Ho5  1  0.499282  0.845279  0.036222  1
  Ho  Ho6  1  0.844523  0.501620  0.965588  1
  Ho  Ho7  1  0.499335  0.154582  0.532117  1
  Hf  Hf8  1  0.853111  0.006260  0.874381  1
  Hf  Hf9  1  0.504542  0.647852  0.621027  1
  Hf  Hf10  1  0.353675  0.493182  0.875875  1
  Hf  Hf11  1  0.491666  0.349871  0.125974  1
  Hf  Hf12  1  0.647028  0.510115  0.377009  1
  Hf  Hf13  1  0.994475  0.147159  0.625781  1
  Hf  Hf14  1  0.003921  0.852295  0.124553  1
  Si  Si15  1  0.360087  0.289525  0.321221  1
  Si  Si16  1  0.640110  0.701679  0.815591  1
  Si  Si17  1  0.199181  0.863041  0.561303  1
  Si  Si18  1  0.139595  0.796112  0.932892  1
  Si  Si19  1  0.798037  0.141250  0.067186  1
  Si  Si20  1  0.870315  0.197856  0.430245  1
  Si  Si21  1  0.299463  0.359989  0.682214  1
  Si  Si22  1  0.703253  0.638407  0.183055  1
  Si  Si23  1  0.293564  0.046219  0.189145  1
  Si  Si24  1  0.705339  0.948801  0.683225  1
  Si  Si25  1  0.438378  0.797729  0.430611  1
  Si  Si26  1  0.203483  0.550016  0.066479  1
  Si  Si27  1  0.550868  0.203616  0.934831  1
  Si  Si28  1  0.795451  0.446513  0.566532  1
  Si  Si29  1  0.050175  0.297295  0.816615  1
  Si  Si30  1  0.956948  0.713668  0.317932  1
  Mo  Mo31  1  0.173674  0.174158  0.002154  1
  Mo  Mo32  1  0.827000  0.826964  0.499312  1
  Mo  Mo33  1  0.323001  0.673747  0.249965  1
  Mo  Mo34  1  0.676852  0.325449  0.750129  1
  Mo  Mo35  1  0.147317  0.996820  0.374206  1
