# generated using pymatgen
data_NaDy(TaSe2)8
_symmetry_space_group_name_H-M   'P 1'
_cell_length_a   7.03189600
_cell_length_b   7.03189514
_cell_length_c   14.71527000
_cell_angle_alpha   90.00000000
_cell_angle_beta   90.00000000
_cell_angle_gamma   120.00001346
_symmetry_Int_Tables_number   1
_chemical_formula_structural   NaDy(TaSe2)8
_chemical_formula_sum   'Na1 Dy1 Ta8 Se16'
_cell_volume   630.14955313
_cell_formula_units_Z   1
loop_
 _symmetry_equiv_pos_site_id
 _symmetry_equiv_pos_as_xyz
  1  'x, y, z'
loop_
 _atom_site_type_symbol
 _atom_site_label
 _atom_site_symmetry_multiplicity
 _atom_site_fract_x
 _atom_site_fract_y
 _atom_site_fract_z
 _atom_site_occupancy
  Na  Na0  1  0.000000  0.000000  0.000000  1
  Dy  Dy1  1  0.000000  0.000000  0.500000  1
  Ta  Ta2  1  0.508955  0.491045  0.743326  1
  Ta  Ta3  1  0.017909  0.508955  0.256674  1
  Ta  Ta4  1  0.491045  0.982091  0.256674  1
  Ta  Ta5  1  0.508955  0.017909  0.743326  1
  Ta  Ta6  1  0.982091  0.491045  0.743326  1
  Ta  Ta7  1  0.491045  0.508955  0.256674  1
  Ta  Ta8  1  0.000000  0.000000  0.742132  1
  Ta  Ta9  1  0.000000  0.000000  0.257868  1
  Se  Se10  1  0.829498  0.170502  0.368942  1
  Se  Se11  1  0.829498  0.658996  0.368942  1
  Se  Se12  1  0.341004  0.170502  0.368942  1
  Se  Se13  1  0.663591  0.831795  0.853293  1
  Se  Se14  1  0.170502  0.341004  0.631058  1
  Se  Se15  1  0.168205  0.831795  0.853293  1
  Se  Se16  1  0.168205  0.336409  0.853293  1
  Se  Se17  1  0.831795  0.168205  0.146707  1
  Se  Se18  1  0.336409  0.168205  0.146707  1
  Se  Se19  1  0.658996  0.829498  0.631058  1
  Se  Se20  1  0.333333  0.666667  0.138831  1
  Se  Se21  1  0.666667  0.333333  0.625141  1
  Se  Se22  1  0.666667  0.333333  0.861169  1
  Se  Se23  1  0.333333  0.666667  0.374859  1
  Se  Se24  1  0.831795  0.663591  0.146707  1
  Se  Se25  1  0.170502  0.829498  0.631058  1
