# generated using pymatgen
data_DyTaNb5Cl18
_symmetry_space_group_name_H-M   'P 1'
_cell_length_a   10.16754426
_cell_length_b   10.17006766
_cell_length_c   10.16794300
_cell_angle_alpha   55.98439715
_cell_angle_beta   55.97250412
_cell_angle_gamma   55.96618493
_symmetry_Int_Tables_number   1
_chemical_formula_structural   DyTaNb5Cl18
_chemical_formula_sum   'Dy1 Ta1 Nb5 Cl18'
_cell_volume   674.11585482
_cell_formula_units_Z   1
loop_
 _symmetry_equiv_pos_site_id
 _symmetry_equiv_pos_as_xyz
  1  'x, y, z'
loop_
 _atom_site_type_symbol
 _atom_site_label
 _atom_site_symmetry_multiplicity
 _atom_site_fract_x
 _atom_site_fract_y
 _atom_site_fract_z
 _atom_site_occupancy
  Dy  Dy0  1  0.999444  0.999803  0.000288  1
  Ta  Ta1  1  0.408058  0.299950  0.650149  1
  Nb  Nb2  1  0.349728  0.592279  0.700215  1
  Nb  Nb3  1  0.700582  0.349839  0.591845  1
  Nb  Nb4  1  0.299721  0.650615  0.407795  1
  Nb  Nb5  1  0.650558  0.408177  0.299413  1
  Nb  Nb6  1  0.592413  0.700901  0.349175  1
  Cl  Cl7  1  0.566704  0.160728  0.444524  1
  Cl  Cl8  1  0.224293  0.368582  0.907750  1
  Cl  Cl9  1  0.909453  0.223020  0.370395  1
  Cl  Cl10  1  0.370341  0.909322  0.223292  1
  Cl  Cl11  1  0.776889  0.629597  0.090595  1
  Cl  Cl12  1  0.090476  0.776774  0.629759  1
  Cl  Cl13  1  0.703444  0.958479  0.159687  1
  Cl  Cl14  1  0.957950  0.159444  0.703803  1
  Cl  Cl15  1  0.160030  0.703483  0.958036  1
  Cl  Cl16  1  0.297725  0.045081  0.837906  1
  Cl  Cl17  1  0.042105  0.839852  0.296427  1
  Cl  Cl18  1  0.840073  0.295923  0.042348  1
  Cl  Cl19  1  0.558182  0.431208  0.839515  1
  Cl  Cl20  1  0.162356  0.439239  0.570343  1
  Cl  Cl21  1  0.441742  0.568620  0.160594  1
  Cl  Cl22  1  0.431278  0.839383  0.558242  1
  Cl  Cl23  1  0.839494  0.558191  0.431306  1
  Cl  Cl24  1  0.626962  0.091512  0.776597  1
