# generated using pymatgen
data_Nd3Dy4Ho(CdPt)2
_symmetry_space_group_name_H-M   'P 1'
_cell_length_a   9.78812882
_cell_length_b   9.78812888
_cell_length_c   9.78254700
_cell_angle_alpha   60.01886599
_cell_angle_beta   60.01886578
_cell_angle_gamma   59.96228286
_symmetry_Int_Tables_number   1
_chemical_formula_structural   Nd3Dy4Ho(CdPt)2
_chemical_formula_sum   'Nd6 Dy8 Ho2 Cd4 Pt4'
_cell_volume   662.72913988
_cell_formula_units_Z   2
loop_
 _symmetry_equiv_pos_site_id
 _symmetry_equiv_pos_as_xyz
  1  'x, y, z'
loop_
 _atom_site_type_symbol
 _atom_site_label
 _atom_site_symmetry_multiplicity
 _atom_site_fract_x
 _atom_site_fract_y
 _atom_site_fract_z
 _atom_site_occupancy
  Nd  Nd0  1  0.938398  0.561602  0.561602  1
  Nd  Nd1  1  0.561602  0.938398  0.938398  1
  Nd  Nd2  1  0.561602  0.938398  0.561602  1
  Nd  Nd3  1  0.938398  0.561602  0.938398  1
  Nd  Nd4  1  0.561737  0.561737  0.938263  1
  Nd  Nd5  1  0.938263  0.938263  0.561737  1
  Dy  Dy6  1  0.350743  0.350743  0.350950  1
  Dy  Dy7  1  0.350743  0.350743  0.947562  1
  Dy  Dy8  1  0.350950  0.947562  0.350743  1
  Dy  Dy9  1  0.947562  0.350950  0.350743  1
  Dy  Dy10  1  0.812137  0.187863  0.187863  1
  Dy  Dy11  1  0.187863  0.812137  0.812137  1
  Dy  Dy12  1  0.187863  0.812137  0.187863  1
  Dy  Dy13  1  0.812137  0.187863  0.812137  1
  Ho  Ho14  1  0.188155  0.188155  0.811845  1
  Ho  Ho15  1  0.811845  0.811845  0.188155  1
  Cd  Cd16  1  0.579907  0.579907  0.579585  1
  Cd  Cd17  1  0.579907  0.579907  0.260603  1
  Cd  Cd18  1  0.579585  0.260603  0.579907  1
  Cd  Cd19  1  0.260603  0.579585  0.579907  1
  Pt  Pt20  1  0.142795  0.142795  0.142773  1
  Pt  Pt21  1  0.142795  0.142795  0.571639  1
  Pt  Pt22  1  0.142773  0.571639  0.142795  1
  Pt  Pt23  1  0.571639  0.142773  0.142795  1
