# generated using pymatgen
data_TiMn(FeP)2
_symmetry_space_group_name_H-M   'P 1'
_cell_length_a   3.54151100
_cell_length_b   5.96856300
_cell_length_c   6.67136400
_cell_angle_alpha   90.00000000
_cell_angle_beta   90.00000000
_cell_angle_gamma   90.00000000
_symmetry_Int_Tables_number   1
_chemical_formula_structural   TiMn(FeP)2
_chemical_formula_sum   'Ti2 Mn2 Fe4 P4'
_cell_volume   141.01750110
_cell_formula_units_Z   2
loop_
 _symmetry_equiv_pos_site_id
 _symmetry_equiv_pos_as_xyz
  1  'x, y, z'
loop_
 _atom_site_type_symbol
 _atom_site_label
 _atom_site_symmetry_multiplicity
 _atom_site_fract_x
 _atom_site_fract_y
 _atom_site_fract_z
 _atom_site_occupancy
  Ti  Ti0  1  0.750000  0.976841  0.172200  1
  Ti  Ti1  1  0.750000  0.476841  0.327800  1
  Mn  Mn2  1  0.250000  0.026625  0.827022  1
  Mn  Mn3  1  0.250000  0.526625  0.672978  1
  Fe  Fe4  1  0.250000  0.144529  0.442675  1
  Fe  Fe5  1  0.250000  0.644529  0.057325  1
  Fe  Fe6  1  0.750000  0.854827  0.566190  1
  Fe  Fe7  1  0.750000  0.354827  0.933810  1
  P  P8  1  0.250000  0.773105  0.381786  1
  P  P9  1  0.250000  0.273105  0.118214  1
  P  P10  1  0.750000  0.224073  0.629018  1
  P  P11  1  0.750000  0.724073  0.870982  1
