# generated using pymatgen
data_Gd4Er2Si3Pd
_symmetry_space_group_name_H-M   'P 1'
_cell_length_a   7.49678300
_cell_length_b   7.49678274
_cell_length_c   4.24877700
_cell_angle_alpha   90.00000000
_cell_angle_beta   90.00000000
_cell_angle_gamma   92.51945355
_symmetry_Int_Tables_number   1
_chemical_formula_structural   Gd4Er2Si3Pd
_chemical_formula_sum   'Gd4 Er2 Si3 Pd1'
_cell_volume   238.55789289
_cell_formula_units_Z   1
loop_
 _symmetry_equiv_pos_site_id
 _symmetry_equiv_pos_as_xyz
  1  'x, y, z'
loop_
 _atom_site_type_symbol
 _atom_site_label
 _atom_site_symmetry_multiplicity
 _atom_site_fract_x
 _atom_site_fract_y
 _atom_site_fract_z
 _atom_site_occupancy
  Gd  Gd0  1  0.321829  0.831649  0.500000  1
  Gd  Gd1  1  0.668351  0.178171  0.500000  1
  Gd  Gd2  1  0.174654  0.325346  0.500000  1
  Gd  Gd3  1  0.836008  0.663992  0.500000  1
  Er  Er4  1  0.993691  0.991892  0.000000  1
  Er  Er5  1  0.508108  0.506309  0.000000  1
  Si  Si6  1  0.373314  0.126686  0.000000  1
  Si  Si7  1  0.885470  0.378238  0.000000  1
  Si  Si8  1  0.121762  0.614530  0.000000  1
  Pd  Pd9  1  0.616812  0.883188  0.000000  1
