# generated using pymatgen
data_DyHoB24
_symmetry_space_group_name_H-M   'P 1'
_cell_length_a   5.29935300
_cell_length_b   5.29935200
_cell_length_c   9.17812401
_cell_angle_alpha   73.22017542
_cell_angle_beta   90.00000000
_cell_angle_gamma   120.00000003
_symmetry_Int_Tables_number   1
_chemical_formula_structural   DyHoB24
_chemical_formula_sum   'Dy1 Ho1 B24'
_cell_volume   210.45063125
_cell_formula_units_Z   1
loop_
 _symmetry_equiv_pos_site_id
 _symmetry_equiv_pos_as_xyz
  1  'x, y, z'
loop_
 _atom_site_type_symbol
 _atom_site_label
 _atom_site_symmetry_multiplicity
 _atom_site_fract_x
 _atom_site_fract_y
 _atom_site_fract_z
 _atom_site_occupancy
  Dy  Dy0  1  0.500000  0.000000  0.500000  1
  Ho  Ho1  1  0.000000  0.000000  0.000000  1
  B  B2  1  0.912195  0.500217  0.249824  1
  B  B3  1  0.411976  0.499783  0.750176  1
  B  B4  1  0.081151  0.500236  0.418613  1
  B  B5  1  0.581149  0.500081  0.918770  1
  B  B6  1  0.249959  0.837982  0.249824  1
  B  B7  1  0.750041  0.837847  0.750176  1
  B  B8  1  0.081151  0.162301  0.418613  1
  B  B9  1  0.581149  0.162298  0.918770  1
  B  B10  1  0.912195  0.162153  0.249824  1
  B  B11  1  0.411976  0.162018  0.750176  1
  B  B12  1  0.249959  0.162153  0.249824  1
  B  B13  1  0.750041  0.162018  0.750176  1
  B  B14  1  0.418851  0.837702  0.081230  1
  B  B15  1  0.918849  0.837699  0.581387  1
  B  B16  1  0.418851  0.499919  0.081230  1
  B  B17  1  0.918849  0.499764  0.581387  1
  B  B18  1  0.081068  0.499919  0.081230  1
  B  B19  1  0.580915  0.499764  0.581387  1
  B  B20  1  0.588024  0.500217  0.249824  1
  B  B21  1  0.087805  0.499783  0.750176  1
  B  B22  1  0.588024  0.837982  0.249824  1
  B  B23  1  0.087805  0.837847  0.750176  1
  B  B24  1  0.419085  0.500236  0.418613  1
  B  B25  1  0.918932  0.500081  0.918770  1
