# generated using pymatgen
data_Li2PrLuSb2
_symmetry_space_group_name_H-M   'P 1'
_cell_length_a   4.72353400
_cell_length_b   4.72353499
_cell_length_c   7.16599800
_cell_angle_alpha   90.00000000
_cell_angle_beta   90.00000000
_cell_angle_gamma   120.00000711
_symmetry_Int_Tables_number   1
_chemical_formula_structural   Li2PrLuSb2
_chemical_formula_sum   'Li2 Pr1 Lu1 Sb2'
_cell_volume   138.46546399
_cell_formula_units_Z   1
loop_
 _symmetry_equiv_pos_site_id
 _symmetry_equiv_pos_as_xyz
  1  'x, y, z'
loop_
 _atom_site_type_symbol
 _atom_site_label
 _atom_site_symmetry_multiplicity
 _atom_site_fract_x
 _atom_site_fract_y
 _atom_site_fract_z
 _atom_site_occupancy
  Li  Li0  1  0.666667  0.333333  0.289046  1
  Li  Li1  1  0.333333  0.666667  0.710954  1
  Pr  Pr2  1  0.000000  0.000000  0.000000  1
  Lu  Lu3  1  0.000000  0.000000  0.500000  1
  Sb  Sb4  1  0.666667  0.333333  0.728984  1
  Sb  Sb5  1  0.333333  0.666667  0.271016  1
