# generated using pymatgen
data_CeHo(SiRh2)2
_symmetry_space_group_name_H-M   'P 1'
_cell_length_a   9.17779303
_cell_length_b   9.17779256
_cell_length_c   4.08096100
_cell_angle_alpha   90.00000000
_cell_angle_beta   90.00000000
_cell_angle_gamma   155.14925848
_symmetry_Int_Tables_number   1
_chemical_formula_structural   CeHo(SiRh2)2
_chemical_formula_sum   'Ce1 Ho1 Si2 Rh4'
_cell_volume   144.46169646
_cell_formula_units_Z   1
loop_
 _symmetry_equiv_pos_site_id
 _symmetry_equiv_pos_as_xyz
  1  'x, y, z'
loop_
 _atom_site_type_symbol
 _atom_site_label
 _atom_site_symmetry_multiplicity
 _atom_site_fract_x
 _atom_site_fract_y
 _atom_site_fract_z
 _atom_site_occupancy
  Ce  Ce0  1  0.903522  0.096478  0.250000  1
  Ho  Ho1  1  0.101097  0.898903  0.750000  1
  Si  Si2  1  0.321028  0.678972  0.750000  1
  Si  Si3  1  0.676674  0.323326  0.250000  1
  Rh  Rh4  1  0.547313  0.452687  0.250000  1
  Rh  Rh5  1  0.452625  0.547375  0.750000  1
  Rh  Rh6  1  0.249444  0.750556  0.250000  1
  Rh  Rh7  1  0.748297  0.251703  0.750000  1
