# generated using pymatgen
data_Sc5(SiHg)2
_symmetry_space_group_name_H-M   'P 1'
_cell_length_a   8.29189437
_cell_length_b   8.29189367
_cell_length_c   7.08709200
_cell_angle_alpha   90.00000000
_cell_angle_beta   90.00000000
_cell_angle_gamma   129.40112855
_symmetry_Int_Tables_number   1
_chemical_formula_structural   Sc5(SiHg)2
_chemical_formula_sum   'Sc10 Si4 Hg4'
_cell_volume   376.52889600
_cell_formula_units_Z   2
loop_
 _symmetry_equiv_pos_site_id
 _symmetry_equiv_pos_as_xyz
  1  'x, y, z'
loop_
 _atom_site_type_symbol
 _atom_site_label
 _atom_site_symmetry_multiplicity
 _atom_site_fract_x
 _atom_site_fract_y
 _atom_site_fract_z
 _atom_site_occupancy
  Sc  Sc0  1  0.056848  0.306802  0.323756  1
  Sc  Sc1  1  0.943152  0.693198  0.676244  1
  Sc  Sc2  1  0.443152  0.193198  0.823756  1
  Sc  Sc3  1  0.806802  0.556848  0.176244  1
  Sc  Sc4  1  0.556848  0.806802  0.176244  1
  Sc  Sc5  1  0.193198  0.443152  0.823756  1
  Sc  Sc6  1  0.693198  0.943152  0.676244  1
  Sc  Sc7  1  0.306802  0.056848  0.323756  1
  Sc  Sc8  1  0.000000  0.000000  0.000000  1
  Sc  Sc9  1  0.500000  0.500000  0.500000  1
  Si  Si10  1  0.377421  0.377421  0.125395  1
  Si  Si11  1  0.622579  0.622579  0.874605  1
  Si  Si12  1  0.122579  0.122579  0.625395  1
  Si  Si13  1  0.877421  0.877421  0.374605  1
  Hg  Hg14  1  0.781734  0.218266  0.000000  1
  Hg  Hg15  1  0.218266  0.781734  0.000000  1
  Hg  Hg16  1  0.718266  0.281734  0.500000  1
  Hg  Hg17  1  0.281734  0.718266  0.500000  1
