# generated using pymatgen
data_DyTm9Os3Ru
_symmetry_space_group_name_H-M   'P 1'
_cell_length_a   6.27770863
_cell_length_b   7.30650241
_cell_length_c   8.32902835
_cell_angle_alpha   96.87654944
_cell_angle_beta   112.23454532
_cell_angle_gamma   90.12706130
_symmetry_Int_Tables_number   1
_chemical_formula_structural   DyTm9Os3Ru
_chemical_formula_sum   'Dy1 Tm9 Os3 Ru1'
_cell_volume   350.61578160
_cell_formula_units_Z   1
loop_
 _symmetry_equiv_pos_site_id
 _symmetry_equiv_pos_as_xyz
  1  'x, y, z'
loop_
 _atom_site_type_symbol
 _atom_site_label
 _atom_site_symmetry_multiplicity
 _atom_site_fract_x
 _atom_site_fract_y
 _atom_site_fract_z
 _atom_site_occupancy
  Dy  Dy0  1  0.793084  0.083421  0.816429  1
  Tm  Tm1  1  0.975429  0.416515  0.183118  1
  Tm  Tm2  1  0.208566  0.916270  0.185891  1
  Tm  Tm3  1  0.025062  0.584718  0.817628  1
  Tm  Tm4  1  0.202944  0.182984  0.564106  1
  Tm  Tm5  1  0.640360  0.317499  0.435946  1
  Tm  Tm6  1  0.794513  0.815915  0.434210  1
  Tm  Tm7  1  0.360177  0.681986  0.563259  1
  Tm  Tm8  1  0.420742  0.250146  0.000473  1
  Tm  Tm9  1  0.580115  0.749697  0.000627  1
  Os  Os10  1  0.602350  0.423245  0.780359  1
  Os  Os11  1  0.822525  0.077971  0.220219  1
  Os  Os12  1  0.396586  0.577909  0.218676  1
  Ru  Ru13  1  0.177546  0.921726  0.779059  1
