# generated using pymatgen
data_Th10Cu2Bi5Pb
_symmetry_space_group_name_H-M   'P 1'
_cell_length_a   9.64963478
_cell_length_b   9.64963571
_cell_length_c   6.58816800
_cell_angle_alpha   90.00000000
_cell_angle_beta   90.00000000
_cell_angle_gamma   119.95394775
_symmetry_Int_Tables_number   1
_chemical_formula_structural   Th10Cu2Bi5Pb
_chemical_formula_sum   'Th10 Cu2 Bi5 Pb1'
_cell_volume   531.51856763
_cell_formula_units_Z   1
loop_
 _symmetry_equiv_pos_site_id
 _symmetry_equiv_pos_as_xyz
  1  'x, y, z'
loop_
 _atom_site_type_symbol
 _atom_site_label
 _atom_site_symmetry_multiplicity
 _atom_site_fract_x
 _atom_site_fract_y
 _atom_site_fract_z
 _atom_site_occupancy
  Th  Th0  1  0.666068  0.333174  0.999248  1
  Th  Th1  1  0.333174  0.666068  0.999248  1
  Th  Th2  1  0.333174  0.666068  0.500752  1
  Th  Th3  1  0.666068  0.333174  0.500752  1
  Th  Th4  1  0.746385  0.746385  0.750000  1
  Th  Th5  1  0.255095  0.000502  0.750000  1
  Th  Th6  1  0.000502  0.255095  0.750000  1
  Th  Th7  1  0.253206  0.253206  0.250000  1
  Th  Th8  1  0.746218  0.000313  0.250000  1
  Th  Th9  1  0.000313  0.746218  0.250000  1
  Cu  Cu10  1  0.999834  0.999834  0.999765  1
  Cu  Cu11  1  0.999834  0.999834  0.500235  1
  Bi  Bi12  1  0.612474  0.000037  0.750000  1
  Bi  Bi13  1  0.000037  0.612474  0.750000  1
  Bi  Bi14  1  0.612112  0.612112  0.250000  1
  Bi  Bi15  1  0.387819  0.000416  0.250000  1
  Bi  Bi16  1  0.000416  0.387819  0.250000  1
  Pb  Pb17  1  0.387271  0.387271  0.750000  1
