# generated using pymatgen
data_Na2AsH7
_symmetry_space_group_name_H-M   'P 1'
_cell_length_a   5.05091617
_cell_length_b   5.08673817
_cell_length_c   10.20610642
_cell_angle_alpha   95.93085261
_cell_angle_beta   68.06499652
_cell_angle_gamma   59.47450164
_symmetry_Int_Tables_number   1
_chemical_formula_structural   Na2AsH7
_chemical_formula_sum   'Na2 As1 H7'
_cell_volume   194.92583010
_cell_formula_units_Z   1
loop_
 _symmetry_equiv_pos_site_id
 _symmetry_equiv_pos_as_xyz
  1  'x, y, z'
loop_
 _atom_site_type_symbol
 _atom_site_label
 _atom_site_symmetry_multiplicity
 _atom_site_fract_x
 _atom_site_fract_y
 _atom_site_fract_z
 _atom_site_occupancy
  Na  Na0  1  0.244079  0.330470  0.099000  1
  Na  Na1  1  0.101202  0.865385  0.931292  1
  As  As2  1  0.666330  0.602286  0.023057  1
  H  H3  1  0.859006  0.799929  0.636707  1
  H  H4  1  0.961178  0.778145  0.555844  1
  H  H5  1  0.526784  0.560291  0.599988  1
  H  H6  1  0.581123  0.118905  0.409818  1
  H  H7  1  0.599081  0.424012  0.628675  1
  H  H8  1  0.940110  0.427137  0.849490  1
  H  H9  1  0.580425  0.027398  0.347128  1
