# generated using pymatgen
data_Nd4Hg2PdAu3
_symmetry_space_group_name_H-M   'P 1'
_cell_length_a   3.87043700
_cell_length_b   8.09590355
_cell_length_c   8.09590435
_cell_angle_alpha   90.57083911
_cell_angle_beta   90.00000000
_cell_angle_gamma   90.00000000
_symmetry_Int_Tables_number   1
_chemical_formula_structural   Nd4Hg2PdAu3
_chemical_formula_sum   'Nd4 Hg2 Pd1 Au3'
_cell_volume   253.67001924
_cell_formula_units_Z   1
loop_
 _symmetry_equiv_pos_site_id
 _symmetry_equiv_pos_as_xyz
  1  'x, y, z'
loop_
 _atom_site_type_symbol
 _atom_site_label
 _atom_site_symmetry_multiplicity
 _atom_site_fract_x
 _atom_site_fract_y
 _atom_site_fract_z
 _atom_site_occupancy
  Nd  Nd0  1  0.500000  0.172550  0.672550  1
  Nd  Nd1  1  0.500000  0.820183  0.320183  1
  Nd  Nd2  1  0.500000  0.335652  0.176946  1
  Nd  Nd3  1  0.500000  0.676946  0.835652  1
  Hg  Hg4  1  0.000000  0.994812  0.001559  1
  Hg  Hg5  1  0.000000  0.501559  0.494812  1
  Pd  Pd6  1  0.000000  0.625101  0.125101  1
  Au  Au7  1  0.000000  0.376710  0.876710  1
  Au  Au8  1  0.000000  0.872853  0.623631  1
  Au  Au9  1  0.000000  0.123631  0.372853  1
