# generated using pymatgen
data_DyTm15InAg3Rh4
_symmetry_space_group_name_H-M   'P 1'
_cell_length_a   9.46900997
_cell_length_b   9.46901220
_cell_length_c   9.44335816
_cell_angle_alpha   59.84279328
_cell_angle_beta   59.84278491
_cell_angle_gamma   59.88698009
_symmetry_Int_Tables_number   1
_chemical_formula_structural   DyTm15InAg3Rh4
_chemical_formula_sum   'Dy1 Tm15 In1 Ag3 Rh4'
_cell_volume   596.77974186
_cell_formula_units_Z   1
loop_
 _symmetry_equiv_pos_site_id
 _symmetry_equiv_pos_as_xyz
  1  'x, y, z'
loop_
 _atom_site_type_symbol
 _atom_site_label
 _atom_site_symmetry_multiplicity
 _atom_site_fract_x
 _atom_site_fract_y
 _atom_site_fract_z
 _atom_site_occupancy
  Dy  Dy0  1  0.062807  0.062807  0.438368  1
  Tm  Tm1  1  0.436912  0.062759  0.438154  1
  Tm  Tm2  1  0.061573  0.435905  0.067273  1
  Tm  Tm3  1  0.053656  0.647441  0.649478  1
  Tm  Tm4  1  0.435188  0.435188  0.067526  1
  Tm  Tm5  1  0.647441  0.053656  0.649478  1
  Tm  Tm6  1  0.188292  0.812057  0.187567  1
  Tm  Tm7  1  0.189539  0.189539  0.811755  1
  Tm  Tm8  1  0.812014  0.812014  0.188301  1
  Tm  Tm9  1  0.435905  0.061573  0.067273  1
  Tm  Tm10  1  0.812057  0.188292  0.187567  1
  Tm  Tm11  1  0.062759  0.436912  0.438154  1
  Tm  Tm12  1  0.809242  0.189847  0.812555  1
  Tm  Tm13  1  0.189847  0.809242  0.812555  1
  Tm  Tm14  1  0.648370  0.648370  0.053716  1
  Tm  Tm15  1  0.648443  0.648443  0.649206  1
  In  In16  1  0.420303  0.420303  0.739606  1
  Ag  Ag17  1  0.417750  0.417750  0.414518  1
  Ag  Ag18  1  0.749264  0.418796  0.414308  1
  Ag  Ag19  1  0.418796  0.749264  0.414308  1
  Rh  Rh20  1  0.856258  0.856258  0.429741  1
  Rh  Rh21  1  0.857415  0.857415  0.856433  1
  Rh  Rh22  1  0.428910  0.857261  0.856080  1
  Rh  Rh23  1  0.857261  0.428910  0.856080  1
