# generated using pymatgen
data_LiGd3CCl6
_symmetry_space_group_name_H-M   'P 1'
_cell_length_a   8.62526157
_cell_length_b   8.66190475
_cell_length_c   9.16140400
_cell_angle_alpha   67.91913702
_cell_angle_beta   84.60703813
_cell_angle_gamma   87.90172279
_symmetry_Int_Tables_number   1
_chemical_formula_structural   LiGd3CCl6
_chemical_formula_sum   'Li2 Gd6 C2 Cl12'
_cell_volume   631.44909643
_cell_formula_units_Z   2
loop_
 _symmetry_equiv_pos_site_id
 _symmetry_equiv_pos_as_xyz
  1  'x, y, z'
loop_
 _atom_site_type_symbol
 _atom_site_label
 _atom_site_symmetry_multiplicity
 _atom_site_fract_x
 _atom_site_fract_y
 _atom_site_fract_z
 _atom_site_occupancy
  Li  Li0  1  0.377511  0.021035  0.338307  1
  Li  Li1  1  0.622739  0.978849  0.661868  1
  Gd  Gd2  1  0.908990  0.735872  0.006166  1
  Gd  Gd3  1  0.090947  0.264582  0.993303  1
  Gd  Gd4  1  0.737018  0.100684  0.000638  1
  Gd  Gd5  1  0.262942  0.899526  0.998814  1
  Gd  Gd6  1  0.971324  0.853738  0.345338  1
  Gd  Gd7  1  0.028765  0.145789  0.655076  1
  C  C8  1  0.006719  0.032842  0.916126  1
  C  C9  1  0.993139  0.967115  0.084126  1
  Cl  Cl10  1  0.110939  0.160189  0.331632  1
  Cl  Cl11  1  0.889179  0.839444  0.668865  1
  Cl  Cl12  1  0.194812  0.592193  0.998332  1
  Cl  Cl13  1  0.805073  0.407858  0.001813  1
  Cl  Cl14  1  0.401532  0.176890  0.022725  1
  Cl  Cl15  1  0.598484  0.823294  0.977248  1
  Cl  Cl16  1  0.661984  0.999270  0.337962  1
  Cl  Cl17  1  0.337951  0.000645  0.662306  1
  Cl  Cl18  1  0.284174  0.772485  0.326872  1
  Cl  Cl19  1  0.716025  0.227610  0.672926  1
  Cl  Cl20  1  0.864476  0.574977  0.327039  1
  Cl  Cl21  1  0.135274  0.425110  0.672518  1
