# generated using pymatgen
data_Pr8NdHo11Pb16
_symmetry_space_group_name_H-M   'P 1'
_cell_length_a   8.30792355
_cell_length_b   8.39768777
_cell_length_c   15.88070148
_cell_angle_alpha   89.92194286
_cell_angle_beta   90.05407627
_cell_angle_gamma   89.72690077
_symmetry_Int_Tables_number   1
_chemical_formula_structural   Pr8NdHo11Pb16
_chemical_formula_sum   'Pr8 Nd1 Ho11 Pb16'
_cell_volume   1107.94031210
_cell_formula_units_Z   1
loop_
 _symmetry_equiv_pos_site_id
 _symmetry_equiv_pos_as_xyz
  1  'x, y, z'
loop_
 _atom_site_type_symbol
 _atom_site_label
 _atom_site_symmetry_multiplicity
 _atom_site_fract_x
 _atom_site_fract_y
 _atom_site_fract_z
 _atom_site_occupancy
  Pr  Pr0  1  0.479089  0.678146  0.597147  1
  Pr  Pr1  1  0.979857  0.821135  0.903719  1
  Pr  Pr2  1  0.520740  0.321923  0.097044  1
  Pr  Pr3  1  0.020215  0.177524  0.402310  1
  Pr  Pr4  1  0.521778  0.322584  0.401269  1
  Pr  Pr5  1  0.021220  0.177828  0.096822  1
  Pr  Pr6  1  0.479158  0.678364  0.904672  1
  Pr  Pr7  1  0.978427  0.820911  0.597433  1
  Nd  Nd8  1  0.637015  0.160473  0.620697  1
  Ho  Ho9  1  0.138064  0.341345  0.878412  1
  Ho  Ho10  1  0.361118  0.840777  0.123078  1
  Ho  Ho11  1  0.863161  0.658694  0.374943  1
  Ho  Ho12  1  0.361303  0.841401  0.377028  1
  Ho  Ho13  1  0.861138  0.658499  0.122796  1
  Ho  Ho14  1  0.639099  0.158730  0.877411  1
  Ho  Ho15  1  0.139063  0.340419  0.623853  1
  Ho  Ho16  1  0.806181  0.495829  0.750787  1
  Ho  Ho17  1  0.304668  0.005476  0.751021  1
  Ho  Ho18  1  0.195161  0.504530  0.249948  1
  Ho  Ho19  1  0.694707  0.994330  0.249017  1
  Pb  Pb20  1  0.702934  0.956217  0.453565  1
  Pb  Pb21  1  0.201821  0.540957  0.043910  1
  Pb  Pb22  1  0.299047  0.040911  0.956810  1
  Pb  Pb23  1  0.801841  0.464689  0.542176  1
  Pb  Pb24  1  0.290349  0.038335  0.542844  1
  Pb  Pb25  1  0.797698  0.458977  0.956969  1
  Pb  Pb26  1  0.702042  0.958862  0.043223  1
  Pb  Pb27  1  0.202338  0.540024  0.456863  1
  Pb  Pb28  1  0.442382  0.374334  0.752065  1
  Pb  Pb29  1  0.944947  0.129120  0.752236  1
  Pb  Pb30  1  0.555392  0.629207  0.249706  1
  Pb  Pb31  1  0.056751  0.871376  0.248975  1
  Pb  Pb32  1  0.668852  0.847826  0.751642  1
  Pb  Pb33  1  0.169730  0.650425  0.750784  1
  Pb  Pb34  1  0.331550  0.150494  0.249571  1
  Pb  Pb35  1  0.831165  0.349329  0.249251  1
