# generated using pymatgen
data_Ca5B10(Ru2Rh5)2
_symmetry_space_group_name_H-M   'P 1'
_cell_length_a   15.27391439
_cell_length_b   14.74183080
_cell_length_c   5.61875619
_cell_angle_alpha   84.59673124
_cell_angle_beta   73.91987518
_cell_angle_gamma   21.48339650
_symmetry_Int_Tables_number   1
_chemical_formula_structural   Ca5B10(Ru2Rh5)2
_chemical_formula_sum   'Ca5 B10 Ru4 Rh10'
_cell_volume   394.19039959
_cell_formula_units_Z   1
loop_
 _symmetry_equiv_pos_site_id
 _symmetry_equiv_pos_as_xyz
  1  'x, y, z'
loop_
 _atom_site_type_symbol
 _atom_site_label
 _atom_site_symmetry_multiplicity
 _atom_site_fract_x
 _atom_site_fract_y
 _atom_site_fract_z
 _atom_site_occupancy
  Ca  Ca0  1  0.711376  0.711376  0.288624  1
  Ca  Ca1  1  0.288624  0.288624  0.711376  1
  Ca  Ca2  1  0.604591  0.604591  0.395409  1
  Ca  Ca3  1  0.395409  0.395409  0.604591  1
  Ca  Ca4  1  0.500000  0.500000  0.500000  1
  B  B5  1  0.037807  0.370639  0.636914  1
  B  B6  1  0.954641  0.636914  0.370639  1
  B  B7  1  0.636914  0.954641  0.037807  1
  B  B8  1  0.370639  0.037807  0.954641  1
  B  B9  1  0.928628  0.276079  0.731363  1
  B  B10  1  0.063930  0.731363  0.276079  1
  B  B11  1  0.731363  0.063930  0.928628  1
  B  B12  1  0.276079  0.928628  0.063930  1
  B  B13  1  0.834617  0.165383  0.834617  1
  B  B14  1  0.165383  0.834617  0.165383  1
  Ru  Ru15  1  0.750000  0.750000  0.750000  1
  Ru  Ru16  1  0.250000  0.250000  0.250000  1
  Ru  Ru17  1  0.651937  0.651937  0.848063  1
  Ru  Ru18  1  0.848063  0.848063  0.651937  1
  Rh  Rh19  1  0.348129  0.348129  0.151871  1
  Rh  Rh20  1  0.151871  0.151871  0.348129  1
  Rh  Rh21  1  0.550374  0.550374  0.949626  1
  Rh  Rh22  1  0.949626  0.949626  0.550374  1
  Rh  Rh23  1  0.449599  0.449599  0.050401  1
  Rh  Rh24  1  0.050401  0.050401  0.449599  1
  Rh  Rh25  1  0.847514  0.847514  0.152486  1
  Rh  Rh26  1  0.152486  0.152486  0.847514  1
  Rh  Rh27  1  0.949254  0.949254  0.050746  1
  Rh  Rh28  1  0.050746  0.050746  0.949254  1
