# generated using pymatgen
data_Dy5Tm6Th5(MgRu)4
_symmetry_space_group_name_H-M   'P 1'
_cell_length_a   9.69206630
_cell_length_b   9.73243878
_cell_length_c   9.73243736
_cell_angle_alpha   59.95262218
_cell_angle_beta   60.13712073
_cell_angle_gamma   60.13712416
_symmetry_Int_Tables_number   1
_chemical_formula_structural   Dy5Tm6Th5(MgRu)4
_chemical_formula_sum   'Dy5 Tm6 Th5 Mg4 Ru4'
_cell_volume   650.25741086
_cell_formula_units_Z   1
loop_
 _symmetry_equiv_pos_site_id
 _symmetry_equiv_pos_as_xyz
  1  'x, y, z'
loop_
 _atom_site_type_symbol
 _atom_site_label
 _atom_site_symmetry_multiplicity
 _atom_site_fract_x
 _atom_site_fract_y
 _atom_site_fract_z
 _atom_site_occupancy
  Dy  Dy0  1  0.564783  0.935217  0.935217  1
  Dy  Dy1  1  0.562979  0.935055  0.564343  1
  Dy  Dy2  1  0.937623  0.564343  0.935055  1
  Dy  Dy3  1  0.562979  0.564343  0.935055  1
  Dy  Dy4  1  0.937623  0.935055  0.564343  1
  Tm  Tm5  1  0.185283  0.814717  0.814717  1
  Tm  Tm6  1  0.190270  0.810610  0.184157  1
  Tm  Tm7  1  0.814964  0.184157  0.810610  1
  Tm  Tm8  1  0.190270  0.184157  0.810610  1
  Tm  Tm9  1  0.814964  0.810610  0.184157  1
  Tm  Tm10  1  0.933488  0.566512  0.566512  1
  Th  Th11  1  0.342386  0.349693  0.349693  1
  Th  Th12  1  0.346841  0.347340  0.958978  1
  Th  Th13  1  0.346841  0.958978  0.347340  1
  Th  Th14  1  0.958229  0.349693  0.349693  1
  Th  Th15  1  0.816846  0.183154  0.183154  1
  Mg  Mg16  1  0.581159  0.579942  0.579942  1
  Mg  Mg17  1  0.579017  0.583005  0.258959  1
  Mg  Mg18  1  0.579017  0.258959  0.583005  1
  Mg  Mg19  1  0.258956  0.579942  0.579942  1
  Ru  Ru20  1  0.129137  0.146622  0.146622  1
  Ru  Ru21  1  0.144365  0.141902  0.569369  1
  Ru  Ru22  1  0.144365  0.569369  0.141902  1
  Ru  Ru23  1  0.577620  0.146622  0.146622  1
