# generated using pymatgen
data_Sm5Y(CI5)2
_symmetry_space_group_name_H-M   'P 1'
_cell_length_a   7.78748423
_cell_length_b   9.60594274
_cell_length_c   9.69022633
_cell_angle_alpha   107.06621694
_cell_angle_beta   96.61226679
_cell_angle_gamma   104.37605244
_symmetry_Int_Tables_number   1
_chemical_formula_structural   Sm5Y(CI5)2
_chemical_formula_sum   'Sm5 Y1 C2 I10'
_cell_volume   657.28844781
_cell_formula_units_Z   1
loop_
 _symmetry_equiv_pos_site_id
 _symmetry_equiv_pos_as_xyz
  1  'x, y, z'
loop_
 _atom_site_type_symbol
 _atom_site_label
 _atom_site_symmetry_multiplicity
 _atom_site_fract_x
 _atom_site_fract_y
 _atom_site_fract_z
 _atom_site_occupancy
  Sm  Sm0  1  0.104919  0.039030  0.778023  1
  Sm  Sm1  1  0.374012  0.133208  0.179282  1
  Sm  Sm2  1  0.893840  0.960524  0.221385  1
  Sm  Sm3  1  0.029909  0.737434  0.923850  1
  Sm  Sm4  1  0.969253  0.262598  0.075693  1
  Y  Y5  1  0.628216  0.867472  0.821983  1
  C  C6  1  0.908448  0.969416  0.958052  1
  C  C7  1  0.087520  0.029531  0.040429  1
  I  I8  1  0.197371  0.735218  0.647105  1
  I  I9  1  0.088485  0.368815  0.820360  1
  I  I10  1  0.457856  0.808027  0.089339  1
  I  I11  1  0.255177  0.084691  0.461103  1
  I  I12  1  0.543812  0.187457  0.905133  1
  I  I13  1  0.810115  0.266712  0.355718  1
  I  I14  1  0.345560  0.456673  0.274414  1
  I  I15  1  0.912138  0.631504  0.179679  1
  I  I16  1  0.651995  0.547587  0.726119  1
  I  I17  1  0.741377  0.914101  0.542333  1
