# generated using pymatgen
data_Ho8Zr12Si15Os
_symmetry_space_group_name_H-M   'P 1'
_cell_length_a   7.09584105
_cell_length_b   7.34973658
_cell_length_c   13.98682400
_cell_angle_alpha   90.00000000
_cell_angle_beta   90.00000000
_cell_angle_gamma   90.03732186
_symmetry_Int_Tables_number   1
_chemical_formula_structural   Ho8Zr12Si15Os
_chemical_formula_sum   'Ho8 Zr12 Si15 Os1'
_cell_volume   729.44855810
_cell_formula_units_Z   1
loop_
 _symmetry_equiv_pos_site_id
 _symmetry_equiv_pos_as_xyz
  1  'x, y, z'
loop_
 _atom_site_type_symbol
 _atom_site_label
 _atom_site_symmetry_multiplicity
 _atom_site_fract_x
 _atom_site_fract_y
 _atom_site_fract_z
 _atom_site_occupancy
  Ho  Ho0  1  0.013093  0.178408  0.097143  1
  Ho  Ho1  1  0.987809  0.822394  0.906508  1
  Ho  Ho2  1  0.488657  0.675248  0.905289  1
  Ho  Ho3  1  0.987809  0.822394  0.593492  1
  Ho  Ho4  1  0.513044  0.322961  0.097983  1
  Ho  Ho5  1  0.013093  0.178408  0.402857  1
  Ho  Ho6  1  0.513044  0.322961  0.402017  1
  Ho  Ho7  1  0.488657  0.675248  0.594711  1
  Zr  Zr8  1  0.153915  0.506363  0.750000  1
  Zr  Zr9  1  0.843882  0.502678  0.250000  1
  Zr  Zr10  1  0.343601  0.001315  0.250000  1
  Zr  Zr11  1  0.662264  0.000932  0.750000  1
  Zr  Zr12  1  0.320993  0.175185  0.625057  1
  Zr  Zr13  1  0.670315  0.823317  0.374765  1
  Zr  Zr14  1  0.172218  0.678515  0.375459  1
  Zr  Zr15  1  0.670315  0.823317  0.125235  1
  Zr  Zr16  1  0.835451  0.322422  0.625506  1
  Zr  Zr17  1  0.320993  0.175185  0.874943  1
  Zr  Zr18  1  0.835451  0.322422  0.874494  1
  Zr  Zr19  1  0.172218  0.678515  0.124541  1
  Si  Si20  1  0.968201  0.883699  0.250000  1
  Si  Si21  1  0.466888  0.616993  0.250000  1
  Si  Si22  1  0.532403  0.383001  0.750000  1
  Si  Si23  1  0.285346  0.868860  0.750000  1
  Si  Si24  1  0.717606  0.129398  0.250000  1
  Si  Si25  1  0.216962  0.373517  0.250000  1
  Si  Si26  1  0.778282  0.627855  0.750000  1
  Si  Si27  1  0.159226  0.469717  0.538548  1
  Si  Si28  1  0.842688  0.530834  0.457601  1
  Si  Si29  1  0.345757  0.968923  0.458941  1
  Si  Si30  1  0.842688  0.530834  0.042399  1
  Si  Si31  1  0.654681  0.032531  0.538732  1
  Si  Si32  1  0.159226  0.469717  0.961452  1
  Si  Si33  1  0.654681  0.032531  0.961268  1
  Si  Si34  1  0.345757  0.968923  0.041059  1
  Os  Os35  1  0.022782  0.104480  0.750000  1
