# generated using pymatgen
data_TbEu(NiAs)4
_symmetry_space_group_name_H-M   'P 1'
_cell_length_a   4.20168600
_cell_length_b   4.20168600
_cell_length_c   9.61419300
_cell_angle_alpha   90.00000000
_cell_angle_beta   90.00000000
_cell_angle_gamma   90.00000000
_symmetry_Int_Tables_number   1
_chemical_formula_structural   TbEu(NiAs)4
_chemical_formula_sum   'Tb1 Eu1 Ni4 As4'
_cell_volume   169.73055190
_cell_formula_units_Z   1
loop_
 _symmetry_equiv_pos_site_id
 _symmetry_equiv_pos_as_xyz
  1  'x, y, z'
loop_
 _atom_site_type_symbol
 _atom_site_label
 _atom_site_symmetry_multiplicity
 _atom_site_fract_x
 _atom_site_fract_y
 _atom_site_fract_z
 _atom_site_occupancy
  Tb  Tb0  1  0.000000  0.500000  0.249756  1
  Eu  Eu1  1  0.500000  0.000000  0.750752  1
  Ni  Ni2  1  0.500000  0.500000  0.001959  1
  Ni  Ni3  1  0.000000  0.000000  0.001959  1
  Ni  Ni4  1  0.500000  0.000000  0.377886  1
  Ni  Ni5  1  0.000000  0.500000  0.619093  1
  As  As6  1  0.500000  0.000000  0.129270  1
  As  As7  1  0.000000  0.500000  0.869106  1
  As  As8  1  0.500000  0.500000  0.500110  1
  As  As9  1  0.000000  0.000000  0.500110  1
