# generated using pymatgen
data_Er3TmGa18(PtRh2)2
_symmetry_space_group_name_H-M   'P 1'
_cell_length_a   7.59348101
_cell_length_b   7.59344607
_cell_length_c   9.45579800
_cell_angle_alpha   90.00000000
_cell_angle_beta   90.00000000
_cell_angle_gamma   119.99079543
_symmetry_Int_Tables_number   1
_chemical_formula_structural   Er3TmGa18(PtRh2)2
_chemical_formula_sum   'Er3 Tm1 Ga18 Pt2 Rh4'
_cell_volume   472.22493516
_cell_formula_units_Z   1
loop_
 _symmetry_equiv_pos_site_id
 _symmetry_equiv_pos_as_xyz
  1  'x, y, z'
loop_
 _atom_site_type_symbol
 _atom_site_label
 _atom_site_symmetry_multiplicity
 _atom_site_fract_x
 _atom_site_fract_y
 _atom_site_fract_z
 _atom_site_occupancy
  Er  Er0  1  0.996620  0.670041  0.250000  1
  Er  Er1  1  0.003389  0.329970  0.750000  1
  Er  Er2  1  0.670028  0.996612  0.250000  1
  Tm  Tm3  1  0.329986  0.003376  0.750000  1
  Ga  Ga4  1  0.131811  0.131812  0.250000  1
  Ga  Ga5  1  0.868233  0.868204  0.750000  1
  Ga  Ga6  1  0.997814  0.338065  0.081471  1
  Ga  Ga7  1  0.002250  0.662001  0.918503  1
  Ga  Ga8  1  0.002250  0.662001  0.581497  1
  Ga  Ga9  1  0.338065  0.997812  0.418571  1
  Ga  Ga10  1  0.997814  0.338065  0.418529  1
  Ga  Ga11  1  0.661872  0.002185  0.581497  1
  Ga  Ga12  1  0.661872  0.002185  0.918503  1
  Ga  Ga13  1  0.338065  0.997812  0.081429  1
  Ga  Ga14  1  0.336247  0.336192  0.568731  1
  Ga  Ga15  1  0.663752  0.663751  0.431296  1
  Ga  Ga16  1  0.663752  0.663751  0.068704  1
  Ga  Ga17  1  0.336247  0.336192  0.931269  1
  Ga  Ga18  1  0.336663  0.548104  0.250000  1
  Ga  Ga19  1  0.663284  0.451831  0.750000  1
  Ga  Ga20  1  0.548107  0.336666  0.250000  1
  Ga  Ga21  1  0.451878  0.663354  0.750000  1
  Pt  Pt22  1  0.000013  0.000005  0.999980  1
  Pt  Pt23  1  0.000013  0.000005  0.500020  1
  Rh  Rh24  1  0.671172  0.328804  0.999972  1
  Rh  Rh25  1  0.328815  0.671198  0.999972  1
  Rh  Rh26  1  0.328815  0.671198  0.500028  1
  Rh  Rh27  1  0.671172  0.328804  0.500028  1
