# generated using pymatgen
data_Ho8Re3TcB24
_symmetry_space_group_name_H-M   'P 1'
_cell_length_a   3.67292300
_cell_length_b   9.15409029
_cell_length_c   11.52912337
_cell_angle_alpha   90.02885767
_cell_angle_beta   90.00000000
_cell_angle_gamma   90.00000000
_symmetry_Int_Tables_number   1
_chemical_formula_structural   Ho8Re3TcB24
_chemical_formula_sum   'Ho8 Re3 Tc1 B24'
_cell_volume   387.63523533
_cell_formula_units_Z   1
loop_
 _symmetry_equiv_pos_site_id
 _symmetry_equiv_pos_as_xyz
  1  'x, y, z'
loop_
 _atom_site_type_symbol
 _atom_site_label
 _atom_site_symmetry_multiplicity
 _atom_site_fract_x
 _atom_site_fract_y
 _atom_site_fract_z
 _atom_site_occupancy
  Ho  Ho0  1  0.000000  0.323959  0.413762  1
  Ho  Ho1  1  0.000000  0.676339  0.586024  1
  Ho  Ho2  1  0.000000  0.823734  0.086158  1
  Ho  Ho3  1  0.000000  0.176523  0.913868  1
  Ho  Ho4  1  0.000000  0.942197  0.369719  1
  Ho  Ho5  1  0.000000  0.056716  0.629768  1
  Ho  Ho6  1  0.000000  0.443846  0.130672  1
  Ho  Ho7  1  0.000000  0.556666  0.870228  1
  Re  Re8  1  0.000000  0.361039  0.679292  1
  Re  Re9  1  0.000000  0.139082  0.179452  1
  Re  Re10  1  0.000000  0.860980  0.820651  1
  Tc  Tc11  1  0.000000  0.639077  0.320624  1
  B  B12  1  0.500000  0.553429  0.432850  1
  B  B13  1  0.500000  0.446779  0.566866  1
  B  B14  1  0.500000  0.053346  0.066955  1
  B  B15  1  0.500000  0.946758  0.933022  1
  B  B16  1  0.500000  0.748884  0.418718  1
  B  B17  1  0.500000  0.250767  0.581130  1
  B  B18  1  0.500000  0.249388  0.081174  1
  B  B19  1  0.500000  0.750772  0.918839  1
  B  B20  1  0.500000  0.792114  0.265382  1
  B  B21  1  0.500000  0.207522  0.734461  1
  B  B22  1  0.500000  0.292477  0.234641  1
  B  B23  1  0.500000  0.707517  0.765459  1
  B  B24  1  0.500000  0.631204  0.185609  1
  B  B25  1  0.500000  0.369037  0.814492  1
  B  B26  1  0.500000  0.130847  0.314569  1
  B  B27  1  0.500000  0.868995  0.685420  1
  B  B28  1  0.500000  0.982228  0.211825  1
  B  B29  1  0.500000  0.017695  0.788061  1
  B  B30  1  0.500000  0.482593  0.288260  1
  B  B31  1  0.500000  0.517712  0.711924  1
  B  B32  1  0.500000  0.600387  0.028150  1
  B  B33  1  0.500000  0.399781  0.972178  1
  B  B34  1  0.500000  0.100045  0.471819  1
  B  B35  1  0.500000  0.899567  0.527977  1
