# generated using pymatgen
data_Ce2U2Ga12Rh
_symmetry_space_group_name_H-M   'P 1'
_cell_length_a   7.54018453
_cell_length_b   7.54018426
_cell_length_c   7.51331292
_cell_angle_alpha   109.48197843
_cell_angle_beta   109.48197331
_cell_angle_gamma   109.59421669
_symmetry_Int_Tables_number   1
_chemical_formula_structural   Ce2U2Ga12Rh
_chemical_formula_sum   'Ce2 U2 Ga12 Rh1'
_cell_volume   328.24351602
_cell_formula_units_Z   1
loop_
 _symmetry_equiv_pos_site_id
 _symmetry_equiv_pos_as_xyz
  1  'x, y, z'
loop_
 _atom_site_type_symbol
 _atom_site_label
 _atom_site_symmetry_multiplicity
 _atom_site_fract_x
 _atom_site_fract_y
 _atom_site_fract_z
 _atom_site_occupancy
  Ce  Ce0  1  0.500000  0.500000  0.500000  1
  Ce  Ce1  1  0.000000  0.000000  0.500000  1
  U  U2  1  0.000000  0.500000  0.000000  1
  U  U3  1  0.500000  0.000000  0.000000  1
  Ga  Ga4  1  0.750000  0.250000  0.500000  1
  Ga  Ga5  1  0.003172  0.707724  0.710897  1
  Ga  Ga6  1  0.292276  0.996828  0.289103  1
  Ga  Ga7  1  0.503241  0.249810  0.753051  1
  Ga  Ga8  1  0.750190  0.496759  0.246949  1
  Ga  Ga9  1  0.250000  0.750000  0.500000  1
  Ga  Ga10  1  0.249810  0.503241  0.753051  1
  Ga  Ga11  1  0.707724  0.003172  0.710897  1
  Ga  Ga12  1  0.496759  0.750190  0.246949  1
  Ga  Ga13  1  0.707583  0.707583  0.000000  1
  Ga  Ga14  1  0.292417  0.292417  0.000000  1
  Ga  Ga15  1  0.996828  0.292276  0.289103  1
  Rh  Rh16  1  0.000000  0.000000  0.000000  1
