# generated using pymatgen
data_Sr2TbMoO6
_symmetry_space_group_name_H-M   'P 1'
_cell_length_a   5.87028311
_cell_length_b   8.32302205
_cell_length_c   5.92378002
_cell_angle_alpha   89.99727333
_cell_angle_beta   90.01048398
_cell_angle_gamma   90.63680654
_symmetry_Int_Tables_number   1
_chemical_formula_structural   Sr2TbMoO6
_chemical_formula_sum   'Sr4 Tb2 Mo2 O12'
_cell_volume   289.40910008
_cell_formula_units_Z   2
loop_
 _symmetry_equiv_pos_site_id
 _symmetry_equiv_pos_as_xyz
  1  'x, y, z'
loop_
 _atom_site_type_symbol
 _atom_site_label
 _atom_site_symmetry_multiplicity
 _atom_site_fract_x
 _atom_site_fract_y
 _atom_site_fract_z
 _atom_site_occupancy
  Sr  Sr0  1  0.492149  0.251211  0.537572  1
  Sr  Sr1  1  0.008018  0.248787  0.037676  1
  Sr  Sr2  1  0.991975  0.751211  0.962329  1
  Sr  Sr3  1  0.507860  0.748789  0.462423  1
  Tb  Tb4  1  0.999992  0.500003  0.499994  1
  Tb  Tb5  1  0.500008  0.999991  0.000004  1
  Mo  Mo6  1  0.999970  0.999986  0.499990  1
  Mo  Mo7  1  0.500028  0.500034  0.000006  1
  O  O8  1  0.771713  0.538442  0.193666  1
  O  O9  1  0.228282  0.461554  0.806330  1
  O  O10  1  0.271741  0.038439  0.306267  1
  O  O11  1  0.728263  0.961562  0.693733  1
  O  O12  1  0.582353  0.265804  0.980789  1
  O  O13  1  0.917688  0.234168  0.480644  1
  O  O14  1  0.082313  0.765833  0.519359  1
  O  O15  1  0.417647  0.734190  0.019210  1
  O  O16  1  0.303401  0.453532  0.276517  1
  O  O17  1  0.803334  0.953354  0.223636  1
  O  O18  1  0.196670  0.046649  0.776371  1
  O  O19  1  0.696597  0.546462  0.723483  1
