# generated using pymatgen
data_NaMnBe3F9
_symmetry_space_group_name_H-M   'P 1'
_cell_length_a   6.50083300
_cell_length_b   6.50083180
_cell_length_c   9.80995300
_cell_angle_alpha   90.00000000
_cell_angle_beta   90.00000000
_cell_angle_gamma   119.99999086
_symmetry_Int_Tables_number   1
_chemical_formula_structural   NaMnBe3F9
_chemical_formula_sum   'Na2 Mn2 Be6 F18'
_cell_volume   359.03396655
_cell_formula_units_Z   2
loop_
 _symmetry_equiv_pos_site_id
 _symmetry_equiv_pos_as_xyz
  1  'x, y, z'
loop_
 _atom_site_type_symbol
 _atom_site_label
 _atom_site_symmetry_multiplicity
 _atom_site_fract_x
 _atom_site_fract_y
 _atom_site_fract_z
 _atom_site_occupancy
  Na  Na0  1  0.666667  0.333333  0.000000  1
  Na  Na1  1  0.666667  0.333333  0.500000  1
  Mn  Mn2  1  0.333333  0.666667  0.000000  1
  Mn  Mn3  1  0.333333  0.666667  0.500000  1
  Be  Be4  1  0.242382  0.974250  0.250000  1
  Be  Be5  1  0.242382  0.268133  0.750000  1
  Be  Be6  1  0.731867  0.974250  0.750000  1
  Be  Be7  1  0.025750  0.757618  0.750000  1
  Be  Be8  1  0.025750  0.268133  0.250000  1
  Be  Be9  1  0.731867  0.757618  0.250000  1
  F  F10  1  0.035379  0.632324  0.617462  1
  F  F11  1  0.596945  0.964621  0.617462  1
  F  F12  1  0.367676  0.403055  0.617462  1
  F  F13  1  0.367676  0.964621  0.382538  1
  F  F14  1  0.235018  0.211690  0.250000  1
  F  F15  1  0.976671  0.764982  0.250000  1
  F  F16  1  0.788310  0.023329  0.250000  1
  F  F17  1  0.788310  0.764982  0.750000  1
  F  F18  1  0.976671  0.211690  0.750000  1
  F  F19  1  0.235018  0.023329  0.750000  1
  F  F20  1  0.367676  0.964621  0.117461  1
  F  F21  1  0.596945  0.632324  0.382538  1
  F  F22  1  0.035379  0.403055  0.382538  1
  F  F23  1  0.035379  0.403055  0.117461  1
  F  F24  1  0.596945  0.632324  0.117461  1
  F  F25  1  0.035379  0.632324  0.882538  1
  F  F26  1  0.596945  0.964621  0.882538  1
  F  F27  1  0.367676  0.403055  0.882538  1
