# generated using pymatgen
data_ErTm7Be3Si12Rh
_symmetry_space_group_name_H-M   'P 1'
_cell_length_a   7.90458900
_cell_length_b   7.90638208
_cell_length_c   7.90663907
_cell_angle_alpha   89.98700602
_cell_angle_beta   89.99992754
_cell_angle_gamma   119.99270423
_symmetry_Int_Tables_number   1
_chemical_formula_structural   ErTm7Be3Si12Rh
_chemical_formula_sum   'Er1 Tm7 Be3 Si12 Rh1'
_cell_volume   427.96824504
_cell_formula_units_Z   1
loop_
 _symmetry_equiv_pos_site_id
 _symmetry_equiv_pos_as_xyz
  1  'x, y, z'
loop_
 _atom_site_type_symbol
 _atom_site_label
 _atom_site_symmetry_multiplicity
 _atom_site_fract_x
 _atom_site_fract_y
 _atom_site_fract_z
 _atom_site_occupancy
  Er  Er0  1  0.501964  0.003929  0.751145  1
  Tm  Tm1  1  0.999851  0.999703  0.248273  1
  Tm  Tm2  1  0.999828  0.999657  0.752138  1
  Tm  Tm3  1  0.499426  0.500539  0.249059  1
  Tm  Tm4  1  0.499478  0.998955  0.249055  1
  Tm  Tm5  1  0.001113  0.500539  0.249059  1
  Tm  Tm6  1  0.501776  0.498189  0.750985  1
  Tm  Tm7  1  0.996416  0.498190  0.750985  1
  Be  Be8  1  0.666854  0.333708  0.497682  1
  Be  Be9  1  0.666847  0.333692  0.002409  1
  Be  Be10  1  0.333283  0.666566  0.994723  1
  Si  Si11  1  0.829228  0.170923  0.498213  1
  Si  Si12  1  0.829032  0.658064  0.498297  1
  Si  Si13  1  0.341695  0.170924  0.498213  1
  Si  Si14  1  0.827147  0.173283  0.000951  1
  Si  Si15  1  0.826866  0.653732  0.000717  1
  Si  Si16  1  0.346136  0.173283  0.000951  1
  Si  Si17  1  0.172327  0.827417  0.000324  1
  Si  Si18  1  0.655091  0.827417  0.000325  1
  Si  Si19  1  0.172547  0.345095  0.000243  1
  Si  Si20  1  0.167616  0.831997  0.500567  1
  Si  Si21  1  0.664380  0.831996  0.500567  1
  Si  Si22  1  0.167833  0.335665  0.500811  1
  Rh  Rh23  1  0.333267  0.666535  0.504310  1
