# generated using pymatgen
data_Yb4TaOs7
_symmetry_space_group_name_H-M   'P 1'
_cell_length_a   5.41378100
_cell_length_b   5.41377949
_cell_length_c   8.56819700
_cell_angle_alpha   90.00000000
_cell_angle_beta   90.00000000
_cell_angle_gamma   119.99999089
_symmetry_Int_Tables_number   1
_chemical_formula_structural   Yb4TaOs7
_chemical_formula_sum   'Yb4 Ta1 Os7'
_cell_volume   217.48101984
_cell_formula_units_Z   1
loop_
 _symmetry_equiv_pos_site_id
 _symmetry_equiv_pos_as_xyz
  1  'x, y, z'
loop_
 _atom_site_type_symbol
 _atom_site_label
 _atom_site_symmetry_multiplicity
 _atom_site_fract_x
 _atom_site_fract_y
 _atom_site_fract_z
 _atom_site_occupancy
  Yb  Yb0  1  0.333333  0.666667  0.427697  1
  Yb  Yb1  1  0.666667  0.333333  0.572303  1
  Yb  Yb2  1  0.666667  0.333333  0.935081  1
  Yb  Yb3  1  0.333333  0.666667  0.064919  1
  Ta  Ta4  1  0.000000  0.000000  0.500000  1
  Os  Os5  1  0.000000  0.000000  0.000000  1
  Os  Os6  1  0.827292  0.172708  0.248689  1
  Os  Os7  1  0.827292  0.654585  0.248689  1
  Os  Os8  1  0.345415  0.172708  0.248689  1
  Os  Os9  1  0.172708  0.827292  0.751311  1
  Os  Os10  1  0.172708  0.345415  0.751311  1
  Os  Os11  1  0.654585  0.827292  0.751311  1
