# generated using pymatgen
data_Pr12Al3BiI12
_symmetry_space_group_name_H-M   'P 1'
_cell_length_a   11.08661257
_cell_length_b   11.08661333
_cell_length_c   10.84692200
_cell_angle_alpha   109.03384635
_cell_angle_beta   109.03384771
_cell_angle_gamma   109.90502853
_symmetry_Int_Tables_number   1
_chemical_formula_structural   Pr12Al3BiI12
_chemical_formula_sum   'Pr12 Al3 Bi1 I12'
_cell_volume   1031.80639332
_cell_formula_units_Z   1
loop_
 _symmetry_equiv_pos_site_id
 _symmetry_equiv_pos_as_xyz
  1  'x, y, z'
loop_
 _atom_site_type_symbol
 _atom_site_label
 _atom_site_symmetry_multiplicity
 _atom_site_fract_x
 _atom_site_fract_y
 _atom_site_fract_z
 _atom_site_occupancy
  Pr  Pr0  1  0.017610  0.258806  0.008806  1
  Pr  Pr1  1  0.771109  0.024646  0.503845  1
  Pr  Pr2  1  0.253537  0.728891  0.232735  1
  Pr  Pr3  1  0.475354  0.728891  0.996155  1
  Pr  Pr4  1  0.771109  0.246463  0.267265  1
  Pr  Pr5  1  0.012913  0.487087  0.750000  1
  Pr  Pr6  1  0.241194  0.258806  0.750000  1
  Pr  Pr7  1  0.475354  0.246463  0.479200  1
  Pr  Pr8  1  0.474175  0.487087  0.237087  1
  Pr  Pr9  1  0.253537  0.024646  0.020800  1
  Pr  Pr10  1  0.012913  0.025825  0.262913  1
  Pr  Pr11  1  0.241194  0.482390  0.491194  1
  Al  Al12  1  0.247013  0.494028  0.997013  1
  Al  Al13  1  0.247013  0.252987  0.250000  1
  Al  Al14  1  0.005972  0.252987  0.502987  1
  Bi  Bi15  1  0.500000  0.000000  0.250000  1
  I  I16  1  0.753831  0.746169  0.250000  1
  I  I17  1  0.990309  0.509691  0.250000  1
  I  I18  1  0.248711  0.759846  0.744216  1
  I  I19  1  0.753831  0.507663  0.503831  1
  I  I20  1  0.511134  0.251289  0.995505  1
  I  I21  1  0.740154  0.988866  0.984369  1
  I  I22  1  0.990309  0.980616  0.740309  1
  I  I23  1  0.519384  0.509691  0.759691  1
  I  I24  1  0.248711  0.988866  0.504495  1
  I  I25  1  0.740154  0.251289  0.755784  1
  I  I26  1  0.511134  0.759846  0.515631  1
  I  I27  1  0.992337  0.746169  0.996169  1
