# generated using pymatgen
data_Dy2CuSiSe
_symmetry_space_group_name_H-M   'P 1'
_cell_length_a   4.06905600
_cell_length_b   4.06905525
_cell_length_c   14.55930100
_cell_angle_alpha   90.00000000
_cell_angle_beta   90.00000000
_cell_angle_gamma   120.00000609
_symmetry_Int_Tables_number   1
_chemical_formula_structural   Dy2CuSiSe
_chemical_formula_sum   'Dy4 Cu2 Si2 Se2'
_cell_volume   208.76533343
_cell_formula_units_Z   2
loop_
 _symmetry_equiv_pos_site_id
 _symmetry_equiv_pos_as_xyz
  1  'x, y, z'
loop_
 _atom_site_type_symbol
 _atom_site_label
 _atom_site_symmetry_multiplicity
 _atom_site_fract_x
 _atom_site_fract_y
 _atom_site_fract_z
 _atom_site_occupancy
  Dy  Dy0  1  0.333333  0.666667  0.380804  1
  Dy  Dy1  1  0.666667  0.333333  0.619196  1
  Dy  Dy2  1  0.666667  0.333333  0.880804  1
  Dy  Dy3  1  0.333333  0.666667  0.119196  1
  Cu  Cu4  1  0.000000  0.000000  0.250000  1
  Cu  Cu5  1  0.000000  0.000000  0.750000  1
  Si  Si6  1  0.333333  0.666667  0.750000  1
  Si  Si7  1  0.666667  0.333333  0.250000  1
  Se  Se8  1  0.000000  0.000000  0.500000  1
  Se  Se9  1  0.000000  0.000000  0.000000  1
