# generated using pymatgen
data_RbCr2F6
_symmetry_space_group_name_H-M   'P 1'
_cell_length_a   7.19437300
_cell_length_b   7.54718000
_cell_length_c   10.40575200
_cell_angle_alpha   90.00000000
_cell_angle_beta   90.00000000
_cell_angle_gamma   90.00000000
_symmetry_Int_Tables_number   1
_chemical_formula_structural   RbCr2F6
_chemical_formula_sum   'Rb4 Cr8 F24'
_cell_volume   565.00348904
_cell_formula_units_Z   4
loop_
 _symmetry_equiv_pos_site_id
 _symmetry_equiv_pos_as_xyz
  1  'x, y, z'
loop_
 _atom_site_type_symbol
 _atom_site_label
 _atom_site_symmetry_multiplicity
 _atom_site_fract_x
 _atom_site_fract_y
 _atom_site_fract_z
 _atom_site_occupancy
  Rb  Rb0  1  0.492409  0.250000  0.119222  1
  Rb  Rb1  1  0.992409  0.250000  0.380778  1
  Rb  Rb2  1  0.507591  0.750000  0.880778  1
  Rb  Rb3  1  0.007591  0.750000  0.619222  1
  Cr  Cr4  1  0.306321  0.250000  0.761447  1
  Cr  Cr5  1  0.806321  0.250000  0.738553  1
  Cr  Cr6  1  0.693679  0.750000  0.238553  1
  Cr  Cr7  1  0.193679  0.750000  0.261447  1
  Cr  Cr8  1  0.000000  0.000000  0.000000  1
  Cr  Cr9  1  0.500000  0.500000  0.500000  1
  Cr  Cr10  1  0.000000  0.500000  0.000000  1
  Cr  Cr11  1  0.500000  0.000000  0.500000  1
  F  F12  1  0.234697  0.061487  0.919540  1
  F  F13  1  0.734697  0.438513  0.580460  1
  F  F14  1  0.765303  0.561487  0.080460  1
  F  F15  1  0.265303  0.938513  0.419540  1
  F  F16  1  0.765303  0.938513  0.080460  1
  F  F17  1  0.265303  0.561487  0.419540  1
  F  F18  1  0.234697  0.438513  0.919540  1
  F  F19  1  0.734697  0.061487  0.580460  1
  F  F20  1  0.875812  0.001248  0.833937  1
  F  F21  1  0.375812  0.498752  0.666063  1
  F  F22  1  0.124188  0.501248  0.166063  1
  F  F23  1  0.624188  0.998752  0.333937  1
  F  F24  1  0.124188  0.998752  0.166063  1
  F  F25  1  0.624188  0.501248  0.333937  1
  F  F26  1  0.875812  0.498752  0.833937  1
  F  F27  1  0.375812  0.001248  0.666063  1
  F  F28  1  0.930529  0.250000  0.027344  1
  F  F29  1  0.430529  0.250000  0.472656  1
  F  F30  1  0.069471  0.750000  0.972656  1
  F  F31  1  0.569471  0.750000  0.527344  1
  F  F32  1  0.064117  0.250000  0.665822  1
  F  F33  1  0.564117  0.250000  0.834178  1
  F  F34  1  0.935883  0.750000  0.334178  1
  F  F35  1  0.435883  0.750000  0.165822  1
