# generated using pymatgen
data_La4TbP12Pd3Ru16
_symmetry_space_group_name_H-M   'P 1'
_cell_length_a   4.03374000
_cell_length_b   12.74431969
_cell_length_c   12.74404001
_cell_angle_alpha   119.99889033
_cell_angle_beta   90.00000000
_cell_angle_gamma   90.00000000
_symmetry_Int_Tables_number   1
_chemical_formula_structural   La4TbP12Pd3Ru16
_chemical_formula_sum   'La4 Tb1 P12 Pd3 Ru16'
_cell_volume   567.37105081
_cell_formula_units_Z   1
loop_
 _symmetry_equiv_pos_site_id
 _symmetry_equiv_pos_as_xyz
  1  'x, y, z'
loop_
 _atom_site_type_symbol
 _atom_site_label
 _atom_site_symmetry_multiplicity
 _atom_site_fract_x
 _atom_site_fract_y
 _atom_site_fract_z
 _atom_site_occupancy
  La  La0  1  0.500000  0.000084  0.180747  1
  La  La1  1  0.500000  0.180673  0.999888  1
  La  La2  1  0.500000  0.819222  0.819320  1
  La  La3  1  0.000000  0.333339  0.666661  1
  Tb  Tb4  1  0.000000  0.666704  0.333376  1
  P  P5  1  0.000000  0.998225  0.807906  1
  P  P6  1  0.000000  0.809667  0.001789  1
  P  P7  1  0.000000  0.192070  0.190299  1
  P  P8  1  0.500000  0.298670  0.476560  1
  P  P9  1  0.500000  0.177894  0.701322  1
  P  P10  1  0.500000  0.523401  0.822104  1
  P  P11  1  0.500000  0.817514  0.518384  1
  P  P12  1  0.500000  0.481656  0.299147  1
  P  P13  1  0.500000  0.700851  0.182497  1
  P  P14  1  0.000000  0.000408  0.370189  1
  P  P15  1  0.000000  0.369789  0.999616  1
  P  P16  1  0.000000  0.629822  0.630224  1
  Pd  Pd17  1  0.000000  0.000174  0.553487  1
  Pd  Pd18  1  0.000000  0.553298  0.999825  1
  Pd  Pd19  1  0.000000  0.446518  0.446693  1
  Ru  Ru20  1  0.500000  0.998087  0.707198  1
  Ru  Ru21  1  0.500000  0.709097  0.001929  1
  Ru  Ru22  1  0.500000  0.292814  0.290878  1
  Ru  Ru23  1  0.000000  0.194977  0.379698  1
  Ru  Ru24  1  0.000000  0.184726  0.805011  1
  Ru  Ru25  1  0.000000  0.620261  0.815259  1
  Ru  Ru26  1  0.000000  0.811991  0.616103  1
  Ru  Ru27  1  0.000000  0.383925  0.195885  1
  Ru  Ru28  1  0.000000  0.804122  0.188037  1
  Ru  Ru29  1  0.500000  0.121096  0.490531  1
  Ru  Ru30  1  0.500000  0.369453  0.878867  1
  Ru  Ru31  1  0.500000  0.509395  0.630555  1
  Ru  Ru32  1  0.500000  0.628731  0.504227  1
  Ru  Ru33  1  0.500000  0.495800  0.124522  1
  Ru  Ru34  1  0.500000  0.875465  0.371281  1
  Ru  Ru35  1  0.000000  0.999981  0.999985  1
