# generated using pymatgen
data_Ba2PuO5
_symmetry_space_group_name_H-M   'P 1'
_cell_length_a   6.05046100
_cell_length_b   7.86957500
_cell_length_c   11.83162200
_cell_angle_alpha   90.00000000
_cell_angle_beta   90.00000000
_cell_angle_gamma   90.00000000
_symmetry_Int_Tables_number   1
_chemical_formula_structural   Ba2PuO5
_chemical_formula_sum   'Ba8 Pu4 O20'
_cell_volume   563.35743567
_cell_formula_units_Z   4
loop_
 _symmetry_equiv_pos_site_id
 _symmetry_equiv_pos_as_xyz
  1  'x, y, z'
loop_
 _atom_site_type_symbol
 _atom_site_label
 _atom_site_symmetry_multiplicity
 _atom_site_fract_x
 _atom_site_fract_y
 _atom_site_fract_z
 _atom_site_occupancy
  Ba  Ba0  1  0.750000  0.152744  0.573274  1
  Ba  Ba1  1  0.250000  0.847256  0.426726  1
  Ba  Ba2  1  0.750000  0.652744  0.926726  1
  Ba  Ba3  1  0.250000  0.347256  0.073274  1
  Ba  Ba4  1  0.250000  0.009456  0.775258  1
  Ba  Ba5  1  0.750000  0.990544  0.224742  1
  Ba  Ba6  1  0.250000  0.509456  0.724742  1
  Ba  Ba7  1  0.750000  0.490544  0.275258  1
  Pu  Pu8  1  0.250000  0.325975  0.437109  1
  Pu  Pu9  1  0.750000  0.674025  0.562891  1
  Pu  Pu10  1  0.250000  0.825975  0.062891  1
  Pu  Pu11  1  0.750000  0.174025  0.937109  1
  O  O12  1  0.498450  0.664033  0.115013  1
  O  O13  1  0.998450  0.335967  0.884987  1
  O  O14  1  0.001550  0.164033  0.384987  1
  O  O15  1  0.501550  0.835967  0.615013  1
  O  O16  1  0.501550  0.335967  0.884987  1
  O  O17  1  0.001550  0.664033  0.115013  1
  O  O18  1  0.998450  0.835967  0.615013  1
  O  O19  1  0.498450  0.164033  0.384987  1
  O  O20  1  0.750000  0.282924  0.093405  1
  O  O21  1  0.250000  0.717076  0.906595  1
  O  O22  1  0.750000  0.782924  0.406595  1
  O  O23  1  0.250000  0.217076  0.593405  1
  O  O24  1  0.000000  0.500000  0.500000  1
  O  O25  1  0.500000  0.500000  0.500000  1
  O  O26  1  0.500000  0.000000  0.000000  1
  O  O27  1  0.000000  0.000000  0.000000  1
  O  O28  1  0.250000  0.448242  0.293006  1
  O  O29  1  0.750000  0.551758  0.706994  1
  O  O30  1  0.250000  0.948242  0.206994  1
  O  O31  1  0.750000  0.051758  0.793006  1
