# generated using pymatgen
data_NaYbAsO4
_symmetry_space_group_name_H-M   'P 1'
_cell_length_a   5.29127800
_cell_length_b   6.65640000
_cell_length_c   11.49259400
_cell_angle_alpha   90.00000000
_cell_angle_beta   90.00000000
_cell_angle_gamma   90.00000000
_symmetry_Int_Tables_number   1
_chemical_formula_structural   NaYbAsO4
_chemical_formula_sum   'Na4 Yb4 As4 O16'
_cell_volume   404.77907740
_cell_formula_units_Z   4
loop_
 _symmetry_equiv_pos_site_id
 _symmetry_equiv_pos_as_xyz
  1  'x, y, z'
loop_
 _atom_site_type_symbol
 _atom_site_label
 _atom_site_symmetry_multiplicity
 _atom_site_fract_x
 _atom_site_fract_y
 _atom_site_fract_z
 _atom_site_occupancy
  Na  Na0  1  0.000000  0.000000  0.500000  1
  Na  Na1  1  0.500000  0.500000  0.000000  1
  Na  Na2  1  0.000000  0.500000  0.500000  1
  Na  Na3  1  0.500000  0.000000  0.000000  1
  Yb  Yb4  1  0.502769  0.750000  0.278834  1
  Yb  Yb5  1  0.997231  0.750000  0.778834  1
  Yb  Yb6  1  0.497231  0.250000  0.721166  1
  Yb  Yb7  1  0.002769  0.250000  0.221166  1
  As  As8  1  0.432796  0.750000  0.599164  1
  As  As9  1  0.067204  0.750000  0.099164  1
  As  As10  1  0.567204  0.250000  0.400836  1
  As  As11  1  0.932796  0.250000  0.900836  1
  O  O12  1  0.317891  0.750000  0.458995  1
  O  O13  1  0.182109  0.750000  0.958995  1
  O  O14  1  0.682109  0.250000  0.541005  1
  O  O15  1  0.817891  0.250000  0.041005  1
  O  O16  1  0.755702  0.750000  0.606377  1
  O  O17  1  0.744298  0.750000  0.106377  1
  O  O18  1  0.244298  0.250000  0.393623  1
  O  O19  1  0.255702  0.250000  0.893623  1
  O  O20  1  0.293653  0.548146  0.670687  1
  O  O21  1  0.206347  0.951854  0.170687  1
  O  O22  1  0.706347  0.048146  0.329313  1
  O  O23  1  0.793653  0.451854  0.829313  1
  O  O24  1  0.706347  0.451854  0.329313  1
  O  O25  1  0.793653  0.048146  0.829313  1
  O  O26  1  0.293653  0.951854  0.670687  1
  O  O27  1  0.206347  0.548146  0.170687  1
