# generated using pymatgen
data_KUI6
_symmetry_space_group_name_H-M   'P 1'
_cell_length_a   8.48507157
_cell_length_b   8.48507146
_cell_length_c   15.05302856
_cell_angle_alpha   84.16528107
_cell_angle_beta   84.16528147
_cell_angle_gamma   120.36802836
_symmetry_Int_Tables_number   1
_chemical_formula_structural   KUI6
_chemical_formula_sum   'K2 U2 I12'
_cell_volume   915.31480529
_cell_formula_units_Z   2
loop_
 _symmetry_equiv_pos_site_id
 _symmetry_equiv_pos_as_xyz
  1  'x, y, z'
loop_
 _atom_site_type_symbol
 _atom_site_label
 _atom_site_symmetry_multiplicity
 _atom_site_fract_x
 _atom_site_fract_y
 _atom_site_fract_z
 _atom_site_occupancy
  K  K0  1  0.170335  0.335546  0.995990  1
  K  K1  1  0.335546  0.170335  0.495990  1
  U  U2  1  0.666688  0.840765  0.499485  1
  U  U3  1  0.840765  0.666688  0.999485  1
  I  I4  1  0.608425  0.721554  0.883942  1
  I  I5  1  0.721554  0.608425  0.383942  1
  I  I6  1  0.879326  0.432998  0.878321  1
  I  I7  1  0.618133  0.070546  0.619733  1
  I  I8  1  0.432998  0.879326  0.378321  1
  I  I9  1  0.987091  0.178380  0.387729  1
  I  I10  1  0.178380  0.987091  0.887729  1
  I  I11  1  0.902535  0.794701  0.615884  1
  I  I12  1  0.070546  0.618133  0.119733  1
  I  I13  1  0.514418  0.338559  0.113516  1
  I  I14  1  0.338559  0.514418  0.613516  1
  I  I15  1  0.794701  0.902535  0.115884  1
