# generated using pymatgen
data_Th2Zr4Pb5
_symmetry_space_group_name_H-M   'P 1'
_cell_length_a   6.15573666
_cell_length_b   9.36736873
_cell_length_c   11.47551157
_cell_angle_alpha   114.08843406
_cell_angle_beta   105.55789190
_cell_angle_gamma   90.00000588
_symmetry_Int_Tables_number   1
_chemical_formula_structural   Th2Zr4Pb5
_chemical_formula_sum   'Th4 Zr8 Pb10'
_cell_volume   577.42912214
_cell_formula_units_Z   2
loop_
 _symmetry_equiv_pos_site_id
 _symmetry_equiv_pos_as_xyz
  1  'x, y, z'
loop_
 _atom_site_type_symbol
 _atom_site_label
 _atom_site_symmetry_multiplicity
 _atom_site_fract_x
 _atom_site_fract_y
 _atom_site_fract_z
 _atom_site_occupancy
  Th  Th0  1  0.142788  0.252083  0.285575  1
  Th  Th1  1  0.857212  0.747917  0.714425  1
  Th  Th2  1  0.642788  0.033492  0.285575  1
  Th  Th3  1  0.357212  0.966508  0.714425  1
  Zr  Zr4  1  0.560524  0.310524  0.621046  1
  Zr  Zr5  1  0.439476  0.689476  0.378954  1
  Zr  Zr6  1  0.939476  0.689476  0.378954  1
  Zr  Zr7  1  0.060524  0.310524  0.621046  1
  Zr  Zr8  1  0.434679  0.675760  0.869358  1
  Zr  Zr9  1  0.565321  0.324240  0.130642  1
  Zr  Zr10  1  0.934679  0.193597  0.869358  1
  Zr  Zr11  1  0.065321  0.806403  0.130642  1
  Pb  Pb12  1  0.286725  0.577947  0.573450  1
  Pb  Pb13  1  0.713275  0.422053  0.426550  1
  Pb  Pb14  1  0.786725  0.995503  0.573450  1
  Pb  Pb15  1  0.213275  0.004497  0.426550  1
  Pb  Pb16  1  0.250000  0.000000  0.000000  1
  Pb  Pb17  1  0.750000  0.000000  0.000000  1
  Pb  Pb18  1  0.065856  0.469639  0.131712  1
  Pb  Pb19  1  0.934144  0.530361  0.868288  1
  Pb  Pb20  1  0.565856  0.662073  0.131712  1
  Pb  Pb21  1  0.434144  0.337927  0.868288  1
