# generated using pymatgen
data_Yb4Y4Hg7Pb
_symmetry_space_group_name_H-M   'P 1'
_cell_length_a   7.58124100
_cell_length_b   7.54221138
_cell_length_c   7.52470700
_cell_angle_alpha   89.99995442
_cell_angle_beta   90.00019650
_cell_angle_gamma   89.98178316
_symmetry_Int_Tables_number   1
_chemical_formula_structural   Yb4Y4Hg7Pb
_chemical_formula_sum   'Yb4 Y4 Hg7 Pb1'
_cell_volume   430.25762392
_cell_formula_units_Z   1
loop_
 _symmetry_equiv_pos_site_id
 _symmetry_equiv_pos_as_xyz
  1  'x, y, z'
loop_
 _atom_site_type_symbol
 _atom_site_label
 _atom_site_symmetry_multiplicity
 _atom_site_fract_x
 _atom_site_fract_y
 _atom_site_fract_z
 _atom_site_occupancy
  Yb  Yb0  1  0.744181  0.244877  0.995860  1
  Yb  Yb1  1  0.254762  0.755227  0.504078  1
  Yb  Yb2  1  0.745250  0.244786  0.504237  1
  Yb  Yb3  1  0.255811  0.755117  0.995729  1
  Y  Y4  1  0.254456  0.245952  0.994782  1
  Y  Y5  1  0.745573  0.754045  0.994784  1
  Y  Y6  1  0.746985  0.753853  0.505144  1
  Y  Y7  1  0.253038  0.246151  0.505162  1
  Hg  Hg8  1  0.000169  0.999949  0.248507  1
  Hg  Hg9  1  0.500141  0.000077  0.251059  1
  Hg  Hg10  1  0.500130  0.499929  0.251437  1
  Hg  Hg11  1  0.499893  0.500082  0.748647  1
  Hg  Hg12  1  0.499885  0.999925  0.748824  1
  Hg  Hg13  1  0.999872  0.000068  0.751379  1
  Hg  Hg14  1  0.999826  0.499911  0.750982  1
  Pb  Pb15  1  0.000027  0.500055  0.249388  1
