# generated using pymatgen
data_NbAg4Te3O14
_symmetry_space_group_name_H-M   'P 1'
_cell_length_a   7.41431866
_cell_length_b   7.41431786
_cell_length_c   7.45696136
_cell_angle_alpha   120.18826128
_cell_angle_beta   118.36758491
_cell_angle_gamma   90.94004305
_symmetry_Int_Tables_number   1
_chemical_formula_structural   NbAg4Te3O14
_chemical_formula_sum   'Nb1 Ag4 Te3 O14'
_cell_volume   293.68924330
_cell_formula_units_Z   1
loop_
 _symmetry_equiv_pos_site_id
 _symmetry_equiv_pos_as_xyz
  1  'x, y, z'
loop_
 _atom_site_type_symbol
 _atom_site_label
 _atom_site_symmetry_multiplicity
 _atom_site_fract_x
 _atom_site_fract_y
 _atom_site_fract_z
 _atom_site_occupancy
  Nb  Nb0  1  0.500000  0.500000  0.500000  1
  Ag  Ag1  1  0.000000  0.500000  0.500000  1
  Ag  Ag2  1  0.500000  0.000000  0.500000  1
  Ag  Ag3  1  0.000000  0.500000  0.000000  1
  Ag  Ag4  1  0.000000  0.000000  0.500000  1
  Te  Te5  1  0.500000  0.500000  0.000000  1
  Te  Te6  1  0.000000  0.000000  0.000000  1
  Te  Te7  1  0.500000  0.000000  0.000000  1
  O  O8  1  0.542881  0.422704  0.734372  1
  O  O9  1  0.453228  0.177884  0.867867  1
  O  O10  1  0.810016  0.085360  0.132133  1
  O  O11  1  0.188332  0.308509  0.265628  1
  O  O12  1  0.457119  0.577296  0.265628  1
  O  O13  1  0.546772  0.822116  0.132133  1
  O  O14  1  0.189984  0.914640  0.867867  1
  O  O15  1  0.811668  0.691491  0.734372  1
  O  O16  1  0.585606  0.244012  0.329618  1
  O  O17  1  0.414394  0.755988  0.670382  1
  O  O18  1  0.187015  0.411474  0.776972  1
  O  O19  1  0.812985  0.588526  0.223028  1
  O  O20  1  0.865497  0.089957  0.776972  1
  O  O21  1  0.134503  0.910043  0.223028  1
