# generated using pymatgen
data_CeHo3(Cu5Sn)4
_symmetry_space_group_name_H-M   'P 1'
_cell_length_a   5.03403100
_cell_length_b   8.22455341
_cell_length_c   10.54623552
_cell_angle_alpha   90.13346533
_cell_angle_beta   90.00000000
_cell_angle_gamma   90.00000000
_symmetry_Int_Tables_number   1
_chemical_formula_structural   CeHo3(Cu5Sn)4
_chemical_formula_sum   'Ce1 Ho3 Cu20 Sn4'
_cell_volume   436.64098536
_cell_formula_units_Z   1
loop_
 _symmetry_equiv_pos_site_id
 _symmetry_equiv_pos_as_xyz
  1  'x, y, z'
loop_
 _atom_site_type_symbol
 _atom_site_label
 _atom_site_symmetry_multiplicity
 _atom_site_fract_x
 _atom_site_fract_y
 _atom_site_fract_z
 _atom_site_occupancy
  Ce  Ce0  1  0.250000  0.751882  0.059093  1
  Ho  Ho1  1  0.750000  0.248607  0.938389  1
  Ho  Ho2  1  0.750000  0.749997  0.560592  1
  Ho  Ho3  1  0.250000  0.249761  0.441200  1
  Cu  Cu4  1  0.250000  0.816456  0.744001  1
  Cu  Cu5  1  0.750000  0.183781  0.257568  1
  Cu  Cu6  1  0.750000  0.684049  0.243815  1
  Cu  Cu7  1  0.250000  0.316669  0.754869  1
  Cu  Cu8  1  0.501599  0.567306  0.811573  1
  Cu  Cu9  1  0.499022  0.430884  0.188349  1
  Cu  Cu10  1  0.499440  0.932767  0.313342  1
  Cu  Cu11  1  0.000978  0.430884  0.188349  1
  Cu  Cu12  1  0.501272  0.067986  0.687601  1
  Cu  Cu13  1  0.998401  0.567306  0.811573  1
  Cu  Cu14  1  0.998728  0.067986  0.687601  1
  Cu  Cu15  1  0.000560  0.932767  0.313342  1
  Cu  Cu16  1  0.250000  0.915313  0.517191  1
  Cu  Cu17  1  0.750000  0.084045  0.483775  1
  Cu  Cu18  1  0.750000  0.578806  0.016421  1
  Cu  Cu19  1  0.250000  0.413609  0.982023  1
  Cu  Cu20  1  0.250000  0.561527  0.601818  1
  Cu  Cu21  1  0.750000  0.438762  0.398226  1
  Cu  Cu22  1  0.750000  0.941811  0.102922  1
  Cu  Cu23  1  0.250000  0.063959  0.896492  1
  Sn  Sn24  1  0.250000  0.638887  0.360645  1
  Sn  Sn25  1  0.750000  0.361590  0.639568  1
  Sn  Sn26  1  0.750000  0.862245  0.859521  1
  Sn  Sn27  1  0.250000  0.140357  0.140144  1
