# generated using pymatgen
data_Tb16In2Hg2RuRh3
_symmetry_space_group_name_H-M   'P 1'
_cell_length_a   9.65602450
_cell_length_b   9.65582542
_cell_length_c   9.66511500
_cell_angle_alpha   59.96817330
_cell_angle_beta   59.96885618
_cell_angle_gamma   59.95539379
_symmetry_Int_Tables_number   1
_chemical_formula_structural   Tb16In2Hg2RuRh3
_chemical_formula_sum   'Tb16 In2 Hg2 Ru1 Rh3'
_cell_volume   636.68771089
_cell_formula_units_Z   1
loop_
 _symmetry_equiv_pos_site_id
 _symmetry_equiv_pos_as_xyz
  1  'x, y, z'
loop_
 _atom_site_type_symbol
 _atom_site_label
 _atom_site_symmetry_multiplicity
 _atom_site_fract_x
 _atom_site_fract_y
 _atom_site_fract_z
 _atom_site_occupancy
  Tb  Tb0  1  0.808471  0.808180  0.191674  1
  Tb  Tb1  1  0.811409  0.192805  0.807721  1
  Tb  Tb2  1  0.188048  0.191375  0.810289  1
  Tb  Tb3  1  0.648236  0.051640  0.650061  1
  Tb  Tb4  1  0.062477  0.062219  0.437652  1
  Tb  Tb5  1  0.441850  0.437774  0.060188  1
  Tb  Tb6  1  0.650763  0.649354  0.651194  1
  Tb  Tb7  1  0.811409  0.192805  0.188065  1
  Tb  Tb8  1  0.191010  0.810888  0.807391  1
  Tb  Tb9  1  0.050600  0.647855  0.650772  1
  Tb  Tb10  1  0.438424  0.063848  0.060979  1
  Tb  Tb11  1  0.438424  0.063848  0.436749  1
  Tb  Tb12  1  0.063009  0.437644  0.059308  1
  Tb  Tb13  1  0.650763  0.649354  0.048688  1
  Tb  Tb14  1  0.191010  0.810888  0.190711  1
  Tb  Tb15  1  0.063009  0.437644  0.440038  1
  In  In16  1  0.418139  0.744604  0.418629  1
  In  In17  1  0.745045  0.417380  0.418788  1
  Hg  Hg18  1  0.415036  0.414374  0.414682  1
  Hg  Hg19  1  0.415036  0.414374  0.755906  1
  Ru  Ru20  1  0.857050  0.425111  0.858920  1
  Rh  Rh21  1  0.857728  0.858888  0.858223  1
  Rh  Rh22  1  0.857728  0.858888  0.425162  1
  Rh  Rh23  1  0.425324  0.858259  0.858209  1
