# generated using pymatgen
data_Th5Zr3Co9Ni7As12
_symmetry_space_group_name_H-M   'P 1'
_cell_length_a   12.85915200
_cell_length_b   12.85915137
_cell_length_c   4.01938800
_cell_angle_alpha   90.00000000
_cell_angle_beta   90.00000000
_cell_angle_gamma   120.00000676
_symmetry_Int_Tables_number   1
_chemical_formula_structural   Th5Zr3Co9Ni7As12
_chemical_formula_sum   'Th5 Zr3 Co9 Ni7 As12'
_cell_volume   575.59256068
_cell_formula_units_Z   1
loop_
 _symmetry_equiv_pos_site_id
 _symmetry_equiv_pos_as_xyz
  1  'x, y, z'
loop_
 _atom_site_type_symbol
 _atom_site_label
 _atom_site_symmetry_multiplicity
 _atom_site_fract_x
 _atom_site_fract_y
 _atom_site_fract_z
 _atom_site_occupancy
  Th  Th0  1  0.187209  0.187209  0.500000  1
  Th  Th1  1  0.812791  0.000000  0.500000  1
  Th  Th2  1  0.000000  0.812791  0.500000  1
  Th  Th3  1  0.333333  0.666667  0.000000  1
  Th  Th4  1  0.666667  0.333333  0.000000  1
  Zr  Zr5  1  0.572115  0.572115  0.000000  1
  Zr  Zr6  1  0.427885  0.000000  0.000000  1
  Zr  Zr7  1  0.000000  0.427885  0.000000  1
  Co  Co8  1  0.724515  0.724515  0.500000  1
  Co  Co9  1  0.275485  0.000000  0.500000  1
  Co  Co10  1  0.000000  0.275485  0.500000  1
  Co  Co11  1  0.184772  0.377252  0.000000  1
  Co  Co12  1  0.622748  0.807520  0.000000  1
  Co  Co13  1  0.192480  0.815228  0.000000  1
  Co  Co14  1  0.807520  0.622748  0.000000  1
  Co  Co15  1  0.815228  0.192480  0.000000  1
  Co  Co16  1  0.377252  0.184772  0.000000  1
  Ni  Ni17  1  0.365358  0.486541  0.500000  1
  Ni  Ni18  1  0.513459  0.878817  0.500000  1
  Ni  Ni19  1  0.121183  0.634642  0.500000  1
  Ni  Ni20  1  0.878817  0.513459  0.500000  1
  Ni  Ni21  1  0.634642  0.121183  0.500000  1
  Ni  Ni22  1  0.486541  0.365358  0.500000  1
  Ni  Ni23  1  0.000000  0.000000  0.000000  1
  As  As24  1  0.818794  0.818794  0.000000  1
  As  As25  1  0.181206  0.000000  0.000000  1
  As  As26  1  0.000000  0.181206  0.000000  1
  As  As27  1  0.170955  0.472467  0.500000  1
  As  As28  1  0.527533  0.698488  0.500000  1
  As  As29  1  0.301512  0.829045  0.500000  1
  As  As30  1  0.698488  0.527533  0.500000  1
  As  As31  1  0.829045  0.301512  0.500000  1
  As  As32  1  0.472467  0.170955  0.500000  1
  As  As33  1  0.363720  0.363720  0.000000  1
  As  As34  1  0.636280  0.000000  0.000000  1
  As  As35  1  0.000000  0.636280  0.000000  1
