# generated using pymatgen
data_NdEr2Co8ReP6
_symmetry_space_group_name_H-M   'P 1'
_cell_length_a   3.72534400
_cell_length_b   10.51748100
_cell_length_c   12.24026400
_cell_angle_alpha   90.00000000
_cell_angle_beta   90.00000000
_cell_angle_gamma   90.00000000
_symmetry_Int_Tables_number   1
_chemical_formula_structural   NdEr2Co8ReP6
_chemical_formula_sum   'Nd2 Er4 Co16 Re2 P12'
_cell_volume   479.58865704
_cell_formula_units_Z   2
loop_
 _symmetry_equiv_pos_site_id
 _symmetry_equiv_pos_as_xyz
  1  'x, y, z'
loop_
 _atom_site_type_symbol
 _atom_site_label
 _atom_site_symmetry_multiplicity
 _atom_site_fract_x
 _atom_site_fract_y
 _atom_site_fract_z
 _atom_site_occupancy
  Nd  Nd0  1  0.000000  0.500000  0.524893  1
  Nd  Nd1  1  0.500000  0.000000  0.475107  1
  Er  Er2  1  0.500000  0.817676  0.204310  1
  Er  Er3  1  0.500000  0.182324  0.204310  1
  Er  Er4  1  0.000000  0.682324  0.795690  1
  Er  Er5  1  0.000000  0.317676  0.795690  1
  Co  Co6  1  0.500000  0.500000  0.705390  1
  Co  Co7  1  0.000000  0.000000  0.294610  1
  Co  Co8  1  0.000000  0.500000  0.987505  1
  Co  Co9  1  0.500000  0.000000  0.012495  1
  Co  Co10  1  0.500000  0.332122  0.989657  1
  Co  Co11  1  0.500000  0.667878  0.989657  1
  Co  Co12  1  0.000000  0.167878  0.010343  1
  Co  Co13  1  0.000000  0.832122  0.010343  1
  Co  Co14  1  0.500000  0.295901  0.429165  1
  Co  Co15  1  0.500000  0.704099  0.429165  1
  Co  Co16  1  0.000000  0.204099  0.570835  1
  Co  Co17  1  0.000000  0.795901  0.570835  1
  Co  Co18  1  0.500000  0.879114  0.711594  1
  Co  Co19  1  0.500000  0.120886  0.711594  1
  Co  Co20  1  0.000000  0.620886  0.288406  1
  Co  Co21  1  0.000000  0.379114  0.288406  1
  Re  Re22  1  0.500000  0.500000  0.153988  1
  Re  Re23  1  0.000000  0.000000  0.846012  1
  P  P24  1  0.500000  0.500000  0.880888  1
  P  P25  1  0.000000  0.000000  0.119112  1
  P  P26  1  0.500000  0.500000  0.345399  1
  P  P27  1  0.000000  0.000000  0.654601  1
  P  P28  1  0.500000  0.308560  0.618255  1
  P  P29  1  0.500000  0.691440  0.618255  1
  P  P30  1  0.000000  0.191440  0.381745  1
  P  P31  1  0.000000  0.808560  0.381745  1
  P  P32  1  0.500000  0.845231  0.893250  1
  P  P33  1  0.500000  0.154769  0.893250  1
  P  P34  1  0.000000  0.654769  0.106750  1
  P  P35  1  0.000000  0.345231  0.106750  1
