# generated using pymatgen
data_NaSr4Co2O9
_symmetry_space_group_name_H-M   'P 1'
_cell_length_a   9.55299882
_cell_length_b   9.55850617
_cell_length_c   7.82332800
_cell_angle_alpha   90.00000000
_cell_angle_beta   89.97621322
_cell_angle_gamma   120.01906721
_symmetry_Int_Tables_number   1
_chemical_formula_structural   NaSr4Co2O9
_chemical_formula_sum   'Na3 Sr12 Co6 O27'
_cell_volume   618.54086136
_cell_formula_units_Z   3
loop_
 _symmetry_equiv_pos_site_id
 _symmetry_equiv_pos_as_xyz
  1  'x, y, z'
loop_
 _atom_site_type_symbol
 _atom_site_label
 _atom_site_symmetry_multiplicity
 _atom_site_fract_x
 _atom_site_fract_y
 _atom_site_fract_z
 _atom_site_occupancy
  Na  Na0  1  0.668553  0.334045  0.261601  1
  Na  Na1  1  0.000082  0.997666  0.498303  1
  Na  Na2  1  0.332430  0.665740  0.738444  1
  Sr  Sr3  1  0.999401  0.327088  0.002708  1
  Sr  Sr4  1  0.324142  0.999037  0.002377  1
  Sr  Sr5  1  0.025987  0.693321  0.250545  1
  Sr  Sr6  1  0.306766  0.332970  0.251576  1
  Sr  Sr7  1  0.667519  0.974954  0.252766  1
  Sr  Sr8  1  0.359484  0.999341  0.499012  1
  Sr  Sr9  1  0.999147  0.362003  0.497132  1
  Sr  Sr10  1  0.640526  0.639771  0.498282  1
  Sr  Sr11  1  0.337073  0.310097  0.749977  1
  Sr  Sr12  1  0.687943  0.025387  0.750660  1
  Sr  Sr13  1  0.974563  0.664535  0.748778  1
  Sr  Sr14  1  0.675336  0.674593  0.001180  1
  Co  Co15  1  0.334051  0.666376  0.076973  1
  Co  Co16  1  0.999774  0.001319  0.160532  1
  Co  Co17  1  0.333999  0.666961  0.402871  1
  Co  Co18  1  0.666320  0.333296  0.597240  1
  Co  Co19  1  0.998788  0.001983  0.838264  1
  Co  Co20  1  0.665031  0.332627  0.923467  1
  O  O21  1  0.000621  0.852874  0.996692  1
  O  O22  1  0.847515  0.998319  0.997913  1
  O  O23  1  0.680612  0.178533  0.043092  1
  O  O24  1  0.502010  0.321847  0.041638  1
  O  O25  1  0.821322  0.499222  0.040858  1
  O  O26  1  0.350508  0.828396  0.243405  1
  O  O27  1  0.477973  0.648486  0.242265  1
  O  O28  1  0.171855  0.522413  0.239461  1
  O  O29  1  0.171719  0.008354  0.283416  1
  O  O30  1  0.992134  0.163777  0.285636  1
  O  O31  1  0.836451  0.828452  0.282122  1
  O  O32  1  0.685627  0.179006  0.471740  1
  O  O33  1  0.824538  0.508711  0.469148  1
  O  O34  1  0.493027  0.315414  0.470124  1
  O  O35  1  0.509686  0.824073  0.532315  1
  O  O36  1  0.178743  0.685638  0.528941  1
  O  O37  1  0.314217  0.492222  0.529272  1
  O  O38  1  0.159836  0.990358  0.715137  1
  O  O39  1  0.008762  0.168287  0.718798  1
  O  O40  1  0.830808  0.837270  0.716719  1
  O  O41  1  0.827509  0.348189  0.758173  1
  O  O42  1  0.520187  0.170175  0.760765  1
  O  O43  1  0.650690  0.479344  0.756828  1
  O  O44  1  0.178301  0.679096  0.957601  1
  O  O45  1  0.498178  0.818272  0.960259  1
  O  O46  1  0.319126  0.498483  0.956413  1
  O  O47  1  0.151134  0.151667  0.998579  1
