# generated using pymatgen
data_Ce4ZnB4Ir9
_symmetry_space_group_name_H-M   'P 1'
_cell_length_a   10.88348348
_cell_length_b   10.88348377
_cell_length_c   10.88348442
_cell_angle_alpha   29.55231862
_cell_angle_beta   29.55231708
_cell_angle_gamma   29.55232038
_symmetry_Int_Tables_number   1
_chemical_formula_structural   Ce4ZnB4Ir9
_chemical_formula_sum   'Ce4 Zn1 B4 Ir9'
_cell_volume   277.60192125
_cell_formula_units_Z   1
loop_
 _symmetry_equiv_pos_site_id
 _symmetry_equiv_pos_as_xyz
  1  'x, y, z'
loop_
 _atom_site_type_symbol
 _atom_site_label
 _atom_site_symmetry_multiplicity
 _atom_site_fract_x
 _atom_site_fract_y
 _atom_site_fract_z
 _atom_site_occupancy
  Ce  Ce0  1  0.148405  0.148405  0.148405  1
  Ce  Ce1  1  0.949224  0.949224  0.949224  1
  Ce  Ce2  1  0.851595  0.851595  0.851595  1
  Ce  Ce3  1  0.050776  0.050776  0.050776  1
  Zn  Zn4  1  0.500000  0.500000  0.500000  1
  B  B5  1  0.616049  0.616049  0.616049  1
  B  B6  1  0.717780  0.717780  0.717780  1
  B  B7  1  0.383951  0.383951  0.383951  1
  B  B8  1  0.282220  0.282220  0.282220  1
  Ir  Ir9  1  0.402490  0.903106  0.402490  1
  Ir  Ir10  1  0.903106  0.402490  0.402490  1
  Ir  Ir11  1  0.500000  0.500000  0.000000  1
  Ir  Ir12  1  0.500000  0.000000  0.500000  1
  Ir  Ir13  1  0.000000  0.500000  0.500000  1
  Ir  Ir14  1  0.597510  0.096894  0.597510  1
  Ir  Ir15  1  0.597510  0.597510  0.096894  1
  Ir  Ir16  1  0.096894  0.597510  0.597510  1
  Ir  Ir17  1  0.402490  0.402490  0.903106  1
