# generated using pymatgen
data_GdDy(Y2H9)2
_symmetry_space_group_name_H-M   'P 1'
_cell_length_a   6.36998927
_cell_length_b   6.37033672
_cell_length_c   6.63244000
_cell_angle_alpha   90.00438015
_cell_angle_beta   89.98331494
_cell_angle_gamma   119.99705725
_symmetry_Int_Tables_number   1
_chemical_formula_structural   GdDy(Y2H9)2
_chemical_formula_sum   'Gd1 Dy1 Y4 H18'
_cell_volume   233.08692302
_cell_formula_units_Z   1
loop_
 _symmetry_equiv_pos_site_id
 _symmetry_equiv_pos_as_xyz
  1  'x, y, z'
loop_
 _atom_site_type_symbol
 _atom_site_label
 _atom_site_symmetry_multiplicity
 _atom_site_fract_x
 _atom_site_fract_y
 _atom_site_fract_z
 _atom_site_occupancy
  Gd  Gd0  1  0.334899  0.334836  0.750019  1
  Dy  Dy1  1  0.999969  0.665583  0.749965  1
  Y  Y2  1  0.338468  0.999546  0.250150  1
  Y  Y3  1  0.999499  0.338554  0.249976  1
  Y  Y4  1  0.661790  0.661838  0.249867  1
  Y  Y5  1  0.665104  0.999962  0.750023  1
  H  H6  1  0.000350  0.000200  0.249999  1
  H  H7  1  0.997943  0.997210  0.750002  1
  H  H8  1  0.333198  0.666354  0.179576  1
  H  H9  1  0.666392  0.333461  0.320424  1
  H  H10  1  0.669378  0.333879  0.808953  1
  H  H11  1  0.332594  0.668868  0.691048  1
  H  H12  1  0.360235  0.326178  0.093124  1
  H  H13  1  0.673592  0.032645  0.091902  1
  H  H14  1  0.966616  0.640462  0.091271  1
  H  H15  1  0.033447  0.673529  0.408767  1
  H  H16  1  0.641096  0.967349  0.408100  1
  H  H17  1  0.326019  0.360002  0.406832  1
  H  H18  1  0.659264  0.683831  0.908044  1
  H  H19  1  0.315503  0.974798  0.907868  1
  H  H20  1  0.024454  0.342580  0.909085  1
  H  H21  1  0.975271  0.317013  0.592363  1
  H  H22  1  0.340428  0.023170  0.591201  1
  H  H23  1  0.684489  0.658155  0.591443  1
