# generated using pymatgen
data_Tm10Zn3Bi2Au
_symmetry_space_group_name_H-M   'P 1'
_cell_length_a   8.58149119
_cell_length_b   8.58149103
_cell_length_c   8.57965345
_cell_angle_alpha   124.13136134
_cell_angle_beta   124.13135551
_cell_angle_gamma   82.99569740
_symmetry_Int_Tables_number   1
_chemical_formula_structural   Tm10Zn3Bi2Au
_chemical_formula_sum   'Tm10 Zn3 Bi2 Au1'
_cell_volume   415.40256959
_cell_formula_units_Z   1
loop_
 _symmetry_equiv_pos_site_id
 _symmetry_equiv_pos_as_xyz
  1  'x, y, z'
loop_
 _atom_site_type_symbol
 _atom_site_label
 _atom_site_symmetry_multiplicity
 _atom_site_fract_x
 _atom_site_fract_y
 _atom_site_fract_z
 _atom_site_occupancy
  Tm  Tm0  1  0.499650  0.499425  0.999075  1
  Tm  Tm1  1  0.000575  0.000350  0.000925  1
  Tm  Tm2  1  0.510067  0.011529  0.805066  1
  Tm  Tm3  1  0.204999  0.706461  0.194934  1
  Tm  Tm4  1  0.011753  0.205533  0.500000  1
  Tm  Tm5  1  0.706083  0.511253  0.500000  1
  Tm  Tm6  1  0.488471  0.989933  0.194934  1
  Tm  Tm7  1  0.793539  0.295001  0.805066  1
  Tm  Tm8  1  0.988747  0.793917  0.500000  1
  Tm  Tm9  1  0.294467  0.488247  0.500000  1
  Zn  Zn10  1  0.137768  0.639555  0.777322  1
  Zn  Zn11  1  0.860445  0.362232  0.222678  1
  Zn  Zn12  1  0.639900  0.860100  0.500000  1
  Bi  Bi13  1  0.249351  0.250649  0.000000  1
  Bi  Bi14  1  0.749351  0.750649  0.000000  1
  Au  Au15  1  0.364835  0.135165  0.500000  1
