# generated using pymatgen
data_Ca4NbN4
_symmetry_space_group_name_H-M   'P 1'
_cell_length_a   6.07941508
_cell_length_b   6.08956344
_cell_length_c   9.22310574
_cell_angle_alpha   72.08961170
_cell_angle_beta   82.13046492
_cell_angle_gamma   69.30637070
_symmetry_Int_Tables_number   1
_chemical_formula_structural   Ca4NbN4
_chemical_formula_sum   'Ca8 Nb2 N8'
_cell_volume   303.78678427
_cell_formula_units_Z   2
loop_
 _symmetry_equiv_pos_site_id
 _symmetry_equiv_pos_as_xyz
  1  'x, y, z'
loop_
 _atom_site_type_symbol
 _atom_site_label
 _atom_site_symmetry_multiplicity
 _atom_site_fract_x
 _atom_site_fract_y
 _atom_site_fract_z
 _atom_site_occupancy
  Ca  Ca0  1  0.240885  0.953569  0.601012  1
  Ca  Ca1  1  0.745097  0.615112  0.196515  1
  Ca  Ca2  1  0.760083  0.237338  0.987770  1
  Ca  Ca3  1  0.257337  0.530470  0.419510  1
  Ca  Ca4  1  0.759115  0.046431  0.398988  1
  Ca  Ca5  1  0.254903  0.384888  0.803485  1
  Ca  Ca6  1  0.742663  0.469530  0.580490  1
  Ca  Ca7  1  0.239917  0.762662  0.012230  1
  Nb  Nb8  1  0.718419  0.850870  0.762243  1
  Nb  Nb9  1  0.281581  0.149130  0.237757  1
  N  N10  1  0.973965  0.712656  0.622536  1
  N  N11  1  0.524316  0.175490  0.628320  1
  N  N12  1  0.026035  0.287344  0.377464  1
  N  N13  1  0.515623  0.637154  0.798406  1
  N  N14  1  0.164446  0.158741  0.047517  1
  N  N15  1  0.475684  0.824510  0.371680  1
  N  N16  1  0.484377  0.362846  0.201594  1
  N  N17  1  0.835554  0.841259  0.952483  1
