# generated using pymatgen
data_HoAl7Cu5
_symmetry_space_group_name_H-M   'P 1'
_cell_length_a   5.16586244
_cell_length_b   6.68808161
_cell_length_c   6.68808268
_cell_angle_alpha   98.23817224
_cell_angle_beta   112.71820894
_cell_angle_gamma   67.28179260
_symmetry_Int_Tables_number   1
_chemical_formula_structural   HoAl7Cu5
_chemical_formula_sum   'Ho1 Al7 Cu5'
_cell_volume   196.60240393
_cell_formula_units_Z   1
loop_
 _symmetry_equiv_pos_site_id
 _symmetry_equiv_pos_as_xyz
  1  'x, y, z'
loop_
 _atom_site_type_symbol
 _atom_site_label
 _atom_site_symmetry_multiplicity
 _atom_site_fract_x
 _atom_site_fract_y
 _atom_site_fract_z
 _atom_site_occupancy
  Ho  Ho0  1  0.999270  0.000730  0.999270  1
  Al  Al1  1  0.650361  0.349639  0.650361  1
  Al  Al2  1  0.344308  0.655692  0.344308  1
  Al  Al3  1  0.992651  0.354939  0.340242  1
  Al  Al4  1  0.992651  0.659758  0.645061  1
  Al  Al5  1  0.273483  0.226517  0.773483  1
  Al  Al6  1  0.507266  0.783220  0.797753  1
  Al  Al7  1  0.507266  0.202247  0.216780  1
  Cu  Cu8  1  0.500370  0.000692  0.504620  1
  Cu  Cu9  1  0.003558  0.000692  0.504620  1
  Cu  Cu10  1  0.500370  0.495380  0.999308  1
  Cu  Cu11  1  0.003558  0.495380  0.999308  1
  Cu  Cu12  1  0.724885  0.775115  0.224885  1
