# generated using pymatgen
data_Ta4CoCu3Pt8
_symmetry_space_group_name_H-M   'P 1'
_cell_length_a   4.54214400
_cell_length_b   4.81288700
_cell_length_c   11.00591100
_cell_angle_alpha   90.00000000
_cell_angle_beta   90.00000000
_cell_angle_gamma   90.00000000
_symmetry_Int_Tables_number   1
_chemical_formula_structural   Ta4CoCu3Pt8
_chemical_formula_sum   'Ta4 Co1 Cu3 Pt8'
_cell_volume   240.59830325
_cell_formula_units_Z   1
loop_
 _symmetry_equiv_pos_site_id
 _symmetry_equiv_pos_as_xyz
  1  'x, y, z'
loop_
 _atom_site_type_symbol
 _atom_site_label
 _atom_site_symmetry_multiplicity
 _atom_site_fract_x
 _atom_site_fract_y
 _atom_site_fract_z
 _atom_site_occupancy
  Ta  Ta0  1  0.500000  0.661410  0.255370  1
  Ta  Ta1  1  0.500000  0.661410  0.744630  1
  Ta  Ta2  1  0.000000  0.338407  0.000000  1
  Ta  Ta3  1  0.000000  0.346981  0.500000  1
  Co  Co4  1  0.500000  0.667697  0.500000  1
  Cu  Cu5  1  0.000000  0.325136  0.249760  1
  Cu  Cu6  1  0.000000  0.325136  0.750240  1
  Cu  Cu7  1  0.500000  0.674307  0.000000  1
  Pt  Pt8  1  0.500000  0.177174  0.375663  1
  Pt  Pt9  1  0.500000  0.180544  0.875363  1
  Pt  Pt10  1  0.500000  0.180544  0.124637  1
  Pt  Pt11  1  0.500000  0.177174  0.624337  1
  Pt  Pt12  1  0.000000  0.824455  0.375792  1
  Pt  Pt13  1  0.000000  0.817587  0.874470  1
  Pt  Pt14  1  0.000000  0.817587  0.125530  1
  Pt  Pt15  1  0.000000  0.824455  0.624208  1
