# generated using pymatgen
data_Yb2Tm2LuCuPb3
_symmetry_space_group_name_H-M   'P 1'
_cell_length_a   9.09336427
_cell_length_b   9.09336360
_cell_length_c   6.79165100
_cell_angle_alpha   90.00000000
_cell_angle_beta   90.00000000
_cell_angle_gamma   119.90276615
_symmetry_Int_Tables_number   1
_chemical_formula_structural   Yb2Tm2LuCuPb3
_chemical_formula_sum   'Yb4 Tm4 Lu2 Cu2 Pb6'
_cell_volume   486.83279206
_cell_formula_units_Z   2
loop_
 _symmetry_equiv_pos_site_id
 _symmetry_equiv_pos_as_xyz
  1  'x, y, z'
loop_
 _atom_site_type_symbol
 _atom_site_label
 _atom_site_symmetry_multiplicity
 _atom_site_fract_x
 _atom_site_fract_y
 _atom_site_fract_z
 _atom_site_occupancy
  Yb  Yb0  1  0.333445  0.666555  0.500000  1
  Yb  Yb1  1  0.666555  0.333445  0.500000  1
  Yb  Yb2  1  0.666555  0.333445  0.000000  1
  Yb  Yb3  1  0.333445  0.666555  0.000000  1
  Tm  Tm4  1  0.252701  0.000188  0.750000  1
  Tm  Tm5  1  0.747299  0.999812  0.250000  1
  Tm  Tm6  1  0.000188  0.252701  0.750000  1
  Tm  Tm7  1  0.999812  0.747299  0.250000  1
  Lu  Lu8  1  0.748055  0.748055  0.750000  1
  Lu  Lu9  1  0.251945  0.251945  0.250000  1
  Cu  Cu10  1  0.000000  0.000000  0.500000  1
  Cu  Cu11  1  0.000000  0.000000  0.000000  1
  Pb  Pb12  1  0.609062  0.999514  0.750000  1
  Pb  Pb13  1  0.390938  0.000486  0.250000  1
  Pb  Pb14  1  0.999514  0.609062  0.750000  1
  Pb  Pb15  1  0.000486  0.390938  0.250000  1
  Pb  Pb16  1  0.391451  0.391451  0.750000  1
  Pb  Pb17  1  0.608549  0.608549  0.250000  1
