# generated using pymatgen
data_Nd4DyTl3
_symmetry_space_group_name_H-M   'P 1'
_cell_length_a   6.29264893
_cell_length_b   9.38821304
_cell_length_c   9.38821273
_cell_angle_alpha   83.60733826
_cell_angle_beta   70.48218732
_cell_angle_gamma   70.48220475
_symmetry_Int_Tables_number   1
_chemical_formula_structural   Nd4DyTl3
_chemical_formula_sum   'Nd8 Dy2 Tl6'
_cell_volume   492.71617251
_cell_formula_units_Z   2
loop_
 _symmetry_equiv_pos_site_id
 _symmetry_equiv_pos_as_xyz
  1  'x, y, z'
loop_
 _atom_site_type_symbol
 _atom_site_label
 _atom_site_symmetry_multiplicity
 _atom_site_fract_x
 _atom_site_fract_y
 _atom_site_fract_z
 _atom_site_occupancy
  Nd  Nd0  1  0.720911  0.864927  0.693034  1
  Nd  Nd1  1  0.279089  0.135073  0.306966  1
  Nd  Nd2  1  0.779089  0.306966  0.135073  1
  Nd  Nd3  1  0.220911  0.693034  0.864927  1
  Nd  Nd4  1  0.585859  0.693232  0.135066  1
  Nd  Nd5  1  0.414141  0.306768  0.864934  1
  Nd  Nd6  1  0.085859  0.135066  0.693232  1
  Nd  Nd7  1  0.914141  0.864934  0.306768  1
  Dy  Dy8  1  0.750000  0.500171  0.499829  1
  Dy  Dy9  1  0.250000  0.499829  0.500171  1
  Tl  Tl10  1  0.158222  0.499986  0.184534  1
  Tl  Tl11  1  0.841778  0.500014  0.815466  1
  Tl  Tl12  1  0.341778  0.815466  0.500014  1
  Tl  Tl13  1  0.658222  0.184534  0.499986  1
  Tl  Tl14  1  0.250000  0.999814  0.000186  1
  Tl  Tl15  1  0.750000  0.000186  0.999814  1
