# generated using pymatgen
data_La2NdHg3PdRh2
_symmetry_space_group_name_H-M   'P 1'
_cell_length_a   7.77381015
_cell_length_b   7.77381007
_cell_length_c   4.07014100
_cell_angle_alpha   90.00000000
_cell_angle_beta   90.00000000
_cell_angle_gamma   120.64238510
_symmetry_Int_Tables_number   1
_chemical_formula_structural   La2NdHg3PdRh2
_chemical_formula_sum   'La2 Nd1 Hg3 Pd1 Rh2'
_cell_volume   211.62168006
_cell_formula_units_Z   1
loop_
 _symmetry_equiv_pos_site_id
 _symmetry_equiv_pos_as_xyz
  1  'x, y, z'
loop_
 _atom_site_type_symbol
 _atom_site_label
 _atom_site_symmetry_multiplicity
 _atom_site_fract_x
 _atom_site_fract_y
 _atom_site_fract_z
 _atom_site_occupancy
  La  La0  1  0.590177  0.999012  0.500000  1
  La  La1  1  0.999012  0.590177  0.500000  1
  Nd  Nd2  1  0.406934  0.406934  0.500000  1
  Hg  Hg3  1  0.739162  0.739162  0.000000  1
  Hg  Hg4  1  0.257028  0.003353  0.000000  1
  Hg  Hg5  1  0.003353  0.257028  0.000000  1
  Pd  Pd6  1  0.000498  0.000498  0.500000  1
  Rh  Rh7  1  0.669971  0.333865  0.000000  1
  Rh  Rh8  1  0.333865  0.669971  0.000000  1
