# generated using pymatgen
data_Sr5WN5
_symmetry_space_group_name_H-M   'P 1'
_cell_length_a   7.41495808
_cell_length_b   7.41495944
_cell_length_c   9.44668269
_cell_angle_alpha   80.88801893
_cell_angle_beta   80.88801791
_cell_angle_gamma   58.90784983
_symmetry_Int_Tables_number   1
_chemical_formula_structural   Sr5WN5
_chemical_formula_sum   'Sr10 W2 N10'
_cell_volume   437.35879596
_cell_formula_units_Z   2
loop_
 _symmetry_equiv_pos_site_id
 _symmetry_equiv_pos_as_xyz
  1  'x, y, z'
loop_
 _atom_site_type_symbol
 _atom_site_label
 _atom_site_symmetry_multiplicity
 _atom_site_fract_x
 _atom_site_fract_y
 _atom_site_fract_z
 _atom_site_occupancy
  Sr  Sr0  1  0.874103  0.355016  0.840846  1
  Sr  Sr1  1  0.874324  0.874324  0.826344  1
  Sr  Sr2  1  0.745246  0.745246  0.511706  1
  Sr  Sr3  1  0.749317  0.251395  0.505387  1
  Sr  Sr4  1  0.633823  0.131942  0.150295  1
  Sr  Sr5  1  0.355016  0.874103  0.840846  1
  Sr  Sr6  1  0.251395  0.749317  0.505387  1
  Sr  Sr7  1  0.241676  0.241676  0.497185  1
  Sr  Sr8  1  0.137910  0.137910  0.164268  1
  Sr  Sr9  1  0.131942  0.633823  0.150295  1
  W  W10  1  0.634514  0.634514  0.220646  1
  W  W11  1  0.365075  0.365075  0.778314  1
  N  N12  1  0.892859  0.478619  0.315219  1
  N  N13  1  0.999438  0.999438  0.011038  1
  N  N14  1  0.687413  0.687413  0.020647  1
  N  N15  1  0.514836  0.514836  0.714948  1
  N  N16  1  0.478619  0.892859  0.315219  1
  N  N17  1  0.520976  0.105233  0.688836  1
  N  N18  1  0.485097  0.485097  0.275701  1
  N  N19  1  0.317624  0.317624  0.980222  1
  N  N20  1  0.065852  0.065852  0.643621  1
  N  N21  1  0.105233  0.520976  0.688836  1
