# generated using pymatgen
data_Sm3Mn(P3Rh4)2
_symmetry_space_group_name_H-M   'P 1'
_cell_length_a   3.93175800
_cell_length_b   11.31180600
_cell_length_c   12.70604000
_cell_angle_alpha   90.00000000
_cell_angle_beta   90.00000000
_cell_angle_gamma   90.00000000
_symmetry_Int_Tables_number   1
_chemical_formula_structural   Sm3Mn(P3Rh4)2
_chemical_formula_sum   'Sm6 Mn2 P12 Rh16'
_cell_volume   565.10473415
_cell_formula_units_Z   2
loop_
 _symmetry_equiv_pos_site_id
 _symmetry_equiv_pos_as_xyz
  1  'x, y, z'
loop_
 _atom_site_type_symbol
 _atom_site_label
 _atom_site_symmetry_multiplicity
 _atom_site_fract_x
 _atom_site_fract_y
 _atom_site_fract_z
 _atom_site_occupancy
  Sm  Sm0  1  0.000000  0.500000  0.519689  1
  Sm  Sm1  1  0.500000  0.000000  0.480311  1
  Sm  Sm2  1  0.500000  0.820729  0.201240  1
  Sm  Sm3  1  0.500000  0.179271  0.201240  1
  Sm  Sm4  1  0.000000  0.679271  0.798760  1
  Sm  Sm5  1  0.000000  0.320729  0.798760  1
  Mn  Mn6  1  0.000000  0.500000  0.991997  1
  Mn  Mn7  1  0.500000  0.000000  0.008003  1
  P  P8  1  0.500000  0.500000  0.887389  1
  P  P9  1  0.000000  0.000000  0.112611  1
  P  P10  1  0.500000  0.500000  0.346005  1
  P  P11  1  0.000000  0.000000  0.653995  1
  P  P12  1  0.500000  0.312730  0.619684  1
  P  P13  1  0.500000  0.687270  0.619684  1
  P  P14  1  0.000000  0.187270  0.380316  1
  P  P15  1  0.000000  0.812730  0.380316  1
  P  P16  1  0.500000  0.849562  0.897660  1
  P  P17  1  0.500000  0.150438  0.897660  1
  P  P18  1  0.000000  0.650438  0.102340  1
  P  P19  1  0.000000  0.349562  0.102340  1
  Rh  Rh20  1  0.500000  0.500000  0.160573  1
  Rh  Rh21  1  0.000000  0.000000  0.839427  1
  Rh  Rh22  1  0.500000  0.500000  0.701549  1
  Rh  Rh23  1  0.000000  0.000000  0.298451  1
  Rh  Rh24  1  0.500000  0.334014  0.994578  1
  Rh  Rh25  1  0.500000  0.665986  0.994578  1
  Rh  Rh26  1  0.000000  0.165986  0.005422  1
  Rh  Rh27  1  0.000000  0.834014  0.005422  1
  Rh  Rh28  1  0.500000  0.294017  0.429500  1
  Rh  Rh29  1  0.500000  0.705983  0.429500  1
  Rh  Rh30  1  0.000000  0.205983  0.570500  1
  Rh  Rh31  1  0.000000  0.794017  0.570500  1
  Rh  Rh32  1  0.500000  0.873919  0.713876  1
  Rh  Rh33  1  0.500000  0.126081  0.713876  1
  Rh  Rh34  1  0.000000  0.626081  0.286124  1
  Rh  Rh35  1  0.000000  0.373919  0.286124  1
