# generated using pymatgen
data_Ba2HgBi3Pt2
_symmetry_space_group_name_H-M   'P 1'
_cell_length_a   10.26713875
_cell_length_b   10.26713816
_cell_length_c   5.02553500
_cell_angle_alpha   90.00000000
_cell_angle_beta   90.00000000
_cell_angle_gamma   151.94443022
_symmetry_Int_Tables_number   1
_chemical_formula_structural   Ba2HgBi3Pt2
_chemical_formula_sum   'Ba2 Hg1 Bi3 Pt2'
_cell_volume   249.16193102
_cell_formula_units_Z   1
loop_
 _symmetry_equiv_pos_site_id
 _symmetry_equiv_pos_as_xyz
  1  'x, y, z'
loop_
 _atom_site_type_symbol
 _atom_site_label
 _atom_site_symmetry_multiplicity
 _atom_site_fract_x
 _atom_site_fract_y
 _atom_site_fract_z
 _atom_site_occupancy
  Ba  Ba0  1  0.387997  0.612003  0.250000  1
  Ba  Ba1  1  0.610717  0.389283  0.750000  1
  Hg  Hg2  1  0.045300  0.954700  0.250000  1
  Bi  Bi3  1  0.957380  0.042620  0.750000  1
  Bi  Bi4  1  0.248112  0.751888  0.750000  1
  Bi  Bi5  1  0.750391  0.249609  0.250000  1
  Pt  Pt6  1  0.817203  0.182797  0.750000  1
  Pt  Pt7  1  0.182900  0.817100  0.250000  1
