# generated using pymatgen
data_Hf7Zr3Ga2(Sn2Sb)2
_symmetry_space_group_name_H-M   'P 1'
_cell_length_a   8.67196800
_cell_length_b   8.66356064
_cell_length_c   5.83589800
_cell_angle_alpha   90.00000000
_cell_angle_beta   90.00000000
_cell_angle_gamma   119.96793657
_symmetry_Int_Tables_number   1
_chemical_formula_structural   Hf7Zr3Ga2(Sn2Sb)2
_chemical_formula_sum   'Hf7 Zr3 Ga2 Sn4 Sb2'
_cell_volume   379.83295052
_cell_formula_units_Z   1
loop_
 _symmetry_equiv_pos_site_id
 _symmetry_equiv_pos_as_xyz
  1  'x, y, z'
loop_
 _atom_site_type_symbol
 _atom_site_label
 _atom_site_symmetry_multiplicity
 _atom_site_fract_x
 _atom_site_fract_y
 _atom_site_fract_z
 _atom_site_occupancy
  Hf  Hf0  1  0.274571  0.274055  0.250000  1
  Hf  Hf1  1  0.725429  0.999483  0.250000  1
  Hf  Hf2  1  0.000000  0.725999  0.250000  1
  Hf  Hf3  1  0.666044  0.332540  0.002233  1
  Hf  Hf4  1  0.333956  0.666497  0.002233  1
  Hf  Hf5  1  0.333956  0.666497  0.497767  1
  Hf  Hf6  1  0.666044  0.332540  0.497767  1
  Zr  Zr7  1  0.737256  0.739093  0.750000  1
  Zr  Zr8  1  0.262744  0.001836  0.750000  1
  Zr  Zr9  1  0.000000  0.260396  0.750000  1
  Ga  Ga10  1  0.000000  0.999564  0.015571  1
  Ga  Ga11  1  0.000000  0.999564  0.484429  1
  Sn  Sn12  1  0.000000  0.608365  0.750000  1
  Sn  Sn13  1  0.615322  0.614392  0.250000  1
  Sn  Sn14  1  0.384678  0.999070  0.250000  1
  Sn  Sn15  1  0.000000  0.385682  0.250000  1
  Sb  Sb16  1  0.394460  0.394444  0.750000  1
  Sb  Sb17  1  0.605540  0.999984  0.750000  1
