# generated using pymatgen
data_LiLa15ErIn3Rh4
_symmetry_space_group_name_H-M   'P 1'
_cell_length_a   10.10457865
_cell_length_b   10.10702074
_cell_length_c   10.10457840
_cell_angle_alpha   59.79684657
_cell_angle_beta   60.04176218
_cell_angle_gamma   59.79685610
_symmetry_Int_Tables_number   1
_chemical_formula_structural   LiLa15ErIn3Rh4
_chemical_formula_sum   'Li1 La15 Er1 In3 Rh4'
_cell_volume   727.67961937
_cell_formula_units_Z   1
loop_
 _symmetry_equiv_pos_site_id
 _symmetry_equiv_pos_as_xyz
  1  'x, y, z'
loop_
 _atom_site_type_symbol
 _atom_site_label
 _atom_site_symmetry_multiplicity
 _atom_site_fract_x
 _atom_site_fract_y
 _atom_site_fract_z
 _atom_site_occupancy
  Li  Li0  1  0.428532  0.711465  0.428532  1
  La  La1  1  0.192174  0.190204  0.813102  1
  La  La2  1  0.437848  0.057232  0.063066  1
  La  La3  1  0.437807  0.060297  0.437807  1
  La  La4  1  0.060022  0.440802  0.060022  1
  La  La5  1  0.650700  0.047703  0.650700  1
  La  La6  1  0.188837  0.811125  0.816910  1
  La  La7  1  0.063066  0.057232  0.437848  1
  La  La8  1  0.813102  0.190204  0.192174  1
  La  La9  1  0.816910  0.811125  0.188837  1
  La  La10  1  0.647176  0.653340  0.044301  1
  La  La11  1  0.654162  0.651408  0.654162  1
  La  La12  1  0.060840  0.440597  0.436524  1
  La  La13  1  0.044301  0.653340  0.647176  1
  La  La14  1  0.806902  0.193346  0.806902  1
  La  La15  1  0.436524  0.440597  0.060840  1
  Er  Er16  1  0.188774  0.811790  0.188774  1
  In  In17  1  0.417576  0.422998  0.740708  1
  In  In18  1  0.740708  0.422998  0.417576  1
  In  In19  1  0.417839  0.425559  0.417839  1
  Rh  Rh20  1  0.857141  0.426065  0.857141  1
  Rh  Rh21  1  0.860513  0.860379  0.419744  1
  Rh  Rh22  1  0.419744  0.860379  0.860513  1
  Rh  Rh23  1  0.858799  0.859820  0.858799  1
