# generated using pymatgen
data_Y2Sc3As7Rh9
_symmetry_space_group_name_H-M   'P 1'
_cell_length_a   3.93310900
_cell_length_b   10.18406798
_cell_length_c   10.18406900
_cell_angle_alpha   120.00000657
_cell_angle_beta   90.00000000
_cell_angle_gamma   90.00000000
_symmetry_Int_Tables_number   1
_chemical_formula_structural   Y2Sc3As7Rh9
_chemical_formula_sum   'Y2 Sc3 As7 Rh9'
_cell_volume   353.27199268
_cell_formula_units_Z   1
loop_
 _symmetry_equiv_pos_site_id
 _symmetry_equiv_pos_as_xyz
  1  'x, y, z'
loop_
 _atom_site_type_symbol
 _atom_site_label
 _atom_site_symmetry_multiplicity
 _atom_site_fract_x
 _atom_site_fract_y
 _atom_site_fract_z
 _atom_site_occupancy
  Y  Y0  1  0.000000  0.666667  0.333333  1
  Y  Y1  1  0.500000  0.333333  0.666667  1
  Sc  Sc2  1  0.500000  0.771252  0.893547  1
  Sc  Sc3  1  0.500000  0.122295  0.228748  1
  Sc  Sc4  1  0.500000  0.106453  0.877705  1
  As  As5  1  0.000000  0.000000  0.000000  1
  As  As6  1  0.500000  0.713975  0.131034  1
  As  As7  1  0.500000  0.417058  0.286025  1
  As  As8  1  0.500000  0.868966  0.582942  1
  As  As9  1  0.000000  0.576088  0.692164  1
  As  As10  1  0.000000  0.116075  0.423912  1
  As  As11  1  0.000000  0.307836  0.883925  1
  Rh  Rh12  1  0.000000  0.568426  0.930007  1
  Rh  Rh13  1  0.000000  0.361581  0.431574  1
  Rh  Rh14  1  0.000000  0.069993  0.638419  1
  Rh  Rh15  1  0.000000  0.879314  0.163010  1
  Rh  Rh16  1  0.000000  0.283696  0.120686  1
  Rh  Rh17  1  0.000000  0.836990  0.716304  1
  Rh  Rh18  1  0.500000  0.948717  0.393660  1
  Rh  Rh19  1  0.500000  0.444942  0.051283  1
  Rh  Rh20  1  0.500000  0.606340  0.555058  1
