# generated using pymatgen
data_UPaS2
_symmetry_space_group_name_H-M   'P 1'
_cell_length_a   6.82354838
_cell_length_b   6.82354854
_cell_length_c   6.82354814
_cell_angle_alpha   32.88041762
_cell_angle_beta   32.88041494
_cell_angle_gamma   32.88042417
_symmetry_Int_Tables_number   1
_chemical_formula_structural   UPaS2
_chemical_formula_sum   'U1 Pa1 S2'
_cell_volume   83.31331790
_cell_formula_units_Z   1
loop_
 _symmetry_equiv_pos_site_id
 _symmetry_equiv_pos_as_xyz
  1  'x, y, z'
loop_
 _atom_site_type_symbol
 _atom_site_label
 _atom_site_symmetry_multiplicity
 _atom_site_fract_x
 _atom_site_fract_y
 _atom_site_fract_z
 _atom_site_occupancy
  U  U0  1  0.000000  0.000000  0.000000  1
  Pa  Pa1  1  0.500000  0.500000  0.500000  1
  S  S2  1  0.250893  0.250893  0.250893  1
  S  S3  1  0.749107  0.749107  0.749107  1
