# generated using pymatgen
data_NaZn2FeH9
_symmetry_space_group_name_H-M   'P 1'
_cell_length_a   6.47179228
_cell_length_b   4.62098410
_cell_length_c   4.69894041
_cell_angle_alpha   84.46181106
_cell_angle_beta   88.47030194
_cell_angle_gamma   89.42560225
_symmetry_Int_Tables_number   1
_chemical_formula_structural   NaZn2FeH9
_chemical_formula_sum   'Na1 Zn2 Fe1 H9'
_cell_volume   139.81701254
_cell_formula_units_Z   1
loop_
 _symmetry_equiv_pos_site_id
 _symmetry_equiv_pos_as_xyz
  1  'x, y, z'
loop_
 _atom_site_type_symbol
 _atom_site_label
 _atom_site_symmetry_multiplicity
 _atom_site_fract_x
 _atom_site_fract_y
 _atom_site_fract_z
 _atom_site_occupancy
  Na  Na0  1  0.160001  0.159866  0.550064  1
  Zn  Zn1  1  0.503754  0.658446  0.572920  1
  Zn  Zn2  1  0.703796  0.158041  0.051537  1
  Fe  Fe3  1  0.668065  0.158057  0.553221  1
  H  H4  1  0.702638  0.859759  0.746055  1
  H  H5  1  0.487873  0.240447  0.763857  1
  H  H6  1  0.249644  0.662680  0.603774  1
  H  H7  1  0.131757  0.629374  0.199606  1
  H  H8  1  0.849161  0.023428  0.368800  1
  H  H9  1  0.491035  0.065530  0.355056  1
  H  H10  1  0.846389  0.299175  0.719052  1
  H  H11  1  0.128549  0.604548  0.042679  1
  H  H12  1  0.690272  0.456901  0.356379  1
