# generated using pymatgen
data_La5Hf2ThSb10
_symmetry_space_group_name_H-M   'P 1'
_cell_length_a   9.60887800
_cell_length_b   9.60873175
_cell_length_c   6.38755700
_cell_angle_alpha   90.00000000
_cell_angle_beta   90.00000000
_cell_angle_gamma   120.00051037
_symmetry_Int_Tables_number   1
_chemical_formula_structural   La5Hf2ThSb10
_chemical_formula_sum   'La5 Hf2 Th1 Sb10'
_cell_volume   510.74242655
_cell_formula_units_Z   1
loop_
 _symmetry_equiv_pos_site_id
 _symmetry_equiv_pos_as_xyz
  1  'x, y, z'
loop_
 _atom_site_type_symbol
 _atom_site_label
 _atom_site_symmetry_multiplicity
 _atom_site_fract_x
 _atom_site_fract_y
 _atom_site_fract_z
 _atom_site_occupancy
  La  La0  1  0.616072  0.615710  0.750000  1
  La  La1  1  0.382382  0.000000  0.750000  1
  La  La2  1  0.382579  0.382486  0.250000  1
  La  La3  1  0.000093  0.617514  0.250000  1
  La  La4  1  0.000362  0.384290  0.750000  1
  Hf  Hf5  1  0.000771  0.000000  0.998504  1
  Hf  Hf6  1  0.000771  0.000000  0.501496  1
  Th  Th7  1  0.617124  0.000000  0.250000  1
  Sb  Sb8  1  0.336249  0.669705  0.497830  1
  Sb  Sb9  1  0.666545  0.330295  0.002170  1
  Sb  Sb10  1  0.666545  0.330295  0.497830  1
  Sb  Sb11  1  0.336249  0.669705  0.002170  1
  Sb  Sb12  1  0.738442  0.000000  0.750000  1
  Sb  Sb13  1  0.739367  0.742499  0.250000  1
  Sb  Sb14  1  0.996869  0.257501  0.250000  1
  Sb  Sb15  1  0.999404  0.740300  0.750000  1
  Sb  Sb16  1  0.261072  0.000000  0.250000  1
  Sb  Sb17  1  0.259103  0.259700  0.750000  1
