# generated using pymatgen
data_Li8Er6Tm2Sn7Sb
_symmetry_space_group_name_H-M   'P 1'
_cell_length_a   9.34928215
_cell_length_b   9.35068317
_cell_length_c   7.16128801
_cell_angle_alpha   90.06818351
_cell_angle_beta   89.93663962
_cell_angle_gamma   119.97460225
_symmetry_Int_Tables_number   1
_chemical_formula_structural   Li8Er6Tm2Sn7Sb
_chemical_formula_sum   'Li8 Er6 Tm2 Sn7 Sb1'
_cell_volume   542.31808442
_cell_formula_units_Z   1
loop_
 _symmetry_equiv_pos_site_id
 _symmetry_equiv_pos_as_xyz
  1  'x, y, z'
loop_
 _atom_site_type_symbol
 _atom_site_label
 _atom_site_symmetry_multiplicity
 _atom_site_fract_x
 _atom_site_fract_y
 _atom_site_fract_z
 _atom_site_occupancy
  Li  Li0  1  0.832274  0.665961  0.712516  1
  Li  Li1  1  0.833296  0.166795  0.713065  1
  Li  Li2  1  0.333633  0.666152  0.821428  1
  Li  Li3  1  0.666738  0.333365  0.321045  1
  Li  Li4  1  0.666393  0.833283  0.212912  1
  Li  Li5  1  0.166662  0.333683  0.212846  1
  Li  Li6  1  0.166732  0.833068  0.212983  1
  Li  Li7  1  0.334016  0.167769  0.712496  1
  Er  Er8  1  0.999019  0.001004  0.002461  1
  Er  Er9  1  0.999152  0.000814  0.499333  1
  Er  Er10  1  0.511276  0.488769  0.006408  1
  Er  Er11  1  0.020860  0.509201  0.504882  1
  Er  Er12  1  0.490790  0.979149  0.504917  1
  Er  Er13  1  0.513408  0.023036  0.008299  1
  Tm  Tm14  1  0.976856  0.486473  0.008365  1
  Tm  Tm15  1  0.488768  0.511219  0.506169  1
  Sn  Sn16  1  0.667074  0.333405  0.740437  1
  Sn  Sn17  1  0.332764  0.666896  0.240668  1
  Sn  Sn18  1  0.833467  0.166891  0.269184  1
  Sn  Sn19  1  0.166434  0.333586  0.769803  1
  Sn  Sn20  1  0.333289  0.166284  0.269997  1
  Sn  Sn21  1  0.833969  0.666671  0.269626  1
  Sn  Sn22  1  0.666584  0.833432  0.769542  1
  Sb  Sb23  1  0.166544  0.833095  0.768618  1
