# generated using pymatgen
data_Nd3Dy(SiTc2)8
_symmetry_space_group_name_H-M   'P 1'
_cell_length_a   4.17279800
_cell_length_b   7.23457609
_cell_length_c   15.43632277
_cell_angle_alpha   90.13562803
_cell_angle_beta   90.00000000
_cell_angle_gamma   90.00000000
_symmetry_Int_Tables_number   1
_chemical_formula_structural   Nd3Dy(SiTc2)8
_chemical_formula_sum   'Nd3 Dy1 Si8 Tc16'
_cell_volume   465.99696087
_cell_formula_units_Z   1
loop_
 _symmetry_equiv_pos_site_id
 _symmetry_equiv_pos_as_xyz
  1  'x, y, z'
loop_
 _atom_site_type_symbol
 _atom_site_label
 _atom_site_symmetry_multiplicity
 _atom_site_fract_x
 _atom_site_fract_y
 _atom_site_fract_z
 _atom_site_occupancy
  Nd  Nd0  1  0.000000  0.418820  0.883898  1
  Nd  Nd1  1  0.500000  0.081513  0.381746  1
  Nd  Nd2  1  0.500000  0.917723  0.617216  1
  Dy  Dy3  1  0.000000  0.583163  0.117144  1
  Si  Si4  1  0.000000  0.824673  0.473908  1
  Si  Si5  1  0.000000  0.174627  0.525073  1
  Si  Si6  1  0.500000  0.330198  0.026037  1
  Si  Si7  1  0.500000  0.673899  0.976677  1
  Si  Si8  1  0.000000  0.296205  0.271092  1
  Si  Si9  1  0.000000  0.703676  0.727317  1
  Si  Si10  1  0.500000  0.791817  0.225052  1
  Si  Si11  1  0.500000  0.203581  0.773780  1
  Tc  Tc12  1  0.000000  0.142425  0.053469  1
  Tc  Tc13  1  0.000000  0.862278  0.949354  1
  Tc  Tc14  1  0.500000  0.638006  0.447057  1
  Tc  Tc15  1  0.500000  0.361718  0.552048  1
  Tc  Tc16  1  0.000000  0.728898  0.318699  1
  Tc  Tc17  1  0.000000  0.269180  0.680218  1
  Tc  Tc18  1  0.500000  0.233187  0.178941  1
  Tc  Tc19  1  0.500000  0.769175  0.821265  1
  Tc  Tc20  1  0.000000  0.434522  0.418455  1
  Tc  Tc21  1  0.000000  0.564847  0.580614  1
  Tc  Tc22  1  0.500000  0.934951  0.081788  1
  Tc  Tc23  1  0.500000  0.065588  0.920348  1
  Tc  Tc24  1  0.000000  0.987791  0.204760  1
  Tc  Tc25  1  0.000000  0.008447  0.795038  1
  Tc  Tc26  1  0.500000  0.490704  0.292770  1
  Tc  Tc27  1  0.500000  0.508388  0.706239  1
