# generated using pymatgen
data_DyHo5Co16(P6Ru)2
_symmetry_space_group_name_H-M   'P 1'
_cell_length_a   3.70145900
_cell_length_b   10.49956200
_cell_length_c   12.22100100
_cell_angle_alpha   90.00000000
_cell_angle_beta   90.00000000
_cell_angle_gamma   90.00000000
_symmetry_Int_Tables_number   1
_chemical_formula_structural   DyHo5Co16(P6Ru)2
_chemical_formula_sum   'Dy1 Ho5 Co16 P12 Ru2'
_cell_volume   474.95329531
_cell_formula_units_Z   1
loop_
 _symmetry_equiv_pos_site_id
 _symmetry_equiv_pos_as_xyz
  1  'x, y, z'
loop_
 _atom_site_type_symbol
 _atom_site_label
 _atom_site_symmetry_multiplicity
 _atom_site_fract_x
 _atom_site_fract_y
 _atom_site_fract_z
 _atom_site_occupancy
  Dy  Dy0  1  0.500000  0.000000  0.475520  1
  Ho  Ho1  1  0.000000  0.500000  0.524211  1
  Ho  Ho2  1  0.500000  0.817119  0.206841  1
  Ho  Ho3  1  0.500000  0.182881  0.206841  1
  Ho  Ho4  1  0.000000  0.682764  0.793162  1
  Ho  Ho5  1  0.000000  0.317236  0.793162  1
  Co  Co6  1  0.500000  0.500000  0.703925  1
  Co  Co7  1  0.000000  0.000000  0.295787  1
  Co  Co8  1  0.000000  0.500000  0.986189  1
  Co  Co9  1  0.500000  0.000000  0.013797  1
  Co  Co10  1  0.500000  0.332505  0.990610  1
  Co  Co11  1  0.500000  0.667495  0.990610  1
  Co  Co12  1  0.000000  0.167435  0.009429  1
  Co  Co13  1  0.000000  0.832565  0.009429  1
  Co  Co14  1  0.500000  0.297471  0.431059  1
  Co  Co15  1  0.500000  0.702529  0.431059  1
  Co  Co16  1  0.000000  0.202940  0.568933  1
  Co  Co17  1  0.000000  0.797060  0.568933  1
  Co  Co18  1  0.500000  0.878901  0.708032  1
  Co  Co19  1  0.500000  0.121099  0.708032  1
  Co  Co20  1  0.000000  0.620925  0.292067  1
  Co  Co21  1  0.000000  0.379075  0.292067  1
  P  P22  1  0.500000  0.500000  0.881570  1
  P  P23  1  0.000000  0.000000  0.118318  1
  P  P24  1  0.500000  0.500000  0.350281  1
  P  P25  1  0.000000  0.000000  0.650025  1
  P  P26  1  0.500000  0.311887  0.616290  1
  P  P27  1  0.500000  0.688113  0.616290  1
  P  P28  1  0.000000  0.188476  0.383596  1
  P  P29  1  0.000000  0.811524  0.383596  1
  P  P30  1  0.500000  0.846321  0.893328  1
  P  P31  1  0.500000  0.153679  0.893328  1
  P  P32  1  0.000000  0.653661  0.106734  1
  P  P33  1  0.000000  0.346339  0.106734  1
  Ru  Ru34  1  0.500000  0.500000  0.159411  1
  Ru  Ru35  1  0.000000  0.000000  0.840800  1
