# generated using pymatgen
data_Zr8Fe9Ni7P12
_symmetry_space_group_name_H-M   'P 1'
_cell_length_a   12.22812300
_cell_length_b   12.22812348
_cell_length_c   3.74242100
_cell_angle_alpha   90.00000000
_cell_angle_beta   90.00000000
_cell_angle_gamma   119.99999600
_symmetry_Int_Tables_number   1
_chemical_formula_structural   Zr8Fe9Ni7P12
_chemical_formula_sum   'Zr8 Fe9 Ni7 P12'
_cell_volume   484.62175359
_cell_formula_units_Z   1
loop_
 _symmetry_equiv_pos_site_id
 _symmetry_equiv_pos_as_xyz
  1  'x, y, z'
loop_
 _atom_site_type_symbol
 _atom_site_label
 _atom_site_symmetry_multiplicity
 _atom_site_fract_x
 _atom_site_fract_y
 _atom_site_fract_z
 _atom_site_occupancy
  Zr  Zr0  1  0.000000  0.174115  0.500000  1
  Zr  Zr1  1  0.825885  0.825885  0.500000  1
  Zr  Zr2  1  0.174115  0.000000  0.500000  1
  Zr  Zr3  1  0.666667  0.333333  0.000000  1
  Zr  Zr4  1  0.333333  0.666667  0.000000  1
  Zr  Zr5  1  0.000000  0.555211  0.000000  1
  Zr  Zr6  1  0.444789  0.444789  0.000000  1
  Zr  Zr7  1  0.555211  0.000000  0.000000  1
  Fe  Fe8  1  0.000000  0.721602  0.500000  1
  Fe  Fe9  1  0.278398  0.278398  0.500000  1
  Fe  Fe10  1  0.721602  0.000000  0.500000  1
  Fe  Fe11  1  0.805692  0.181990  0.000000  1
  Fe  Fe12  1  0.818010  0.623704  0.000000  1
  Fe  Fe13  1  0.376296  0.194308  0.000000  1
  Fe  Fe14  1  0.181990  0.805692  0.000000  1
  Fe  Fe15  1  0.623704  0.818010  0.000000  1
  Fe  Fe16  1  0.194308  0.376296  0.000000  1
  Ni  Ni17  1  0.874519  0.356445  0.500000  1
  Ni  Ni18  1  0.643555  0.518073  0.500000  1
  Ni  Ni19  1  0.481927  0.125481  0.500000  1
  Ni  Ni20  1  0.356445  0.874519  0.500000  1
  Ni  Ni21  1  0.518073  0.643555  0.500000  1
  Ni  Ni22  1  0.125481  0.481927  0.500000  1
  Ni  Ni23  1  0.000000  0.000000  0.000000  1
  P  P24  1  0.000000  0.819816  0.000000  1
  P  P25  1  0.180184  0.180184  0.000000  1
  P  P26  1  0.819816  0.000000  0.000000  1
  P  P27  1  0.696633  0.170961  0.500000  1
  P  P28  1  0.829039  0.525672  0.500000  1
  P  P29  1  0.474328  0.303367  0.500000  1
  P  P30  1  0.170961  0.696633  0.500000  1
  P  P31  1  0.525672  0.829039  0.500000  1
  P  P32  1  0.303367  0.474328  0.500000  1
  P  P33  1  0.000000  0.340493  0.000000  1
  P  P34  1  0.659507  0.659507  0.000000  1
  P  P35  1  0.340493  0.000000  0.000000  1
