# generated using pymatgen
data_La2Mg(InIr6)3
_symmetry_space_group_name_H-M   'P 1'
_cell_length_a   8.93996329
_cell_length_b   8.93996329
_cell_length_c   5.19185700
_cell_angle_alpha   90.00000000
_cell_angle_beta   90.00000000
_cell_angle_gamma   89.97101873
_symmetry_Int_Tables_number   1
_chemical_formula_structural   La2Mg(InIr6)3
_chemical_formula_sum   'La2 Mg1 In3 Ir18'
_cell_volume   414.94844087
_cell_formula_units_Z   1
loop_
 _symmetry_equiv_pos_site_id
 _symmetry_equiv_pos_as_xyz
  1  'x, y, z'
loop_
 _atom_site_type_symbol
 _atom_site_label
 _atom_site_symmetry_multiplicity
 _atom_site_fract_x
 _atom_site_fract_y
 _atom_site_fract_z
 _atom_site_occupancy
  La  La0  1  0.499991  0.499689  0.000000  1
  La  La1  1  0.999689  0.999991  0.000000  1
  Mg  Mg2  1  0.619523  0.119523  0.000000  1
  In  In3  1  0.382095  0.882095  0.000000  1
  In  In4  1  0.120808  0.379244  0.000000  1
  In  In5  1  0.879244  0.620808  0.000000  1
  Ir  Ir6  1  0.499840  0.999840  0.500000  1
  Ir  Ir7  1  0.000167  0.500167  0.500000  1
  Ir  Ir8  1  0.703581  0.556985  0.500000  1
  Ir  Ir9  1  0.297129  0.441742  0.500000  1
  Ir  Ir10  1  0.203553  0.942616  0.500000  1
  Ir  Ir11  1  0.793058  0.059308  0.500000  1
  Ir  Ir12  1  0.442616  0.703553  0.500000  1
  Ir  Ir13  1  0.559308  0.293058  0.500000  1
  Ir  Ir14  1  0.056985  0.203581  0.500000  1
  Ir  Ir15  1  0.941742  0.797129  0.500000  1
  Ir  Ir16  1  0.819064  0.319064  0.758615  1
  Ir  Ir17  1  0.180414  0.680414  0.757035  1
  Ir  Ir18  1  0.320957  0.179900  0.757668  1
  Ir  Ir19  1  0.679900  0.820957  0.757668  1
  Ir  Ir20  1  0.180414  0.680414  0.242965  1
  Ir  Ir21  1  0.819064  0.319064  0.241385  1
  Ir  Ir22  1  0.679900  0.820957  0.242332  1
  Ir  Ir23  1  0.320957  0.179900  0.242332  1
