# generated using pymatgen
data_RbBaSb(AsSe3)2
_symmetry_space_group_name_H-M   'P 1'
_cell_length_a   26.29786000
_cell_length_b   6.45825857
_cell_length_c   9.14411986
_cell_angle_alpha   66.18956516
_cell_angle_beta   90.00000000
_cell_angle_gamma   90.00000000
_symmetry_Int_Tables_number   1
_chemical_formula_structural   RbBaSb(AsSe3)2
_chemical_formula_sum   'Rb4 Ba4 Sb4 As8 Se24'
_cell_volume   1420.83878965
_cell_formula_units_Z   4
loop_
 _symmetry_equiv_pos_site_id
 _symmetry_equiv_pos_as_xyz
  1  'x, y, z'
loop_
 _atom_site_type_symbol
 _atom_site_label
 _atom_site_symmetry_multiplicity
 _atom_site_fract_x
 _atom_site_fract_y
 _atom_site_fract_z
 _atom_site_occupancy
  Rb  Rb0  1  0.937793  0.756724  0.095701  1
  Rb  Rb1  1  0.062207  0.243276  0.904299  1
  Rb  Rb2  1  0.437793  0.243276  0.404299  1
  Rb  Rb3  1  0.562207  0.756724  0.595701  1
  Ba  Ba4  1  0.747262  0.826862  0.065743  1
  Ba  Ba5  1  0.252738  0.173138  0.934257  1
  Ba  Ba6  1  0.247262  0.173138  0.434257  1
  Ba  Ba7  1  0.752738  0.826862  0.565743  1
  Sb  Sb8  1  0.570940  0.957614  0.036435  1
  Sb  Sb9  1  0.429060  0.042386  0.963565  1
  Sb  Sb10  1  0.070940  0.042386  0.463565  1
  Sb  Sb11  1  0.929060  0.957614  0.536435  1
  As  As12  1  0.652753  0.335555  0.189761  1
  As  As13  1  0.347247  0.664445  0.810239  1
  As  As14  1  0.152753  0.664445  0.310239  1
  As  As15  1  0.847247  0.335555  0.689761  1
  As  As16  1  0.835741  0.342750  0.093522  1
  As  As17  1  0.164259  0.657250  0.906478  1
  As  As18  1  0.335741  0.657250  0.406478  1
  As  As19  1  0.664259  0.342750  0.593522  1
  Se  Se20  1  0.488168  0.871780  0.225501  1
  Se  Se21  1  0.511832  0.128220  0.774499  1
  Se  Se22  1  0.988168  0.128220  0.274499  1
  Se  Se23  1  0.011832  0.871780  0.725501  1
  Se  Se24  1  0.659588  0.932575  0.289356  1
  Se  Se25  1  0.340412  0.067425  0.710644  1
  Se  Se26  1  0.159588  0.067425  0.210644  1
  Se  Se27  1  0.840412  0.932575  0.789356  1
  Se  Se28  1  0.838387  0.948732  0.270730  1
  Se  Se29  1  0.161613  0.051268  0.729270  1
  Se  Se30  1  0.338387  0.051268  0.229270  1
  Se  Se31  1  0.661613  0.948732  0.770730  1
  Se  Se32  1  0.741683  0.388029  0.439661  1
  Se  Se33  1  0.258317  0.611971  0.560339  1
  Se  Se34  1  0.241683  0.611971  0.060339  1
  Se  Se35  1  0.758317  0.388029  0.939661  1
  Se  Se36  1  0.415264  0.619113  0.005111  1
  Se  Se37  1  0.584736  0.380887  0.994889  1
  Se  Se38  1  0.915264  0.380887  0.494889  1
  Se  Se39  1  0.084736  0.619113  0.505111  1
  Se  Se40  1  0.596349  0.364380  0.397247  1
  Se  Se41  1  0.403651  0.635620  0.602753  1
  Se  Se42  1  0.096349  0.635620  0.102753  1
  Se  Se43  1  0.903651  0.364380  0.897247  1
