# generated using pymatgen
data_Ho2UAl12Ru3Pt
_symmetry_space_group_name_H-M   'P 1'
_cell_length_a   8.81144238
_cell_length_b   8.81584392
_cell_length_c   9.48542271
_cell_angle_alpha   89.87902161
_cell_angle_beta   90.29995741
_cell_angle_gamma   119.68587588
_symmetry_Int_Tables_number   1
_chemical_formula_structural   Ho2UAl12Ru3Pt
_chemical_formula_sum   'Ho4 U2 Al24 Ru6 Pt2'
_cell_volume   640.11528780
_cell_formula_units_Z   2
loop_
 _symmetry_equiv_pos_site_id
 _symmetry_equiv_pos_as_xyz
  1  'x, y, z'
loop_
 _atom_site_type_symbol
 _atom_site_label
 _atom_site_symmetry_multiplicity
 _atom_site_fract_x
 _atom_site_fract_y
 _atom_site_fract_z
 _atom_site_occupancy
  Ho  Ho0  1  0.611258  0.804900  0.250354  1
  Ho  Ho1  1  0.388742  0.195100  0.749646  1
  Ho  Ho2  1  0.192387  0.803860  0.251365  1
  Ho  Ho3  1  0.807613  0.196140  0.748635  1
  U  U4  1  0.189953  0.388428  0.256458  1
  U  U5  1  0.810047  0.611572  0.743542  1
  Al  Al6  1  0.328499  0.664628  0.029933  1
  Al  Al7  1  0.671501  0.335372  0.970067  1
  Al  Al8  1  0.664712  0.330184  0.525146  1
  Al  Al9  1  0.335288  0.669816  0.474854  1
  Al  Al10  1  0.163275  0.325260  0.576752  1
  Al  Al11  1  0.836725  0.674740  0.423248  1
  Al  Al12  1  0.675366  0.838297  0.576463  1
  Al  Al13  1  0.841402  0.675761  0.075222  1
  Al  Al14  1  0.324634  0.161703  0.423537  1
  Al  Al15  1  0.158598  0.324239  0.924778  1
  Al  Al16  1  0.165001  0.838530  0.578464  1
  Al  Al17  1  0.321666  0.162203  0.081016  1
  Al  Al18  1  0.834999  0.161470  0.421536  1
  Al  Al19  1  0.678334  0.837797  0.918984  1
  Al  Al20  1  0.842165  0.166342  0.081045  1
  Al  Al21  1  0.157835  0.833658  0.918955  1
  Al  Al22  1  0.561247  0.124412  0.253175  1
  Al  Al23  1  0.438753  0.875588  0.746825  1
  Al  Al24  1  0.873740  0.439131  0.249143  1
  Al  Al25  1  0.126260  0.560869  0.750857  1
  Al  Al26  1  0.561525  0.436898  0.252414  1
  Al  Al27  1  0.438475  0.563102  0.747586  1
  Al  Al28  1  0.000205  0.003774  0.250381  1
  Al  Al29  1  0.999795  0.996226  0.749619  1
  Ru  Ru30  1  0.000000  0.500000  0.000000  1
  Ru  Ru31  1  0.500000  0.000000  0.500000  1
  Ru  Ru32  1  0.000000  0.500000  0.500000  1
  Ru  Ru33  1  0.500000  0.500000  0.500000  1
  Ru  Ru34  1  0.000000  0.000000  0.000000  1
  Ru  Ru35  1  0.000000  0.000000  0.500000  1
  Pt  Pt36  1  0.500000  0.000000  0.000000  1
  Pt  Pt37  1  0.500000  0.500000  0.000000  1
