# generated using pymatgen
data_Ta3Al2FeC
_symmetry_space_group_name_H-M   'P 1'
_cell_length_a   8.20720652
_cell_length_b   8.20638223
_cell_length_c   8.20736103
_cell_angle_alpha   60.00675723
_cell_angle_beta   60.00229219
_cell_angle_gamma   60.00649242
_symmetry_Int_Tables_number   1
_chemical_formula_structural   Ta3Al2FeC
_chemical_formula_sum   'Ta12 Al8 Fe4 C4'
_cell_volume   390.91888205
_cell_formula_units_Z   4
loop_
 _symmetry_equiv_pos_site_id
 _symmetry_equiv_pos_as_xyz
  1  'x, y, z'
loop_
 _atom_site_type_symbol
 _atom_site_label
 _atom_site_symmetry_multiplicity
 _atom_site_fract_x
 _atom_site_fract_y
 _atom_site_fract_z
 _atom_site_occupancy
  Ta  Ta0  1  0.556765  0.943227  0.556721  1
  Ta  Ta1  1  0.306979  0.692995  0.693059  1
  Ta  Ta2  1  0.693132  0.306905  0.306859  1
  Ta  Ta3  1  0.306884  0.693120  0.306885  1
  Ta  Ta4  1  0.693011  0.692995  0.307004  1
  Ta  Ta5  1  0.306950  0.306998  0.693064  1
  Ta  Ta6  1  0.556990  0.557006  0.942994  1
  Ta  Ta7  1  0.943021  0.557006  0.556941  1
  Ta  Ta8  1  0.556868  0.943095  0.943141  1
  Ta  Ta9  1  0.943050  0.943002  0.556936  1
  Ta  Ta10  1  0.693233  0.306772  0.693282  1
  Ta  Ta11  1  0.943117  0.556880  0.943114  1
  Al  Al12  1  0.918242  0.918134  0.918232  1
  Al  Al13  1  0.004573  0.331833  0.331843  1
  Al  Al14  1  0.331771  0.004608  0.331816  1
  Al  Al15  1  0.331820  0.331859  0.004575  1
  Al  Al16  1  0.918229  0.245391  0.918186  1
  Al  Al17  1  0.918177  0.918143  0.245425  1
  Al  Al18  1  0.245428  0.918165  0.918161  1
  Al  Al19  1  0.331761  0.331864  0.331768  1
  Fe  Fe20  1  0.124999  0.125001  0.125000  1
  Fe  Fe21  1  0.625000  0.125001  0.125000  1
  Fe  Fe22  1  0.124998  0.625000  0.125000  1
  Fe  Fe23  1  0.125003  0.124999  0.624999  1
  C  C24  1  0.624999  0.625001  0.624999  1
  C  C25  1  0.125000  0.625000  0.625001  1
  C  C26  1  0.624999  0.125001  0.624998  1
  C  C27  1  0.625002  0.625000  0.124999  1
