# generated using pymatgen
data_NdTmFe5Co3B8
_symmetry_space_group_name_H-M   'P 1'
_cell_length_a   6.97216963
_cell_length_b   6.98974048
_cell_length_c   3.80565836
_cell_angle_alpha   90.05189812
_cell_angle_beta   89.94204844
_cell_angle_gamma   89.97451205
_symmetry_Int_Tables_number   1
_chemical_formula_structural   NdTmFe5Co3B8
_chemical_formula_sum   'Nd1 Tm1 Fe5 Co3 B8'
_cell_volume   185.46345698
_cell_formula_units_Z   1
loop_
 _symmetry_equiv_pos_site_id
 _symmetry_equiv_pos_as_xyz
  1  'x, y, z'
loop_
 _atom_site_type_symbol
 _atom_site_label
 _atom_site_symmetry_multiplicity
 _atom_site_fract_x
 _atom_site_fract_y
 _atom_site_fract_z
 _atom_site_occupancy
  Nd  Nd0  1  0.501277  0.501080  0.497911  1
  Tm  Tm1  1  0.000099  0.999044  0.998865  1
  Fe  Fe2  1  0.113584  0.634798  0.391458  1
  Fe  Fe3  1  0.365049  0.113724  0.606751  1
  Fe  Fe4  1  0.635743  0.887145  0.607264  1
  Fe  Fe5  1  0.616362  0.131259  0.107723  1
  Fe  Fe6  1  0.384200  0.869848  0.106650  1
  Co  Co7  1  0.132987  0.381376  0.891510  1
  Co  Co8  1  0.864695  0.615362  0.891400  1
  Co  Co9  1  0.886345  0.360720  0.391734  1
  B  B10  1  0.667441  0.805915  0.105664  1
  B  B11  1  0.331588  0.192243  0.105488  1
  B  B12  1  0.293297  0.836361  0.605974  1
  B  B13  1  0.703094  0.162518  0.608389  1
  B  B14  1  0.841574  0.712204  0.395056  1
  B  B15  1  0.164081  0.295146  0.394462  1
  B  B16  1  0.196999  0.669079  0.895756  1
  B  B17  1  0.801586  0.332176  0.897945  1
