# generated using pymatgen
data_Tb4(Al8Ni3)3
_symmetry_space_group_name_H-M   'P 1'
_cell_length_a   7.30746197
_cell_length_b   7.33843614
_cell_length_c   12.77456727
_cell_angle_alpha   84.55871636
_cell_angle_beta   79.07220733
_cell_angle_gamma   59.96354932
_symmetry_Int_Tables_number   1
_chemical_formula_structural   Tb4(Al8Ni3)3
_chemical_formula_sum   'Tb4 Al24 Ni9'
_cell_volume   582.29074012
_cell_formula_units_Z   1
loop_
 _symmetry_equiv_pos_site_id
 _symmetry_equiv_pos_as_xyz
  1  'x, y, z'
loop_
 _atom_site_type_symbol
 _atom_site_label
 _atom_site_symmetry_multiplicity
 _atom_site_fract_x
 _atom_site_fract_y
 _atom_site_fract_z
 _atom_site_occupancy
  Tb  Tb0  1  0.394386  0.168459  0.805012  1
  Tb  Tb1  1  0.605614  0.831541  0.194988  1
  Tb  Tb2  1  0.734879  0.498023  0.805118  1
  Tb  Tb3  1  0.265121  0.501977  0.194882  1
  Al  Al4  1  0.681065  0.833613  0.948471  1
  Al  Al5  1  0.318935  0.166387  0.051529  1
  Al  Al6  1  0.146118  0.833396  0.559625  1
  Al  Al7  1  0.853882  0.166604  0.440375  1
  Al  Al8  1  0.480770  0.166793  0.557208  1
  Al  Al9  1  0.519230  0.833207  0.442792  1
  Al  Al10  1  0.214097  0.165423  0.337263  1
  Al  Al11  1  0.785903  0.834577  0.662737  1
  Al  Al12  1  0.439241  0.506919  0.662818  1
  Al  Al13  1  0.560759  0.493081  0.337182  1
  Al  Al14  1  0.111831  0.159088  0.661667  1
  Al  Al15  1  0.888169  0.840912  0.338333  1
  Al  Al16  1  0.353453  0.497268  0.948504  1
  Al  Al17  1  0.646547  0.502732  0.051496  1
  Al  Al18  1  0.012889  0.169065  0.961242  1
  Al  Al19  1  0.987111  0.830935  0.038758  1
  Al  Al20  1  0.186074  0.499744  0.442730  1
  Al  Al21  1  0.813926  0.500256  0.557270  1
  Al  Al22  1  0.729498  0.164208  0.184795  1
  Al  Al23  1  0.270502  0.835792  0.815205  1
  Al  Al24  1  0.062011  0.627016  0.814004  1
  Al  Al25  1  0.937989  0.372984  0.185996  1
  Al  Al26  1  0.852017  0.045363  0.815372  1
  Al  Al27  1  0.147983  0.954637  0.184629  1
  Ni  Ni28  1  0.120022  0.493135  0.637470  1
  Ni  Ni29  1  0.879978  0.506865  0.362530  1
  Ni  Ni30  1  0.658927  0.170491  0.000112  1
  Ni  Ni31  1  0.341073  0.829509  0.999888  1
  Ni  Ni32  1  0.538287  0.166862  0.362608  1
  Ni  Ni33  1  0.461713  0.833138  0.637392  1
  Ni  Ni34  1  0.778983  0.174226  0.637453  1
  Ni  Ni35  1  0.221017  0.825774  0.362547  1
  Ni  Ni36  1  0.000000  0.500000  0.000000  1
