# generated using pymatgen
data_Sm6Cd21PPd2
_symmetry_space_group_name_H-M   'P 1'
_cell_length_a   9.92814954
_cell_length_b   9.93144823
_cell_length_c   9.93144900
_cell_angle_alpha   60.21516461
_cell_angle_beta   60.01099318
_cell_angle_gamma   60.01098618
_symmetry_Int_Tables_number   1
_chemical_formula_structural   Sm6Cd21PPd2
_chemical_formula_sum   'Sm6 Cd21 P1 Pd2'
_cell_volume   693.66870792
_cell_formula_units_Z   1
loop_
 _symmetry_equiv_pos_site_id
 _symmetry_equiv_pos_as_xyz
  1  'x, y, z'
loop_
 _atom_site_type_symbol
 _atom_site_label
 _atom_site_symmetry_multiplicity
 _atom_site_fract_x
 _atom_site_fract_y
 _atom_site_fract_z
 _atom_site_occupancy
  Sm  Sm0  1  0.797121  0.798299  0.201701  1
  Sm  Sm1  1  0.202879  0.798299  0.201701  1
  Sm  Sm2  1  0.796486  0.203514  0.203514  1
  Sm  Sm3  1  0.202879  0.201701  0.798299  1
  Sm  Sm4  1  0.797121  0.201701  0.798299  1
  Sm  Sm5  1  0.203514  0.796486  0.796486  1
  Cd  Cd6  1  0.836931  0.824121  0.502018  1
  Cd  Cd7  1  0.836931  0.502018  0.824121  1
  Cd  Cd8  1  0.501111  0.832904  0.832904  1
  Cd  Cd9  1  0.833078  0.832904  0.832904  1
  Cd  Cd10  1  0.163069  0.175879  0.497982  1
  Cd  Cd11  1  0.163069  0.497982  0.175879  1
  Cd  Cd12  1  0.498889  0.167096  0.167096  1
  Cd  Cd13  1  0.166922  0.167096  0.167096  1
  Cd  Cd14  1  0.617087  0.614477  0.151350  1
  Cd  Cd15  1  0.617087  0.151350  0.614477  1
  Cd  Cd16  1  0.149911  0.611804  0.611804  1
  Cd  Cd17  1  0.626483  0.611804  0.611804  1
  Cd  Cd18  1  0.382913  0.385523  0.848650  1
  Cd  Cd19  1  0.382913  0.848650  0.385523  1
  Cd  Cd20  1  0.850089  0.388196  0.388196  1
  Cd  Cd21  1  0.373517  0.388196  0.388196  1
  Cd  Cd22  1  0.000000  0.000000  0.500000  1
  Cd  Cd23  1  0.500000  0.000000  0.500000  1
  Cd  Cd24  1  0.500000  0.500000  0.000000  1
  Cd  Cd25  1  0.000000  0.500000  0.000000  1
  Cd  Cd26  1  0.500000  0.000000  0.000000  1
  P  P27  1  0.000000  0.000000  0.000000  1
  Pd  Pd28  1  0.000000  0.500000  0.500000  1
  Pd  Pd29  1  0.500000  0.500000  0.500000  1
