# generated using pymatgen
data_Y4AgHgPd4
_symmetry_space_group_name_H-M   'P 1'
_cell_length_a   7.71139200
_cell_length_b   7.71139200
_cell_length_c   3.73803500
_cell_angle_alpha   90.00000000
_cell_angle_beta   90.00000000
_cell_angle_gamma   90.00000000
_symmetry_Int_Tables_number   1
_chemical_formula_structural   Y4AgHgPd4
_chemical_formula_sum   'Y4 Ag1 Hg1 Pd4'
_cell_volume   222.28436916
_cell_formula_units_Z   1
loop_
 _symmetry_equiv_pos_site_id
 _symmetry_equiv_pos_as_xyz
  1  'x, y, z'
loop_
 _atom_site_type_symbol
 _atom_site_label
 _atom_site_symmetry_multiplicity
 _atom_site_fract_x
 _atom_site_fract_y
 _atom_site_fract_z
 _atom_site_occupancy
  Y  Y0  1  0.677778  0.169071  0.500000  1
  Y  Y1  1  0.322222  0.830929  0.500000  1
  Y  Y2  1  0.169071  0.322222  0.500000  1
  Y  Y3  1  0.830929  0.677778  0.500000  1
  Ag  Ag4  1  0.500000  0.500000  0.000000  1
  Hg  Hg5  1  0.000000  0.000000  0.000000  1
  Pd  Pd6  1  0.135596  0.619515  0.000000  1
  Pd  Pd7  1  0.864404  0.380485  0.000000  1
  Pd  Pd8  1  0.619515  0.864404  0.000000  1
  Pd  Pd9  1  0.380485  0.135596  0.000000  1
