# generated using pymatgen
data_ErTm4Co(P2Ru3)6
_symmetry_space_group_name_H-M   'P 1'
_cell_length_a   12.46454201
_cell_length_b   12.46454146
_cell_length_c   3.95828400
_cell_angle_alpha   90.00000000
_cell_angle_beta   90.00000000
_cell_angle_gamma   120.00553937
_symmetry_Int_Tables_number   1
_chemical_formula_structural   ErTm4Co(P2Ru3)6
_chemical_formula_sum   'Er1 Tm4 Co1 P12 Ru18'
_cell_volume   532.55684433
_cell_formula_units_Z   1
loop_
 _symmetry_equiv_pos_site_id
 _symmetry_equiv_pos_as_xyz
  1  'x, y, z'
loop_
 _atom_site_type_symbol
 _atom_site_label
 _atom_site_symmetry_multiplicity
 _atom_site_fract_x
 _atom_site_fract_y
 _atom_site_fract_z
 _atom_site_occupancy
  Er  Er0  1  0.182480  0.182480  0.500000  1
  Tm  Tm1  1  0.666661  0.333332  0.000000  1
  Tm  Tm2  1  0.333332  0.666661  0.000000  1
  Tm  Tm3  1  0.817552  0.000000  0.500000  1
  Tm  Tm4  1  0.000000  0.817552  0.500000  1
  Co  Co5  1  0.999946  0.999946  0.000000  1
  P  P6  1  0.372174  0.372174  0.000000  1
  P  P7  1  0.627846  0.000002  0.000000  1
  P  P8  1  0.000002  0.627846  0.000000  1
  P  P9  1  0.830536  0.307177  0.500000  1
  P  P10  1  0.692817  0.523359  0.500000  1
  P  P11  1  0.476630  0.169463  0.500000  1
  P  P12  1  0.307177  0.830536  0.500000  1
  P  P13  1  0.523359  0.692817  0.500000  1
  P  P14  1  0.169463  0.476630  0.500000  1
  P  P15  1  0.823885  0.823885  0.000000  1
  P  P16  1  0.176123  0.999965  0.000000  1
  P  P17  1  0.999965  0.176123  0.000000  1
  Ru  Ru18  1  0.815892  0.190299  0.000000  1
  Ru  Ru19  1  0.809693  0.625588  0.000000  1
  Ru  Ru20  1  0.374471  0.184091  0.000000  1
  Ru  Ru21  1  0.190299  0.815892  0.000000  1
  Ru  Ru22  1  0.625588  0.809693  0.000000  1
  Ru  Ru23  1  0.184091  0.374471  0.000000  1
  Ru  Ru24  1  0.555974  0.555974  0.000000  1
  Ru  Ru25  1  0.444029  0.999998  0.000000  1
  Ru  Ru26  1  0.999998  0.444029  0.000000  1
  Ru  Ru27  1  0.635195  0.126795  0.500000  1
  Ru  Ru28  1  0.873206  0.508405  0.500000  1
  Ru  Ru29  1  0.491623  0.364817  0.500000  1
  Ru  Ru30  1  0.126795  0.635195  0.500000  1
  Ru  Ru31  1  0.508405  0.873206  0.500000  1
  Ru  Ru32  1  0.364817  0.491623  0.500000  1
  Ru  Ru33  1  0.721582  0.721582  0.500000  1
  Ru  Ru34  1  0.278435  0.999962  0.500000  1
  Ru  Ru35  1  0.999962  0.278435  0.500000  1
