# generated using pymatgen
data_Ce4Pr15ThRh16
_symmetry_space_group_name_H-M   'P 1'
_cell_length_a   7.62353437
_cell_length_b   7.67851958
_cell_length_c   14.96899500
_cell_angle_alpha   90.31956929
_cell_angle_beta   90.23176058
_cell_angle_gamma   89.59022445
_symmetry_Int_Tables_number   1
_chemical_formula_structural   Ce4Pr15ThRh16
_chemical_formula_sum   'Ce4 Pr15 Th1 Rh16'
_cell_volume   876.20384774
_cell_formula_units_Z   1
loop_
 _symmetry_equiv_pos_site_id
 _symmetry_equiv_pos_as_xyz
  1  'x, y, z'
loop_
 _atom_site_type_symbol
 _atom_site_label
 _atom_site_symmetry_multiplicity
 _atom_site_fract_x
 _atom_site_fract_y
 _atom_site_fract_z
 _atom_site_occupancy
  Ce  Ce0  1  0.663107  0.339826  0.121396  1
  Ce  Ce1  1  0.165046  0.161471  0.120751  1
  Ce  Ce2  1  0.664449  0.339478  0.376663  1
  Ce  Ce3  1  0.316634  0.514956  0.248747  1
  Pr  Pr4  1  0.012828  0.678578  0.094364  1
  Pr  Pr5  1  0.834443  0.834212  0.621101  1
  Pr  Pr6  1  0.984458  0.315275  0.592623  1
  Pr  Pr7  1  0.179538  0.012957  0.750198  1
  Pr  Pr8  1  0.512682  0.817193  0.406384  1
  Pr  Pr9  1  0.482665  0.180842  0.590273  1
  Pr  Pr10  1  0.165766  0.164225  0.375971  1
  Pr  Pr11  1  0.336605  0.664256  0.881700  1
  Pr  Pr12  1  0.671297  0.484236  0.749293  1
  Pr  Pr13  1  0.333499  0.664175  0.621174  1
  Pr  Pr14  1  0.014320  0.681418  0.407048  1
  Pr  Pr15  1  0.487154  0.181096  0.908313  1
  Pr  Pr16  1  0.823287  0.985235  0.249543  1
  Pr  Pr17  1  0.510747  0.819076  0.093063  1
  Pr  Pr18  1  0.986668  0.320487  0.907350  1
  Th  Th19  1  0.836316  0.836766  0.880036  1
  Rh  Rh20  1  0.032919  0.615984  0.758269  1
  Rh  Rh21  1  0.808995  0.052446  0.455036  1
  Rh  Rh22  1  0.464240  0.133196  0.242232  1
  Rh  Rh23  1  0.170534  0.972507  0.966502  1
  Rh  Rh24  1  0.682221  0.618752  0.249363  1
  Rh  Rh25  1  0.297060  0.362728  0.750318  1
  Rh  Rh26  1  0.966205  0.381916  0.241455  1
  Rh  Rh27  1  0.684019  0.525045  0.530693  1
  Rh  Rh28  1  0.329928  0.452056  0.050095  1
  Rh  Rh29  1  0.334560  0.468435  0.449396  1
  Rh  Rh30  1  0.547478  0.885255  0.758107  1
  Rh  Rh31  1  0.685918  0.538741  0.966698  1
  Rh  Rh32  1  0.819241  0.042192  0.041919  1
  Rh  Rh33  1  0.805655  0.134716  0.756196  1
  Rh  Rh34  1  0.169534  0.968119  0.541207  1
  Rh  Rh35  1  0.219981  0.852147  0.246526  1
