# generated using pymatgen
data_LiTi2(AsRu)3
_symmetry_space_group_name_H-M   'P 1'
_cell_length_a   7.48178926
_cell_length_b   7.48178864
_cell_length_c   7.48178937
_cell_angle_alpha   128.03077719
_cell_angle_beta   121.41884571
_cell_angle_gamma   82.10401979
_symmetry_Int_Tables_number   1
_chemical_formula_structural   LiTi2(AsRu)3
_chemical_formula_sum   'Li2 Ti4 As6 Ru6'
_cell_volume   270.79275684
_cell_formula_units_Z   2
loop_
 _symmetry_equiv_pos_site_id
 _symmetry_equiv_pos_as_xyz
  1  'x, y, z'
loop_
 _atom_site_type_symbol
 _atom_site_label
 _atom_site_symmetry_multiplicity
 _atom_site_fract_x
 _atom_site_fract_y
 _atom_site_fract_z
 _atom_site_occupancy
  Li  Li0  1  0.478855  0.237425  0.258569  1
  Li  Li1  1  0.521145  0.779714  0.758569  1
  Ti  Ti2  1  0.749831  0.669049  0.419217  1
  Ti  Ti3  1  0.250169  0.669386  0.919217  1
  Ti  Ti4  1  0.053879  0.849165  0.295286  1
  Ti  Ti5  1  0.946121  0.241407  0.795286  1
  As  As6  1  0.831244  0.578025  0.747524  1
  As  As7  1  0.168756  0.916280  0.746781  1
  As  As8  1  0.669498  0.916280  0.247524  1
  As  As9  1  0.330502  0.578025  0.246781  1
  As  As10  1  0.292586  0.298242  0.505656  1
  As  As11  1  0.707414  0.213070  0.005656  1
  Ru  Ru12  1  0.667392  0.495499  0.919235  1
  Ru  Ru13  1  0.332608  0.251842  0.828107  1
  Ru  Ru14  1  0.923736  0.251842  0.419235  1
  Ru  Ru15  1  0.076264  0.495499  0.328107  1
  Ru  Ru16  1  0.000000  0.999824  0.999824  1
  Ru  Ru17  1  0.500000  0.999824  0.499824  1
