# generated using pymatgen
data_HoEr4Tm3(ReB6)4
_symmetry_space_group_name_H-M   'P 1'
_cell_length_a   3.65240200
_cell_length_b   9.12000501
_cell_length_c   11.49331300
_cell_angle_alpha   90.00136450
_cell_angle_beta   90.00000000
_cell_angle_gamma   90.00000000
_symmetry_Int_Tables_number   1
_chemical_formula_structural   HoEr4Tm3(ReB6)4
_chemical_formula_sum   'Ho1 Er4 Tm3 Re4 B24'
_cell_volume   382.84138845
_cell_formula_units_Z   1
loop_
 _symmetry_equiv_pos_site_id
 _symmetry_equiv_pos_as_xyz
  1  'x, y, z'
loop_
 _atom_site_type_symbol
 _atom_site_label
 _atom_site_symmetry_multiplicity
 _atom_site_fract_x
 _atom_site_fract_y
 _atom_site_fract_z
 _atom_site_occupancy
  Ho  Ho0  1  0.000000  0.323409  0.413887  1
  Er  Er1  1  0.000000  0.676495  0.586199  1
  Er  Er2  1  0.000000  0.823378  0.086029  1
  Er  Er3  1  0.000000  0.176586  0.913849  1
  Er  Er4  1  0.000000  0.943330  0.370366  1
  Tm  Tm5  1  0.000000  0.056662  0.630015  1
  Tm  Tm6  1  0.000000  0.443393  0.129601  1
  Tm  Tm7  1  0.000000  0.556667  0.870273  1
  Re  Re8  1  0.000000  0.638810  0.320492  1
  Re  Re9  1  0.000000  0.361031  0.679631  1
  Re  Re10  1  0.000000  0.139171  0.179052  1
  Re  Re11  1  0.000000  0.860978  0.820632  1
  B  B12  1  0.500000  0.553287  0.433152  1
  B  B13  1  0.500000  0.446679  0.567025  1
  B  B14  1  0.500000  0.053378  0.066710  1
  B  B15  1  0.500000  0.946661  0.933123  1
  B  B16  1  0.500000  0.749687  0.419048  1
  B  B17  1  0.500000  0.249915  0.581221  1
  B  B18  1  0.500000  0.250207  0.080885  1
  B  B19  1  0.500000  0.749880  0.919002  1
  B  B20  1  0.500000  0.792615  0.265197  1
  B  B21  1  0.500000  0.207098  0.734738  1
  B  B22  1  0.500000  0.293028  0.234466  1
  B  B23  1  0.500000  0.707054  0.765355  1
  B  B24  1  0.500000  0.630684  0.184910  1
  B  B25  1  0.500000  0.369251  0.815007  1
  B  B26  1  0.500000  0.131010  0.314714  1
  B  B27  1  0.500000  0.869187  0.685116  1
  B  B28  1  0.500000  0.981976  0.211901  1
  B  B29  1  0.500000  0.018168  0.787880  1
  B  B30  1  0.500000  0.481875  0.287690  1
  B  B31  1  0.500000  0.518247  0.712205  1
  B  B32  1  0.500000  0.599370  0.027706  1
  B  B33  1  0.500000  0.400670  0.972216  1
  B  B34  1  0.500000  0.099717  0.472549  1
  B  B35  1  0.500000  0.900447  0.528158  1
