# generated using pymatgen
data_Er3GaSi2(IrRh2)2
_symmetry_space_group_name_H-M   'P 1'
_cell_length_a   5.54909507
_cell_length_b   5.56504289
_cell_length_c   15.27002311
_cell_angle_alpha   89.96579888
_cell_angle_beta   90.04079324
_cell_angle_gamma   119.81533464
_symmetry_Int_Tables_number   1
_chemical_formula_structural   Er3GaSi2(IrRh2)2
_chemical_formula_sum   'Er6 Ga2 Si4 Ir4 Rh8'
_cell_volume   409.13441825
_cell_formula_units_Z   2
loop_
 _symmetry_equiv_pos_site_id
 _symmetry_equiv_pos_as_xyz
  1  'x, y, z'
loop_
 _atom_site_type_symbol
 _atom_site_label
 _atom_site_symmetry_multiplicity
 _atom_site_fract_x
 _atom_site_fract_y
 _atom_site_fract_z
 _atom_site_occupancy
  Er  Er0  1  0.333381  0.666637  0.538362  1
  Er  Er1  1  0.667771  0.335461  0.462457  1
  Er  Er2  1  0.667890  0.335409  0.038476  1
  Er  Er3  1  0.334257  0.665792  0.962219  1
  Er  Er4  1  0.333569  0.666886  0.749875  1
  Er  Er5  1  0.666921  0.333582  0.249052  1
  Ga  Ga6  1  0.999101  0.999369  0.999618  1
  Ga  Ga7  1  0.999373  0.998961  0.499676  1
  Si  Si8  1  0.999925  0.000198  0.250393  1
  Si  Si9  1  0.999528  0.999068  0.749829  1
  Si  Si10  1  0.332769  0.665902  0.250951  1
  Si  Si11  1  0.666604  0.333708  0.749914  1
  Ir  Ir12  1  0.168051  0.336053  0.132677  1
  Ir  Ir13  1  0.831987  0.663547  0.867582  1
  Ir  Ir14  1  0.663269  0.831937  0.133047  1
  Ir  Ir15  1  0.831913  0.663572  0.632101  1
  Rh  Rh16  1  0.335555  0.167749  0.866708  1
  Rh  Rh17  1  0.167663  0.335201  0.367474  1
  Rh  Rh18  1  0.168214  0.832338  0.133179  1
  Rh  Rh19  1  0.335599  0.167778  0.633074  1
  Rh  Rh20  1  0.832110  0.168051  0.866455  1
  Rh  Rh21  1  0.664249  0.832418  0.367166  1
  Rh  Rh22  1  0.832178  0.167947  0.633099  1
  Rh  Rh23  1  0.168125  0.832435  0.366615  1
