# generated using pymatgen
data_DyHo2Lu(Al8Pt3)3
_symmetry_space_group_name_H-M   'P 1'
_cell_length_a   7.51874721
_cell_length_b   7.54121150
_cell_length_c   13.15150450
_cell_angle_alpha   84.59053165
_cell_angle_beta   79.11576140
_cell_angle_gamma   59.98612572
_symmetry_Int_Tables_number   1
_chemical_formula_structural   DyHo2Lu(Al8Pt3)3
_chemical_formula_sum   'Dy1 Ho2 Lu1 Al24 Pt9'
_cell_volume   634.08597545
_cell_formula_units_Z   1
loop_
 _symmetry_equiv_pos_site_id
 _symmetry_equiv_pos_as_xyz
  1  'x, y, z'
loop_
 _atom_site_type_symbol
 _atom_site_label
 _atom_site_symmetry_multiplicity
 _atom_site_fract_x
 _atom_site_fract_y
 _atom_site_fract_z
 _atom_site_occupancy
  Dy  Dy0  1  0.393596  0.168691  0.808160  1
  Ho  Ho1  1  0.606359  0.831124  0.192483  1
  Ho  Ho2  1  0.734057  0.498726  0.807429  1
  Lu  Lu3  1  0.265453  0.501395  0.193181  1
  Al  Al4  1  0.684445  0.833505  0.944379  1
  Al  Al5  1  0.315730  0.166604  0.056523  1
  Al  Al6  1  0.146501  0.832432  0.561507  1
  Al  Al7  1  0.853624  0.167525  0.438255  1
  Al  Al8  1  0.479337  0.166781  0.558561  1
  Al  Al9  1  0.520637  0.833214  0.441249  1
  Al  Al10  1  0.217601  0.165655  0.328409  1
  Al  Al11  1  0.782690  0.834587  0.670997  1
  Al  Al12  1  0.437156  0.506484  0.671132  1
  Al  Al13  1  0.562683  0.493516  0.328293  1
  Al  Al14  1  0.109295  0.159807  0.669945  1
  Al  Al15  1  0.891192  0.839897  0.329382  1
  Al  Al16  1  0.353287  0.499582  0.944684  1
  Al  Al17  1  0.645922  0.500882  0.056164  1
  Al  Al18  1  0.015523  0.167888  0.952355  1
  Al  Al19  1  0.984309  0.831719  0.048380  1
  Al  Al20  1  0.186883  0.499340  0.441165  1
  Al  Al21  1  0.813207  0.500697  0.558519  1
  Al  Al22  1  0.733373  0.164430  0.183258  1
  Al  Al23  1  0.266290  0.835415  0.816693  1
  Al  Al24  1  0.061173  0.631505  0.815604  1
  Al  Al25  1  0.938773  0.368902  0.184337  1
  Al  Al26  1  0.855671  0.041892  0.816165  1
  Al  Al27  1  0.144801  0.957618  0.183812  1
  Pt  Pt28  1  0.119572  0.491590  0.639088  1
  Pt  Pt29  1  0.880786  0.508720  0.360401  1
  Pt  Pt30  1  0.656963  0.171533  0.999980  1
  Pt  Pt31  1  0.342879  0.828610  0.000309  1
  Pt  Pt32  1  0.537250  0.167103  0.360576  1
  Pt  Pt33  1  0.462457  0.833078  0.638955  1
  Pt  Pt34  1  0.778319  0.175389  0.637413  1
  Pt  Pt35  1  0.222124  0.824134  0.362085  1
  Pt  Pt36  1  0.000081  0.500031  0.000173  1
