# generated using pymatgen
data_Ba3MgPt2O9
_symmetry_space_group_name_H-M   'P 1'
_cell_length_a   5.84899200
_cell_length_b   5.84899180
_cell_length_c   14.62632300
_cell_angle_alpha   90.00000000
_cell_angle_beta   90.00000000
_cell_angle_gamma   119.99998984
_symmetry_Int_Tables_number   1
_chemical_formula_structural   Ba3MgPt2O9
_chemical_formula_sum   'Ba6 Mg2 Pt4 O18'
_cell_volume   433.33909860
_cell_formula_units_Z   2
loop_
 _symmetry_equiv_pos_site_id
 _symmetry_equiv_pos_as_xyz
  1  'x, y, z'
loop_
 _atom_site_type_symbol
 _atom_site_label
 _atom_site_symmetry_multiplicity
 _atom_site_fract_x
 _atom_site_fract_y
 _atom_site_fract_z
 _atom_site_occupancy
  Ba  Ba0  1  0.333333  0.666667  0.583847  1
  Ba  Ba1  1  0.666667  0.333333  0.083847  1
  Ba  Ba2  1  0.666667  0.333333  0.416153  1
  Ba  Ba3  1  0.333333  0.666667  0.916153  1
  Ba  Ba4  1  0.000000  0.000000  0.750000  1
  Ba  Ba5  1  0.000000  0.000000  0.250000  1
  Mg  Mg6  1  0.000000  0.000000  0.000000  1
  Mg  Mg7  1  0.000000  0.000000  0.500000  1
  Pt  Pt8  1  0.666667  0.333333  0.654549  1
  Pt  Pt9  1  0.333333  0.666667  0.154549  1
  Pt  Pt10  1  0.666667  0.333333  0.845451  1
  Pt  Pt11  1  0.333333  0.666667  0.345451  1
  O  O12  1  0.169495  0.830505  0.080621  1
  O  O13  1  0.169495  0.338989  0.080621  1
  O  O14  1  0.661011  0.830505  0.080621  1
  O  O15  1  0.338989  0.169495  0.580621  1
  O  O16  1  0.830505  0.661011  0.919379  1
  O  O17  1  0.830505  0.169495  0.580621  1
  O  O18  1  0.830505  0.661011  0.580621  1
  O  O19  1  0.169495  0.830505  0.419379  1
  O  O20  1  0.661011  0.830505  0.419379  1
  O  O21  1  0.338989  0.169495  0.919379  1
  O  O22  1  0.830505  0.169495  0.919379  1
  O  O23  1  0.169495  0.338989  0.419379  1
  O  O24  1  0.482959  0.965918  0.250000  1
  O  O25  1  0.517041  0.482959  0.750000  1
  O  O26  1  0.965918  0.482959  0.750000  1
  O  O27  1  0.034082  0.517041  0.250000  1
  O  O28  1  0.482959  0.517041  0.250000  1
  O  O29  1  0.517041  0.034082  0.750000  1
