# generated using pymatgen
data_SrAl8GeAu4
_symmetry_space_group_name_H-M   'P 1'
_cell_length_a   6.12448319
_cell_length_b   6.12448358
_cell_length_c   15.20311799
_cell_angle_alpha   101.62012009
_cell_angle_beta   101.62012099
_cell_angle_gamma   90.00000966
_symmetry_Int_Tables_number   1
_chemical_formula_structural   SrAl8GeAu4
_chemical_formula_sum   'Sr2 Al16 Ge2 Au8'
_cell_volume   546.63305107
_cell_formula_units_Z   2
loop_
 _symmetry_equiv_pos_site_id
 _symmetry_equiv_pos_as_xyz
  1  'x, y, z'
loop_
 _atom_site_type_symbol
 _atom_site_label
 _atom_site_symmetry_multiplicity
 _atom_site_fract_x
 _atom_site_fract_y
 _atom_site_fract_z
 _atom_site_occupancy
  Sr  Sr0  1  0.750001  0.250000  0.500000  1
  Sr  Sr1  1  0.250000  0.750001  0.500000  1
  Al  Al2  1  0.301124  0.301124  0.103570  1
  Al  Al3  1  0.802445  0.301124  0.103570  1
  Al  Al4  1  0.301124  0.802445  0.103570  1
  Al  Al5  1  0.802445  0.802445  0.103570  1
  Al  Al6  1  0.404618  0.404618  0.307481  1
  Al  Al7  1  0.902862  0.404618  0.307481  1
  Al  Al8  1  0.404618  0.902862  0.307481  1
  Al  Al9  1  0.902862  0.902862  0.307481  1
  Al  Al10  1  0.097137  0.097137  0.692519  1
  Al  Al11  1  0.595382  0.097137  0.692519  1
  Al  Al12  1  0.097137  0.595382  0.692519  1
  Al  Al13  1  0.595382  0.595382  0.692519  1
  Al  Al14  1  0.197556  0.197556  0.896430  1
  Al  Al15  1  0.698875  0.197556  0.896430  1
  Al  Al16  1  0.197556  0.698875  0.896430  1
  Al  Al17  1  0.698875  0.698875  0.896430  1
  Ge  Ge18  1  0.206043  0.206043  0.412086  1
  Ge  Ge19  1  0.793957  0.793957  0.587915  1
  Au  Au20  1  0.000000  0.000000  0.000000  1
  Au  Au21  1  0.500001  0.500001  0.000000  1
  Au  Au22  1  0.603149  0.103149  0.206298  1
  Au  Au23  1  0.103149  0.603149  0.206298  1
  Au  Au24  1  0.703428  0.703428  0.406855  1
  Au  Au25  1  0.296573  0.296573  0.593145  1
  Au  Au26  1  0.896852  0.396851  0.793701  1
  Au  Au27  1  0.396851  0.896852  0.793701  1
