# generated using pymatgen
data_DyErSc3Si7PdPt8
_symmetry_space_group_name_H-M   'P 1'
_cell_length_a   10.05142400
_cell_length_b   10.05142441
_cell_length_c   3.97352700
_cell_angle_alpha   90.00000000
_cell_angle_beta   90.00000000
_cell_angle_gamma   119.99999866
_symmetry_Int_Tables_number   1
_chemical_formula_structural   DyErSc3Si7PdPt8
_chemical_formula_sum   'Dy1 Er1 Sc3 Si7 Pd1 Pt8'
_cell_volume   347.66583124
_cell_formula_units_Z   1
loop_
 _symmetry_equiv_pos_site_id
 _symmetry_equiv_pos_as_xyz
  1  'x, y, z'
loop_
 _atom_site_type_symbol
 _atom_site_label
 _atom_site_symmetry_multiplicity
 _atom_site_fract_x
 _atom_site_fract_y
 _atom_site_fract_z
 _atom_site_occupancy
  Dy  Dy0  1  0.000016  0.999823  0.000000  1
  Er  Er1  1  0.333784  0.668272  0.500000  1
  Sc  Sc2  1  0.894863  0.455748  0.500000  1
  Sc  Sc3  1  0.560567  0.105020  0.500000  1
  Sc  Sc4  1  0.545194  0.439124  0.500000  1
  Si  Si5  1  0.245940  0.194361  0.500000  1
  Si  Si6  1  0.805583  0.051366  0.500000  1
  Si  Si7  1  0.949509  0.754120  0.500000  1
  Si  Si8  1  0.555914  0.647537  0.000000  1
  Si  Si9  1  0.352992  0.909324  0.000000  1
  Si  Si10  1  0.090444  0.443163  0.000000  1
  Si  Si11  1  0.666326  0.333125  0.000000  1
  Pd  Pd12  1  0.312243  0.411236  0.000000  1
  Pt  Pt13  1  0.219022  0.935679  0.500000  1
  Pt  Pt14  1  0.065095  0.284030  0.500000  1
  Pt  Pt15  1  0.716971  0.781210  0.500000  1
  Pt  Pt16  1  0.586415  0.900802  0.000000  1
  Pt  Pt17  1  0.099801  0.685631  0.000000  1
  Pt  Pt18  1  0.383344  0.171880  0.000000  1
  Pt  Pt19  1  0.828121  0.212205  0.000000  1
  Pt  Pt20  1  0.787856  0.616346  0.000000  1
