# generated using pymatgen
data_Dy8Tm4Co4SnRu
_symmetry_space_group_name_H-M   'P 1'
_cell_length_a   8.27239167
_cell_length_b   8.27239225
_cell_length_c   8.27239179
_cell_angle_alpha   111.33348650
_cell_angle_beta   110.51155141
_cell_angle_gamma   106.60715656
_symmetry_Int_Tables_number   1
_chemical_formula_structural   Dy8Tm4Co4SnRu
_chemical_formula_sum   'Dy8 Tm4 Co4 Sn1 Ru1'
_cell_volume   434.94900935
_cell_formula_units_Z   1
loop_
 _symmetry_equiv_pos_site_id
 _symmetry_equiv_pos_as_xyz
  1  'x, y, z'
loop_
 _atom_site_type_symbol
 _atom_site_label
 _atom_site_symmetry_multiplicity
 _atom_site_fract_x
 _atom_site_fract_y
 _atom_site_fract_z
 _atom_site_occupancy
  Dy  Dy0  1  0.410523  0.216744  0.193780  1
  Dy  Dy1  1  0.589477  0.783256  0.806220  1
  Dy  Dy2  1  0.022964  0.216744  0.806220  1
  Dy  Dy3  1  0.977036  0.783256  0.193780  1
  Dy  Dy4  1  0.184194  0.285558  0.469753  1
  Dy  Dy5  1  0.815806  0.714442  0.530247  1
  Dy  Dy6  1  0.184194  0.714442  0.898636  1
  Dy  Dy7  1  0.815806  0.285558  0.101364  1
  Tm  Tm8  1  0.314004  0.622431  0.308426  1
  Tm  Tm9  1  0.685996  0.377569  0.691574  1
  Tm  Tm10  1  0.314004  0.005578  0.691574  1
  Tm  Tm11  1  0.685996  0.994422  0.308426  1
  Co  Co12  1  0.378350  0.000000  0.378350  1
  Co  Co13  1  0.621650  0.000000  0.621650  1
  Co  Co14  1  0.112125  0.612125  0.500000  1
  Co  Co15  1  0.887875  0.387875  0.500000  1
  Sn  Sn16  1  0.500000  0.500000  0.000000  1
  Ru  Ru17  1  0.000000  0.000000  0.000000  1
