# generated using pymatgen
data_Ca5IrAu
_symmetry_space_group_name_H-M   'P 1'
_cell_length_a   8.84149908
_cell_length_b   8.84149894
_cell_length_c   7.73430991
_cell_angle_alpha   82.99975539
_cell_angle_beta   82.99975619
_cell_angle_gamma   44.70838893
_symmetry_Int_Tables_number   1
_chemical_formula_structural   Ca5IrAu
_chemical_formula_sum   'Ca10 Ir2 Au2'
_cell_volume   421.63127596
_cell_formula_units_Z   2
loop_
 _symmetry_equiv_pos_site_id
 _symmetry_equiv_pos_as_xyz
  1  'x, y, z'
loop_
 _atom_site_type_symbol
 _atom_site_label
 _atom_site_symmetry_multiplicity
 _atom_site_fract_x
 _atom_site_fract_y
 _atom_site_fract_z
 _atom_site_occupancy
  Ca  Ca0  1  0.355320  0.203953  0.809260  1
  Ca  Ca1  1  0.796047  0.644680  0.690740  1
  Ca  Ca2  1  0.626735  0.803019  0.168271  1
  Ca  Ca3  1  0.196981  0.373265  0.331729  1
  Ca  Ca4  1  0.410883  0.589117  0.250000  1
  Ca  Ca5  1  0.565004  0.434996  0.750000  1
  Ca  Ca6  1  0.810664  0.006813  0.429496  1
  Ca  Ca7  1  0.993187  0.189336  0.070504  1
  Ca  Ca8  1  0.208525  0.967773  0.589507  1
  Ca  Ca9  1  0.032227  0.791475  0.910493  1
  Ir  Ir10  1  0.179328  0.598676  0.584505  1
  Ir  Ir11  1  0.401324  0.820672  0.915495  1
  Au  Au12  1  0.822612  0.398836  0.416956  1
  Au  Au13  1  0.601164  0.177388  0.083044  1
