# generated using pymatgen
data_Hf6NiPb2
_symmetry_space_group_name_H-M   'P 1'
_cell_length_a   7.95216800
_cell_length_b   7.95216843
_cell_length_c   3.52997600
_cell_angle_alpha   90.00000000
_cell_angle_beta   90.00000000
_cell_angle_gamma   119.99999821
_symmetry_Int_Tables_number   1
_chemical_formula_structural   Hf6NiPb2
_chemical_formula_sum   'Hf6 Ni1 Pb2'
_cell_volume   193.31854098
_cell_formula_units_Z   1
loop_
 _symmetry_equiv_pos_site_id
 _symmetry_equiv_pos_as_xyz
  1  'x, y, z'
loop_
 _atom_site_type_symbol
 _atom_site_label
 _atom_site_symmetry_multiplicity
 _atom_site_fract_x
 _atom_site_fract_y
 _atom_site_fract_z
 _atom_site_occupancy
  Hf  Hf0  1  0.761841  0.000000  0.500000  1
  Hf  Hf1  1  0.238159  0.238159  0.500000  1
  Hf  Hf2  1  0.000000  0.761841  0.500000  1
  Hf  Hf3  1  0.000000  0.386697  0.000000  1
  Hf  Hf4  1  0.613303  0.613303  0.000000  1
  Hf  Hf5  1  0.386697  0.000000  0.000000  1
  Ni  Ni6  1  0.000000  0.000000  0.000000  1
  Pb  Pb7  1  0.333333  0.666667  0.500000  1
  Pb  Pb8  1  0.666667  0.333333  0.500000  1
