# generated using pymatgen
data_Tm4Co4Si3Ge
_symmetry_space_group_name_H-M   'P 1'
_cell_length_a   4.14616100
_cell_length_b   6.77432917
_cell_length_c   7.02312289
_cell_angle_alpha   89.80453686
_cell_angle_beta   90.00000000
_cell_angle_gamma   90.00000000
_symmetry_Int_Tables_number   1
_chemical_formula_structural   Tm4Co4Si3Ge
_chemical_formula_sum   'Tm4 Co4 Si3 Ge1'
_cell_volume   197.26053136
_cell_formula_units_Z   1
loop_
 _symmetry_equiv_pos_site_id
 _symmetry_equiv_pos_as_xyz
  1  'x, y, z'
loop_
 _atom_site_type_symbol
 _atom_site_label
 _atom_site_symmetry_multiplicity
 _atom_site_fract_x
 _atom_site_fract_y
 _atom_site_fract_z
 _atom_site_occupancy
  Tm  Tm0  1  0.750000  0.514003  0.806058  1
  Tm  Tm1  1  0.750000  0.011725  0.692591  1
  Tm  Tm2  1  0.250000  0.492097  0.193894  1
  Tm  Tm3  1  0.250000  0.986518  0.307068  1
  Co  Co4  1  0.750000  0.351637  0.442027  1
  Co  Co5  1  0.750000  0.839277  0.067356  1
  Co  Co6  1  0.250000  0.650062  0.564730  1
  Co  Co7  1  0.250000  0.149786  0.924689  1
  Si  Si8  1  0.750000  0.698715  0.398302  1
  Si  Si9  1  0.250000  0.802123  0.896459  1
  Si  Si10  1  0.250000  0.302004  0.604125  1
  Ge  Ge11  1  0.750000  0.202053  0.102700  1
