# generated using pymatgen
data_LiCr(SeO3)2
_symmetry_space_group_name_H-M   'P 1'
_cell_length_a   9.09429444
_cell_length_b   9.09429539
_cell_length_c   9.09429500
_cell_angle_alpha   107.66506913
_cell_angle_beta   107.66507103
_cell_angle_gamma   113.14725147
_symmetry_Int_Tables_number   1
_chemical_formula_structural   LiCr(SeO3)2
_chemical_formula_sum   'Li4 Cr4 Se8 O24'
_cell_volume   577.20910590
_cell_formula_units_Z   4
loop_
 _symmetry_equiv_pos_site_id
 _symmetry_equiv_pos_as_xyz
  1  'x, y, z'
loop_
 _atom_site_type_symbol
 _atom_site_label
 _atom_site_symmetry_multiplicity
 _atom_site_fract_x
 _atom_site_fract_y
 _atom_site_fract_z
 _atom_site_occupancy
  Li  Li0  1  0.689493  0.875000  0.314493  1
  Li  Li1  1  0.560507  0.375000  0.685507  1
  Li  Li2  1  0.625000  0.310507  0.185507  1
  Li  Li3  1  0.125000  0.439493  0.814493  1
  Cr  Cr4  1  0.413333  0.875000  0.038333  1
  Cr  Cr5  1  0.836667  0.375000  0.961667  1
  Cr  Cr6  1  0.625000  0.586667  0.461667  1
  Cr  Cr7  1  0.125000  0.163333  0.538333  1
  Se  Se8  1  0.854992  0.134347  0.171754  1
  Se  Se9  1  0.287407  0.615653  0.220645  1
  Se  Se10  1  0.962593  0.683238  0.828246  1
  Se  Se11  1  0.395008  0.066762  0.779355  1
  Se  Se12  1  0.316762  0.145008  0.279355  1
  Se  Se13  1  0.384347  0.604992  0.671754  1
  Se  Se14  1  0.865653  0.037407  0.720645  1
  Se  Se15  1  0.933238  0.712593  0.328246  1
  O  O16  1  0.681416  0.047565  0.223545  1
  O  O17  1  0.425980  0.702435  0.133852  1
  O  O18  1  0.824020  0.457872  0.776455  1
  O  O19  1  0.568584  0.292128  0.866148  1
  O  O20  1  0.542128  0.318584  0.366148  1
  O  O21  1  0.297565  0.431416  0.723545  1
  O  O22  1  0.952435  0.175980  0.633852  1
  O  O23  1  0.707872  0.574020  0.276455  1
  O  O24  1  0.837582  0.314773  0.157997  1
  O  O25  1  0.093224  0.435227  0.022809  1
  O  O26  1  0.156776  0.679585  0.842002  1
  O  O27  1  0.412418  0.070415  0.977191  1
  O  O28  1  0.320415  0.162418  0.477191  1
  O  O29  1  0.564773  0.587582  0.657997  1
  O  O30  1  0.685227  0.843224  0.522809  1
  O  O31  1  0.929585  0.906776  0.342002  1
  O  O32  1  0.043072  0.256003  0.376358  1
  O  O33  1  0.370354  0.493997  0.287068  1
  O  O34  1  0.879646  0.666714  0.623642  1
  O  O35  1  0.206928  0.083286  0.712932  1
  O  O36  1  0.333286  0.956928  0.212932  1
  O  O37  1  0.506003  0.793072  0.876358  1
  O  O38  1  0.743997  0.120354  0.787068  1
  O  O39  1  0.916714  0.629646  0.123642  1
