# generated using pymatgen
data_Ho9Er(CoPd2)2
_symmetry_space_group_name_H-M   'P 1'
_cell_length_a   7.73022200
_cell_length_b   8.27511100
_cell_length_c   11.78781100
_cell_angle_alpha   89.99929206
_cell_angle_beta   90.00029406
_cell_angle_gamma   89.99998567
_symmetry_Int_Tables_number   1
_chemical_formula_structural   Ho9Er(CoPd2)2
_chemical_formula_sum   'Ho18 Er2 Co4 Pd8'
_cell_volume   754.04794082
_cell_formula_units_Z   2
loop_
 _symmetry_equiv_pos_site_id
 _symmetry_equiv_pos_as_xyz
  1  'x, y, z'
loop_
 _atom_site_type_symbol
 _atom_site_label
 _atom_site_symmetry_multiplicity
 _atom_site_fract_x
 _atom_site_fract_y
 _atom_site_fract_z
 _atom_site_occupancy
  Ho  Ho0  1  0.162946  0.749860  0.217324  1
  Ho  Ho1  1  0.662946  0.250143  0.282684  1
  Ho  Ho2  1  0.836985  0.250015  0.782708  1
  Ho  Ho3  1  0.336982  0.749985  0.717299  1
  Ho  Ho4  1  0.459246  0.749910  0.004539  1
  Ho  Ho5  1  0.959243  0.250089  0.495461  1
  Ho  Ho6  1  0.540980  0.250126  0.995503  1
  Ho  Ho7  1  0.040976  0.749869  0.504497  1
  Ho  Ho8  1  0.631062  0.749852  0.308031  1
  Ho  Ho9  1  0.131053  0.250148  0.191967  1
  Ho  Ho10  1  0.368865  0.250031  0.691863  1
  Ho  Ho11  1  0.868863  0.749968  0.808134  1
  Ho  Ho12  1  0.828100  0.965189  0.081798  1
  Ho  Ho13  1  0.328100  0.034811  0.418206  1
  Ho  Ho14  1  0.171806  0.465243  0.918291  1
  Ho  Ho15  1  0.671806  0.534748  0.581708  1
  Ho  Ho16  1  0.171885  0.034746  0.918215  1
  Ho  Ho17  1  0.671887  0.965258  0.581787  1
  Er  Er18  1  0.828260  0.534732  0.081805  1
  Er  Er19  1  0.328286  0.465283  0.418171  1
  Co  Co20  1  0.431707  0.749900  0.496736  1
  Co  Co21  1  0.931706  0.250100  0.003269  1
  Co  Co22  1  0.568045  0.250090  0.503203  1
  Co  Co23  1  0.068043  0.749908  0.996797  1
  Pd  Pd24  1  0.934337  0.985159  0.331920  1
  Pd  Pd25  1  0.434335  0.014837  0.168083  1
  Pd  Pd26  1  0.065636  0.485131  0.668051  1
  Pd  Pd27  1  0.565640  0.514869  0.831948  1
  Pd  Pd28  1  0.065627  0.014853  0.668067  1
  Pd  Pd29  1  0.565639  0.985140  0.831933  1
  Pd  Pd30  1  0.934505  0.514869  0.331849  1
  Pd  Pd31  1  0.434502  0.485138  0.168151  1
