# generated using pymatgen
data_Th3Co2CuSb4
_symmetry_space_group_name_H-M   'P 1'
_cell_length_a   8.36415980
_cell_length_b   8.36998495
_cell_length_c   8.36998417
_cell_angle_alpha   109.29281413
_cell_angle_beta   109.58175299
_cell_angle_gamma   109.58174544
_symmetry_Int_Tables_number   1
_chemical_formula_structural   Th3Co2CuSb4
_chemical_formula_sum   'Th6 Co4 Cu2 Sb8'
_cell_volume   450.83557360
_cell_formula_units_Z   2
loop_
 _symmetry_equiv_pos_site_id
 _symmetry_equiv_pos_as_xyz
  1  'x, y, z'
loop_
 _atom_site_type_symbol
 _atom_site_label
 _atom_site_symmetry_multiplicity
 _atom_site_fract_x
 _atom_site_fract_y
 _atom_site_fract_z
 _atom_site_occupancy
  Th  Th0  1  0.379992  0.257896  0.632778  1
  Th  Th1  1  0.743589  0.878543  0.115249  1
  Th  Th2  1  0.243589  0.615249  0.378543  1
  Th  Th3  1  0.624688  0.366623  0.246447  1
  Th  Th4  1  0.879992  0.132778  0.757896  1
  Th  Th5  1  0.124688  0.746447  0.866623  1
  Co  Co6  1  0.875366  0.250011  0.127594  1
  Co  Co7  1  0.251080  0.125016  0.876703  1
  Co  Co8  1  0.751080  0.376703  0.625016  1
  Co  Co9  1  0.375366  0.627594  0.750011  1
  Cu  Cu10  1  0.124433  0.873998  0.248397  1
  Cu  Cu11  1  0.624433  0.748397  0.373998  1
  Sb  Sb12  1  0.998974  0.334566  0.500261  1
  Sb  Sb13  1  0.834966  0.495526  0.996459  1
  Sb  Sb14  1  0.498974  0.000261  0.834566  1
  Sb  Sb15  1  0.661829  0.660186  0.664900  1
  Sb  Sb16  1  0.161829  0.164900  0.160186  1
  Sb  Sb17  1  0.334966  0.496459  0.995526  1
  Sb  Sb18  1  0.505084  0.005444  0.343403  1
  Sb  Sb19  1  0.005084  0.843403  0.505444  1
