# generated using pymatgen
data_LiSmCr4O14
_symmetry_space_group_name_H-M   'P 1'
_cell_length_a   7.35583681
_cell_length_b   7.35583814
_cell_length_c   7.35583700
_cell_angle_alpha   109.25309377
_cell_angle_beta   109.25308914
_cell_angle_gamma   109.90837455
_symmetry_Int_Tables_number   1
_chemical_formula_structural   LiSmCr4O14
_chemical_formula_sum   'Li1 Sm1 Cr4 O14'
_cell_volume   306.37648445
_cell_formula_units_Z   1
loop_
 _symmetry_equiv_pos_site_id
 _symmetry_equiv_pos_as_xyz
  1  'x, y, z'
loop_
 _atom_site_type_symbol
 _atom_site_label
 _atom_site_symmetry_multiplicity
 _atom_site_fract_x
 _atom_site_fract_y
 _atom_site_fract_z
 _atom_site_occupancy
  Li  Li0  1  0.496552  0.496461  0.999945  1
  Sm  Sm1  1  0.013268  0.013255  0.999943  1
  Cr  Cr2  1  0.821810  0.372864  0.786713  1
  Cr  Cr3  1  0.035111  0.821804  0.448940  1
  Cr  Cr4  1  0.372825  0.586218  0.551040  1
  Cr  Cr5  1  0.586221  0.035126  0.213446  1
  O  O6  1  0.219270  0.719308  0.499965  1
  O  O7  1  0.719342  0.219344  0.500096  1
  O  O8  1  0.962194  0.641123  0.873203  1
  O  O9  1  0.088969  0.962158  0.321048  1
  O  O10  1  0.641084  0.767906  0.678878  1
  O  O11  1  0.767884  0.088993  0.126802  1
  O  O12  1  0.486052  0.780106  0.163449  1
  O  O13  1  0.322590  0.486075  0.705895  1
  O  O14  1  0.780143  0.616679  0.294054  1
  O  O15  1  0.616713  0.322680  0.836569  1
  O  O16  1  0.382083  0.072121  0.087857  1
  O  O17  1  0.294200  0.382055  0.309920  1
  O  O18  1  0.072106  0.984228  0.690061  1
  O  O19  1  0.984282  0.294194  0.912176  1
