# generated using pymatgen
data_LaDyHo2(WO6)2
_symmetry_space_group_name_H-M   'P 1'
_cell_length_a   5.46491600
_cell_length_b   7.78684267
_cell_length_c   11.57513595
_cell_angle_alpha   75.69397722
_cell_angle_beta   90.00000000
_cell_angle_gamma   90.00000000
_symmetry_Int_Tables_number   1
_chemical_formula_structural   LaDyHo2(WO6)2
_chemical_formula_sum   'La2 Dy2 Ho4 W4 O24'
_cell_volume   477.29862126
_cell_formula_units_Z   2
loop_
 _symmetry_equiv_pos_site_id
 _symmetry_equiv_pos_as_xyz
  1  'x, y, z'
loop_
 _atom_site_type_symbol
 _atom_site_label
 _atom_site_symmetry_multiplicity
 _atom_site_fract_x
 _atom_site_fract_y
 _atom_site_fract_z
 _atom_site_occupancy
  La  La0  1  0.686771  0.500000  0.750000  1
  La  La1  1  0.313229  0.500000  0.250000  1
  Dy  Dy2  1  0.740907  0.000000  0.750000  1
  Dy  Dy3  1  0.259093  0.000000  0.250000  1
  Ho  Ho4  1  0.188373  0.799542  0.576473  1
  Ho  Ho5  1  0.811627  0.799542  0.076473  1
  Ho  Ho6  1  0.188373  0.200458  0.923527  1
  Ho  Ho7  1  0.811627  0.200458  0.423527  1
  W  W8  1  0.251723  0.728507  0.884500  1
  W  W9  1  0.748277  0.728507  0.384500  1
  W  W10  1  0.251723  0.271493  0.615500  1
  W  W11  1  0.748277  0.271493  0.115500  1
  O  O12  1  0.039642  0.942032  0.896139  1
  O  O13  1  0.530072  0.846561  0.931432  1
  O  O14  1  0.960358  0.942032  0.396139  1
  O  O15  1  0.453991  0.795654  0.727631  1
  O  O16  1  0.469928  0.846561  0.431432  1
  O  O17  1  0.988137  0.721556  0.768830  1
  O  O18  1  0.546009  0.795654  0.227631  1
  O  O19  1  0.860687  0.643633  0.544328  1
  O  O20  1  0.346471  0.494294  0.888604  1
  O  O21  1  0.011863  0.721556  0.268830  1
  O  O22  1  0.346471  0.505706  0.611396  1
  O  O23  1  0.860687  0.356367  0.955672  1
  O  O24  1  0.139313  0.643633  0.044328  1
  O  O25  1  0.653529  0.494294  0.388604  1
  O  O26  1  0.988137  0.278444  0.731170  1
  O  O27  1  0.653529  0.505706  0.111396  1
  O  O28  1  0.139313  0.356367  0.455672  1
  O  O29  1  0.453991  0.204346  0.772369  1
  O  O30  1  0.011863  0.278444  0.231170  1
  O  O31  1  0.530072  0.153439  0.568568  1
  O  O32  1  0.546009  0.204346  0.272369  1
  O  O33  1  0.039642  0.057968  0.603861  1
  O  O34  1  0.469928  0.153439  0.068568  1
  O  O35  1  0.960358  0.057968  0.103861  1
