# generated using pymatgen
data_HoEr2In3NiHg2
_symmetry_space_group_name_H-M   'P 1'
_cell_length_a   7.69786400
_cell_length_b   7.70650874
_cell_length_c   4.01763600
_cell_angle_alpha   90.00000000
_cell_angle_beta   90.00000000
_cell_angle_gamma   119.96289989
_symmetry_Int_Tables_number   1
_chemical_formula_structural   HoEr2In3NiHg2
_chemical_formula_sum   'Ho1 Er2 In3 Ni1 Hg2'
_cell_volume   206.48635859
_cell_formula_units_Z   1
loop_
 _symmetry_equiv_pos_site_id
 _symmetry_equiv_pos_as_xyz
  1  'x, y, z'
loop_
 _atom_site_type_symbol
 _atom_site_label
 _atom_site_symmetry_multiplicity
 _atom_site_fract_x
 _atom_site_fract_y
 _atom_site_fract_z
 _atom_site_occupancy
  Ho  Ho0  1  0.607180  0.000000  0.500000  1
  Er  Er1  1  0.999947  0.607437  0.500000  1
  Er  Er2  1  0.392511  0.392563  0.500000  1
  In  In3  1  0.239338  0.000000  0.000000  1
  In  In4  1  0.760729  0.760508  0.000000  1
  In  In5  1  0.000222  0.239492  0.000000  1
  Ni  Ni6  1  0.000310  0.000000  0.500000  1
  Hg  Hg7  1  0.332916  0.666071  0.000000  1
  Hg  Hg8  1  0.666847  0.333929  0.000000  1
