# generated using pymatgen
data_Ba4Nd4MnZn3O15
_symmetry_space_group_name_H-M   'P 1'
_cell_length_a   11.80301000
_cell_length_b   11.80300907
_cell_length_c   6.84515600
_cell_angle_alpha   90.00000000
_cell_angle_beta   90.00000000
_cell_angle_gamma   119.99999701
_symmetry_Int_Tables_number   1
_chemical_formula_structural   Ba4Nd4MnZn3O15
_chemical_formula_sum   'Ba8 Nd8 Mn2 Zn6 O30'
_cell_volume   825.84683865
_cell_formula_units_Z   2
loop_
 _symmetry_equiv_pos_site_id
 _symmetry_equiv_pos_as_xyz
  1  'x, y, z'
loop_
 _atom_site_type_symbol
 _atom_site_label
 _atom_site_symmetry_multiplicity
 _atom_site_fract_x
 _atom_site_fract_y
 _atom_site_fract_z
 _atom_site_occupancy
  Ba  Ba0  1  0.346858  0.173429  0.158066  1
  Ba  Ba1  1  0.173429  0.346858  0.658066  1
  Ba  Ba2  1  0.173429  0.826571  0.658066  1
  Ba  Ba3  1  0.826571  0.173429  0.158066  1
  Ba  Ba4  1  0.653142  0.826571  0.658066  1
  Ba  Ba5  1  0.826571  0.653142  0.158066  1
  Ba  Ba6  1  0.333333  0.666667  0.338838  1
  Ba  Ba7  1  0.666667  0.333333  0.838838  1
  Nd  Nd8  1  0.000000  0.000000  0.338821  1
  Nd  Nd9  1  0.523974  0.476026  0.502230  1
  Nd  Nd10  1  0.476026  0.952052  0.002230  1
  Nd  Nd11  1  0.523974  0.047948  0.502230  1
  Nd  Nd12  1  0.952052  0.476026  0.502230  1
  Nd  Nd13  1  0.000000  0.000000  0.838821  1
  Nd  Nd14  1  0.047948  0.523974  0.002230  1
  Nd  Nd15  1  0.476026  0.523974  0.002230  1
  Mn  Mn16  1  0.333333  0.666667  0.813783  1
  Mn  Mn17  1  0.666667  0.333333  0.313783  1
  Zn  Zn18  1  0.653932  0.826965  0.169895  1
  Zn  Zn19  1  0.826965  0.653932  0.669895  1
  Zn  Zn20  1  0.826965  0.173035  0.669895  1
  Zn  Zn21  1  0.173035  0.826965  0.169895  1
  Zn  Zn22  1  0.173035  0.346068  0.169895  1
  Zn  Zn23  1  0.346068  0.173035  0.669895  1
  O  O24  1  0.831710  0.915855  0.069048  1
  O  O25  1  0.915855  0.831710  0.569048  1
  O  O26  1  0.915855  0.084145  0.569048  1
  O  O27  1  0.084145  0.915855  0.069048  1
  O  O28  1  0.084145  0.168290  0.069048  1
  O  O29  1  0.168290  0.084145  0.569048  1
  O  O30  1  0.604090  0.661042  0.300948  1
  O  O31  1  0.338958  0.943047  0.300948  1
  O  O32  1  0.056953  0.395910  0.300948  1
  O  O33  1  0.943047  0.604090  0.800948  1
  O  O34  1  0.395910  0.338958  0.800948  1
  O  O35  1  0.661042  0.056953  0.800948  1
  O  O36  1  0.604090  0.943047  0.300948  1
  O  O37  1  0.661042  0.604090  0.800948  1
  O  O38  1  0.943047  0.338958  0.800948  1
  O  O39  1  0.056953  0.661042  0.300948  1
  O  O40  1  0.338958  0.395910  0.300948  1
  O  O41  1  0.395910  0.056953  0.800948  1
  O  O42  1  0.491651  0.745826  0.985242  1
  O  O43  1  0.745826  0.491651  0.485242  1
  O  O44  1  0.745826  0.254174  0.485242  1
  O  O45  1  0.254174  0.745826  0.985242  1
  O  O46  1  0.254174  0.508349  0.985242  1
  O  O47  1  0.508349  0.254174  0.485242  1
  O  O48  1  0.825125  0.412562  0.164150  1
  O  O49  1  0.412562  0.825125  0.664150  1
  O  O50  1  0.412562  0.587438  0.664150  1
  O  O51  1  0.587438  0.412562  0.164150  1
  O  O52  1  0.587438  0.174875  0.164150  1
  O  O53  1  0.174875  0.587438  0.664150  1
