# generated using pymatgen
data_Lu2InB2Ir5
_symmetry_space_group_name_H-M   'P 1'
_cell_length_a   3.18390400
_cell_length_b   9.67745400
_cell_length_c   9.67745400
_cell_angle_alpha   90.00000000
_cell_angle_beta   90.00000000
_cell_angle_gamma   90.00000000
_symmetry_Int_Tables_number   1
_chemical_formula_structural   Lu2InB2Ir5
_chemical_formula_sum   'Lu4 In2 B4 Ir10'
_cell_volume   298.18253040
_cell_formula_units_Z   2
loop_
 _symmetry_equiv_pos_site_id
 _symmetry_equiv_pos_as_xyz
  1  'x, y, z'
loop_
 _atom_site_type_symbol
 _atom_site_label
 _atom_site_symmetry_multiplicity
 _atom_site_fract_x
 _atom_site_fract_y
 _atom_site_fract_z
 _atom_site_occupancy
  Lu  Lu0  1  0.000000  0.176843  0.676843  1
  Lu  Lu1  1  0.000000  0.823157  0.323157  1
  Lu  Lu2  1  0.000000  0.323157  0.176843  1
  Lu  Lu3  1  0.000000  0.676843  0.823157  1
  In  In4  1  0.000000  0.000000  0.000000  1
  In  In5  1  0.000000  0.500000  0.500000  1
  B  B6  1  0.000000  0.621363  0.121363  1
  B  B7  1  0.000000  0.378637  0.878637  1
  B  B8  1  0.000000  0.878637  0.621363  1
  B  B9  1  0.000000  0.121363  0.378637  1
  Ir  Ir10  1  0.500000  0.070190  0.226093  1
  Ir  Ir11  1  0.500000  0.929810  0.773907  1
  Ir  Ir12  1  0.500000  0.773907  0.070190  1
  Ir  Ir13  1  0.500000  0.429810  0.726093  1
  Ir  Ir14  1  0.500000  0.226093  0.929810  1
  Ir  Ir15  1  0.500000  0.570190  0.273907  1
  Ir  Ir16  1  0.500000  0.726093  0.570190  1
  Ir  Ir17  1  0.500000  0.273907  0.429810  1
  Ir  Ir18  1  0.500000  0.000000  0.500000  1
  Ir  Ir19  1  0.500000  0.500000  0.000000  1
