# generated using pymatgen
data_Lu16In6CoRh
_symmetry_space_group_name_H-M   'P 1'
_cell_length_a   10.18123200
_cell_length_b   10.18123152
_cell_length_c   6.86337600
_cell_angle_alpha   90.00000000
_cell_angle_beta   90.00000000
_cell_angle_gamma   120.00000156
_symmetry_Int_Tables_number   1
_chemical_formula_structural   Lu16In6CoRh
_chemical_formula_sum   'Lu16 In6 Co1 Rh1'
_cell_volume   616.12533007
_cell_formula_units_Z   1
loop_
 _symmetry_equiv_pos_site_id
 _symmetry_equiv_pos_as_xyz
  1  'x, y, z'
loop_
 _atom_site_type_symbol
 _atom_site_label
 _atom_site_symmetry_multiplicity
 _atom_site_fract_x
 _atom_site_fract_y
 _atom_site_fract_z
 _atom_site_occupancy
  Lu  Lu0  1  0.531652  0.063305  0.524487  1
  Lu  Lu1  1  0.936695  0.468348  0.524487  1
  Lu  Lu2  1  0.531652  0.468348  0.524487  1
  Lu  Lu3  1  0.465737  0.931473  0.022715  1
  Lu  Lu4  1  0.068527  0.534263  0.022715  1
  Lu  Lu5  1  0.465737  0.534263  0.022715  1
  Lu  Lu6  1  0.179167  0.358335  0.729889  1
  Lu  Lu7  1  0.641665  0.820833  0.729889  1
  Lu  Lu8  1  0.179167  0.820833  0.729889  1
  Lu  Lu9  1  0.823162  0.646324  0.228377  1
  Lu  Lu10  1  0.353676  0.176838  0.228377  1
  Lu  Lu11  1  0.823162  0.176838  0.228377  1
  Lu  Lu12  1  0.666667  0.333333  0.902304  1
  Lu  Lu13  1  0.333333  0.666667  0.412047  1
  Lu  Lu14  1  0.000000  0.000000  0.508388  1
  Lu  Lu15  1  0.000000  0.000000  0.006117  1
  In  In16  1  0.837696  0.675391  0.768329  1
  In  In17  1  0.324609  0.162304  0.768329  1
  In  In18  1  0.837696  0.162304  0.768329  1
  In  In19  1  0.163439  0.326877  0.269763  1
  In  In20  1  0.673123  0.836561  0.269763  1
  In  In21  1  0.163439  0.836561  0.269763  1
  Co  Co22  1  0.333333  0.666667  0.797814  1
  Rh  Rh23  1  0.666667  0.333333  0.298327  1
