# generated using pymatgen
data_Tb3Er2(GaTe)2
_symmetry_space_group_name_H-M   'P 1'
_cell_length_a   8.67194062
_cell_length_b   8.67194207
_cell_length_c   7.91093800
_cell_angle_alpha   90.18987978
_cell_angle_beta   90.18987320
_cell_angle_gamma   126.01007110
_symmetry_Int_Tables_number   1
_chemical_formula_structural   Tb3Er2(GaTe)2
_chemical_formula_sum   'Tb6 Er4 Ga4 Te4'
_cell_volume   481.22839075
_cell_formula_units_Z   2
loop_
 _symmetry_equiv_pos_site_id
 _symmetry_equiv_pos_as_xyz
  1  'x, y, z'
loop_
 _atom_site_type_symbol
 _atom_site_label
 _atom_site_symmetry_multiplicity
 _atom_site_fract_x
 _atom_site_fract_y
 _atom_site_fract_z
 _atom_site_occupancy
  Tb  Tb0  1  0.797039  0.539445  0.169043  1
  Tb  Tb1  1  0.460555  0.202961  0.830957  1
  Tb  Tb2  1  0.960628  0.704378  0.667743  1
  Tb  Tb3  1  0.295622  0.039372  0.332257  1
  Tb  Tb4  1  0.201491  0.461190  0.831548  1
  Tb  Tb5  1  0.538810  0.798509  0.168452  1
  Er  Er6  1  0.999471  0.000529  0.000000  1
  Er  Er7  1  0.500048  0.499952  0.500000  1
  Er  Er8  1  0.040234  0.292909  0.333066  1
  Er  Er9  1  0.707091  0.959766  0.666934  1
  Ga  Ga10  1  0.872418  0.874240  0.374897  1
  Ga  Ga11  1  0.125760  0.127582  0.625103  1
  Ga  Ga12  1  0.626172  0.628003  0.874024  1
  Ga  Ga13  1  0.371997  0.373828  0.125976  1
  Te  Te14  1  0.203051  0.796949  0.000000  1
  Te  Te15  1  0.706823  0.293177  0.500000  1
  Te  Te16  1  0.796507  0.203493  0.000000  1
  Te  Te17  1  0.296280  0.703720  0.500000  1
