# generated using pymatgen
data_LiDy17(ZrIr6)2
_symmetry_space_group_name_H-M   'P 1'
_cell_length_a   10.83333300
_cell_length_b   10.83333300
_cell_length_c   6.26896900
_cell_angle_alpha   90.00000000
_cell_angle_beta   90.00000000
_cell_angle_gamma   90.00000000
_symmetry_Int_Tables_number   1
_chemical_formula_structural   LiDy17(ZrIr6)2
_chemical_formula_sum   'Li1 Dy17 Zr2 Ir12'
_cell_volume   735.73312209
_cell_formula_units_Z   1
loop_
 _symmetry_equiv_pos_site_id
 _symmetry_equiv_pos_as_xyz
  1  'x, y, z'
loop_
 _atom_site_type_symbol
 _atom_site_label
 _atom_site_symmetry_multiplicity
 _atom_site_fract_x
 _atom_site_fract_y
 _atom_site_fract_z
 _atom_site_occupancy
  Li  Li0  1  0.500000  0.500000  0.000000  1
  Dy  Dy1  1  0.289518  0.088949  0.375736  1
  Dy  Dy2  1  0.290145  0.915179  0.874245  1
  Dy  Dy3  1  0.709855  0.084821  0.874245  1
  Dy  Dy4  1  0.710482  0.911051  0.375736  1
  Dy  Dy5  1  0.583197  0.781766  0.877381  1
  Dy  Dy6  1  0.588800  0.207648  0.377270  1
  Dy  Dy7  1  0.411200  0.792352  0.377270  1
  Dy  Dy8  1  0.416803  0.218234  0.877381  1
  Dy  Dy9  1  0.207648  0.411200  0.622730  1
  Dy  Dy10  1  0.218234  0.583197  0.122619  1
  Dy  Dy11  1  0.781766  0.416803  0.122619  1
  Dy  Dy12  1  0.792352  0.588800  0.622730  1
  Dy  Dy13  1  0.915179  0.709855  0.125755  1
  Dy  Dy14  1  0.911051  0.289518  0.624264  1
  Dy  Dy15  1  0.088949  0.710482  0.624264  1
  Dy  Dy16  1  0.084821  0.290145  0.125755  1
  Dy  Dy17  1  0.500000  0.500000  0.500000  1
  Zr  Zr18  1  0.000000  0.000000  0.500000  1
  Zr  Zr19  1  0.000000  0.000000  0.000000  1
  Ir  Ir20  1  0.854990  0.143777  0.249153  1
  Ir  Ir21  1  0.856223  0.854990  0.750847  1
  Ir  Ir22  1  0.143777  0.145010  0.750847  1
  Ir  Ir23  1  0.145010  0.856223  0.249153  1
  Ir  Ir24  1  0.655774  0.342987  0.745220  1
  Ir  Ir25  1  0.657013  0.655774  0.254780  1
  Ir  Ir26  1  0.342987  0.344226  0.254780  1
  Ir  Ir27  1  0.344226  0.657013  0.745220  1
  Ir  Ir28  1  0.500000  0.000000  0.118758  1
  Ir  Ir29  1  0.500000  0.000000  0.622927  1
  Ir  Ir30  1  0.000000  0.500000  0.881242  1
  Ir  Ir31  1  0.000000  0.500000  0.377073  1
