# generated using pymatgen
data_Pr4Ga3Si3Au2
_symmetry_space_group_name_H-M   'P 1'
_cell_length_a   8.56513271
_cell_length_b   8.55715451
_cell_length_c   6.07432591
_cell_angle_alpha   69.29155308
_cell_angle_beta   69.32967358
_cell_angle_gamma   41.55760574
_symmetry_Int_Tables_number   1
_chemical_formula_structural   Pr4Ga3Si3Au2
_chemical_formula_sum   'Pr4 Ga3 Si3 Au2'
_cell_volume   273.43981702
_cell_formula_units_Z   1
loop_
 _symmetry_equiv_pos_site_id
 _symmetry_equiv_pos_as_xyz
  1  'x, y, z'
loop_
 _atom_site_type_symbol
 _atom_site_label
 _atom_site_symmetry_multiplicity
 _atom_site_fract_x
 _atom_site_fract_y
 _atom_site_fract_z
 _atom_site_occupancy
  Pr  Pr0  1  0.254024  0.248572  0.246455  1
  Pr  Pr1  1  0.246809  0.749675  0.255962  1
  Pr  Pr2  1  0.744038  0.252446  0.753191  1
  Pr  Pr3  1  0.753545  0.749051  0.745976  1
  Ga  Ga4  1  0.831223  0.335057  0.168777  1
  Ga  Ga5  1  0.660554  0.173550  0.339446  1
  Ga  Ga6  1  0.659609  0.665911  0.340390  1
  Si  Si7  1  0.332050  0.339447  0.667950  1
  Si  Si8  1  0.331304  0.829806  0.668696  1
  Si  Si9  1  0.172748  0.664354  0.827252  1
  Au  Au10  1  0.840139  0.829070  0.159861  1
  Au  Au11  1  0.173956  0.163062  0.826044  1
