# generated using pymatgen
data_CaEuCr2F10
_symmetry_space_group_name_H-M   'P 1'
_cell_length_a   5.69330073
_cell_length_b   5.69330128
_cell_length_c   7.83714200
_cell_angle_alpha   69.76427622
_cell_angle_beta   69.76427342
_cell_angle_gamma   71.27467733
_symmetry_Int_Tables_number   1
_chemical_formula_structural   CaEuCr2F10
_chemical_formula_sum   'Ca1 Eu1 Cr2 F10'
_cell_volume   217.70904114
_cell_formula_units_Z   1
loop_
 _symmetry_equiv_pos_site_id
 _symmetry_equiv_pos_as_xyz
  1  'x, y, z'
loop_
 _atom_site_type_symbol
 _atom_site_label
 _atom_site_symmetry_multiplicity
 _atom_site_fract_x
 _atom_site_fract_y
 _atom_site_fract_z
 _atom_site_occupancy
  Ca  Ca0  1  0.544050  0.455950  0.750000  1
  Eu  Eu1  1  0.453816  0.546184  0.250000  1
  Cr  Cr2  1  0.005064  0.005222  0.995020  1
  Cr  Cr3  1  0.994778  0.994936  0.504980  1
  F  F4  1  0.206530  0.244667  0.382985  1
  F  F5  1  0.755333  0.793470  0.117015  1
  F  F6  1  0.788012  0.742467  0.619960  1
  F  F7  1  0.257533  0.211988  0.880040  1
  F  F8  1  0.072343  0.927657  0.250000  1
  F  F9  1  0.923088  0.076912  0.750000  1
  F  F10  1  0.285486  0.696891  0.967454  1
  F  F11  1  0.303109  0.714514  0.532546  1
  F  F12  1  0.719538  0.308680  0.023218  1
  F  F13  1  0.691320  0.280462  0.476782  1
