# generated using pymatgen
data_Tm6Al15Ga4Si5Os8
_symmetry_space_group_name_H-M   'P 1'
_cell_length_a   8.64564400
_cell_length_b   8.62815764
_cell_length_c   9.61547900
_cell_angle_alpha   90.00000000
_cell_angle_beta   90.00000000
_cell_angle_gamma   120.06706412
_symmetry_Int_Tables_number   1
_chemical_formula_structural   Tm6Al15Ga4Si5Os8
_chemical_formula_sum   'Tm6 Al15 Ga4 Si5 Os8'
_cell_volume   620.75909282
_cell_formula_units_Z   1
loop_
 _symmetry_equiv_pos_site_id
 _symmetry_equiv_pos_as_xyz
  1  'x, y, z'
loop_
 _atom_site_type_symbol
 _atom_site_label
 _atom_site_symmetry_multiplicity
 _atom_site_fract_x
 _atom_site_fract_y
 _atom_site_fract_z
 _atom_site_occupancy
  Tm  Tm0  1  0.195139  0.390280  0.250000  1
  Tm  Tm1  1  0.805664  0.611328  0.750000  1
  Tm  Tm2  1  0.607597  0.805931  0.250000  1
  Tm  Tm3  1  0.389661  0.195431  0.750000  1
  Tm  Tm4  1  0.198334  0.805931  0.250000  1
  Tm  Tm5  1  0.805770  0.195431  0.750000  1
  Al  Al6  1  0.165796  0.331593  0.576702  1
  Al  Al7  1  0.834417  0.668834  0.420405  1
  Al  Al8  1  0.667503  0.834368  0.575252  1
  Al  Al9  1  0.834417  0.668834  0.079595  1
  Al  Al10  1  0.329305  0.165519  0.420694  1
  Al  Al11  1  0.165796  0.331593  0.923298  1
  Al  Al12  1  0.166865  0.834368  0.575252  1
  Al  Al13  1  0.329305  0.165519  0.079306  1
  Al  Al14  1  0.836215  0.165519  0.420694  1
  Al  Al15  1  0.667503  0.834368  0.924748  1
  Al  Al16  1  0.836215  0.165519  0.079306  1
  Al  Al17  1  0.166865  0.834368  0.924748  1
  Al  Al18  1  0.872872  0.433704  0.250000  1
  Al  Al19  1  0.560834  0.433704  0.250000  1
  Al  Al20  1  0.999756  0.999512  0.250000  1
  Ga  Ga21  1  0.438284  0.876568  0.750000  1
  Ga  Ga22  1  0.126553  0.564235  0.750000  1
  Ga  Ga23  1  0.437683  0.564235  0.750000  1
  Ga  Ga24  1  0.000476  0.000953  0.750000  1
  Si  Si25  1  0.332512  0.665026  0.044829  1
  Si  Si26  1  0.667250  0.334500  0.958973  1
  Si  Si27  1  0.667250  0.334500  0.541027  1
  Si  Si28  1  0.332512  0.665026  0.455171  1
  Si  Si29  1  0.563996  0.127993  0.250000  1
  Os  Os30  1  0.500303  0.000605  0.008744  1
  Os  Os31  1  0.999652  0.499130  0.002322  1
  Os  Os32  1  0.500303  0.000605  0.491256  1
  Os  Os33  1  0.499478  0.499130  0.002322  1
  Os  Os34  1  0.999652  0.499130  0.497678  1
  Os  Os35  1  0.499478  0.499130  0.497678  1
  Os  Os36  1  0.999394  0.998788  0.001475  1
  Os  Os37  1  0.999394  0.998788  0.498525  1
