# generated using pymatgen
data_Hf12Al7Tc5N4
_symmetry_space_group_name_H-M   'P 1'
_cell_length_a   8.59181179
_cell_length_b   8.59181037
_cell_length_c   8.59181100
_cell_angle_alpha   60.13741825
_cell_angle_beta   60.13741601
_cell_angle_gamma   60.13742181
_symmetry_Int_Tables_number   1
_chemical_formula_structural   Hf12Al7Tc5N4
_chemical_formula_sum   'Hf12 Al7 Tc5 N4'
_cell_volume   449.87201395
_cell_formula_units_Z   1
loop_
 _symmetry_equiv_pos_site_id
 _symmetry_equiv_pos_as_xyz
  1  'x, y, z'
loop_
 _atom_site_type_symbol
 _atom_site_label
 _atom_site_symmetry_multiplicity
 _atom_site_fract_x
 _atom_site_fract_y
 _atom_site_fract_z
 _atom_site_occupancy
  Hf  Hf0  1  0.811908  0.811908  0.185563  1
  Hf  Hf1  1  0.190349  0.190349  0.810713  1
  Hf  Hf2  1  0.811908  0.185563  0.811908  1
  Hf  Hf3  1  0.190349  0.810713  0.190349  1
  Hf  Hf4  1  0.185563  0.811908  0.811908  1
  Hf  Hf5  1  0.810713  0.190349  0.190349  1
  Hf  Hf6  1  0.440633  0.440633  0.059190  1
  Hf  Hf7  1  0.061186  0.061186  0.439165  1
  Hf  Hf8  1  0.440633  0.059190  0.440633  1
  Hf  Hf9  1  0.061186  0.439165  0.061186  1
  Hf  Hf10  1  0.059190  0.440633  0.440633  1
  Hf  Hf11  1  0.439165  0.061186  0.061186  1
  Al  Al12  1  0.746640  0.417827  0.417827  1
  Al  Al13  1  0.417827  0.746640  0.417827  1
  Al  Al14  1  0.417827  0.417827  0.746640  1
  Al  Al15  1  0.417979  0.417979  0.417979  1
  Al  Al16  1  0.499053  0.832331  0.832331  1
  Al  Al17  1  0.832331  0.499053  0.832331  1
  Al  Al18  1  0.832331  0.832331  0.499053  1
  Tc  Tc19  1  0.119758  0.630373  0.630373  1
  Tc  Tc20  1  0.630373  0.119758  0.630373  1
  Tc  Tc21  1  0.630373  0.630373  0.119758  1
  Tc  Tc22  1  0.625353  0.625353  0.625353  1
  Tc  Tc23  1  0.825656  0.825656  0.825656  1
  N  N24  1  0.624318  0.125949  0.125949  1
  N  N25  1  0.125949  0.624318  0.125949  1
  N  N26  1  0.125949  0.125949  0.624318  1
  N  N27  1  0.125500  0.125500  0.125500  1
