# generated using pymatgen
data_Gd4DyTm3(B6Ru)4
_symmetry_space_group_name_H-M   'P 1'
_cell_length_a   3.67497900
_cell_length_b   9.16528407
_cell_length_c   11.54948700
_cell_angle_alpha   90.00692654
_cell_angle_beta   90.00000000
_cell_angle_gamma   90.00000000
_symmetry_Int_Tables_number   1
_chemical_formula_structural   Gd4DyTm3(B6Ru)4
_chemical_formula_sum   'Gd4 Dy1 Tm3 B24 Ru4'
_cell_volume   389.01243396
_cell_formula_units_Z   1
loop_
 _symmetry_equiv_pos_site_id
 _symmetry_equiv_pos_as_xyz
  1  'x, y, z'
loop_
 _atom_site_type_symbol
 _atom_site_label
 _atom_site_symmetry_multiplicity
 _atom_site_fract_x
 _atom_site_fract_y
 _atom_site_fract_z
 _atom_site_occupancy
  Gd  Gd0  1  0.000000  0.322876  0.414309  1
  Gd  Gd1  1  0.000000  0.677073  0.586210  1
  Gd  Gd2  1  0.000000  0.822511  0.085576  1
  Gd  Gd3  1  0.000000  0.177512  0.914085  1
  Dy  Dy4  1  0.000000  0.944071  0.372561  1
  Tm  Tm5  1  0.000000  0.056184  0.628093  1
  Tm  Tm6  1  0.000000  0.444019  0.127260  1
  Tm  Tm7  1  0.000000  0.556074  0.872414  1
  B  B8  1  0.500000  0.554389  0.432152  1
  B  B9  1  0.500000  0.444810  0.568093  1
  B  B10  1  0.500000  0.055335  0.067476  1
  B  B11  1  0.500000  0.944890  0.932098  1
  B  B12  1  0.500000  0.747765  0.419087  1
  B  B13  1  0.500000  0.251169  0.581197  1
  B  B14  1  0.500000  0.249483  0.080680  1
  B  B15  1  0.500000  0.750864  0.919100  1
  B  B16  1  0.500000  0.790329  0.265964  1
  B  B17  1  0.500000  0.208610  0.733939  1
  B  B18  1  0.500000  0.292035  0.233408  1
  B  B19  1  0.500000  0.708441  0.766393  1
  B  B20  1  0.500000  0.630917  0.184526  1
  B  B21  1  0.500000  0.368732  0.815287  1
  B  B22  1  0.500000  0.132453  0.314697  1
  B  B23  1  0.500000  0.868469  0.685096  1
  B  B24  1  0.500000  0.984920  0.212713  1
  B  B25  1  0.500000  0.015819  0.786555  1
  B  B26  1  0.500000  0.483733  0.286222  1
  B  B27  1  0.500000  0.515928  0.713676  1
  B  B28  1  0.500000  0.604888  0.028688  1
  B  B29  1  0.500000  0.395121  0.971059  1
  B  B30  1  0.500000  0.107008  0.471592  1
  B  B31  1  0.500000  0.893797  0.530057  1
  Ru  Ru32  1  0.000000  0.637712  0.320005  1
  Ru  Ru33  1  0.000000  0.361270  0.680152  1
  Ru  Ru34  1  0.000000  0.139646  0.179258  1
  Ru  Ru35  1  0.000000  0.861143  0.820322  1
