# generated using pymatgen
data_CeY3Zr4F28
_symmetry_space_group_name_H-M   'P 1'
_cell_length_a   5.80368282
_cell_length_b   9.19224507
_cell_length_c   12.35603000
_cell_angle_alpha   62.32273644
_cell_angle_beta   89.95464658
_cell_angle_gamma   90.00608495
_symmetry_Int_Tables_number   1
_chemical_formula_structural   CeY3Zr4F28
_chemical_formula_sum   'Ce1 Y3 Zr4 F28'
_cell_volume   583.75531428
_cell_formula_units_Z   1
loop_
 _symmetry_equiv_pos_site_id
 _symmetry_equiv_pos_as_xyz
  1  'x, y, z'
loop_
 _atom_site_type_symbol
 _atom_site_label
 _atom_site_symmetry_multiplicity
 _atom_site_fract_x
 _atom_site_fract_y
 _atom_site_fract_z
 _atom_site_occupancy
  Ce  Ce0  1  0.756141  0.817775  0.766216  1
  Y  Y1  1  0.743546  0.817604  0.266208  1
  Y  Y2  1  0.243404  0.185383  0.233684  1
  Y  Y3  1  0.257298  0.190597  0.733081  1
  Zr  Zr4  1  0.743484  0.279013  0.451896  1
  Zr  Zr5  1  0.244259  0.725140  0.050619  1
  Zr  Zr6  1  0.254440  0.725810  0.539794  1
  Zr  Zr7  1  0.755190  0.269458  0.957340  1
  F  F8  1  0.459336  0.707739  0.927274  1
  F  F9  1  0.964940  0.288760  0.576420  1
  F  F10  1  0.532215  0.285966  0.078599  1
  F  F11  1  0.032237  0.710349  0.418469  1
  F  F12  1  0.456919  0.281834  0.549003  1
  F  F13  1  0.956451  0.714522  0.959229  1
  F  F14  1  0.546002  0.718715  0.447955  1
  F  F15  1  0.042912  0.277785  0.051759  1
  F  F16  1  0.770073  0.517447  0.860823  1
  F  F17  1  0.267442  0.475511  0.638530  1
  F  F18  1  0.235417  0.474204  0.144449  1
  F  F19  1  0.732757  0.527974  0.356160  1
  F  F20  1  0.759445  0.020581  0.059232  1
  F  F21  1  0.258863  0.974894  0.439974  1
  F  F22  1  0.240351  0.973124  0.943449  1
  F  F23  1  0.739765  0.029891  0.551304  1
  F  F24  1  0.984789  0.730066  0.643239  1
  F  F25  1  0.485889  0.265664  0.851984  1
  F  F26  1  0.010652  0.266055  0.348508  1
  F  F27  1  0.513459  0.734808  0.153394  1
  F  F28  1  0.032978  0.746801  0.175953  1
  F  F29  1  0.530338  0.254918  0.327507  1
  F  F30  1  0.966808  0.250332  0.830076  1
  F  F31  1  0.458053  0.743031  0.668841  1
  F  F32  1  0.432708  0.976108  0.235793  1
  F  F33  1  0.933673  0.025650  0.264409  1
  F  F34  1  0.571004  0.037474  0.766093  1
  F  F35  1  0.086762  0.979016  0.732740  1
