# generated using pymatgen
data_Y2LuGaSn3Rh2
_symmetry_space_group_name_H-M   'P 1'
_cell_length_a   7.39496578
_cell_length_b   7.43536547
_cell_length_c   4.09953000
_cell_angle_alpha   90.00000000
_cell_angle_beta   90.00000000
_cell_angle_gamma   120.01590163
_symmetry_Int_Tables_number   1
_chemical_formula_structural   Y2LuGaSn3Rh2
_chemical_formula_sum   'Y2 Lu1 Ga1 Sn3 Rh2'
_cell_volume   195.17921981
_cell_formula_units_Z   1
loop_
 _symmetry_equiv_pos_site_id
 _symmetry_equiv_pos_as_xyz
  1  'x, y, z'
loop_
 _atom_site_type_symbol
 _atom_site_label
 _atom_site_symmetry_multiplicity
 _atom_site_fract_x
 _atom_site_fract_y
 _atom_site_fract_z
 _atom_site_occupancy
  Y  Y0  1  0.399743  0.410828  0.500000  1
  Y  Y1  1  0.588974  0.990019  0.500000  1
  Lu  Lu2  1  0.017069  0.605355  0.500000  1
  Ga  Ga3  1  0.671096  0.336611  0.000000  1
  Sn  Sn4  1  0.741083  0.747291  0.000000  1
  Sn  Sn5  1  0.251951  0.994133  0.000000  1
  Sn  Sn6  1  0.004516  0.256217  0.000000  1
  Rh  Rh7  1  0.326541  0.664802  0.000000  1
  Rh  Rh8  1  0.999027  0.994745  0.500000  1
