# generated using pymatgen
data_La3Mg2HgIrAu2
_symmetry_space_group_name_H-M   'P 1'
_cell_length_a   8.01015346
_cell_length_b   7.85583337
_cell_length_c   4.09568500
_cell_angle_alpha   90.00000000
_cell_angle_beta   90.00000000
_cell_angle_gamma   120.14203090
_symmetry_Int_Tables_number   1
_chemical_formula_structural   La3Mg2HgIrAu2
_chemical_formula_sum   'La3 Mg2 Hg1 Ir1 Au2'
_cell_volume   222.87786397
_cell_formula_units_Z   1
loop_
 _symmetry_equiv_pos_site_id
 _symmetry_equiv_pos_as_xyz
  1  'x, y, z'
loop_
 _atom_site_type_symbol
 _atom_site_label
 _atom_site_symmetry_multiplicity
 _atom_site_fract_x
 _atom_site_fract_y
 _atom_site_fract_z
 _atom_site_occupancy
  La  La0  1  0.564481  0.979179  0.000000  1
  La  La1  1  0.030353  0.603986  0.000000  1
  La  La2  1  0.403670  0.417904  0.000000  1
  Mg  Mg3  1  0.002069  0.247149  0.500000  1
  Mg  Mg4  1  0.751727  0.753288  0.500000  1
  Hg  Hg5  1  0.252271  0.002486  0.500000  1
  Ir  Ir6  1  0.336048  0.650043  0.500000  1
  Au  Au7  1  0.686262  0.348111  0.500000  1
  Au  Au8  1  0.973118  0.997855  0.000000  1
