# generated using pymatgen
data_Li2Er3TmP4
_symmetry_space_group_name_H-M   'P 1'
_cell_length_a   4.01675200
_cell_length_b   4.01675300
_cell_length_c   13.63842300
_cell_angle_alpha   90.00000000
_cell_angle_beta   90.00000000
_cell_angle_gamma   119.99997533
_symmetry_Int_Tables_number   1
_chemical_formula_structural   Li2Er3TmP4
_chemical_formula_sum   'Li2 Er3 Tm1 P4'
_cell_volume   190.56583434
_cell_formula_units_Z   1
loop_
 _symmetry_equiv_pos_site_id
 _symmetry_equiv_pos_as_xyz
  1  'x, y, z'
loop_
 _atom_site_type_symbol
 _atom_site_label
 _atom_site_symmetry_multiplicity
 _atom_site_fract_x
 _atom_site_fract_y
 _atom_site_fract_z
 _atom_site_occupancy
  Li  Li0  1  0.000000  0.000000  0.749851  1
  Li  Li1  1  0.000000  0.000000  0.249968  1
  Er  Er2  1  0.333333  0.666667  0.890142  1
  Er  Er3  1  0.666667  0.333333  0.390247  1
  Er  Er4  1  0.666667  0.333333  0.109769  1
  Tm  Tm5  1  0.333333  0.666667  0.609745  1
  P  P6  1  0.000000  0.000000  0.999994  1
  P  P7  1  0.333333  0.666667  0.250078  1
  P  P8  1  0.666667  0.333333  0.749615  1
  P  P9  1  0.000000  0.000000  0.500592  1
