# generated using pymatgen
data_Nd5PdRuO12
_symmetry_space_group_name_H-M   'P 1'
_cell_length_a   7.10925384
_cell_length_b   7.10925235
_cell_length_c   7.57076001
_cell_angle_alpha   74.54041638
_cell_angle_beta   74.54042201
_cell_angle_gamma   50.66489599
_symmetry_Int_Tables_number   1
_chemical_formula_structural   Nd5PdRuO12
_chemical_formula_sum   'Nd5 Pd1 Ru1 O12'
_cell_volume   282.78853074
_cell_formula_units_Z   1
loop_
 _symmetry_equiv_pos_site_id
 _symmetry_equiv_pos_as_xyz
  1  'x, y, z'
loop_
 _atom_site_type_symbol
 _atom_site_label
 _atom_site_symmetry_multiplicity
 _atom_site_fract_x
 _atom_site_fract_y
 _atom_site_fract_z
 _atom_site_occupancy
  Nd  Nd0  1  0.309887  0.296777  0.358180  1
  Nd  Nd1  1  0.703223  0.690113  0.641820  1
  Nd  Nd2  1  0.697479  0.691048  0.164821  1
  Nd  Nd3  1  0.308952  0.302521  0.835179  1
  Nd  Nd4  1  0.001569  0.998431  0.500000  1
  Pd  Pd5  1  0.748476  0.251524  0.000000  1
  Ru  Ru6  1  0.238915  0.761085  0.000000  1
  O  O7  1  0.099921  0.597316  0.574084  1
  O  O8  1  0.001794  0.997394  0.175566  1
  O  O9  1  0.402684  0.900079  0.425916  1
  O  O10  1  0.492385  0.508305  0.176035  1
  O  O11  1  0.102034  0.582119  0.079786  1
  O  O12  1  0.908041  0.400921  0.422696  1
  O  O13  1  0.002606  0.998206  0.824434  1
  O  O14  1  0.599079  0.091958  0.577304  1
  O  O15  1  0.491695  0.507615  0.823965  1
  O  O16  1  0.570509  0.097128  0.082088  1
  O  O17  1  0.417881  0.897966  0.920214  1
  O  O18  1  0.902872  0.429491  0.917912  1
