# generated using pymatgen
data_Li4B4RuRh5
_symmetry_space_group_name_H-M   'P 1'
_cell_length_a   2.85681600
_cell_length_b   5.79638115
_cell_length_c   9.48307134
_cell_angle_alpha   90.15237454
_cell_angle_beta   90.00000000
_cell_angle_gamma   90.00000000
_symmetry_Int_Tables_number   1
_chemical_formula_structural   Li4B4RuRh5
_chemical_formula_sum   'Li4 B4 Ru1 Rh5'
_cell_volume   157.03146666
_cell_formula_units_Z   1
loop_
 _symmetry_equiv_pos_site_id
 _symmetry_equiv_pos_as_xyz
  1  'x, y, z'
loop_
 _atom_site_type_symbol
 _atom_site_label
 _atom_site_symmetry_multiplicity
 _atom_site_fract_x
 _atom_site_fract_y
 _atom_site_fract_z
 _atom_site_occupancy
  Li  Li0  1  0.500000  0.338940  0.072493  1
  Li  Li1  1  0.500000  0.662138  0.925123  1
  Li  Li2  1  0.500000  0.160464  0.574355  1
  Li  Li3  1  0.500000  0.838335  0.426077  1
  B  B4  1  0.500000  0.068901  0.828591  1
  B  B5  1  0.500000  0.559768  0.673597  1
  B  B6  1  0.500000  0.437178  0.331885  1
  B  B7  1  0.500000  0.936549  0.167498  1
  Ru  Ru8  1  0.000000  0.335079  0.779308  1
  Rh  Rh9  1  0.000000  0.165977  0.278441  1
  Rh  Rh10  1  0.000000  0.498245  0.499952  1
  Rh  Rh11  1  0.000000  0.666086  0.222009  1
  Rh  Rh12  1  0.000000  0.834381  0.720721  1
  Rh  Rh13  1  0.000000  0.997958  0.999952  1
