# generated using pymatgen
data_Ti4VI4
_symmetry_space_group_name_H-M   'P 1'
_cell_length_a   5.00600400
_cell_length_b   11.15292200
_cell_length_c   19.95696900
_cell_angle_alpha   90.00000000
_cell_angle_beta   90.00000000
_cell_angle_gamma   90.00000000
_symmetry_Int_Tables_number   1
_chemical_formula_structural   Ti4VI4
_chemical_formula_sum   'Ti16 V4 I16'
_cell_volume   1114.22895449
_cell_formula_units_Z   4
loop_
 _symmetry_equiv_pos_site_id
 _symmetry_equiv_pos_as_xyz
  1  'x, y, z'
loop_
 _atom_site_type_symbol
 _atom_site_label
 _atom_site_symmetry_multiplicity
 _atom_site_fract_x
 _atom_site_fract_y
 _atom_site_fract_z
 _atom_site_occupancy
  Ti  Ti0  1  0.500000  0.564354  0.392142  1
  Ti  Ti1  1  0.500000  0.435646  0.607858  1
  Ti  Ti2  1  0.500000  0.064354  0.107858  1
  Ti  Ti3  1  0.500000  0.935646  0.892142  1
  Ti  Ti4  1  0.500000  0.693403  0.535721  1
  Ti  Ti5  1  0.500000  0.306597  0.464279  1
  Ti  Ti6  1  0.500000  0.193403  0.964279  1
  Ti  Ti7  1  0.500000  0.806597  0.035721  1
  Ti  Ti8  1  0.000000  0.682727  0.448920  1
  Ti  Ti9  1  0.000000  0.317273  0.551080  1
  Ti  Ti10  1  0.000000  0.182727  0.051080  1
  Ti  Ti11  1  0.000000  0.817273  0.948920  1
  Ti  Ti12  1  0.000000  0.408373  0.398107  1
  Ti  Ti13  1  0.000000  0.591627  0.601893  1
  Ti  Ti14  1  0.000000  0.908373  0.101893  1
  Ti  Ti15  1  0.000000  0.091627  0.898107  1
  V  V16  1  0.245451  0.500000  0.500000  1
  V  V17  1  0.754549  0.000000  0.000000  1
  V  V18  1  0.754549  0.500000  0.500000  1
  V  V19  1  0.245451  0.000000  0.000000  1
  I  I20  1  0.000000  0.841200  0.563874  1
  I  I21  1  0.000000  0.158800  0.436126  1
  I  I22  1  0.000000  0.341200  0.936126  1
  I  I23  1  0.000000  0.658800  0.063874  1
  I  I24  1  0.500000  0.339398  0.320710  1
  I  I25  1  0.500000  0.660602  0.679290  1
  I  I26  1  0.500000  0.839398  0.179290  1
  I  I27  1  0.500000  0.160602  0.820710  1
  I  I28  1  0.500000  0.821886  0.409640  1
  I  I29  1  0.500000  0.178114  0.590360  1
  I  I30  1  0.500000  0.321886  0.090360  1
  I  I31  1  0.500000  0.678114  0.909640  1
  I  I32  1  0.000000  0.612499  0.309462  1
  I  I33  1  0.000000  0.387501  0.690538  1
  I  I34  1  0.000000  0.112499  0.190538  1
  I  I35  1  0.000000  0.887501  0.809462  1
