# generated using pymatgen
data_KSmSiSe4
_symmetry_space_group_name_H-M   'P 1'
_cell_length_a   7.04255500
_cell_length_b   6.78929844
_cell_length_c   9.21991098
_cell_angle_alpha   72.27216590
_cell_angle_beta   90.00000000
_cell_angle_gamma   90.00000000
_symmetry_Int_Tables_number   1
_chemical_formula_structural   KSmSiSe4
_chemical_formula_sum   'K2 Sm2 Si2 Se8'
_cell_volume   419.90697837
_cell_formula_units_Z   2
loop_
 _symmetry_equiv_pos_site_id
 _symmetry_equiv_pos_as_xyz
  1  'x, y, z'
loop_
 _atom_site_type_symbol
 _atom_site_label
 _atom_site_symmetry_multiplicity
 _atom_site_fract_x
 _atom_site_fract_y
 _atom_site_fract_z
 _atom_site_occupancy
  K  K0  1  0.978820  0.731948  0.064785  1
  K  K1  1  0.478820  0.268052  0.935215  1
  Sm  Sm2  1  0.497835  0.229549  0.450086  1
  Sm  Sm3  1  0.997835  0.770451  0.549914  1
  Si  Si4  1  0.462712  0.781165  0.327054  1
  Si  Si5  1  0.962712  0.218835  0.672946  1
  Se  Se6  1  0.463161  0.584247  0.167496  1
  Se  Se7  1  0.227720  0.027462  0.276426  1
  Se  Se8  1  0.732468  0.981677  0.295211  1
  Se  Se9  1  0.904285  0.421317  0.428756  1
  Se  Se10  1  0.404285  0.578683  0.571244  1
  Se  Se11  1  0.232468  0.018323  0.704789  1
  Se  Se12  1  0.727720  0.972538  0.723574  1
  Se  Se13  1  0.963161  0.415753  0.832504  1
