# generated using pymatgen
data_Tb5Nd3CdHgIr2
_symmetry_space_group_name_H-M   'P 1'
_cell_length_a   9.76196935
_cell_length_b   9.76197002
_cell_length_c   9.76412300
_cell_angle_alpha   59.99269390
_cell_angle_beta   59.99269164
_cell_angle_gamma   60.08367536
_symmetry_Int_Tables_number   1
_chemical_formula_structural   Tb5Nd3CdHgIr2
_chemical_formula_sum   'Tb10 Nd6 Cd2 Hg2 Ir4'
_cell_volume   658.29264286
_cell_formula_units_Z   2
loop_
 _symmetry_equiv_pos_site_id
 _symmetry_equiv_pos_as_xyz
  1  'x, y, z'
loop_
 _atom_site_type_symbol
 _atom_site_label
 _atom_site_symmetry_multiplicity
 _atom_site_fract_x
 _atom_site_fract_y
 _atom_site_fract_z
 _atom_site_occupancy
  Tb  Tb0  1  0.348476  0.348476  0.347523  1
  Tb  Tb1  1  0.348476  0.348476  0.955526  1
  Tb  Tb2  1  0.349482  0.952793  0.348862  1
  Tb  Tb3  1  0.952793  0.349482  0.348862  1
  Tb  Tb4  1  0.810986  0.187536  0.189710  1
  Tb  Tb5  1  0.187536  0.810986  0.811768  1
  Tb  Tb6  1  0.187536  0.810986  0.189710  1
  Tb  Tb7  1  0.810986  0.187536  0.811768  1
  Tb  Tb8  1  0.188035  0.188035  0.811965  1
  Tb  Tb9  1  0.810741  0.810741  0.189259  1
  Nd  Nd10  1  0.940507  0.558510  0.559597  1
  Nd  Nd11  1  0.558510  0.940507  0.941386  1
  Nd  Nd12  1  0.558510  0.940507  0.559597  1
  Nd  Nd13  1  0.940507  0.558510  0.941386  1
  Nd  Nd14  1  0.559132  0.559132  0.940868  1
  Nd  Nd15  1  0.940778  0.940778  0.559222  1
  Cd  Cd16  1  0.579105  0.261557  0.579669  1
  Cd  Cd17  1  0.261557  0.579105  0.579669  1
  Hg  Hg18  1  0.582278  0.582278  0.583985  1
  Hg  Hg19  1  0.582278  0.582278  0.251457  1
  Ir  Ir20  1  0.141982  0.141982  0.140610  1
  Ir  Ir21  1  0.141982  0.141982  0.575425  1
  Ir  Ir22  1  0.142180  0.575642  0.141089  1
  Ir  Ir23  1  0.575642  0.142180  0.141089  1
