# generated using pymatgen
data_Rb4ZnH8Pt
_symmetry_space_group_name_H-M   'P 1'
_cell_length_a   6.05655900
_cell_length_b   8.50947400
_cell_length_c   10.71870900
_cell_angle_alpha   90.00000000
_cell_angle_beta   90.00000000
_cell_angle_gamma   90.00000000
_symmetry_Int_Tables_number   1
_chemical_formula_structural   Rb4ZnH8Pt
_chemical_formula_sum   'Rb8 Zn2 H16 Pt2'
_cell_volume   552.42223224
_cell_formula_units_Z   2
loop_
 _symmetry_equiv_pos_site_id
 _symmetry_equiv_pos_as_xyz
  1  'x, y, z'
loop_
 _atom_site_type_symbol
 _atom_site_label
 _atom_site_symmetry_multiplicity
 _atom_site_fract_x
 _atom_site_fract_y
 _atom_site_fract_z
 _atom_site_occupancy
  Rb  Rb0  1  0.250000  0.668081  0.071376  1
  Rb  Rb1  1  0.250000  0.168081  0.428624  1
  Rb  Rb2  1  0.750000  0.353870  0.891826  1
  Rb  Rb3  1  0.750000  0.853870  0.608174  1
  Rb  Rb4  1  0.250000  0.019148  0.836702  1
  Rb  Rb5  1  0.250000  0.519148  0.663298  1
  Rb  Rb6  1  0.750000  0.984578  0.205339  1
  Rb  Rb7  1  0.750000  0.484578  0.294661  1
  Zn  Zn8  1  0.750000  0.261894  0.586756  1
  Zn  Zn9  1  0.750000  0.761894  0.913244  1
  H  H10  1  0.976645  0.740244  0.408281  1
  H  H11  1  0.523355  0.240244  0.091719  1
  H  H12  1  0.524820  0.192680  0.659047  1
  H  H13  1  0.975180  0.692680  0.840953  1
  H  H14  1  0.975180  0.192680  0.659047  1
  H  H15  1  0.524820  0.692680  0.840953  1
  H  H16  1  0.523355  0.740244  0.408281  1
  H  H17  1  0.976645  0.240244  0.091719  1
  H  H18  1  0.250000  0.589760  0.311748  1
  H  H19  1  0.250000  0.089760  0.188252  1
  H  H20  1  0.750000  0.455196  0.592186  1
  H  H21  1  0.750000  0.955196  0.907814  1
  H  H22  1  0.250000  0.372277  0.974187  1
  H  H23  1  0.250000  0.872277  0.525813  1
  H  H24  1  0.750000  0.691569  0.059841  1
  H  H25  1  0.750000  0.191569  0.440159  1
  Pt  Pt26  1  0.250000  0.737780  0.412204  1
  Pt  Pt27  1  0.250000  0.237780  0.087796  1
