# generated using pymatgen
data_ErLu3Th4(ReB6)4
_symmetry_space_group_name_H-M   'P 1'
_cell_length_a   3.74319900
_cell_length_b   9.21022611
_cell_length_c   11.64832014
_cell_angle_alpha   90.01757379
_cell_angle_beta   90.00000000
_cell_angle_gamma   90.00000000
_symmetry_Int_Tables_number   1
_chemical_formula_structural   ErLu3Th4(ReB6)4
_chemical_formula_sum   'Er1 Lu3 Th4 Re4 B24'
_cell_volume   401.58407834
_cell_formula_units_Z   1
loop_
 _symmetry_equiv_pos_site_id
 _symmetry_equiv_pos_as_xyz
  1  'x, y, z'
loop_
 _atom_site_type_symbol
 _atom_site_label
 _atom_site_symmetry_multiplicity
 _atom_site_fract_x
 _atom_site_fract_y
 _atom_site_fract_z
 _atom_site_occupancy
  Er  Er0  1  0.000000  0.945269  0.373112  1
  Lu  Lu1  1  0.000000  0.054957  0.627584  1
  Lu  Lu2  1  0.000000  0.445241  0.126759  1
  Lu  Lu3  1  0.000000  0.554766  0.872981  1
  Th  Th4  1  0.000000  0.322378  0.414547  1
  Th  Th5  1  0.000000  0.677631  0.585791  1
  Th  Th6  1  0.000000  0.822071  0.085335  1
  Th  Th7  1  0.000000  0.177948  0.914376  1
  Re  Re8  1  0.000000  0.639604  0.318934  1
  Re  Re9  1  0.000000  0.359748  0.681108  1
  Re  Re10  1  0.000000  0.140825  0.180517  1
  Re  Re11  1  0.000000  0.859579  0.819152  1
  B  B12  1  0.500000  0.556299  0.429427  1
  B  B13  1  0.500000  0.443189  0.570744  1
  B  B14  1  0.500000  0.056898  0.070258  1
  B  B15  1  0.500000  0.943299  0.929366  1
  B  B16  1  0.500000  0.750336  0.416815  1
  B  B17  1  0.500000  0.248819  0.583359  1
  B  B18  1  0.500000  0.251560  0.083022  1
  B  B19  1  0.500000  0.748630  0.916772  1
  B  B20  1  0.500000  0.791260  0.266204  1
  B  B21  1  0.500000  0.207977  0.733667  1
  B  B22  1  0.500000  0.292548  0.233347  1
  B  B23  1  0.500000  0.707837  0.766509  1
  B  B24  1  0.500000  0.629753  0.185101  1
  B  B25  1  0.500000  0.369960  0.814732  1
  B  B26  1  0.500000  0.130910  0.314196  1
  B  B27  1  0.500000  0.869804  0.685497  1
  B  B28  1  0.500000  0.985313  0.214178  1
  B  B29  1  0.500000  0.015155  0.785290  1
  B  B30  1  0.500000  0.484536  0.285041  1
  B  B31  1  0.500000  0.515206  0.714882  1
  B  B32  1  0.500000  0.600673  0.027383  1
  B  B33  1  0.500000  0.399304  0.972405  1
  B  B34  1  0.500000  0.101883  0.473131  1
  B  B35  1  0.500000  0.898833  0.528479  1
