# generated using pymatgen
data_Y15TmMgAg2HgRh4
_symmetry_space_group_name_H-M   'P 1'
_cell_length_a   9.60376618
_cell_length_b   9.63187897
_cell_length_c   9.63184000
_cell_angle_alpha   59.99377999
_cell_angle_beta   59.91636156
_cell_angle_gamma   59.91588469
_symmetry_Int_Tables_number   1
_chemical_formula_structural   Y15TmMgAg2HgRh4
_chemical_formula_sum   'Y15 Tm1 Mg1 Ag2 Hg1 Rh4'
_cell_volume   629.17973499
_cell_formula_units_Z   1
loop_
 _symmetry_equiv_pos_site_id
 _symmetry_equiv_pos_as_xyz
  1  'x, y, z'
loop_
 _atom_site_type_symbol
 _atom_site_label
 _atom_site_symmetry_multiplicity
 _atom_site_fract_x
 _atom_site_fract_y
 _atom_site_fract_z
 _atom_site_occupancy
  Y  Y0  1  0.600131  0.600141  0.202458  1
  Y  Y1  1  0.599575  0.202370  0.600417  1
  Y  Y2  1  0.185407  0.604554  0.605321  1
  Y  Y3  1  0.057529  0.440108  0.439997  1
  Y  Y4  1  0.436824  0.062362  0.062068  1
  Y  Y5  1  0.437708  0.061158  0.437712  1
  Y  Y6  1  0.059264  0.439213  0.060161  1
  Y  Y7  1  0.437493  0.437566  0.061245  1
  Y  Y8  1  0.059204  0.060430  0.439060  1
  Y  Y9  1  0.187968  0.812382  0.812600  1
  Y  Y10  1  0.814766  0.185221  0.185372  1
  Y  Y11  1  0.813158  0.188716  0.814216  1
  Y  Y12  1  0.185110  0.813232  0.186264  1
  Y  Y13  1  0.813243  0.814043  0.188673  1
  Y  Y14  1  0.185578  0.186424  0.812961  1
  Tm  Tm15  1  0.600343  0.597368  0.597107  1
  Mg  Mg16  1  0.539090  0.819417  0.819098  1
  Ag  Ag17  1  0.832227  0.834735  0.497283  1
  Ag  Ag18  1  0.832431  0.497397  0.834734  1
  Hg  Hg19  1  0.831785  0.835839  0.835915  1
  Rh  Rh20  1  0.387328  0.394099  0.394306  1
  Rh  Rh21  1  0.391187  0.398486  0.819925  1
  Rh  Rh22  1  0.391428  0.819960  0.398516  1
  Rh  Rh23  1  0.821226  0.394782  0.394588  1
