# generated using pymatgen
data_Dy4Y8TlCo4Rh
_symmetry_space_group_name_H-M   'P 1'
_cell_length_a   8.35058192
_cell_length_b   8.35058232
_cell_length_c   8.35058231
_cell_angle_alpha   110.68266828
_cell_angle_beta   110.63228541
_cell_angle_gamma   107.12390855
_symmetry_Int_Tables_number   1
_chemical_formula_structural   Dy4Y8TlCo4Rh
_chemical_formula_sum   'Dy4 Y8 Tl1 Co4 Rh1'
_cell_volume   447.69685087
_cell_formula_units_Z   1
loop_
 _symmetry_equiv_pos_site_id
 _symmetry_equiv_pos_as_xyz
  1  'x, y, z'
loop_
 _atom_site_type_symbol
 _atom_site_label
 _atom_site_symmetry_multiplicity
 _atom_site_fract_x
 _atom_site_fract_y
 _atom_site_fract_z
 _atom_site_occupancy
  Dy  Dy0  1  0.405095  0.210008  0.195087  1
  Dy  Dy1  1  0.594905  0.789992  0.804913  1
  Dy  Dy2  1  0.014922  0.210008  0.804913  1
  Dy  Dy3  1  0.985078  0.789992  0.195087  1
  Y  Y4  1  0.187037  0.292410  0.479447  1
  Y  Y5  1  0.812963  0.707590  0.520553  1
  Y  Y6  1  0.187037  0.707590  0.894627  1
  Y  Y7  1  0.812963  0.292410  0.105373  1
  Y  Y8  1  0.313777  0.617877  0.304100  1
  Y  Y9  1  0.686223  0.382123  0.695900  1
  Y  Y10  1  0.313777  0.009677  0.695900  1
  Y  Y11  1  0.686223  0.990323  0.304100  1
  Tl  Tl12  1  0.500000  0.500000  0.000000  1
  Co  Co13  1  0.380796  0.000000  0.380796  1
  Co  Co14  1  0.619204  0.000000  0.619204  1
  Co  Co15  1  0.110920  0.610920  0.500000  1
  Co  Co16  1  0.889080  0.389080  0.500000  1
  Rh  Rh17  1  0.000000  0.000000  0.000000  1
