# generated using pymatgen
data_Zr10Sn2GeBi4
_symmetry_space_group_name_H-M   'P 1'
_cell_length_a   5.91787819
_cell_length_b   8.73739232
_cell_length_c   8.72409500
_cell_angle_alpha   120.05044110
_cell_angle_beta   89.98536110
_cell_angle_gamma   90.02923278
_symmetry_Int_Tables_number   1
_chemical_formula_structural   Zr10Sn2GeBi4
_chemical_formula_sum   'Zr10 Sn2 Ge1 Bi4'
_cell_volume   390.46117132
_cell_formula_units_Z   1
loop_
 _symmetry_equiv_pos_site_id
 _symmetry_equiv_pos_as_xyz
  1  'x, y, z'
loop_
 _atom_site_type_symbol
 _atom_site_label
 _atom_site_symmetry_multiplicity
 _atom_site_fract_x
 _atom_site_fract_y
 _atom_site_fract_z
 _atom_site_occupancy
  Zr  Zr0  1  0.497197  0.333002  0.664327  1
  Zr  Zr1  1  0.497197  0.668675  0.335673  1
  Zr  Zr2  1  0.003494  0.668894  0.335693  1
  Zr  Zr3  1  0.003494  0.333201  0.664307  1
  Zr  Zr4  1  0.761620  0.253220  0.000000  1
  Zr  Zr5  1  0.763365  0.747004  0.745983  1
  Zr  Zr6  1  0.763365  0.001022  0.254017  1
  Zr  Zr7  1  0.237675  0.747298  0.000000  1
  Zr  Zr8  1  0.238278  0.253078  0.258937  1
  Zr  Zr9  1  0.238278  0.994142  0.741063  1
  Sn  Sn10  1  0.251899  0.609973  0.610783  1
  Sn  Sn11  1  0.251899  0.999191  0.389217  1
  Ge  Ge12  1  0.498852  0.000273  0.000000  1
  Bi  Bi13  1  0.746863  0.610275  0.000000  1
  Bi  Bi14  1  0.747067  0.392598  0.391604  1
  Bi  Bi15  1  0.747067  0.000995  0.608396  1
  Bi  Bi16  1  0.252396  0.387162  0.000000  1
