# generated using pymatgen
data_PaAuF10
_symmetry_space_group_name_H-M   'P 1'
_cell_length_a   9.29624380
_cell_length_b   9.29624559
_cell_length_c   5.50573693
_cell_angle_alpha   85.79096636
_cell_angle_beta   85.79097196
_cell_angle_gamma   111.88320241
_symmetry_Int_Tables_number   1
_chemical_formula_structural   PaAuF10
_chemical_formula_sum   'Pa2 Au2 F20'
_cell_volume   437.71465900
_cell_formula_units_Z   2
loop_
 _symmetry_equiv_pos_site_id
 _symmetry_equiv_pos_as_xyz
  1  'x, y, z'
loop_
 _atom_site_type_symbol
 _atom_site_label
 _atom_site_symmetry_multiplicity
 _atom_site_fract_x
 _atom_site_fract_y
 _atom_site_fract_z
 _atom_site_occupancy
  Pa  Pa0  1  0.743937  0.743937  0.747231  1
  Pa  Pa1  1  0.256063  0.256063  0.252769  1
  Au  Au2  1  0.193613  0.806387  0.000000  1
  Au  Au3  1  0.806387  0.193613  0.000000  1
  F  F4  1  0.388984  0.827861  0.114511  1
  F  F5  1  0.172139  0.611016  0.885489  1
  F  F6  1  0.611016  0.172139  0.885489  1
  F  F7  1  0.827861  0.388984  0.114511  1
  F  F8  1  0.139376  0.139376  0.583060  1
  F  F9  1  0.860624  0.860624  0.416940  1
  F  F10  1  0.354657  0.354657  0.905797  1
  F  F11  1  0.645343  0.645343  0.094203  1
  F  F12  1  0.270202  0.465592  0.358033  1
  F  F13  1  0.534408  0.729798  0.641967  1
  F  F14  1  0.729798  0.534408  0.641967  1
  F  F15  1  0.465592  0.270202  0.358033  1
  F  F16  1  0.013347  0.212049  0.117019  1
  F  F17  1  0.787951  0.986653  0.882981  1
  F  F18  1  0.986653  0.787951  0.882981  1
  F  F19  1  0.212049  0.013347  0.117019  1
  F  F20  1  0.916784  0.301614  0.685015  1
  F  F21  1  0.698386  0.083216  0.314985  1
  F  F22  1  0.083216  0.698386  0.314985  1
  F  F23  1  0.301614  0.916784  0.685015  1
