# generated using pymatgen
data_Tm4Al18ZnIr4Ru
_symmetry_space_group_name_H-M   'P 1'
_cell_length_a   7.56564798
_cell_length_b   7.56564862
_cell_length_c   9.42969816
_cell_angle_alpha   89.97742209
_cell_angle_beta   89.97742343
_cell_angle_gamma   119.68192545
_symmetry_Int_Tables_number   1
_chemical_formula_structural   Tm4Al18ZnIr4Ru
_chemical_formula_sum   'Tm4 Al18 Zn1 Ir4 Ru1'
_cell_volume   468.92528737
_cell_formula_units_Z   1
loop_
 _symmetry_equiv_pos_site_id
 _symmetry_equiv_pos_as_xyz
  1  'x, y, z'
loop_
 _atom_site_type_symbol
 _atom_site_label
 _atom_site_symmetry_multiplicity
 _atom_site_fract_x
 _atom_site_fract_y
 _atom_site_fract_z
 _atom_site_occupancy
  Tm  Tm0  1  0.992359  0.668130  0.250165  1
  Tm  Tm1  1  0.001679  0.328389  0.750260  1
  Tm  Tm2  1  0.671611  0.998321  0.249740  1
  Tm  Tm3  1  0.331870  0.007641  0.749835  1
  Al  Al4  1  0.127371  0.124773  0.250829  1
  Al  Al5  1  0.875227  0.872629  0.749171  1
  Al  Al6  1  0.013049  0.337988  0.078624  1
  Al  Al7  1  0.009472  0.674022  0.921589  1
  Al  Al8  1  0.002041  0.664926  0.573923  1
  Al  Al9  1  0.335074  0.997959  0.426077  1
  Al  Al10  1  0.000069  0.334237  0.424576  1
  Al  Al11  1  0.665763  0.999931  0.575424  1
  Al  Al12  1  0.662012  0.986951  0.921376  1
  Al  Al13  1  0.325978  0.990528  0.078411  1
  Al  Al14  1  0.331767  0.331858  0.551189  1
  Al  Al15  1  0.668142  0.668233  0.448811  1
  Al  Al16  1  0.663633  0.672602  0.060496  1
  Al  Al17  1  0.327398  0.336367  0.939504  1
  Al  Al18  1  0.340972  0.553106  0.249756  1
  Al  Al19  1  0.660747  0.456591  0.743395  1
  Al  Al20  1  0.543409  0.339253  0.256605  1
  Al  Al21  1  0.446894  0.659028  0.750244  1
  Zn  Zn22  1  0.673789  0.326211  0.000000  1
  Ir  Ir23  1  0.328592  0.671408  0.500000  1
  Ir  Ir24  1  0.672842  0.327158  0.500000  1
  Ir  Ir25  1  0.999261  0.000739  0.000000  1
  Ir  Ir26  1  0.000596  0.999404  0.500000  1
  Ru  Ru27  1  0.328382  0.671618  0.000000  1
