# generated using pymatgen
data_Gd4TaNb3N8
_symmetry_space_group_name_H-M   'P 1'
_cell_length_a   3.31148300
_cell_length_b   5.72836212
_cell_length_c   11.01539423
_cell_angle_alpha   90.02370336
_cell_angle_beta   90.00000000
_cell_angle_gamma   90.00000000
_symmetry_Int_Tables_number   1
_chemical_formula_structural   Gd4TaNb3N8
_chemical_formula_sum   'Gd4 Ta1 Nb3 N8'
_cell_volume   208.95511278
_cell_formula_units_Z   1
loop_
 _symmetry_equiv_pos_site_id
 _symmetry_equiv_pos_as_xyz
  1  'x, y, z'
loop_
 _atom_site_type_symbol
 _atom_site_label
 _atom_site_symmetry_multiplicity
 _atom_site_fract_x
 _atom_site_fract_y
 _atom_site_fract_z
 _atom_site_occupancy
  Gd  Gd0  1  0.250000  0.584661  0.861795  1
  Gd  Gd1  1  0.750000  0.413794  0.137908  1
  Gd  Gd2  1  0.750000  0.912291  0.360883  1
  Gd  Gd3  1  0.250000  0.085928  0.639197  1
  Ta  Ta4  1  0.250000  0.415461  0.390998  1
  Nb  Nb5  1  0.250000  0.915620  0.108161  1
  Nb  Nb6  1  0.750000  0.083233  0.892797  1
  Nb  Nb7  1  0.750000  0.585305  0.609811  1
  N  N8  1  0.250000  0.658223  0.246932  1
  N  N9  1  0.750000  0.338862  0.754067  1
  N  N10  1  0.750000  0.840554  0.745100  1
  N  N11  1  0.250000  0.163098  0.257291  1
  N  N12  1  0.250000  0.739718  0.506297  1
  N  N13  1  0.750000  0.263669  0.487793  1
  N  N14  1  0.750000  0.757724  0.008314  1
  N  N15  1  0.250000  0.241859  0.992656  1
