# generated using pymatgen
data_Yb4TlSiPt4
_symmetry_space_group_name_H-M   'P 1'
_cell_length_a   5.65584727
_cell_length_b   5.65584921
_cell_length_c   7.95933300
_cell_angle_alpha   77.55976919
_cell_angle_beta   77.55976485
_cell_angle_gamma   59.58946377
_symmetry_Int_Tables_number   1
_chemical_formula_structural   Yb4TlSiPt4
_chemical_formula_sum   'Yb4 Tl1 Si1 Pt4'
_cell_volume   212.70638229
_cell_formula_units_Z   1
loop_
 _symmetry_equiv_pos_site_id
 _symmetry_equiv_pos_as_xyz
  1  'x, y, z'
loop_
 _atom_site_type_symbol
 _atom_site_label
 _atom_site_symmetry_multiplicity
 _atom_site_fract_x
 _atom_site_fract_y
 _atom_site_fract_z
 _atom_site_occupancy
  Yb  Yb0  1  0.797186  0.505021  0.853034  1
  Yb  Yb1  1  0.494979  0.202814  0.646966  1
  Yb  Yb2  1  0.209862  0.495471  0.151469  1
  Yb  Yb3  1  0.504529  0.790138  0.348531  1
  Tl  Tl4  1  0.176178  0.823822  0.750000  1
  Si  Si5  1  0.870370  0.129630  0.250000  1
  Pt  Pt6  1  0.982393  0.742374  0.480898  1
  Pt  Pt7  1  0.257626  0.017607  0.019102  1
  Pt  Pt8  1  0.978253  0.271377  0.478724  1
  Pt  Pt9  1  0.728623  0.021747  0.021276  1
