# generated using pymatgen
data_Tb2Er4Al24Ru3Rh5
_symmetry_space_group_name_H-M   'P 1'
_cell_length_a   8.77084400
_cell_length_b   8.81275570
_cell_length_c   9.53358543
_cell_angle_alpha   90.15690758
_cell_angle_beta   90.00000000
_cell_angle_gamma   119.84279623
_symmetry_Int_Tables_number   1
_chemical_formula_structural   Tb2Er4Al24Ru3Rh5
_chemical_formula_sum   'Tb2 Er4 Al24 Ru3 Rh5'
_cell_volume   639.18066822
_cell_formula_units_Z   1
loop_
 _symmetry_equiv_pos_site_id
 _symmetry_equiv_pos_as_xyz
  1  'x, y, z'
loop_
 _atom_site_type_symbol
 _atom_site_label
 _atom_site_symmetry_multiplicity
 _atom_site_fract_x
 _atom_site_fract_y
 _atom_site_fract_z
 _atom_site_occupancy
  Tb  Tb0  1  0.192237  0.384474  0.250240  1
  Tb  Tb1  1  0.807763  0.615526  0.749760  1
  Er  Er2  1  0.613306  0.808937  0.250741  1
  Er  Er3  1  0.386694  0.191063  0.749259  1
  Er  Er4  1  0.195631  0.808937  0.250741  1
  Er  Er5  1  0.804369  0.191063  0.749259  1
  Al  Al6  1  0.333683  0.667368  0.027736  1
  Al  Al7  1  0.666317  0.332632  0.972264  1
  Al  Al8  1  0.665422  0.330842  0.526748  1
  Al  Al9  1  0.334578  0.669158  0.473252  1
  Al  Al10  1  0.162788  0.325576  0.577475  1
  Al  Al11  1  0.837212  0.674424  0.422525  1
  Al  Al12  1  0.673068  0.837789  0.577154  1
  Al  Al13  1  0.837388  0.674774  0.077936  1
  Al  Al14  1  0.326932  0.162211  0.422846  1
  Al  Al15  1  0.162612  0.325226  0.922064  1
  Al  Al16  1  0.164721  0.837789  0.577154  1
  Al  Al17  1  0.326661  0.164138  0.077435  1
  Al  Al18  1  0.835279  0.162211  0.422846  1
  Al  Al19  1  0.673339  0.835862  0.922565  1
  Al  Al20  1  0.837478  0.164138  0.077435  1
  Al  Al21  1  0.162522  0.835862  0.922565  1
  Al  Al22  1  0.562246  0.124493  0.250672  1
  Al  Al23  1  0.437754  0.875507  0.749328  1
  Al  Al24  1  0.876432  0.439317  0.249652  1
  Al  Al25  1  0.123568  0.560683  0.750348  1
  Al  Al26  1  0.562884  0.439317  0.249652  1
  Al  Al27  1  0.437116  0.560683  0.750348  1
  Al  Al28  1  0.000410  0.000820  0.250048  1
  Al  Al29  1  0.999590  0.999180  0.749952  1
  Ru  Ru30  1  0.500000  0.000000  0.500000  1
  Ru  Ru31  1  0.000000  0.000000  0.000000  1
  Ru  Ru32  1  0.000000  0.000000  0.500000  1
  Rh  Rh33  1  0.500000  0.000000  0.000000  1
  Rh  Rh34  1  0.000000  0.500000  0.000000  1
  Rh  Rh35  1  0.500000  0.500000  0.000000  1
  Rh  Rh36  1  0.000000  0.500000  0.500000  1
  Rh  Rh37  1  0.500000  0.500000  0.500000  1
