# generated using pymatgen
data_Pu2NbMoN4
_symmetry_space_group_name_H-M   'P 1'
_cell_length_a   3.27117500
_cell_length_b   5.64984035
_cell_length_c   10.83020062
_cell_angle_alpha   89.96040524
_cell_angle_beta   90.00000000
_cell_angle_gamma   90.00000000
_symmetry_Int_Tables_number   1
_chemical_formula_structural   Pu2NbMoN4
_chemical_formula_sum   'Pu4 Nb2 Mo2 N8'
_cell_volume   200.15956681
_cell_formula_units_Z   2
loop_
 _symmetry_equiv_pos_site_id
 _symmetry_equiv_pos_as_xyz
  1  'x, y, z'
loop_
 _atom_site_type_symbol
 _atom_site_label
 _atom_site_symmetry_multiplicity
 _atom_site_fract_x
 _atom_site_fract_y
 _atom_site_fract_z
 _atom_site_occupancy
  Pu  Pu0  1  0.250000  0.579426  0.855751  1
  Pu  Pu1  1  0.750000  0.420574  0.144249  1
  Pu  Pu2  1  0.750000  0.924898  0.359197  1
  Pu  Pu3  1  0.250000  0.075102  0.640803  1
  Nb  Nb4  1  0.250000  0.921387  0.101808  1
  Nb  Nb5  1  0.750000  0.078613  0.898192  1
  Mo  Mo6  1  0.750000  0.572731  0.598259  1
  Mo  Mo7  1  0.250000  0.427269  0.401741  1
  N  N8  1  0.250000  0.656466  0.248360  1
  N  N9  1  0.750000  0.343534  0.751640  1
  N  N10  1  0.750000  0.836398  0.741629  1
  N  N11  1  0.250000  0.163602  0.258371  1
  N  N12  1  0.250000  0.754589  0.505161  1
  N  N13  1  0.750000  0.245411  0.494839  1
  N  N14  1  0.750000  0.739954  0.005620  1
  N  N15  1  0.250000  0.260046  0.994380  1
