# generated using pymatgen
data_ErSc2(CuSi)4
_symmetry_space_group_name_H-M   'P 1'
_cell_length_a   7.60063874
_cell_length_b   7.60063903
_cell_length_c   7.60063938
_cell_angle_alpha   149.60619004
_cell_angle_beta   129.16875743
_cell_angle_gamma   60.38463377
_symmetry_Int_Tables_number   1
_chemical_formula_structural   ErSc2(CuSi)4
_chemical_formula_sum   'Er1 Sc2 Cu4 Si4'
_cell_volume   170.79114985
_cell_formula_units_Z   1
loop_
 _symmetry_equiv_pos_site_id
 _symmetry_equiv_pos_as_xyz
  1  'x, y, z'
loop_
 _atom_site_type_symbol
 _atom_site_label
 _atom_site_symmetry_multiplicity
 _atom_site_fract_x
 _atom_site_fract_y
 _atom_site_fract_z
 _atom_site_occupancy
  Er  Er0  1  0.000000  0.000000  0.000000  1
  Sc  Sc1  1  0.374848  0.874848  0.500000  1
  Sc  Sc2  1  0.625152  0.125152  0.500000  1
  Cu  Cu3  1  0.635300  0.328541  0.306760  1
  Cu  Cu4  1  0.364700  0.671459  0.693240  1
  Cu  Cu5  1  0.021782  0.328541  0.693240  1
  Cu  Cu6  1  0.978218  0.671459  0.306760  1
  Si  Si7  1  0.220140  0.220140  0.000000  1
  Si  Si8  1  0.779860  0.779860  0.000000  1
  Si  Si9  1  0.681832  0.500000  0.181832  1
  Si  Si10  1  0.318168  0.500000  0.818168  1
