# generated using pymatgen
data_AlZn3Pd8
_symmetry_space_group_name_H-M   'P 1'
_cell_length_a   4.15019600
_cell_length_b   5.41718224
_cell_length_c   7.92451827
_cell_angle_alpha   89.96802274
_cell_angle_beta   90.00000000
_cell_angle_gamma   90.00000000
_symmetry_Int_Tables_number   1
_chemical_formula_structural   AlZn3Pd8
_chemical_formula_sum   'Al1 Zn3 Pd8'
_cell_volume   178.16190871
_cell_formula_units_Z   1
loop_
 _symmetry_equiv_pos_site_id
 _symmetry_equiv_pos_as_xyz
  1  'x, y, z'
loop_
 _atom_site_type_symbol
 _atom_site_label
 _atom_site_symmetry_multiplicity
 _atom_site_fract_x
 _atom_site_fract_y
 _atom_site_fract_z
 _atom_site_occupancy
  Al  Al0  1  0.250000  0.688174  0.397508  1
  Zn  Zn1  1  0.750000  0.816743  0.898654  1
  Zn  Zn2  1  0.250000  0.182480  0.098089  1
  Zn  Zn3  1  0.750000  0.309561  0.604253  1
  Pd  Pd4  1  0.750000  0.459018  0.280166  1
  Pd  Pd5  1  0.250000  0.547335  0.722284  1
  Pd  Pd6  1  0.750000  0.957110  0.225265  1
  Pd  Pd7  1  0.250000  0.046598  0.773941  1
  Pd  Pd8  1  0.750000  0.331265  0.932311  1
  Pd  Pd9  1  0.250000  0.669433  0.072556  1
  Pd  Pd10  1  0.750000  0.823174  0.565197  1
  Pd  Pd11  1  0.250000  0.169108  0.429774  1
