# generated using pymatgen
data_Zr10Be2InPb5
_symmetry_space_group_name_H-M   'P 1'
_cell_length_a   8.77666501
_cell_length_b   8.77666581
_cell_length_c   5.87150200
_cell_angle_alpha   90.00000000
_cell_angle_beta   90.00000000
_cell_angle_gamma   120.05503497
_symmetry_Int_Tables_number   1
_chemical_formula_structural   Zr10Be2InPb5
_chemical_formula_sum   'Zr10 Be2 In1 Pb5'
_cell_volume   391.46939614
_cell_formula_units_Z   1
loop_
 _symmetry_equiv_pos_site_id
 _symmetry_equiv_pos_as_xyz
  1  'x, y, z'
loop_
 _atom_site_type_symbol
 _atom_site_label
 _atom_site_symmetry_multiplicity
 _atom_site_fract_x
 _atom_site_fract_y
 _atom_site_fract_z
 _atom_site_occupancy
  Zr  Zr0  1  0.665263  0.333452  0.498877  1
  Zr  Zr1  1  0.333452  0.665263  0.498877  1
  Zr  Zr2  1  0.333452  0.665263  0.001123  1
  Zr  Zr3  1  0.665263  0.333452  0.001123  1
  Zr  Zr4  1  0.753739  0.753739  0.250000  1
  Zr  Zr5  1  0.246492  0.003123  0.250000  1
  Zr  Zr6  1  0.003123  0.246492  0.250000  1
  Zr  Zr7  1  0.245090  0.245090  0.750000  1
  Zr  Zr8  1  0.755176  0.999676  0.750000  1
  Zr  Zr9  1  0.999676  0.755176  0.750000  1
  Be  Be10  1  0.000598  0.000598  0.499201  1
  Be  Be11  1  0.000598  0.000598  0.000799  1
  In  In12  1  0.389348  0.389348  0.250000  1
  Pb  Pb13  1  0.611993  0.000388  0.250000  1
  Pb  Pb14  1  0.000388  0.611993  0.250000  1
  Pb  Pb15  1  0.608333  0.608333  0.750000  1
  Pb  Pb16  1  0.388527  0.999489  0.750000  1
  Pb  Pb17  1  0.999489  0.388527  0.750000  1
