# generated using pymatgen
data_La2Pr7Nd7(CdPt)4
_symmetry_space_group_name_H-M   'P 1'
_cell_length_a   10.08181240
_cell_length_b   10.08181283
_cell_length_c   10.07568300
_cell_angle_alpha   60.02011401
_cell_angle_beta   60.02011260
_cell_angle_gamma   60.07027345
_symmetry_Int_Tables_number   1
_chemical_formula_structural   La2Pr7Nd7(CdPt)4
_chemical_formula_sum   'La2 Pr7 Nd7 Cd4 Pt4'
_cell_volume   724.76792245
_cell_formula_units_Z   1
loop_
 _symmetry_equiv_pos_site_id
 _symmetry_equiv_pos_as_xyz
  1  'x, y, z'
loop_
 _atom_site_type_symbol
 _atom_site_label
 _atom_site_symmetry_multiplicity
 _atom_site_fract_x
 _atom_site_fract_y
 _atom_site_fract_z
 _atom_site_occupancy
  La  La0  1  0.348717  0.348717  0.349728  1
  La  La1  1  0.348717  0.348717  0.952839  1
  Pr  Pr2  1  0.808653  0.808653  0.191347  1
  Pr  Pr3  1  0.936914  0.563587  0.565387  1
  Pr  Pr4  1  0.563587  0.936914  0.934113  1
  Pr  Pr5  1  0.563587  0.936914  0.565387  1
  Pr  Pr6  1  0.936914  0.563587  0.934113  1
  Pr  Pr7  1  0.563689  0.563689  0.936311  1
  Pr  Pr8  1  0.935402  0.935402  0.564598  1
  Nd  Nd9  1  0.350406  0.946593  0.351500  1
  Nd  Nd10  1  0.946593  0.350406  0.351500  1
  Nd  Nd11  1  0.810378  0.191240  0.190484  1
  Nd  Nd12  1  0.191240  0.810378  0.807899  1
  Nd  Nd13  1  0.191240  0.810378  0.190484  1
  Nd  Nd14  1  0.810378  0.191240  0.807899  1
  Nd  Nd15  1  0.190837  0.190837  0.809163  1
  Cd  Cd16  1  0.581065  0.581065  0.579696  1
  Cd  Cd17  1  0.581065  0.581065  0.258173  1
  Cd  Cd18  1  0.581387  0.258584  0.580014  1
  Cd  Cd19  1  0.258584  0.581387  0.580014  1
  Pt  Pt20  1  0.142703  0.142703  0.143577  1
  Pt  Pt21  1  0.142703  0.142703  0.571017  1
  Pt  Pt22  1  0.142959  0.572282  0.142380  1
  Pt  Pt23  1  0.572282  0.142959  0.142380  1
