# generated using pymatgen
data_Nd14Dy2In3AgRh4
_symmetry_space_group_name_H-M   'P 1'
_cell_length_a   9.93590831
_cell_length_b   9.94325821
_cell_length_c   9.88110237
_cell_angle_alpha   59.77976587
_cell_angle_beta   59.89957539
_cell_angle_gamma   59.96289724
_symmetry_Int_Tables_number   1
_chemical_formula_structural   Nd14Dy2In3AgRh4
_chemical_formula_sum   'Nd14 Dy2 In3 Ag1 Rh4'
_cell_volume   688.41082267
_cell_formula_units_Z   1
loop_
 _symmetry_equiv_pos_site_id
 _symmetry_equiv_pos_as_xyz
  1  'x, y, z'
loop_
 _atom_site_type_symbol
 _atom_site_label
 _atom_site_symmetry_multiplicity
 _atom_site_fract_x
 _atom_site_fract_y
 _atom_site_fract_z
 _atom_site_occupancy
  Nd  Nd0  1  0.689793  0.308846  0.311081  1
  Nd  Nd1  1  0.688792  0.689101  0.313231  1
  Nd  Nd2  1  0.308884  0.690081  0.310057  1
  Nd  Nd3  1  0.935651  0.941065  0.557506  1
  Nd  Nd4  1  0.147553  0.149367  0.551270  1
  Nd  Nd5  1  0.563596  0.940496  0.554983  1
  Nd  Nd6  1  0.154217  0.152925  0.149625  1
  Nd  Nd7  1  0.311542  0.308478  0.690940  1
  Nd  Nd8  1  0.936417  0.563666  0.558336  1
  Nd  Nd9  1  0.562471  0.559577  0.935743  1
  Nd  Nd10  1  0.560497  0.940525  0.936439  1
  Nd  Nd11  1  0.936231  0.561953  0.935641  1
  Nd  Nd12  1  0.151190  0.548780  0.148410  1
  Nd  Nd13  1  0.311060  0.690432  0.691157  1
  Dy  Dy14  1  0.692356  0.307923  0.692779  1
  Dy  Dy15  1  0.548743  0.152089  0.145960  1
  In  In16  1  0.239918  0.918797  0.924207  1
  In  In17  1  0.915159  0.240404  0.925208  1
  In  In18  1  0.915360  0.920446  0.924516  1
  Ag  Ag19  1  0.916939  0.919254  0.244453  1
  Rh  Rh20  1  0.361956  0.353817  0.355517  1
  Rh  Rh21  1  0.923684  0.356452  0.363412  1
  Rh  Rh22  1  0.365220  0.355834  0.925373  1
  Rh  Rh23  1  0.362770  0.929691  0.354156  1
