# generated using pymatgen
data_Yb4Ho5TmRu4
_symmetry_space_group_name_H-M   'P 1'
_cell_length_a   6.40920360
_cell_length_b   7.22719042
_cell_length_c   8.50376599
_cell_angle_alpha   97.33603703
_cell_angle_beta   112.13840015
_cell_angle_gamma   90.00000262
_symmetry_Int_Tables_number   1
_chemical_formula_structural   Yb4Ho5TmRu4
_chemical_formula_sum   'Yb4 Ho5 Tm1 Ru4'
_cell_volume   361.37594869
_cell_formula_units_Z   1
loop_
 _symmetry_equiv_pos_site_id
 _symmetry_equiv_pos_as_xyz
  1  'x, y, z'
loop_
 _atom_site_type_symbol
 _atom_site_label
 _atom_site_symmetry_multiplicity
 _atom_site_fract_x
 _atom_site_fract_y
 _atom_site_fract_z
 _atom_site_occupancy
  Yb  Yb0  1  0.794850  0.078742  0.816423  1
  Yb  Yb1  1  0.978427  0.421258  0.183577  1
  Yb  Yb2  1  0.205140  0.920920  0.183565  1
  Yb  Yb3  1  0.021576  0.579080  0.816435  1
  Ho  Ho4  1  0.198137  0.184377  0.565610  1
  Ho  Ho5  1  0.632528  0.315623  0.434390  1
  Ho  Ho6  1  0.801694  0.815559  0.434064  1
  Ho  Ho7  1  0.367629  0.684441  0.565936  1
  Ho  Ho8  1  0.431482  0.250000  0.000000  1
  Tm  Tm9  1  0.568199  0.750000  0.000000  1
  Ru  Ru10  1  0.582297  0.425108  0.768633  1
  Ru  Ru11  1  0.813664  0.074892  0.231367  1
  Ru  Ru12  1  0.417875  0.575476  0.231374  1
  Ru  Ru13  1  0.186501  0.924524  0.768626  1
