# generated using pymatgen
data_Sm8Tm12Si15Hg
_symmetry_space_group_name_H-M   'P 1'
_cell_length_a   7.42353245
_cell_length_b   7.71663050
_cell_length_c   14.67994938
_cell_angle_alpha   89.94399822
_cell_angle_beta   89.51903280
_cell_angle_gamma   90.14238913
_symmetry_Int_Tables_number   1
_chemical_formula_structural   Sm8Tm12Si15Hg
_chemical_formula_sum   'Sm8 Tm12 Si15 Hg1'
_cell_volume   840.90321974
_cell_formula_units_Z   1
loop_
 _symmetry_equiv_pos_site_id
 _symmetry_equiv_pos_as_xyz
  1  'x, y, z'
loop_
 _atom_site_type_symbol
 _atom_site_label
 _atom_site_symmetry_multiplicity
 _atom_site_fract_x
 _atom_site_fract_y
 _atom_site_fract_z
 _atom_site_occupancy
  Sm  Sm0  1  0.016107  0.178444  0.098914  1
  Sm  Sm1  1  0.983343  0.822660  0.903332  1
  Sm  Sm2  1  0.483693  0.678816  0.902885  1
  Sm  Sm3  1  0.985488  0.829800  0.599213  1
  Sm  Sm4  1  0.515283  0.320908  0.097865  1
  Sm  Sm5  1  0.011186  0.172798  0.397677  1
  Sm  Sm6  1  0.514688  0.320191  0.398056  1
  Sm  Sm7  1  0.492565  0.684413  0.600699  1
  Tm  Tm8  1  0.163105  0.507523  0.753145  1
  Tm  Tm9  1  0.836970  0.492473  0.250403  1
  Tm  Tm10  1  0.337199  0.006340  0.248905  1
  Tm  Tm11  1  0.665416  0.991180  0.751678  1
  Tm  Tm12  1  0.338470  0.169663  0.626890  1
  Tm  Tm13  1  0.666517  0.823696  0.374929  1
  Tm  Tm14  1  0.168759  0.677795  0.372812  1
  Tm  Tm15  1  0.671878  0.822461  0.122900  1
  Tm  Tm16  1  0.825422  0.325633  0.623833  1
  Tm  Tm17  1  0.326980  0.176474  0.877583  1
  Tm  Tm18  1  0.826855  0.321255  0.877797  1
  Tm  Tm19  1  0.171704  0.677519  0.123429  1
  Si  Si20  1  0.036139  0.117389  0.751744  1
  Si  Si21  1  0.963721  0.886589  0.248307  1
  Si  Si22  1  0.465084  0.612832  0.247967  1
  Si  Si23  1  0.535281  0.388145  0.752194  1
  Si  Si24  1  0.280978  0.874963  0.751919  1
  Si  Si25  1  0.716557  0.125586  0.247631  1
  Si  Si26  1  0.217661  0.372749  0.248200  1
  Si  Si27  1  0.784125  0.625437  0.752799  1
  Si  Si28  1  0.834706  0.536005  0.458656  1
  Si  Si29  1  0.340438  0.964954  0.460134  1
  Si  Si30  1  0.846762  0.533414  0.038619  1
  Si  Si31  1  0.658199  0.036004  0.537419  1
  Si  Si32  1  0.152292  0.465724  0.962220  1
  Si  Si33  1  0.652831  0.032548  0.960939  1
  Si  Si34  1  0.346102  0.966847  0.039514  1
  Hg  Hg35  1  0.167500  0.460776  0.538791  1
