# generated using pymatgen
data_Tb16Al4RuPt3
_symmetry_space_group_name_H-M   'P 1'
_cell_length_a   9.62288746
_cell_length_b   9.62288801
_cell_length_c   9.62288733
_cell_angle_alpha   60.07658229
_cell_angle_beta   60.07659218
_cell_angle_gamma   60.07658832
_symmetry_Int_Tables_number   1
_chemical_formula_structural   Tb16Al4RuPt3
_chemical_formula_sum   'Tb16 Al4 Ru1 Pt3'
_cell_volume   631.18162325
_cell_formula_units_Z   1
loop_
 _symmetry_equiv_pos_site_id
 _symmetry_equiv_pos_as_xyz
  1  'x, y, z'
loop_
 _atom_site_type_symbol
 _atom_site_label
 _atom_site_symmetry_multiplicity
 _atom_site_fract_x
 _atom_site_fract_y
 _atom_site_fract_z
 _atom_site_occupancy
  Tb  Tb0  1  0.352640  0.352640  0.352640  1
  Tb  Tb1  1  0.351067  0.351067  0.942985  1
  Tb  Tb2  1  0.351067  0.942985  0.351067  1
  Tb  Tb3  1  0.942985  0.351067  0.351067  1
  Tb  Tb4  1  0.812264  0.192141  0.192141  1
  Tb  Tb5  1  0.193679  0.805514  0.805514  1
  Tb  Tb6  1  0.192141  0.812264  0.192141  1
  Tb  Tb7  1  0.805514  0.193679  0.805514  1
  Tb  Tb8  1  0.192141  0.192141  0.812264  1
  Tb  Tb9  1  0.805514  0.805514  0.193679  1
  Tb  Tb10  1  0.935636  0.564506  0.564506  1
  Tb  Tb11  1  0.560637  0.936542  0.936542  1
  Tb  Tb12  1  0.564506  0.935636  0.564506  1
  Tb  Tb13  1  0.936542  0.560637  0.936542  1
  Tb  Tb14  1  0.564506  0.564506  0.935636  1
  Tb  Tb15  1  0.936542  0.936542  0.560637  1
  Al  Al16  1  0.577342  0.577342  0.577342  1
  Al  Al17  1  0.577294  0.577294  0.270301  1
  Al  Al18  1  0.577294  0.270301  0.577294  1
  Al  Al19  1  0.270301  0.577294  0.577294  1
  Ru  Ru20  1  0.142306  0.142306  0.142306  1
  Pt  Pt21  1  0.142723  0.142723  0.572637  1
  Pt  Pt22  1  0.142723  0.572637  0.142723  1
  Pt  Pt23  1  0.572637  0.142723  0.142723  1
