# generated using pymatgen
data_Pr4Ni7P12Ru13
_symmetry_space_group_name_H-M   'P 1'
_cell_length_a   3.84764700
_cell_length_b   10.76471891
_cell_length_c   12.22460200
_cell_angle_alpha   90.19275127
_cell_angle_beta   90.00000000
_cell_angle_gamma   90.00000000
_symmetry_Int_Tables_number   1
_chemical_formula_structural   Pr4Ni7P12Ru13
_chemical_formula_sum   'Pr4 Ni7 P12 Ru13'
_cell_volume   506.32595003
_cell_formula_units_Z   1
loop_
 _symmetry_equiv_pos_site_id
 _symmetry_equiv_pos_as_xyz
  1  'x, y, z'
loop_
 _atom_site_type_symbol
 _atom_site_label
 _atom_site_symmetry_multiplicity
 _atom_site_fract_x
 _atom_site_fract_y
 _atom_site_fract_z
 _atom_site_occupancy
  Pr  Pr0  1  0.250000  0.586164  0.707885  1
  Pr  Pr1  1  0.250000  0.911574  0.206584  1
  Pr  Pr2  1  0.750000  0.412257  0.293741  1
  Pr  Pr3  1  0.750000  0.087431  0.794195  1
  Ni  Ni4  1  0.250000  0.608393  0.196702  1
  Ni  Ni5  1  0.750000  0.109882  0.303215  1
  Ni  Ni6  1  0.750000  0.388535  0.804303  1
  Ni  Ni7  1  0.250000  0.461625  0.932473  1
  Ni  Ni8  1  0.250000  0.039943  0.431002  1
  Ni  Ni9  1  0.750000  0.536038  0.069614  1
  Ni  Ni10  1  0.750000  0.966624  0.562073  1
  P  P11  1  0.250000  0.417183  0.108153  1
  P  P12  1  0.250000  0.082869  0.607214  1
  P  P13  1  0.750000  0.579001  0.893401  1
  P  P14  1  0.750000  0.916497  0.389260  1
  P  P15  1  0.250000  0.271606  0.875411  1
  P  P16  1  0.250000  0.229008  0.375384  1
  P  P17  1  0.750000  0.726751  0.124385  1
  P  P18  1  0.750000  0.775359  0.627528  1
  P  P19  1  0.250000  0.604004  0.390387  1
  P  P20  1  0.250000  0.895090  0.891563  1
  P  P21  1  0.750000  0.397656  0.608876  1
  P  P22  1  0.750000  0.103622  0.109392  1
  Ru  Ru23  1  0.250000  0.706785  0.989184  1
  Ru  Ru24  1  0.250000  0.795827  0.478179  1
  Ru  Ru25  1  0.750000  0.292310  0.015877  1
  Ru  Ru26  1  0.750000  0.211066  0.511698  1
  Ru  Ru27  1  0.250000  0.407718  0.488929  1
  Ru  Ru28  1  0.250000  0.094432  0.989768  1
  Ru  Ru29  1  0.750000  0.597467  0.512919  1
  Ru  Ru30  1  0.750000  0.905408  0.012742  1
  Ru  Ru31  1  0.250000  0.219704  0.182319  1
  Ru  Ru32  1  0.250000  0.280656  0.681040  1
  Ru  Ru33  1  0.750000  0.775693  0.823899  1
  Ru  Ru34  1  0.750000  0.718195  0.316877  1
  Ru  Ru35  1  0.250000  0.887627  0.693828  1
