# generated using pymatgen
data_Zr4VSi2GeN
_symmetry_space_group_name_H-M   'P 1'
_cell_length_a   7.84045762
_cell_length_b   7.83178878
_cell_length_c   5.46371444
_cell_angle_alpha   90.02295224
_cell_angle_beta   89.95415358
_cell_angle_gamma   120.03661781
_symmetry_Int_Tables_number   1
_chemical_formula_structural   Zr4VSi2GeN
_chemical_formula_sum   'Zr8 V2 Si4 Ge2 N2'
_cell_volume   290.44272113
_cell_formula_units_Z   2
loop_
 _symmetry_equiv_pos_site_id
 _symmetry_equiv_pos_as_xyz
  1  'x, y, z'
loop_
 _atom_site_type_symbol
 _atom_site_label
 _atom_site_symmetry_multiplicity
 _atom_site_fract_x
 _atom_site_fract_y
 _atom_site_fract_z
 _atom_site_occupancy
  Zr  Zr0  1  0.233450  0.000000  0.749375  1
  Zr  Zr1  1  0.766550  0.000000  0.250625  1
  Zr  Zr2  1  0.002051  0.237481  0.750195  1
  Zr  Zr3  1  0.997949  0.762519  0.249805  1
  Zr  Zr4  1  0.764570  0.762519  0.750195  1
  Zr  Zr5  1  0.235430  0.237481  0.249805  1
  Zr  Zr6  1  0.669874  0.339747  0.000000  1
  Zr  Zr7  1  0.330126  0.660253  0.000000  1
  V  V8  1  0.329857  0.659714  0.500000  1
  V  V9  1  0.670143  0.340286  0.500000  1
  Si  Si10  1  0.001081  0.589108  0.719009  1
  Si  Si11  1  0.998919  0.410892  0.280991  1
  Si  Si12  1  0.411973  0.410892  0.719009  1
  Si  Si13  1  0.588027  0.589108  0.280991  1
  Ge  Ge14  1  0.591027  0.000000  0.729943  1
  Ge  Ge15  1  0.408973  0.000000  0.270057  1
  N  N16  1  0.000000  0.000000  0.500000  1
  N  N17  1  0.000000  0.000000  0.000000  1
