# generated using pymatgen
data_Nd2In(AsRh2)6
_symmetry_space_group_name_H-M   'P 1'
_cell_length_a   10.09661900
_cell_length_b   10.09661978
_cell_length_c   4.01320500
_cell_angle_alpha   90.00000000
_cell_angle_beta   90.00000000
_cell_angle_gamma   120.00001384
_symmetry_Int_Tables_number   1
_chemical_formula_structural   Nd2In(AsRh2)6
_chemical_formula_sum   'Nd2 In1 As6 Rh12'
_cell_volume   354.30222998
_cell_formula_units_Z   1
loop_
 _symmetry_equiv_pos_site_id
 _symmetry_equiv_pos_as_xyz
  1  'x, y, z'
loop_
 _atom_site_type_symbol
 _atom_site_label
 _atom_site_symmetry_multiplicity
 _atom_site_fract_x
 _atom_site_fract_y
 _atom_site_fract_z
 _atom_site_occupancy
  Nd  Nd0  1  0.333333  0.666667  0.754404  1
  Nd  Nd1  1  0.666667  0.333333  0.245596  1
  In  In2  1  0.000000  0.000000  0.500000  1
  As  As3  1  0.885368  0.597332  0.746138  1
  As  As4  1  0.402668  0.288037  0.746138  1
  As  As5  1  0.711963  0.114632  0.746138  1
  As  As6  1  0.114632  0.402668  0.253862  1
  As  As7  1  0.597332  0.711963  0.253862  1
  As  As8  1  0.288037  0.885368  0.253862  1
  Rh  Rh9  1  0.614752  0.552397  0.749062  1
  Rh  Rh10  1  0.447603  0.062356  0.749062  1
  Rh  Rh11  1  0.937644  0.385248  0.749062  1
  Rh  Rh12  1  0.385248  0.447603  0.250938  1
  Rh  Rh13  1  0.552397  0.937644  0.250938  1
  Rh  Rh14  1  0.062356  0.614752  0.250938  1
  Rh  Rh15  1  0.126869  0.841281  0.757629  1
  Rh  Rh16  1  0.158719  0.285587  0.757629  1
  Rh  Rh17  1  0.714413  0.873131  0.757629  1
  Rh  Rh18  1  0.873131  0.158719  0.242371  1
  Rh  Rh19  1  0.841281  0.714413  0.242371  1
  Rh  Rh20  1  0.285587  0.126869  0.242371  1
