# generated using pymatgen
data_YHo3(Tc3Ru)2
_symmetry_space_group_name_H-M   'P 1'
_cell_length_a   5.25754800
_cell_length_b   5.25754716
_cell_length_c   9.19188800
_cell_angle_alpha   89.99962948
_cell_angle_beta   90.00037226
_cell_angle_gamma   119.99110456
_symmetry_Int_Tables_number   1
_chemical_formula_structural   YHo3(Tc3Ru)2
_chemical_formula_sum   'Y1 Ho3 Tc6 Ru2'
_cell_volume   220.05979340
_cell_formula_units_Z   1
loop_
 _symmetry_equiv_pos_site_id
 _symmetry_equiv_pos_as_xyz
  1  'x, y, z'
loop_
 _atom_site_type_symbol
 _atom_site_label
 _atom_site_symmetry_multiplicity
 _atom_site_fract_x
 _atom_site_fract_y
 _atom_site_fract_z
 _atom_site_occupancy
  Y  Y0  1  0.666693  0.333307  0.562500  1
  Ho  Ho1  1  0.333300  0.666700  0.437276  1
  Ho  Ho2  1  0.333302  0.666698  0.062602  1
  Ho  Ho3  1  0.666695  0.333305  0.937533  1
  Tc  Tc4  1  0.171135  0.342175  0.750202  1
  Tc  Tc5  1  0.171092  0.828908  0.750200  1
  Tc  Tc6  1  0.657825  0.828865  0.750202  1
  Tc  Tc7  1  0.828920  0.657923  0.249893  1
  Tc  Tc8  1  0.828963  0.171037  0.249893  1
  Tc  Tc9  1  0.342077  0.171080  0.249893  1
  Ru  Ru10  1  0.999999  0.000001  0.499856  1
  Ru  Ru11  1  0.999999  0.000001  0.999949  1
