# generated using pymatgen
data_Sr(BH4)2
_symmetry_space_group_name_H-M   'P 1'
_cell_length_a   7.11165300
_cell_length_b   7.11165300
_cell_length_c   4.60325700
_cell_angle_alpha   90.00000000
_cell_angle_beta   90.00000000
_cell_angle_gamma   90.00000000
_symmetry_Int_Tables_number   1
_chemical_formula_structural   Sr(BH4)2
_chemical_formula_sum   'Sr2 B4 H16'
_cell_volume   232.81252336
_cell_formula_units_Z   2
loop_
 _symmetry_equiv_pos_site_id
 _symmetry_equiv_pos_as_xyz
  1  'x, y, z'
loop_
 _atom_site_type_symbol
 _atom_site_label
 _atom_site_symmetry_multiplicity
 _atom_site_fract_x
 _atom_site_fract_y
 _atom_site_fract_z
 _atom_site_occupancy
  Sr  Sr0  1  0.500000  0.000000  0.017835  1
  Sr  Sr1  1  0.000000  0.500000  0.517835  1
  B  B2  1  0.215603  0.312722  0.023355  1
  B  B3  1  0.784397  0.687278  0.023355  1
  B  B4  1  0.312722  0.784397  0.523355  1
  B  B5  1  0.687278  0.215603  0.523355  1
  H  H6  1  0.164003  0.477161  0.021487  1
  H  H7  1  0.835997  0.522839  0.021487  1
  H  H8  1  0.385738  0.322138  0.055029  1
  H  H9  1  0.614262  0.677862  0.055029  1
  H  H10  1  0.141526  0.224180  0.221899  1
  H  H11  1  0.858474  0.775820  0.221899  1
  H  H12  1  0.234722  0.824867  0.293314  1
  H  H13  1  0.765278  0.175133  0.293314  1
  H  H14  1  0.477161  0.835997  0.521487  1
  H  H15  1  0.522839  0.164003  0.521487  1
  H  H16  1  0.322138  0.614262  0.555029  1
  H  H17  1  0.677862  0.385738  0.555029  1
  H  H18  1  0.224180  0.858474  0.721899  1
  H  H19  1  0.775820  0.141526  0.721899  1
  H  H20  1  0.175133  0.234722  0.793314  1
  H  H21  1  0.824867  0.765278  0.793314  1
