# generated using pymatgen
data_Dy7Th(CdNi)2
_symmetry_space_group_name_H-M   'P 1'
_cell_length_a   9.58278494
_cell_length_b   9.58278499
_cell_length_c   9.60891300
_cell_angle_alpha   59.90976169
_cell_angle_beta   59.90976152
_cell_angle_gamma   59.88061612
_symmetry_Int_Tables_number   1
_chemical_formula_structural   Dy7Th(CdNi)2
_chemical_formula_sum   'Dy14 Th2 Cd4 Ni4'
_cell_volume   622.52492046
_cell_formula_units_Z   2
loop_
 _symmetry_equiv_pos_site_id
 _symmetry_equiv_pos_as_xyz
  1  'x, y, z'
loop_
 _atom_site_type_symbol
 _atom_site_label
 _atom_site_symmetry_multiplicity
 _atom_site_fract_x
 _atom_site_fract_y
 _atom_site_fract_z
 _atom_site_occupancy
  Dy  Dy0  1  0.597837  0.201603  0.600281  1
  Dy  Dy1  1  0.201603  0.597837  0.600281  1
  Dy  Dy2  1  0.062207  0.439069  0.437948  1
  Dy  Dy3  1  0.439069  0.062207  0.060777  1
  Dy  Dy4  1  0.439069  0.062207  0.437948  1
  Dy  Dy5  1  0.062207  0.439069  0.060777  1
  Dy  Dy6  1  0.438736  0.438736  0.061264  1
  Dy  Dy7  1  0.061623  0.061623  0.438377  1
  Dy  Dy8  1  0.187077  0.813995  0.815811  1
  Dy  Dy9  1  0.813995  0.187077  0.183117  1
  Dy  Dy10  1  0.813995  0.187077  0.815811  1
  Dy  Dy11  1  0.187077  0.813995  0.183117  1
  Dy  Dy12  1  0.814333  0.814333  0.185667  1
  Dy  Dy13  1  0.184960  0.184960  0.815040  1
  Th  Th14  1  0.594094  0.594094  0.600114  1
  Th  Th15  1  0.594094  0.594094  0.211698  1
  Cd  Cd16  1  0.832806  0.832806  0.829335  1
  Cd  Cd17  1  0.832806  0.832806  0.505053  1
  Cd  Cd18  1  0.834208  0.504950  0.830421  1
  Cd  Cd19  1  0.504950  0.834208  0.830421  1
  Ni  Ni20  1  0.393754  0.393754  0.391034  1
  Ni  Ni21  1  0.393754  0.393754  0.821459  1
  Ni  Ni22  1  0.396554  0.819197  0.392125  1
  Ni  Ni23  1  0.819197  0.396554  0.392125  1
