# generated using pymatgen
data_YTm3Ir3RhO14
_symmetry_space_group_name_H-M   'P 1'
_cell_length_a   7.18840588
_cell_length_b   7.18840530
_cell_length_c   7.19912572
_cell_angle_alpha   60.12737840
_cell_angle_beta   60.12737997
_cell_angle_gamma   60.06966735
_symmetry_Int_Tables_number   1
_chemical_formula_structural   YTm3Ir3RhO14
_chemical_formula_sum   'Y1 Tm3 Ir3 Rh1 O14'
_cell_volume   263.68923961
_cell_formula_units_Z   1
loop_
 _symmetry_equiv_pos_site_id
 _symmetry_equiv_pos_as_xyz
  1  'x, y, z'
loop_
 _atom_site_type_symbol
 _atom_site_label
 _atom_site_symmetry_multiplicity
 _atom_site_fract_x
 _atom_site_fract_y
 _atom_site_fract_z
 _atom_site_occupancy
  Y  Y0  1  0.125000  0.125000  0.625000  1
  Tm  Tm1  1  0.625000  0.125000  0.125000  1
  Tm  Tm2  1  0.125000  0.625000  0.125000  1
  Tm  Tm3  1  0.125000  0.125000  0.125000  1
  Ir  Ir4  1  0.125000  0.625000  0.625000  1
  Ir  Ir5  1  0.625000  0.125000  0.625000  1
  Ir  Ir6  1  0.625000  0.625000  0.125000  1
  Rh  Rh7  1  0.625000  0.625000  0.625000  1
  O  O8  1  0.715999  0.715999  0.281550  1
  O  O9  1  0.288215  0.288215  0.718759  1
  O  O10  1  0.712157  0.282468  0.718724  1
  O  O11  1  0.287562  0.716521  0.286923  1
  O  O12  1  0.282468  0.712157  0.718724  1
  O  O13  1  0.716521  0.287562  0.286923  1
  O  O14  1  0.534001  0.534001  0.968450  1
  O  O15  1  0.961785  0.961785  0.531241  1
  O  O16  1  0.537843  0.967532  0.531276  1
  O  O17  1  0.962438  0.533479  0.963077  1
  O  O18  1  0.967532  0.537843  0.531276  1
  O  O19  1  0.533479  0.962438  0.963077  1
  O  O20  1  0.251120  0.251120  0.244818  1
  O  O21  1  0.998880  0.998880  0.005182  1
