# generated using pymatgen
data_Nd4Er4Tc(B8Os)3
_symmetry_space_group_name_H-M   'P 1'
_cell_length_a   3.70094800
_cell_length_b   9.21746000
_cell_length_c   11.65571602
_cell_angle_alpha   89.94329987
_cell_angle_beta   90.00000000
_cell_angle_gamma   90.00000000
_symmetry_Int_Tables_number   1
_chemical_formula_structural   Nd4Er4Tc(B8Os)3
_chemical_formula_sum   'Nd4 Er4 Tc1 B24 Os3'
_cell_volume   397.61521074
_cell_formula_units_Z   1
loop_
 _symmetry_equiv_pos_site_id
 _symmetry_equiv_pos_as_xyz
  1  'x, y, z'
loop_
 _atom_site_type_symbol
 _atom_site_label
 _atom_site_symmetry_multiplicity
 _atom_site_fract_x
 _atom_site_fract_y
 _atom_site_fract_z
 _atom_site_occupancy
  Nd  Nd0  1  0.000000  0.323822  0.413375  1
  Nd  Nd1  1  0.000000  0.677134  0.583691  1
  Nd  Nd2  1  0.000000  0.821104  0.087134  1
  Nd  Nd3  1  0.000000  0.177157  0.915140  1
  Er  Er4  1  0.000000  0.942944  0.372053  1
  Er  Er5  1  0.000000  0.056621  0.628054  1
  Er  Er6  1  0.000000  0.445003  0.128835  1
  Er  Er7  1  0.000000  0.556308  0.871490  1
  Tc  Tc8  1  0.000000  0.639421  0.319247  1
  B  B9  1  0.500000  0.555238  0.430261  1
  B  B10  1  0.500000  0.444113  0.569790  1
  B  B11  1  0.500000  0.056089  0.069840  1
  B  B12  1  0.500000  0.943770  0.930546  1
  B  B13  1  0.500000  0.749548  0.416658  1
  B  B14  1  0.500000  0.250502  0.583185  1
  B  B15  1  0.500000  0.249700  0.082939  1
  B  B16  1  0.500000  0.750301  0.916953  1
  B  B17  1  0.500000  0.791011  0.266668  1
  B  B18  1  0.500000  0.209284  0.733480  1
  B  B19  1  0.500000  0.290741  0.232914  1
  B  B20  1  0.500000  0.709665  0.766425  1
  B  B21  1  0.500000  0.630322  0.185965  1
  B  B22  1  0.500000  0.369490  0.814603  1
  B  B23  1  0.500000  0.130287  0.314024  1
  B  B24  1  0.500000  0.870005  0.685536  1
  B  B25  1  0.500000  0.985034  0.214035  1
  B  B26  1  0.500000  0.014780  0.786466  1
  B  B27  1  0.500000  0.484627  0.286003  1
  B  B28  1  0.500000  0.514639  0.713929  1
  B  B29  1  0.500000  0.601342  0.027187  1
  B  B30  1  0.500000  0.398520  0.972002  1
  B  B31  1  0.500000  0.101889  0.472410  1
  B  B32  1  0.500000  0.899211  0.528148  1
  Os  Os33  1  0.000000  0.360332  0.681381  1
  Os  Os34  1  0.000000  0.139417  0.180292  1
  Os  Os35  1  0.000000  0.860633  0.819345  1
