# generated using pymatgen
data_NaPu2F6
_symmetry_space_group_name_H-M   'P 1'
_cell_length_a   7.03300584
_cell_length_b   7.03300633
_cell_length_c   7.03300600
_cell_angle_alpha   146.19095032
_cell_angle_beta   131.63522055
_cell_angle_gamma   60.31163072
_symmetry_Int_Tables_number   1
_chemical_formula_structural   NaPu2F6
_chemical_formula_sum   'Na1 Pu2 F6'
_cell_volume   143.31641436
_cell_formula_units_Z   1
loop_
 _symmetry_equiv_pos_site_id
 _symmetry_equiv_pos_as_xyz
  1  'x, y, z'
loop_
 _atom_site_type_symbol
 _atom_site_label
 _atom_site_symmetry_multiplicity
 _atom_site_fract_x
 _atom_site_fract_y
 _atom_site_fract_z
 _atom_site_occupancy
  Na  Na0  1  0.000000  0.000000  0.000000  1
  Pu  Pu1  1  0.661328  0.661328  0.000000  1
  Pu  Pu2  1  0.338672  0.338672  0.000000  1
  F  F3  1  0.257926  0.500000  0.757926  1
  F  F4  1  0.916464  0.170329  0.746135  1
  F  F5  1  0.575805  0.829671  0.746135  1
  F  F6  1  0.742074  0.500000  0.242074  1
  F  F7  1  0.424195  0.170329  0.253865  1
  F  F8  1  0.083536  0.829671  0.253865  1
