# generated using pymatgen
data_Hf4GaGeH2
_symmetry_space_group_name_H-M   'P 1'
_cell_length_a   5.43034234
_cell_length_b   5.43034082
_cell_length_c   5.43034098
_cell_angle_alpha   104.92068937
_cell_angle_beta   104.92069622
_cell_angle_gamma   119.01486505
_symmetry_Int_Tables_number   1
_chemical_formula_structural   Hf4GaGeH2
_chemical_formula_sum   'Hf4 Ga1 Ge1 H2'
_cell_volume   120.66789058
_cell_formula_units_Z   1
loop_
 _symmetry_equiv_pos_site_id
 _symmetry_equiv_pos_as_xyz
  1  'x, y, z'
loop_
 _atom_site_type_symbol
 _atom_site_label
 _atom_site_symmetry_multiplicity
 _atom_site_fract_x
 _atom_site_fract_y
 _atom_site_fract_z
 _atom_site_occupancy
  Hf  Hf0  1  0.162325  0.662325  0.824651  1
  Hf  Hf1  1  0.837675  0.337675  0.175349  1
  Hf  Hf2  1  0.337675  0.162325  0.500000  1
  Hf  Hf3  1  0.662325  0.837675  0.500000  1
  Ga  Ga4  1  0.250000  0.250000  0.000000  1
  Ge  Ge5  1  0.750000  0.750000  0.000000  1
  H  H6  1  0.750000  0.250000  0.500000  1
  H  H7  1  0.250000  0.750000  0.500000  1
