# generated using pymatgen
data_Tb3(Nd2Ag5)2
_symmetry_space_group_name_H-M   'P 1'
_cell_length_a   8.95166427
_cell_length_b   8.95166465
_cell_length_c   10.72897000
_cell_angle_alpha   90.00000000
_cell_angle_beta   90.00000000
_cell_angle_gamma   106.62948362
_symmetry_Int_Tables_number   1
_chemical_formula_structural   Tb3(Nd2Ag5)2
_chemical_formula_sum   'Tb6 Nd8 Ag20'
_cell_volume   823.77888065
_cell_formula_units_Z   2
loop_
 _symmetry_equiv_pos_site_id
 _symmetry_equiv_pos_as_xyz
  1  'x, y, z'
loop_
 _atom_site_type_symbol
 _atom_site_label
 _atom_site_symmetry_multiplicity
 _atom_site_fract_x
 _atom_site_fract_y
 _atom_site_fract_z
 _atom_site_occupancy
  Tb  Tb0  1  0.011720  0.511720  0.250000  1
  Tb  Tb1  1  0.988280  0.488280  0.750000  1
  Tb  Tb2  1  0.488280  0.988280  0.750000  1
  Tb  Tb3  1  0.511720  0.011720  0.250000  1
  Tb  Tb4  1  0.000000  0.000000  0.000000  1
  Tb  Tb5  1  0.500000  0.500000  0.500000  1
  Nd  Nd6  1  0.701389  0.298611  0.000000  1
  Nd  Nd7  1  0.298611  0.701389  0.000000  1
  Nd  Nd8  1  0.798611  0.201389  0.500000  1
  Nd  Nd9  1  0.201389  0.798611  0.500000  1
  Nd  Nd10  1  0.309285  0.309285  0.199027  1
  Nd  Nd11  1  0.690715  0.690715  0.800973  1
  Nd  Nd12  1  0.190715  0.190715  0.699027  1
  Nd  Nd13  1  0.809285  0.809285  0.300973  1
  Ag  Ag14  1  0.102537  0.102537  0.403441  1
  Ag  Ag15  1  0.897463  0.897463  0.596559  1
  Ag  Ag16  1  0.397463  0.397463  0.903441  1
  Ag  Ag17  1  0.602537  0.602537  0.096559  1
  Ag  Ag18  1  0.881010  0.163902  0.210747  1
  Ag  Ag19  1  0.118990  0.836098  0.789253  1
  Ag  Ag20  1  0.618990  0.336098  0.710747  1
  Ag  Ag21  1  0.663902  0.381010  0.289253  1
  Ag  Ag22  1  0.381010  0.663902  0.289253  1
  Ag  Ag23  1  0.336098  0.618990  0.710747  1
  Ag  Ag24  1  0.836098  0.118990  0.789253  1
  Ag  Ag25  1  0.163902  0.881010  0.210747  1
  Ag  Ag26  1  0.932687  0.646849  0.008661  1
  Ag  Ag27  1  0.067313  0.353151  0.991339  1
  Ag  Ag28  1  0.567313  0.853151  0.508661  1
  Ag  Ag29  1  0.146849  0.432687  0.491339  1
  Ag  Ag30  1  0.432687  0.146849  0.491339  1
  Ag  Ag31  1  0.853151  0.567313  0.508661  1
  Ag  Ag32  1  0.353151  0.067313  0.991339  1
  Ag  Ag33  1  0.646849  0.932687  0.008661  1
