# generated using pymatgen
data_HoU3F15
_symmetry_space_group_name_H-M   'P 1'
_cell_length_a   8.62730799
_cell_length_b   8.62730760
_cell_length_c   8.66237871
_cell_angle_alpha   79.37659857
_cell_angle_beta   79.37660183
_cell_angle_gamma   99.81851763
_symmetry_Int_Tables_number   1
_chemical_formula_structural   HoU3F15
_chemical_formula_sum   'Ho2 U6 F30'
_cell_volume   608.71449693
_cell_formula_units_Z   2
loop_
 _symmetry_equiv_pos_site_id
 _symmetry_equiv_pos_as_xyz
  1  'x, y, z'
loop_
 _atom_site_type_symbol
 _atom_site_label
 _atom_site_symmetry_multiplicity
 _atom_site_fract_x
 _atom_site_fract_y
 _atom_site_fract_z
 _atom_site_occupancy
  Ho  Ho0  1  0.177116  0.822884  0.250000  1
  Ho  Ho1  1  0.822884  0.177116  0.750000  1
  U  U2  1  0.749373  0.250627  0.250000  1
  U  U3  1  0.250627  0.749373  0.750000  1
  U  U4  1  0.754727  0.678636  0.674211  1
  U  U5  1  0.321364  0.245273  0.825789  1
  U  U6  1  0.245273  0.321364  0.325789  1
  U  U7  1  0.678636  0.754727  0.174211  1
  F  F8  1  0.466291  0.533709  0.250000  1
  F  F9  1  0.750780  0.964776  0.961366  1
  F  F10  1  0.035224  0.249220  0.538634  1
  F  F11  1  0.249220  0.035224  0.038634  1
  F  F12  1  0.964776  0.750780  0.461366  1
  F  F13  1  0.533709  0.466291  0.750000  1
  F  F14  1  0.220784  0.489264  0.776264  1
  F  F15  1  0.226011  0.726008  0.005634  1
  F  F16  1  0.989308  0.724003  0.781887  1
  F  F17  1  0.724003  0.989308  0.281887  1
  F  F18  1  0.726008  0.226011  0.505634  1
  F  F19  1  0.489264  0.220784  0.276264  1
  F  F20  1  0.779217  0.510736  0.223736  1
  F  F21  1  0.773989  0.273992  0.994366  1
  F  F22  1  0.010692  0.275997  0.218113  1
  F  F23  1  0.275997  0.010692  0.718113  1
  F  F24  1  0.273992  0.773989  0.494366  1
  F  F25  1  0.510736  0.779216  0.723736  1
  F  F26  1  0.553485  0.156914  0.812296  1
  F  F27  1  0.187252  0.053297  0.345643  1
  F  F28  1  0.649910  0.682621  0.445220  1
  F  F29  1  0.682621  0.649910  0.945220  1
  F  F30  1  0.053297  0.187252  0.845643  1
  F  F31  1  0.156914  0.553485  0.312296  1
  F  F32  1  0.446515  0.843086  0.187704  1
  F  F33  1  0.812748  0.946703  0.654357  1
  F  F34  1  0.350090  0.317379  0.554780  1
  F  F35  1  0.317379  0.350090  0.054780  1
  F  F36  1  0.946703  0.812748  0.154357  1
  F  F37  1  0.843086  0.446515  0.687704  1
