# generated using pymatgen
data_Ho3ErTaOs7
_symmetry_space_group_name_H-M   'P 1'
_cell_length_a   5.28140693
_cell_length_b   5.28140722
_cell_length_c   8.93171807
_cell_angle_alpha   89.98789977
_cell_angle_beta   90.01209960
_cell_angle_gamma   117.25514612
_symmetry_Int_Tables_number   1
_chemical_formula_structural   Ho3ErTaOs7
_chemical_formula_sum   'Ho3 Er1 Ta1 Os7'
_cell_volume   221.47480144
_cell_formula_units_Z   1
loop_
 _symmetry_equiv_pos_site_id
 _symmetry_equiv_pos_as_xyz
  1  'x, y, z'
loop_
 _atom_site_type_symbol
 _atom_site_label
 _atom_site_symmetry_multiplicity
 _atom_site_fract_x
 _atom_site_fract_y
 _atom_site_fract_z
 _atom_site_occupancy
  Ho  Ho0  1  0.328915  0.671085  0.440191  1
  Ho  Ho1  1  0.666632  0.333368  0.568807  1
  Ho  Ho2  1  0.666660  0.333340  0.931279  1
  Er  Er3  1  0.328992  0.671008  0.059749  1
  Ta  Ta4  1  0.837330  0.162670  0.249794  1
  Os  Os5  1  0.997490  0.002510  0.505611  1
  Os  Os6  1  0.997721  0.002279  0.994467  1
  Os  Os7  1  0.822629  0.652481  0.249640  1
  Os  Os8  1  0.347519  0.177371  0.249640  1
  Os  Os9  1  0.174855  0.825145  0.750375  1
  Os  Os10  1  0.173496  0.342238  0.750224  1
  Os  Os11  1  0.657762  0.826504  0.750224  1
