# generated using pymatgen
data_CaPa2(SnRh)3
_symmetry_space_group_name_H-M   'P 1'
_cell_length_a   7.50193594
_cell_length_b   7.50193702
_cell_length_c   4.00945100
_cell_angle_alpha   90.00000000
_cell_angle_beta   90.00000000
_cell_angle_gamma   120.80916757
_symmetry_Int_Tables_number   1
_chemical_formula_structural   CaPa2(SnRh)3
_chemical_formula_sum   'Ca1 Pa2 Sn3 Rh3'
_cell_volume   193.80417673
_cell_formula_units_Z   1
loop_
 _symmetry_equiv_pos_site_id
 _symmetry_equiv_pos_as_xyz
  1  'x, y, z'
loop_
 _atom_site_type_symbol
 _atom_site_label
 _atom_site_symmetry_multiplicity
 _atom_site_fract_x
 _atom_site_fract_y
 _atom_site_fract_z
 _atom_site_occupancy
  Ca  Ca0  1  0.408234  0.408234  0.500000  1
  Pa  Pa1  1  0.586500  0.001758  0.500000  1
  Pa  Pa2  1  0.001758  0.586500  0.500000  1
  Sn  Sn3  1  0.733253  0.733253  0.000000  1
  Sn  Sn4  1  0.254462  0.012521  0.000000  1
  Sn  Sn5  1  0.012521  0.254462  0.000000  1
  Rh  Rh6  1  0.692460  0.329105  0.000000  1
  Rh  Rh7  1  0.329105  0.692460  0.000000  1
  Rh  Rh8  1  0.981707  0.981707  0.500000  1
