# generated using pymatgen
data_Gd6HoSn23Ir6
_symmetry_space_group_name_H-M   'P 1'
_cell_length_a   9.81583400
_cell_length_b   9.81583161
_cell_length_c   10.10793400
_cell_angle_alpha   90.00000000
_cell_angle_beta   90.00000000
_cell_angle_gamma   119.99999457
_symmetry_Int_Tables_number   1
_chemical_formula_structural   Gd6HoSn23Ir6
_chemical_formula_sum   'Gd6 Ho1 Sn23 Ir6'
_cell_volume   843.42672446
_cell_formula_units_Z   1
loop_
 _symmetry_equiv_pos_site_id
 _symmetry_equiv_pos_as_xyz
  1  'x, y, z'
loop_
 _atom_site_type_symbol
 _atom_site_label
 _atom_site_symmetry_multiplicity
 _atom_site_fract_x
 _atom_site_fract_y
 _atom_site_fract_z
 _atom_site_occupancy
  Gd  Gd0  1  0.520344  0.479656  0.692880  1
  Gd  Gd1  1  0.520344  0.040688  0.692880  1
  Gd  Gd2  1  0.959312  0.479656  0.692880  1
  Gd  Gd3  1  0.040688  0.520344  0.307120  1
  Gd  Gd4  1  0.479656  0.959312  0.307120  1
  Gd  Gd5  1  0.479656  0.520344  0.307120  1
  Ho  Ho6  1  0.000000  0.000000  0.000000  1
  Sn  Sn7  1  0.666667  0.333333  0.175109  1
  Sn  Sn8  1  0.666667  0.333333  0.878896  1
  Sn  Sn9  1  0.333333  0.666667  0.121104  1
  Sn  Sn10  1  0.351838  0.351838  0.000000  1
  Sn  Sn11  1  0.000000  0.648162  0.000000  1
  Sn  Sn12  1  0.648162  0.000000  0.000000  1
  Sn  Sn13  1  0.648162  0.648162  0.000000  1
  Sn  Sn14  1  0.333333  0.666667  0.824891  1
  Sn  Sn15  1  0.443403  0.221701  0.456588  1
  Sn  Sn16  1  0.221701  0.778299  0.543412  1
  Sn  Sn17  1  0.221701  0.443403  0.543412  1
  Sn  Sn18  1  0.556597  0.778299  0.543412  1
  Sn  Sn19  1  0.119174  0.880826  0.283132  1
  Sn  Sn20  1  0.778299  0.556597  0.456588  1
  Sn  Sn21  1  0.778299  0.221701  0.456588  1
  Sn  Sn22  1  0.351838  0.000000  0.000000  1
  Sn  Sn23  1  0.119174  0.238347  0.283132  1
  Sn  Sn24  1  0.761653  0.880826  0.283132  1
  Sn  Sn25  1  0.238347  0.119174  0.716868  1
  Sn  Sn26  1  0.880826  0.761653  0.716868  1
  Sn  Sn27  1  0.880826  0.119174  0.716868  1
  Sn  Sn28  1  0.000000  0.000000  0.500000  1
  Sn  Sn29  1  0.000000  0.351838  0.000000  1
  Ir  Ir30  1  0.168677  0.831323  0.801460  1
  Ir  Ir31  1  0.168677  0.337354  0.801460  1
  Ir  Ir32  1  0.662646  0.831323  0.801460  1
  Ir  Ir33  1  0.337354  0.168677  0.198540  1
  Ir  Ir34  1  0.831323  0.662646  0.198540  1
  Ir  Ir35  1  0.831323  0.168677  0.198540  1
