# generated using pymatgen
data_Hf4CuSi2Rh9
_symmetry_space_group_name_H-M   'P 1'
_cell_length_a   4.05559700
_cell_length_b   5.53507477
_cell_length_c   10.83249186
_cell_angle_alpha   88.80730255
_cell_angle_beta   90.00000000
_cell_angle_gamma   90.00000000
_symmetry_Int_Tables_number   1
_chemical_formula_structural   Hf4CuSi2Rh9
_chemical_formula_sum   'Hf4 Cu1 Si2 Rh9'
_cell_volume   243.11544724
_cell_formula_units_Z   1
loop_
 _symmetry_equiv_pos_site_id
 _symmetry_equiv_pos_as_xyz
  1  'x, y, z'
loop_
 _atom_site_type_symbol
 _atom_site_label
 _atom_site_symmetry_multiplicity
 _atom_site_fract_x
 _atom_site_fract_y
 _atom_site_fract_z
 _atom_site_occupancy
  Hf  Hf0  1  0.500000  0.162074  0.638880  1
  Hf  Hf1  1  0.500000  0.819990  0.358275  1
  Hf  Hf2  1  0.500000  0.687952  0.862789  1
  Hf  Hf3  1  0.500000  0.327889  0.141209  1
  Cu  Cu4  1  0.000000  0.429177  0.748498  1
  Si  Si5  1  0.000000  0.494392  0.493737  1
  Si  Si6  1  0.000000  0.009346  0.001181  1
  Rh  Rh7  1  0.500000  0.192684  0.892620  1
  Rh  Rh8  1  0.500000  0.824097  0.103077  1
  Rh  Rh9  1  0.500000  0.660082  0.608367  1
  Rh  Rh10  1  0.500000  0.313183  0.396627  1
  Rh  Rh11  1  0.000000  0.573413  0.258414  1
  Rh  Rh12  1  0.000000  0.991662  0.501139  1
  Rh  Rh13  1  0.000000  0.512955  0.997052  1
  Rh  Rh14  1  0.000000  0.073793  0.239785  1
  Rh  Rh15  1  0.000000  0.927311  0.758349  1
