# generated using pymatgen
data_LaDy2Ni2Rh7
_symmetry_space_group_name_H-M   'P 1'
_cell_length_a   5.30561643
_cell_length_b   5.30561688
_cell_length_c   9.03679640
_cell_angle_alpha   72.92901515
_cell_angle_beta   72.92901375
_cell_angle_gamma   60.00001194
_symmetry_Int_Tables_number   1
_chemical_formula_structural   LaDy2Ni2Rh7
_chemical_formula_sum   'La1 Dy2 Ni2 Rh7'
_cell_volume   207.25880499
_cell_formula_units_Z   1
loop_
 _symmetry_equiv_pos_site_id
 _symmetry_equiv_pos_as_xyz
  1  'x, y, z'
loop_
 _atom_site_type_symbol
 _atom_site_label
 _atom_site_symmetry_multiplicity
 _atom_site_fract_x
 _atom_site_fract_y
 _atom_site_fract_z
 _atom_site_occupancy
  La  La0  1  0.000000  0.000000  0.000000  1
  Dy  Dy1  1  0.139811  0.139811  0.580567  1
  Dy  Dy2  1  0.860189  0.860189  0.419433  1
  Ni  Ni3  1  0.333297  0.333297  0.000109  1
  Ni  Ni4  1  0.666703  0.666703  0.999891  1
  Rh  Rh5  1  0.078662  0.582013  0.757312  1
  Rh  Rh6  1  0.582013  0.582013  0.757312  1
  Rh  Rh7  1  0.582013  0.078662  0.757312  1
  Rh  Rh8  1  0.921338  0.417987  0.242688  1
  Rh  Rh9  1  0.417987  0.417987  0.242688  1
  Rh  Rh10  1  0.417987  0.921338  0.242688  1
  Rh  Rh11  1  0.500000  0.500000  0.500000  1
