# generated using pymatgen
data_ScSbI18
_symmetry_space_group_name_H-M   'P 1'
_cell_length_a   10.37272611
_cell_length_b   10.37272704
_cell_length_c   10.37272821
_cell_angle_alpha   87.44329536
_cell_angle_beta   87.44328729
_cell_angle_gamma   87.44328832
_symmetry_Int_Tables_number   1
_chemical_formula_structural   ScSbI18
_chemical_formula_sum   'Sc1 Sb1 I18'
_cell_volume   1112.80086513
_cell_formula_units_Z   1
loop_
 _symmetry_equiv_pos_site_id
 _symmetry_equiv_pos_as_xyz
  1  'x, y, z'
loop_
 _atom_site_type_symbol
 _atom_site_label
 _atom_site_symmetry_multiplicity
 _atom_site_fract_x
 _atom_site_fract_y
 _atom_site_fract_z
 _atom_site_occupancy
  Sc  Sc0  1  0.000000  0.000000  0.000000  1
  Sb  Sb1  1  0.500000  0.500000  0.500000  1
  I  I2  1  0.721491  0.003801  0.034336  1
  I  I3  1  0.753612  0.119227  0.617054  1
  I  I4  1  0.034336  0.721491  0.003801  1
  I  I5  1  0.246388  0.880773  0.382946  1
  I  I6  1  0.119227  0.617054  0.753612  1
  I  I7  1  0.996199  0.965664  0.278509  1
  I  I8  1  0.617054  0.753612  0.119227  1
  I  I9  1  0.965664  0.278509  0.996199  1
  I  I10  1  0.880773  0.382946  0.246388  1
  I  I11  1  0.382946  0.246388  0.880773  1
  I  I12  1  0.003801  0.034336  0.721491  1
  I  I13  1  0.278509  0.996199  0.965664  1
  I  I14  1  0.796595  0.513395  0.483327  1
  I  I15  1  0.516673  0.203405  0.486605  1
  I  I16  1  0.486605  0.516673  0.203405  1
  I  I17  1  0.483327  0.796595  0.513395  1
  I  I18  1  0.513395  0.483327  0.796595  1
  I  I19  1  0.203405  0.486605  0.516673  1
