# generated using pymatgen
data_Dy2Fe(BIr)4
_symmetry_space_group_name_H-M   'P 1'
_cell_length_a   7.42475320
_cell_length_b   6.25326479
_cell_length_c   5.53940573
_cell_angle_alpha   77.78218066
_cell_angle_beta   55.40060424
_cell_angle_gamma   46.81720815
_symmetry_Int_Tables_number   1
_chemical_formula_structural   Dy2Fe(BIr)4
_chemical_formula_sum   'Dy2 Fe1 B4 Ir4'
_cell_volume   147.50698065
_cell_formula_units_Z   1
loop_
 _symmetry_equiv_pos_site_id
 _symmetry_equiv_pos_as_xyz
  1  'x, y, z'
loop_
 _atom_site_type_symbol
 _atom_site_label
 _atom_site_symmetry_multiplicity
 _atom_site_fract_x
 _atom_site_fract_y
 _atom_site_fract_z
 _atom_site_occupancy
  Dy  Dy0  1  0.857420  0.857419  0.142579  1
  Dy  Dy1  1  0.142581  0.142580  0.857419  1
  Fe  Fe2  1  0.750000  0.750001  0.750000  1
  B  B3  1  0.497240  0.777906  0.188004  1
  B  B4  1  0.188006  0.536847  0.497238  1
  B  B5  1  0.777907  0.497239  0.536846  1
  B  B6  1  0.536848  0.188005  0.777905  1
  Ir  Ir7  1  0.502046  0.502045  0.997954  1
  Ir  Ir8  1  0.250000  0.249999  0.250000  1
  Ir  Ir9  1  0.997954  0.997954  0.502045  1
  Ir  Ir10  1  0.500000  0.499999  0.499999  1
