# generated using pymatgen
data_Sr6TcAuO12
_symmetry_space_group_name_H-M   'P 1'
_cell_length_a   6.15676519
_cell_length_b   5.90409027
_cell_length_c   10.35512256
_cell_angle_alpha   54.74855999
_cell_angle_beta   89.44193266
_cell_angle_gamma   89.89431524
_symmetry_Int_Tables_number   1
_chemical_formula_structural   Sr6TcAuO12
_chemical_formula_sum   'Sr6 Tc1 Au1 O12'
_cell_volume   307.36848567
_cell_formula_units_Z   1
loop_
 _symmetry_equiv_pos_site_id
 _symmetry_equiv_pos_as_xyz
  1  'x, y, z'
loop_
 _atom_site_type_symbol
 _atom_site_label
 _atom_site_symmetry_multiplicity
 _atom_site_fract_x
 _atom_site_fract_y
 _atom_site_fract_z
 _atom_site_occupancy
  Sr  Sr0  1  0.500000  0.500000  0.500000  1
  Sr  Sr1  1  0.951069  0.717821  0.266794  1
  Sr  Sr2  1  0.442820  0.253136  0.261204  1
  Sr  Sr3  1  0.000000  0.500000  0.000000  1
  Sr  Sr4  1  0.557180  0.746864  0.738796  1
  Sr  Sr5  1  0.048931  0.282179  0.733206  1
  Tc  Tc6  1  0.500000  0.000000  0.000000  1
  Au  Au7  1  0.000000  0.000000  0.500000  1
  O  O8  1  0.457758  0.115086  0.787395  1
  O  O9  1  0.239169  0.778683  0.062599  1
  O  O10  1  0.188892  0.323598  0.452523  1
  O  O11  1  0.666016  0.689249  0.044223  1
  O  O12  1  0.727832  0.241758  0.438245  1
  O  O13  1  0.952139  0.877838  0.728036  1
  O  O14  1  0.047861  0.122162  0.271964  1
  O  O15  1  0.272168  0.758242  0.561755  1
  O  O16  1  0.333984  0.310751  0.955777  1
  O  O17  1  0.811108  0.676402  0.547477  1
  O  O18  1  0.760831  0.221317  0.937401  1
  O  O19  1  0.542242  0.884914  0.212605  1
