# generated using pymatgen
data_Er3Lu7In8CoPt3
_symmetry_space_group_name_H-M   'P 1'
_cell_length_a   3.58453800
_cell_length_b   8.01429454
_cell_length_c   17.94565076
_cell_angle_alpha   89.87337717
_cell_angle_beta   90.00000000
_cell_angle_gamma   90.00000000
_symmetry_Int_Tables_number   1
_chemical_formula_structural   Er3Lu7In8CoPt3
_chemical_formula_sum   'Er3 Lu7 In8 Co1 Pt3'
_cell_volume   515.53320112
_cell_formula_units_Z   1
loop_
 _symmetry_equiv_pos_site_id
 _symmetry_equiv_pos_as_xyz
  1  'x, y, z'
loop_
 _atom_site_type_symbol
 _atom_site_label
 _atom_site_symmetry_multiplicity
 _atom_site_fract_x
 _atom_site_fract_y
 _atom_site_fract_z
 _atom_site_occupancy
  Er  Er0  1  0.000000  0.756914  0.279724  1
  Er  Er1  1  0.000000  0.999872  0.001025  1
  Er  Er2  1  0.000000  0.502051  0.498279  1
  Lu  Lu3  1  0.000000  0.113769  0.408076  1
  Lu  Lu4  1  0.000000  0.883922  0.585231  1
  Lu  Lu5  1  0.000000  0.383032  0.913897  1
  Lu  Lu6  1  0.000000  0.617035  0.088709  1
  Lu  Lu7  1  0.000000  0.233316  0.224593  1
  Lu  Lu8  1  0.000000  0.756627  0.777958  1
  Lu  Lu9  1  0.000000  0.256177  0.721355  1
  In  In10  1  0.500000  0.421820  0.351661  1
  In  In11  1  0.500000  0.574450  0.647125  1
  In  In12  1  0.500000  0.074145  0.851844  1
  In  In13  1  0.500000  0.930566  0.151754  1
  In  In14  1  0.500000  0.292644  0.067806  1
  In  In15  1  0.500000  0.706954  0.935044  1
  In  In16  1  0.500000  0.205432  0.564210  1
  In  In17  1  0.500000  0.799436  0.430510  1
  Co  Co18  1  0.500000  0.022137  0.305294  1
  Pt  Pt19  1  0.500000  0.976875  0.695790  1
  Pt  Pt20  1  0.500000  0.475927  0.803246  1
  Pt  Pt21  1  0.500000  0.516901  0.196868  1
