# generated using pymatgen
data_Zr4Ni4BiIr
_symmetry_space_group_name_H-M   'P 1'
_cell_length_a   7.11072200
_cell_length_b   7.11072200
_cell_length_c   3.39501800
_cell_angle_alpha   90.00000000
_cell_angle_beta   90.00000000
_cell_angle_gamma   90.00000000
_symmetry_Int_Tables_number   1
_chemical_formula_structural   Zr4Ni4BiIr
_chemical_formula_sum   'Zr4 Ni4 Bi1 Ir1'
_cell_volume   171.66014731
_cell_formula_units_Z   1
loop_
 _symmetry_equiv_pos_site_id
 _symmetry_equiv_pos_as_xyz
  1  'x, y, z'
loop_
 _atom_site_type_symbol
 _atom_site_label
 _atom_site_symmetry_multiplicity
 _atom_site_fract_x
 _atom_site_fract_y
 _atom_site_fract_z
 _atom_site_occupancy
  Zr  Zr0  1  0.805791  0.650924  0.500000  1
  Zr  Zr1  1  0.349076  0.805791  0.500000  1
  Zr  Zr2  1  0.650924  0.194209  0.500000  1
  Zr  Zr3  1  0.194209  0.349076  0.500000  1
  Ni  Ni4  1  0.126083  0.621208  0.000000  1
  Ni  Ni5  1  0.621208  0.873917  0.000000  1
  Ni  Ni6  1  0.873917  0.378792  0.000000  1
  Ni  Ni7  1  0.378792  0.126083  0.000000  1
  Bi  Bi8  1  0.000000  0.000000  0.000000  1
  Ir  Ir9  1  0.500000  0.500000  0.000000  1
