# generated using pymatgen
data_Tb9Ho3ZnCo4Sn
_symmetry_space_group_name_H-M   'P 1'
_cell_length_a   8.32805967
_cell_length_b   8.33132746
_cell_length_c   8.32805968
_cell_angle_alpha   111.96775460
_cell_angle_beta   109.12851722
_cell_angle_gamma   107.33532892
_symmetry_Int_Tables_number   1
_chemical_formula_structural   Tb9Ho3ZnCo4Sn
_chemical_formula_sum   'Tb9 Ho3 Zn1 Co4 Sn1'
_cell_volume   444.16038413
_cell_formula_units_Z   1
loop_
 _symmetry_equiv_pos_site_id
 _symmetry_equiv_pos_as_xyz
  1  'x, y, z'
loop_
 _atom_site_type_symbol
 _atom_site_label
 _atom_site_symmetry_multiplicity
 _atom_site_fract_x
 _atom_site_fract_y
 _atom_site_fract_z
 _atom_site_occupancy
  Tb  Tb0  1  0.428475  0.227218  0.200883  1
  Tb  Tb1  1  0.571975  0.772709  0.799841  1
  Tb  Tb2  1  0.026335  0.227218  0.798743  1
  Tb  Tb3  1  0.972868  0.772709  0.200734  1
  Tb  Tb4  1  0.181521  0.284051  0.466230  1
  Tb  Tb5  1  0.818810  0.715764  0.534165  1
  Tb  Tb6  1  0.181600  0.715764  0.896954  1
  Tb  Tb7  1  0.817819  0.284051  0.102530  1
  Tb  Tb8  1  0.323303  0.634886  0.311584  1
  Ho  Ho9  1  0.676466  0.364121  0.687655  1
  Ho  Ho10  1  0.323477  0.011550  0.688074  1
  Ho  Ho11  1  0.676894  0.989259  0.312364  1
  Zn  Zn12  1  0.000059  0.000054  0.999995  1
  Co  Co13  1  0.348699  0.000633  0.348762  1
  Co  Co14  1  0.651870  0.000633  0.651933  1
  Co  Co15  1  0.113875  0.614177  0.500302  1
  Co  Co16  1  0.885585  0.385398  0.499813  1
  Sn  Sn17  1  0.500369  0.499806  0.999437  1
