# generated using pymatgen
data_Sb7Mo2Os
_symmetry_space_group_name_H-M   'P 1'
_cell_length_a   8.31522525
_cell_length_b   8.30999857
_cell_length_c   8.31522543
_cell_angle_alpha   109.27315127
_cell_angle_beta   109.89338701
_cell_angle_gamma   109.27314410
_symmetry_Int_Tables_number   1
_chemical_formula_structural   Sb7Mo2Os
_chemical_formula_sum   'Sb14 Mo4 Os2'
_cell_volume   442.15528301
_cell_formula_units_Z   2
loop_
 _symmetry_equiv_pos_site_id
 _symmetry_equiv_pos_as_xyz
  1  'x, y, z'
loop_
 _atom_site_type_symbol
 _atom_site_label
 _atom_site_symmetry_multiplicity
 _atom_site_fract_x
 _atom_site_fract_y
 _atom_site_fract_z
 _atom_site_occupancy
  Sb  Sb0  1  0.749545  0.251211  0.501666  1
  Sb  Sb1  1  0.501666  0.251211  0.749545  1
  Sb  Sb2  1  0.502001  0.751025  0.249024  1
  Sb  Sb3  1  0.251831  0.503662  0.751831  1
  Sb  Sb4  1  0.751831  0.503662  0.251831  1
  Sb  Sb5  1  0.249024  0.751025  0.502001  1
  Sb  Sb6  1  0.327700  0.326949  0.327700  1
  Sb  Sb7  1  0.000392  0.999739  0.326609  1
  Sb  Sb8  1  0.326609  0.999739  0.000392  1
  Sb  Sb9  1  0.999249  0.326949  0.999249  1
  Sb  Sb10  1  0.673130  0.999739  0.999347  1
  Sb  Sb11  1  0.999976  0.674650  0.999976  1
  Sb  Sb12  1  0.999347  0.999739  0.673130  1
  Sb  Sb13  1  0.674674  0.674650  0.674674  1
  Mo  Mo14  1  0.999694  0.654563  0.654869  1
  Mo  Mo15  1  0.659165  0.999669  0.659165  1
  Mo  Mo16  1  0.340504  0.999669  0.340504  1
  Mo  Mo17  1  0.654869  0.654563  0.999694  1
  Os  Os18  1  0.338868  0.338792  0.999924  1
  Os  Os19  1  0.999924  0.338792  0.338868  1
