# generated using pymatgen
data_ScMn4Nb3P4
_symmetry_space_group_name_H-M   'P 1'
_cell_length_a   3.54160500
_cell_length_b   6.27537928
_cell_length_c   7.31374201
_cell_angle_alpha   89.47917783
_cell_angle_beta   90.00000000
_cell_angle_gamma   90.00000000
_symmetry_Int_Tables_number   1
_chemical_formula_structural   ScMn4Nb3P4
_chemical_formula_sum   'Sc1 Mn4 Nb3 P4'
_cell_volume   162.54057613
_cell_formula_units_Z   1
loop_
 _symmetry_equiv_pos_site_id
 _symmetry_equiv_pos_as_xyz
  1  'x, y, z'
loop_
 _atom_site_type_symbol
 _atom_site_label
 _atom_site_symmetry_multiplicity
 _atom_site_fract_x
 _atom_site_fract_y
 _atom_site_fract_z
 _atom_site_occupancy
  Sc  Sc0  1  0.250000  0.530085  0.673837  1
  Mn  Mn1  1  0.750000  0.864220  0.557864  1
  Mn  Mn2  1  0.250000  0.135800  0.439044  1
  Mn  Mn3  1  0.750000  0.361887  0.941831  1
  Mn  Mn4  1  0.250000  0.641045  0.060427  1
  Nb  Nb5  1  0.750000  0.468212  0.326642  1
  Nb  Nb6  1  0.250000  0.030668  0.829739  1
  Nb  Nb7  1  0.750000  0.967833  0.172692  1
  P  P8  1  0.250000  0.270287  0.128446  1
  P  P9  1  0.750000  0.732509  0.868783  1
  P  P10  1  0.250000  0.767208  0.370925  1
  P  P11  1  0.750000  0.230245  0.629768  1
