# generated using pymatgen
data_Ac2ErTaO7
_symmetry_space_group_name_H-M   'P 1'
_cell_length_a   7.87579883
_cell_length_b   7.87579690
_cell_length_c   7.87579800
_cell_angle_alpha   120.45672071
_cell_angle_beta   119.79880167
_cell_angle_gamma   89.77980585
_symmetry_Int_Tables_number   1
_chemical_formula_structural   Ac2ErTaO7
_chemical_formula_sum   'Ac4 Er2 Ta2 O14'
_cell_volume   344.75274967
_cell_formula_units_Z   2
loop_
 _symmetry_equiv_pos_site_id
 _symmetry_equiv_pos_as_xyz
  1  'x, y, z'
loop_
 _atom_site_type_symbol
 _atom_site_label
 _atom_site_symmetry_multiplicity
 _atom_site_fract_x
 _atom_site_fract_y
 _atom_site_fract_z
 _atom_site_occupancy
  Ac  Ac0  1  0.500000  0.000000  0.000000  1
  Ac  Ac1  1  0.500000  0.500000  0.500000  1
  Ac  Ac2  1  0.500000  0.000000  0.500000  1
  Ac  Ac3  1  0.000000  0.000000  0.000000  1
  Er  Er4  1  0.000000  0.500000  0.000000  1
  Er  Er5  1  0.000000  0.000000  0.500000  1
  Ta  Ta6  1  0.000000  0.500000  0.500000  1
  Ta  Ta7  1  0.500000  0.500000  0.000000  1
  O  O8  1  0.621441  0.871441  0.750000  1
  O  O9  1  0.378559  0.128559  0.250000  1
  O  O10  1  0.295934  0.545934  0.750000  1
  O  O11  1  0.900729  0.150729  0.750000  1
  O  O12  1  0.348256  0.189547  0.783620  1
  O  O13  1  0.905927  0.564637  0.716380  1
  O  O14  1  0.348256  0.564637  0.158710  1
  O  O15  1  0.905927  0.189547  0.341290  1
  O  O16  1  0.704066  0.454066  0.250000  1
  O  O17  1  0.099271  0.849271  0.250000  1
  O  O18  1  0.651744  0.810453  0.216380  1
  O  O19  1  0.094073  0.435363  0.283620  1
  O  O20  1  0.651744  0.435363  0.841290  1
  O  O21  1  0.094073  0.810453  0.658710  1
