# generated using pymatgen
data_ScPa(Al3Ir)3
_symmetry_space_group_name_H-M   'P 1'
_cell_length_a   7.55981860
_cell_length_b   7.57324817
_cell_length_c   9.29709500
_cell_angle_alpha   90.00000000
_cell_angle_beta   90.00000000
_cell_angle_gamma   119.77225431
_symmetry_Int_Tables_number   1
_chemical_formula_structural   ScPa(Al3Ir)3
_chemical_formula_sum   'Sc2 Pa2 Al18 Ir6'
_cell_volume   462.02296773
_cell_formula_units_Z   2
loop_
 _symmetry_equiv_pos_site_id
 _symmetry_equiv_pos_as_xyz
  1  'x, y, z'
loop_
 _atom_site_type_symbol
 _atom_site_label
 _atom_site_symmetry_multiplicity
 _atom_site_fract_x
 _atom_site_fract_y
 _atom_site_fract_z
 _atom_site_occupancy
  Sc  Sc0  1  0.669432  0.993098  0.250000  1
  Sc  Sc1  1  0.330568  0.006902  0.750000  1
  Pa  Pa2  1  0.997598  0.671266  0.250000  1
  Pa  Pa3  1  0.002402  0.328734  0.750000  1
  Al  Al4  1  0.129452  0.126437  0.250000  1
  Al  Al5  1  0.870548  0.873563  0.750000  1
  Al  Al6  1  0.997195  0.328065  0.080645  1
  Al  Al7  1  0.002805  0.671935  0.919355  1
  Al  Al8  1  0.002805  0.671935  0.580645  1
  Al  Al9  1  0.341003  0.002912  0.426015  1
  Al  Al10  1  0.997195  0.328065  0.419355  1
  Al  Al11  1  0.658997  0.997088  0.573985  1
  Al  Al12  1  0.658997  0.997088  0.926015  1
  Al  Al13  1  0.341003  0.002912  0.073985  1
  Al  Al14  1  0.335227  0.330717  0.554922  1
  Al  Al15  1  0.664773  0.669283  0.445078  1
  Al  Al16  1  0.664773  0.669283  0.054922  1
  Al  Al17  1  0.335227  0.330717  0.945078  1
  Al  Al18  1  0.343841  0.551625  0.250000  1
  Al  Al19  1  0.656159  0.448375  0.750000  1
  Al  Al20  1  0.548410  0.338950  0.250000  1
  Al  Al21  1  0.451590  0.661050  0.750000  1
  Ir  Ir22  1  0.676577  0.330213  0.999775  1
  Ir  Ir23  1  0.323423  0.669787  0.000225  1
  Ir  Ir24  1  0.323423  0.669787  0.499775  1
  Ir  Ir25  1  0.676577  0.330213  0.500225  1
  Ir  Ir26  1  0.000000  0.000000  0.000000  1
  Ir  Ir27  1  0.000000  0.000000  0.500000  1
