# generated using pymatgen
data_Er8Lu12Si15Ge
_symmetry_space_group_name_H-M   'P 1'
_cell_length_a   7.27309299
_cell_length_b   7.55755566
_cell_length_c   14.32379425
_cell_angle_alpha   90.01575899
_cell_angle_beta   89.35288272
_cell_angle_gamma   90.06127717
_symmetry_Int_Tables_number   1
_chemical_formula_structural   Er8Lu12Si15Ge
_chemical_formula_sum   'Er8 Lu12 Si15 Ge1'
_cell_volume   787.28251244
_cell_formula_units_Z   1
loop_
 _symmetry_equiv_pos_site_id
 _symmetry_equiv_pos_as_xyz
  1  'x, y, z'
loop_
 _atom_site_type_symbol
 _atom_site_label
 _atom_site_symmetry_multiplicity
 _atom_site_fract_x
 _atom_site_fract_y
 _atom_site_fract_z
 _atom_site_occupancy
  Er  Er0  1  0.512131  0.322117  0.096684  1
  Er  Er1  1  0.008305  0.177550  0.402805  1
  Er  Er2  1  0.493727  0.679690  0.596987  1
  Er  Er3  1  0.987522  0.822020  0.903587  1
  Er  Er4  1  0.488265  0.677629  0.903576  1
  Er  Er5  1  0.990390  0.822448  0.596716  1
  Er  Er6  1  0.509698  0.320371  0.402512  1
  Er  Er7  1  0.012790  0.178011  0.096617  1
  Lu  Lu8  1  0.668318  0.990713  0.749500  1
  Lu  Lu9  1  0.168345  0.509241  0.750325  1
  Lu  Lu10  1  0.331887  0.009043  0.250688  1
  Lu  Lu11  1  0.831378  0.490937  0.250797  1
  Lu  Lu12  1  0.837463  0.323603  0.622980  1
  Lu  Lu13  1  0.333995  0.178837  0.876718  1
  Lu  Lu14  1  0.165673  0.679324  0.123472  1
  Lu  Lu15  1  0.661159  0.823421  0.375993  1
  Lu  Lu16  1  0.160289  0.677710  0.376577  1
  Lu  Lu17  1  0.665635  0.820725  0.123333  1
  Lu  Lu18  1  0.833995  0.320886  0.876693  1
  Lu  Lu19  1  0.339640  0.174719  0.624309  1
  Si  Si20  1  0.787512  0.629225  0.750690  1
  Si  Si21  1  0.286794  0.870478  0.750980  1
  Si  Si22  1  0.212586  0.370956  0.249358  1
  Si  Si23  1  0.713328  0.129153  0.248893  1
  Si  Si24  1  0.540680  0.392408  0.750667  1
  Si  Si25  1  0.040384  0.108049  0.750386  1
  Si  Si26  1  0.458540  0.607916  0.249353  1
  Si  Si27  1  0.959497  0.892856  0.249358  1
  Si  Si28  1  0.670297  0.033978  0.538948  1
  Si  Si29  1  0.161511  0.467985  0.961144  1
  Si  Si30  1  0.338566  0.968115  0.039185  1
  Si  Si31  1  0.823856  0.534583  0.459990  1
  Si  Si32  1  0.329849  0.966471  0.460848  1
  Si  Si33  1  0.838374  0.532004  0.039016  1
  Si  Si34  1  0.661210  0.031937  0.960993  1
  Ge  Ge35  1  0.176413  0.464896  0.539327  1
