# generated using pymatgen
data_Tb4Zn4Si3Ge
_symmetry_space_group_name_H-M   'P 1'
_cell_length_a   4.19169500
_cell_length_b   4.19169581
_cell_length_c   15.68841700
_cell_angle_alpha   90.00000000
_cell_angle_beta   90.00000000
_cell_angle_gamma   120.00000151
_symmetry_Int_Tables_number   1
_chemical_formula_structural   Tb4Zn4Si3Ge
_chemical_formula_sum   'Tb4 Zn4 Si3 Ge1'
_cell_volume   238.72020704
_cell_formula_units_Z   1
loop_
 _symmetry_equiv_pos_site_id
 _symmetry_equiv_pos_as_xyz
  1  'x, y, z'
loop_
 _atom_site_type_symbol
 _atom_site_label
 _atom_site_symmetry_multiplicity
 _atom_site_fract_x
 _atom_site_fract_y
 _atom_site_fract_z
 _atom_site_occupancy
  Tb  Tb0  1  0.000000  0.000000  0.250330  1
  Tb  Tb1  1  0.000000  0.000000  0.748177  1
  Tb  Tb2  1  0.000000  0.000000  0.001712  1
  Tb  Tb3  1  0.000000  0.000000  0.499699  1
  Zn  Zn4  1  0.333333  0.666667  0.141037  1
  Zn  Zn5  1  0.666667  0.333333  0.855402  1
  Zn  Zn6  1  0.666667  0.333333  0.639439  1
  Zn  Zn7  1  0.333333  0.666667  0.359816  1
  Si  Si8  1  0.333333  0.666667  0.617870  1
  Si  Si9  1  0.666667  0.333333  0.382223  1
  Si  Si10  1  0.666667  0.333333  0.118667  1
  Ge  Ge11  1  0.333333  0.666667  0.885627  1
