# generated using pymatgen
data_Er2Mn3Fe7Ni2P7
_symmetry_space_group_name_H-M   'P 1'
_cell_length_a   9.03362835
_cell_length_b   9.06115762
_cell_length_c   3.60350800
_cell_angle_alpha   90.00000000
_cell_angle_beta   90.00000000
_cell_angle_gamma   120.30693772
_symmetry_Int_Tables_number   1
_chemical_formula_structural   Er2Mn3Fe7Ni2P7
_chemical_formula_sum   'Er2 Mn3 Fe7 Ni2 P7'
_cell_volume   254.65397961
_cell_formula_units_Z   1
loop_
 _symmetry_equiv_pos_site_id
 _symmetry_equiv_pos_as_xyz
  1  'x, y, z'
loop_
 _atom_site_type_symbol
 _atom_site_label
 _atom_site_symmetry_multiplicity
 _atom_site_fract_x
 _atom_site_fract_y
 _atom_site_fract_z
 _atom_site_occupancy
  Er  Er0  1  0.336138  0.668879  0.000000  1
  Er  Er1  1  0.998095  0.999372  0.500000  1
  Mn  Mn2  1  0.785547  0.230530  0.500000  1
  Mn  Mn3  1  0.766566  0.554614  0.500000  1
  Mn  Mn4  1  0.442936  0.211044  0.500000  1
  Fe  Fe5  1  0.041163  0.275621  0.000000  1
  Fe  Fe6  1  0.723088  0.762020  0.000000  1
  Fe  Fe7  1  0.235604  0.957148  0.000000  1
  Fe  Fe8  1  0.547267  0.060957  0.000000  1
  Fe  Fe9  1  0.943208  0.491572  0.000000  1
  Fe  Fe10  1  0.509430  0.451229  0.000000  1
  Fe  Fe11  1  0.615417  0.899165  0.500000  1
  Ni  Ni12  1  0.106266  0.718296  0.500000  1
  Ni  Ni13  1  0.282906  0.387494  0.500000  1
  P  P14  1  0.779155  0.033864  0.000000  1
  P  P15  1  0.960136  0.745180  0.000000  1
  P  P16  1  0.254523  0.213660  0.000000  1
  P  P17  1  0.383326  0.932139  0.500000  1
  P  P18  1  0.066527  0.444086  0.500000  1
  P  P19  1  0.555584  0.629164  0.500000  1
  P  P20  1  0.667115  0.333968  0.000000  1
