# generated using pymatgen
data_K4Zr6OsI18
_symmetry_space_group_name_H-M   'P 1'
_cell_length_a   11.39924326
_cell_length_b   11.53184286
_cell_length_c   11.63982965
_cell_angle_alpha   118.58240701
_cell_angle_beta   100.06377973
_cell_angle_gamma   103.68925606
_symmetry_Int_Tables_number   1
_chemical_formula_structural   K4Zr6OsI18
_chemical_formula_sum   'K4 Zr6 Os1 I18'
_cell_volume   1228.85750520
_cell_formula_units_Z   1
loop_
 _symmetry_equiv_pos_site_id
 _symmetry_equiv_pos_as_xyz
  1  'x, y, z'
loop_
 _atom_site_type_symbol
 _atom_site_label
 _atom_site_symmetry_multiplicity
 _atom_site_fract_x
 _atom_site_fract_y
 _atom_site_fract_z
 _atom_site_occupancy
  K  K0  1  0.648933  0.537915  0.224924  1
  K  K1  1  0.351067  0.462085  0.775076  1
  K  K2  1  0.683226  0.224612  0.564344  1
  K  K3  1  0.316774  0.775388  0.435656  1
  Zr  Zr4  1  0.151209  0.056081  0.231900  1
  Zr  Zr5  1  0.848791  0.943919  0.768100  1
  Zr  Zr6  1  0.860858  0.128087  0.134445  1
  Zr  Zr7  1  0.139142  0.871913  0.865555  1
  Zr  Zr8  1  0.146036  0.239864  0.045328  1
  Zr  Zr9  1  0.853964  0.760136  0.954672  1
  Os  Os10  1  0.000000  0.000000  0.000000  1
  I  I11  1  0.008398  0.412603  0.198371  1
  I  I12  1  0.991602  0.587397  0.801629  1
  I  I13  1  0.329776  0.334880  0.312597  1
  I  I14  1  0.670224  0.665120  0.687403  1
  I  I15  1  0.324113  0.525075  0.100534  1
  I  I16  1  0.675887  0.474925  0.899466  1
  I  I17  1  0.003688  0.793948  0.210103  1
  I  I18  1  0.996312  0.206052  0.789897  1
  I  I19  1  0.700230  0.279884  0.292274  1
  I  I20  1  0.299770  0.720116  0.707726  1
  I  I21  1  0.318101  0.127482  0.901921  1
  I  I22  1  0.681899  0.872518  0.098079  1
  I  I23  1  0.014488  0.206114  0.411003  1
  I  I24  1  0.985512  0.793886  0.588997  1
  I  I25  1  0.322472  0.921558  0.109853  1
  I  I26  1  0.677528  0.078442  0.890147  1
  I  I27  1  0.335516  0.121588  0.506091  1
  I  I28  1  0.664484  0.878412  0.493909  1
