# generated using pymatgen
data_Ho5TaRuO12
_symmetry_space_group_name_H-M   'P 1'
_cell_length_a   6.80857043
_cell_length_b   6.80856992
_cell_length_c   7.42899871
_cell_angle_alpha   74.08592180
_cell_angle_beta   74.08591598
_cell_angle_gamma   50.60022753
_symmetry_Int_Tables_number   1
_chemical_formula_structural   Ho5TaRuO12
_chemical_formula_sum   'Ho5 Ta1 Ru1 O12'
_cell_volume   253.58316103
_cell_formula_units_Z   1
loop_
 _symmetry_equiv_pos_site_id
 _symmetry_equiv_pos_as_xyz
  1  'x, y, z'
loop_
 _atom_site_type_symbol
 _atom_site_label
 _atom_site_symmetry_multiplicity
 _atom_site_fract_x
 _atom_site_fract_y
 _atom_site_fract_z
 _atom_site_occupancy
  Ho  Ho0  1  0.695009  0.683172  0.674497  1
  Ho  Ho1  1  0.701173  0.692646  0.138411  1
  Ho  Ho2  1  0.999897  0.000103  0.000000  1
  Ho  Ho3  1  0.307354  0.298827  0.861589  1
  Ho  Ho4  1  0.316828  0.304991  0.325503  1
  Ta  Ta5  1  0.215795  0.784205  0.500000  1
  Ru  Ru6  1  0.752725  0.247275  0.500000  1
  O  O7  1  0.408371  0.899629  0.924501  1
  O  O8  1  0.578476  0.091156  0.584689  1
  O  O9  1  0.908844  0.421524  0.415311  1
  O  O10  1  0.100371  0.591629  0.075499  1
  O  O11  1  0.997145  0.002383  0.300007  1
  O  O12  1  0.492563  0.507556  0.686038  1
  O  O13  1  0.906310  0.402737  0.925682  1
  O  O14  1  0.099900  0.568087  0.583866  1
  O  O15  1  0.431913  0.900100  0.416134  1
  O  O16  1  0.597263  0.093690  0.074318  1
  O  O17  1  0.492444  0.507437  0.313962  1
  O  O18  1  0.997617  0.002855  0.699993  1
