# generated using pymatgen
data_Tb5Pr3Sc12Ga11Si5
_symmetry_space_group_name_H-M   'P 1'
_cell_length_a   7.28055689
_cell_length_b   7.60104603
_cell_length_c   14.39805546
_cell_angle_alpha   89.97654419
_cell_angle_beta   90.18209282
_cell_angle_gamma   90.16911003
_symmetry_Int_Tables_number   1
_chemical_formula_structural   Tb5Pr3Sc12Ga11Si5
_chemical_formula_sum   'Tb5 Pr3 Sc12 Ga11 Si5'
_cell_volume   796.77864328
_cell_formula_units_Z   1
loop_
 _symmetry_equiv_pos_site_id
 _symmetry_equiv_pos_as_xyz
  1  'x, y, z'
loop_
 _atom_site_type_symbol
 _atom_site_label
 _atom_site_symmetry_multiplicity
 _atom_site_fract_x
 _atom_site_fract_y
 _atom_site_fract_z
 _atom_site_occupancy
  Tb  Tb0  1  0.015188  0.178675  0.405792  1
  Tb  Tb1  1  0.513279  0.322445  0.406675  1
  Tb  Tb2  1  0.490444  0.678390  0.902675  1
  Tb  Tb3  1  0.488354  0.681184  0.592673  1
  Tb  Tb4  1  0.987370  0.817859  0.593886  1
  Pr  Pr5  1  0.988088  0.825888  0.903910  1
  Pr  Pr6  1  0.509451  0.324550  0.094411  1
  Pr  Pr7  1  0.011094  0.176184  0.095432  1
  Sc  Sc8  1  0.328122  0.171726  0.620696  1
  Sc  Sc9  1  0.671608  0.823273  0.379754  1
  Sc  Sc10  1  0.664793  0.991714  0.750183  1
  Sc  Sc11  1  0.173704  0.675083  0.379126  1
  Sc  Sc12  1  0.822575  0.327273  0.875184  1
  Sc  Sc13  1  0.825712  0.330443  0.621491  1
  Sc  Sc14  1  0.839738  0.496578  0.254139  1
  Sc  Sc15  1  0.336735  0.005405  0.254078  1
  Sc  Sc16  1  0.332389  0.173659  0.873743  1
  Sc  Sc17  1  0.172050  0.670309  0.125644  1
  Sc  Sc18  1  0.670090  0.827244  0.124042  1
  Sc  Sc19  1  0.159220  0.505017  0.749118  1
  Ga  Ga20  1  0.286264  0.874540  0.746585  1
  Ga  Ga21  1  0.468579  0.617065  0.253835  1
  Ga  Ga22  1  0.031077  0.122239  0.746808  1
  Ga  Ga23  1  0.529589  0.386339  0.747704  1
  Ga  Ga24  1  0.159010  0.465740  0.541313  1
  Ga  Ga25  1  0.968333  0.878032  0.252835  1
  Ga  Ga26  1  0.714639  0.123537  0.254967  1
  Ga  Ga27  1  0.842533  0.538881  0.040948  1
  Ga  Ga28  1  0.344236  0.956226  0.039501  1
  Ga  Ga29  1  0.158725  0.464033  0.956288  1
  Ga  Ga30  1  0.660795  0.035780  0.541344  1
  Si  Si31  1  0.342787  0.966884  0.458004  1
  Si  Si32  1  0.844512  0.532134  0.458063  1
  Si  Si33  1  0.780647  0.622714  0.746447  1
  Si  Si34  1  0.216515  0.379314  0.255341  1
  Si  Si35  1  0.651756  0.033644  0.957367  1
