# generated using pymatgen
data_LaTm4(CoB3)2
_symmetry_space_group_name_H-M   'P 1'
_cell_length_a   8.11997527
_cell_length_b   8.11997497
_cell_length_c   8.11997428
_cell_angle_alpha   39.15884139
_cell_angle_beta   39.15884470
_cell_angle_gamma   39.15882792
_symmetry_Int_Tables_number   1
_chemical_formula_structural   LaTm4(CoB3)2
_chemical_formula_sum   'La1 Tm4 Co2 B6'
_cell_volume   192.05027004
_cell_formula_units_Z   1
loop_
 _symmetry_equiv_pos_site_id
 _symmetry_equiv_pos_as_xyz
  1  'x, y, z'
loop_
 _atom_site_type_symbol
 _atom_site_label
 _atom_site_symmetry_multiplicity
 _atom_site_fract_x
 _atom_site_fract_y
 _atom_site_fract_z
 _atom_site_occupancy
  La  La0  1  0.000000  0.000000  0.000000  1
  Tm  Tm1  1  0.584543  0.584543  0.584543  1
  Tm  Tm2  1  0.415457  0.415457  0.415457  1
  Tm  Tm3  1  0.748018  0.748018  0.748018  1
  Tm  Tm4  1  0.251982  0.251982  0.251982  1
  Co  Co5  1  0.883094  0.883094  0.883094  1
  Co  Co6  1  0.116906  0.116906  0.116906  1
  B  B7  1  0.500000  0.831143  0.168857  1
  B  B8  1  0.168857  0.500000  0.831143  1
  B  B9  1  0.831143  0.168857  0.500000  1
  B  B10  1  0.500000  0.168857  0.831143  1
  B  B11  1  0.831143  0.500000  0.168857  1
  B  B12  1  0.168857  0.831143  0.500000  1
