# generated using pymatgen
data_Ce2U4Fe16Si7
_symmetry_space_group_name_H-M   'P 1'
_cell_length_a   8.22577600
_cell_length_b   8.24052203
_cell_length_c   8.22577724
_cell_angle_alpha   59.94068031
_cell_angle_beta   60.11863304
_cell_angle_gamma   59.94067882
_symmetry_Int_Tables_number   1
_chemical_formula_structural   Ce2U4Fe16Si7
_chemical_formula_sum   'Ce2 U4 Fe16 Si7'
_cell_volume   394.26727202
_cell_formula_units_Z   1
loop_
 _symmetry_equiv_pos_site_id
 _symmetry_equiv_pos_as_xyz
  1  'x, y, z'
loop_
 _atom_site_type_symbol
 _atom_site_label
 _atom_site_symmetry_multiplicity
 _atom_site_fract_x
 _atom_site_fract_y
 _atom_site_fract_z
 _atom_site_occupancy
  Ce  Ce0  1  0.793759  0.206241  0.793759  1
  Ce  Ce1  1  0.206241  0.793759  0.206241  1
  U  U2  1  0.222889  0.222889  0.777111  1
  U  U3  1  0.777111  0.777111  0.222889  1
  U  U4  1  0.222889  0.777111  0.777111  1
  U  U5  1  0.777111  0.222889  0.222889  1
  Fe  Fe6  1  0.174917  0.177522  0.174917  1
  Fe  Fe7  1  0.177522  0.174917  0.472646  1
  Fe  Fe8  1  0.822478  0.825083  0.527354  1
  Fe  Fe9  1  0.825083  0.527354  0.825083  1
  Fe  Fe10  1  0.619868  0.133317  0.619868  1
  Fe  Fe11  1  0.825083  0.822478  0.825083  1
  Fe  Fe12  1  0.380132  0.373053  0.380132  1
  Fe  Fe13  1  0.619868  0.626947  0.619868  1
  Fe  Fe14  1  0.472646  0.174917  0.177522  1
  Fe  Fe15  1  0.527354  0.825083  0.822478  1
  Fe  Fe16  1  0.174917  0.472646  0.174917  1
  Fe  Fe17  1  0.626947  0.619868  0.133317  1
  Fe  Fe18  1  0.373053  0.380132  0.866683  1
  Fe  Fe19  1  0.866683  0.380132  0.373053  1
  Fe  Fe20  1  0.380132  0.866683  0.380132  1
  Fe  Fe21  1  0.133317  0.619868  0.626947  1
  Si  Si22  1  0.500000  0.500000  0.000000  1
  Si  Si23  1  0.500000  0.500000  0.500000  1
  Si  Si24  1  0.500000  0.000000  0.500000  1
  Si  Si25  1  0.000000  0.000000  0.500000  1
  Si  Si26  1  0.000000  0.500000  0.500000  1
  Si  Si27  1  0.000000  0.500000  0.000000  1
  Si  Si28  1  0.500000  0.000000  0.000000  1
