# generated using pymatgen
data_Tb4Gd2Zn23P
_symmetry_space_group_name_H-M   'P 1'
_cell_length_a   9.06985055
_cell_length_b   9.06944263
_cell_length_c   9.06946900
_cell_angle_alpha   60.00170195
_cell_angle_beta   59.99895159
_cell_angle_gamma   59.99905846
_symmetry_Int_Tables_number   1
_chemical_formula_structural   Tb4Gd2Zn23P
_chemical_formula_sum   'Tb4 Gd2 Zn23 P1'
_cell_volume   527.52937209
_cell_formula_units_Z   1
loop_
 _symmetry_equiv_pos_site_id
 _symmetry_equiv_pos_as_xyz
  1  'x, y, z'
loop_
 _atom_site_type_symbol
 _atom_site_label
 _atom_site_symmetry_multiplicity
 _atom_site_fract_x
 _atom_site_fract_y
 _atom_site_fract_z
 _atom_site_occupancy
  Tb  Tb0  1  0.713111  0.286983  0.287150  1
  Tb  Tb1  1  0.713087  0.286993  0.713002  1
  Tb  Tb2  1  0.713530  0.713293  0.286710  1
  Tb  Tb3  1  0.287268  0.712842  0.712980  1
  Gd  Gd4  1  0.287621  0.712659  0.287313  1
  Gd  Gd5  1  0.287212  0.287250  0.712863  1
  Zn  Zn6  1  0.623872  0.125352  0.125247  1
  Zn  Zn7  1  0.125020  0.624018  0.125222  1
  Zn  Zn8  1  0.124931  0.125206  0.623810  1
  Zn  Zn9  1  0.124903  0.125409  0.125732  1
  Zn  Zn10  1  0.376050  0.874313  0.874551  1
  Zn  Zn11  1  0.873902  0.376178  0.874813  1
  Zn  Zn12  1  0.874282  0.874764  0.375980  1
  Zn  Zn13  1  0.874479  0.874736  0.874632  1
  Zn  Zn14  1  0.500523  0.000003  0.999997  1
  Zn  Zn15  1  0.500322  0.999775  0.499742  1
  Zn  Zn16  1  0.500326  0.499839  0.999715  1
  Zn  Zn17  1  0.999577  0.500076  0.499916  1
  Zn  Zn18  1  0.999818  0.500274  0.000246  1
  Zn  Zn19  1  0.999882  0.000288  0.500137  1
  Zn  Zn20  1  0.999603  0.000006  0.999973  1
  Zn  Zn21  1  0.012867  0.329071  0.328990  1
  Zn  Zn22  1  0.329060  0.013208  0.329066  1
  Zn  Zn23  1  0.329007  0.329086  0.013233  1
  Zn  Zn24  1  0.329093  0.328707  0.328691  1
  Zn  Zn25  1  0.986441  0.671345  0.671287  1
  Zn  Zn26  1  0.671295  0.986766  0.670927  1
  Zn  Zn27  1  0.671338  0.670927  0.986785  1
  Zn  Zn28  1  0.670931  0.671003  0.670915  1
  P  P29  1  0.500650  0.499629  0.500374  1
