# generated using pymatgen
data_Cs6V5AgBr18
_symmetry_space_group_name_H-M   'P 1'
_cell_length_a   13.49424400
_cell_length_b   13.49424414
_cell_length_c   6.46643300
_cell_angle_alpha   90.00000000
_cell_angle_beta   90.00000000
_cell_angle_gamma   119.99999345
_symmetry_Int_Tables_number   1
_chemical_formula_structural   Cs6V5AgBr18
_chemical_formula_sum   'Cs6 V5 Ag1 Br18'
_cell_volume   1019.74730059
_cell_formula_units_Z   1
loop_
 _symmetry_equiv_pos_site_id
 _symmetry_equiv_pos_as_xyz
  1  'x, y, z'
loop_
 _atom_site_type_symbol
 _atom_site_label
 _atom_site_symmetry_multiplicity
 _atom_site_fract_x
 _atom_site_fract_y
 _atom_site_fract_z
 _atom_site_occupancy
  Cs  Cs0  1  0.000163  0.317141  0.751327  1
  Cs  Cs1  1  0.317141  0.316978  0.248673  1
  Cs  Cs2  1  0.682859  0.683022  0.751327  1
  Cs  Cs3  1  0.999837  0.682859  0.248673  1
  Cs  Cs4  1  0.316978  0.999837  0.751327  1
  Cs  Cs5  1  0.683022  0.000163  0.248673  1
  V  V6  1  0.333333  0.666667  0.527386  1
  V  V7  1  0.666667  0.333333  0.472614  1
  V  V8  1  0.000000  0.000000  0.000000  1
  V  V9  1  0.666667  0.333333  0.972554  1
  V  V10  1  0.333333  0.666667  0.027446  1
  Ag  Ag11  1  0.000000  0.000000  0.500000  1
  Br  Br12  1  0.820786  0.485950  0.721921  1
  Br  Br13  1  0.335459  0.514446  0.777586  1
  Br  Br14  1  0.178987  0.664541  0.777586  1
  Br  Br15  1  0.821013  0.335459  0.222414  1
  Br  Br16  1  0.179214  0.514050  0.278079  1
  Br  Br17  1  0.166243  0.999648  0.224940  1
  Br  Br18  1  0.334836  0.820786  0.278079  1
  Br  Br19  1  0.485554  0.821013  0.777586  1
  Br  Br20  1  0.665164  0.179214  0.721921  1
  Br  Br21  1  0.664541  0.485554  0.222414  1
  Br  Br22  1  0.000352  0.166596  0.224940  1
  Br  Br23  1  0.166596  0.166243  0.775060  1
  Br  Br24  1  0.833757  0.000352  0.775060  1
  Br  Br25  1  0.999648  0.833404  0.775060  1
  Br  Br26  1  0.833404  0.833757  0.224940  1
  Br  Br27  1  0.514446  0.178987  0.222414  1
  Br  Br28  1  0.485950  0.665164  0.278079  1
  Br  Br29  1  0.514050  0.334836  0.721921  1
