# generated using pymatgen
data_Tb5HoCo4(P6Ru7)2
_symmetry_space_group_name_H-M   'P 1'
_cell_length_a   3.88487500
_cell_length_b   10.90968926
_cell_length_c   12.69586931
_cell_angle_alpha   89.97480795
_cell_angle_beta   90.00000000
_cell_angle_gamma   90.00000000
_symmetry_Int_Tables_number   1
_chemical_formula_structural   Tb5HoCo4(P6Ru7)2
_chemical_formula_sum   'Tb5 Ho1 Co4 P12 Ru14'
_cell_volume   538.08617202
_cell_formula_units_Z   1
loop_
 _symmetry_equiv_pos_site_id
 _symmetry_equiv_pos_as_xyz
  1  'x, y, z'
loop_
 _atom_site_type_symbol
 _atom_site_label
 _atom_site_symmetry_multiplicity
 _atom_site_fract_x
 _atom_site_fract_y
 _atom_site_fract_z
 _atom_site_occupancy
  Tb  Tb0  1  0.000000  0.499874  0.525825  1
  Tb  Tb1  1  0.500000  0.000086  0.473188  1
  Tb  Tb2  1  0.500000  0.821902  0.203099  1
  Tb  Tb3  1  0.000000  0.681272  0.797640  1
  Tb  Tb4  1  0.000000  0.318784  0.797449  1
  Ho  Ho5  1  0.500000  0.178196  0.203152  1
  Co  Co6  1  0.000000  0.499780  0.988609  1
  Co  Co7  1  0.500000  0.000345  0.013223  1
  Co  Co8  1  0.000000  0.162332  0.010211  1
  Co  Co9  1  0.000000  0.837867  0.010138  1
  P  P10  1  0.500000  0.305847  0.616355  1
  P  P11  1  0.500000  0.694193  0.616697  1
  P  P12  1  0.000000  0.194166  0.383341  1
  P  P13  1  0.000000  0.805816  0.383685  1
  P  P14  1  0.500000  0.499880  0.886726  1
  P  P15  1  0.000000  0.000481  0.112852  1
  P  P16  1  0.500000  0.852255  0.896620  1
  P  P17  1  0.500000  0.148014  0.896411  1
  P  P18  1  0.000000  0.655610  0.101155  1
  P  P19  1  0.000000  0.343534  0.101272  1
  P  P20  1  0.500000  0.500008  0.336167  1
  P  P21  1  0.000000  0.000046  0.663016  1
  Ru  Ru22  1  0.500000  0.300301  0.428650  1
  Ru  Ru23  1  0.500000  0.699807  0.429125  1
  Ru  Ru24  1  0.000000  0.199677  0.570886  1
  Ru  Ru25  1  0.000000  0.800366  0.571145  1
  Ru  Ru26  1  0.500000  0.878037  0.715786  1
  Ru  Ru27  1  0.500000  0.122037  0.715815  1
  Ru  Ru28  1  0.000000  0.623234  0.282414  1
  Ru  Ru29  1  0.000000  0.375848  0.281781  1
  Ru  Ru30  1  0.500000  0.326706  0.993018  1
  Ru  Ru31  1  0.500000  0.673057  0.992652  1
  Ru  Ru32  1  0.500000  0.500028  0.151878  1
  Ru  Ru33  1  0.000000  0.000057  0.851387  1
  Ru  Ru34  1  0.500000  0.499921  0.699958  1
  Ru  Ru35  1  0.000000  0.000638  0.298674  1
