# generated using pymatgen
data_Pr3Al12(OsRu)2
_symmetry_space_group_name_H-M   'P 1'
_cell_length_a   8.91829286
_cell_length_b   8.93065466
_cell_length_c   9.74778600
_cell_angle_alpha   90.00000000
_cell_angle_beta   90.00000000
_cell_angle_gamma   120.04586223
_symmetry_Int_Tables_number   1
_chemical_formula_structural   Pr3Al12(OsRu)2
_chemical_formula_sum   'Pr6 Al24 Os4 Ru4'
_cell_volume   672.04871315
_cell_formula_units_Z   2
loop_
 _symmetry_equiv_pos_site_id
 _symmetry_equiv_pos_as_xyz
  1  'x, y, z'
loop_
 _atom_site_type_symbol
 _atom_site_label
 _atom_site_symmetry_multiplicity
 _atom_site_fract_x
 _atom_site_fract_y
 _atom_site_fract_z
 _atom_site_occupancy
  Pr  Pr0  1  0.193591  0.384729  0.250000  1
  Pr  Pr1  1  0.806409  0.615271  0.750000  1
  Pr  Pr2  1  0.614112  0.807056  0.250000  1
  Pr  Pr3  1  0.385888  0.192944  0.750000  1
  Pr  Pr4  1  0.193591  0.808861  0.250000  1
  Pr  Pr5  1  0.806409  0.191139  0.750000  1
  Al  Al6  1  0.333202  0.666602  0.008384  1
  Al  Al7  1  0.666798  0.333398  0.991616  1
  Al  Al8  1  0.666798  0.333398  0.508384  1
  Al  Al9  1  0.333202  0.666602  0.491616  1
  Al  Al10  1  0.163212  0.325979  0.574913  1
  Al  Al11  1  0.836788  0.674021  0.425087  1
  Al  Al12  1  0.673776  0.836888  0.574708  1
  Al  Al13  1  0.836788  0.674021  0.074913  1
  Al  Al14  1  0.326224  0.163112  0.425292  1
  Al  Al15  1  0.163212  0.325979  0.925087  1
  Al  Al16  1  0.163212  0.837232  0.574913  1
  Al  Al17  1  0.326224  0.163112  0.074708  1
  Al  Al18  1  0.836788  0.162768  0.425087  1
  Al  Al19  1  0.673776  0.836888  0.925292  1
  Al  Al20  1  0.836788  0.162768  0.074913  1
  Al  Al21  1  0.163212  0.837232  0.925087  1
  Al  Al22  1  0.562502  0.125012  0.250000  1
  Al  Al23  1  0.437498  0.874988  0.750000  1
  Al  Al24  1  0.875394  0.437697  0.250000  1
  Al  Al25  1  0.124606  0.562303  0.750000  1
  Al  Al26  1  0.562502  0.437490  0.250000  1
  Al  Al27  1  0.437498  0.562510  0.750000  1
  Al  Al28  1  0.000084  0.000042  0.250000  1
  Al  Al29  1  0.999916  0.999958  0.750000  1
  Os  Os30  1  0.500000  0.000000  0.000000  1
  Os  Os31  1  0.500000  0.000000  0.500000  1
  Os  Os32  1  0.500000  0.500000  0.000000  1
  Os  Os33  1  0.500000  0.500000  0.500000  1
  Ru  Ru34  1  0.000000  0.500000  0.000000  1
  Ru  Ru35  1  0.000000  0.500000  0.500000  1
  Ru  Ru36  1  0.000000  0.000000  0.000000  1
  Ru  Ru37  1  0.000000  0.000000  0.500000  1
