# generated using pymatgen
data_MnNb4Cr2Os5
_symmetry_space_group_name_H-M   'P 1'
_cell_length_a   5.06966000
_cell_length_b   5.01498985
_cell_length_c   8.32970900
_cell_angle_alpha   90.00000000
_cell_angle_beta   90.00000000
_cell_angle_gamma   120.36128689
_symmetry_Int_Tables_number   1
_chemical_formula_structural   MnNb4Cr2Os5
_chemical_formula_sum   'Mn1 Nb4 Cr2 Os5'
_cell_volume   182.73289555
_cell_formula_units_Z   1
loop_
 _symmetry_equiv_pos_site_id
 _symmetry_equiv_pos_as_xyz
  1  'x, y, z'
loop_
 _atom_site_type_symbol
 _atom_site_label
 _atom_site_symmetry_multiplicity
 _atom_site_fract_x
 _atom_site_fract_y
 _atom_site_fract_z
 _atom_site_occupancy
  Mn  Mn0  1  0.827392  0.654783  0.250000  1
  Nb  Nb1  1  0.334050  0.668101  0.434266  1
  Nb  Nb2  1  0.668931  0.337860  0.933341  1
  Nb  Nb3  1  0.668931  0.337860  0.566659  1
  Nb  Nb4  1  0.334050  0.668101  0.065734  1
  Cr  Cr5  1  0.655978  0.834702  0.750000  1
  Cr  Cr6  1  0.178724  0.834702  0.750000  1
  Os  Os7  1  0.179343  0.358687  0.750000  1
  Os  Os8  1  0.831179  0.175355  0.250000  1
  Os  Os9  1  0.344176  0.175355  0.250000  1
  Os  Os10  1  0.988623  0.977247  0.996948  1
  Os  Os11  1  0.988623  0.977247  0.503052  1
