# generated using pymatgen
data_Tb5(PuS4)2
_symmetry_space_group_name_H-M   'P 1'
_cell_length_a   7.90061131
_cell_length_b   7.88243851
_cell_length_c   7.88243896
_cell_angle_alpha   120.10128122
_cell_angle_beta   89.86180008
_cell_angle_gamma   119.98245235
_symmetry_Int_Tables_number   1
_chemical_formula_structural   Tb5(PuS4)2
_chemical_formula_sum   'Tb5 Pu2 S8'
_cell_volume   347.08761346
_cell_formula_units_Z   1
loop_
 _symmetry_equiv_pos_site_id
 _symmetry_equiv_pos_as_xyz
  1  'x, y, z'
loop_
 _atom_site_type_symbol
 _atom_site_label
 _atom_site_symmetry_multiplicity
 _atom_site_fract_x
 _atom_site_fract_y
 _atom_site_fract_z
 _atom_site_occupancy
  Tb  Tb0  1  0.249999  0.000000  0.249999  1
  Tb  Tb1  1  0.750000  0.000000  0.250000  1
  Tb  Tb2  1  0.250000  0.500001  0.750001  1
  Tb  Tb3  1  0.750001  0.000000  0.750001  1
  Tb  Tb4  1  0.750000  0.500001  0.750001  1
  Pu  Pu5  1  0.250000  0.499999  0.250000  1
  Pu  Pu6  1  0.250001  0.999999  0.750000  1
  S  S7  1  0.998974  0.999064  0.999910  1
  S  S8  1  0.501027  0.000936  0.500090  1
  S  S9  1  0.999053  0.001622  0.499164  1
  S  S10  1  0.999386  0.498004  0.501384  1
  S  S11  1  0.500948  0.500111  0.502571  1
  S  S12  1  0.999056  0.499892  0.997432  1
  S  S13  1  0.500614  0.501998  0.998619  1
  S  S14  1  0.500946  0.998376  0.000836  1
