# generated using pymatgen
data_Ho8Fe3OsC8
_symmetry_space_group_name_H-M   'P 1'
_cell_length_a   5.04805200
_cell_length_b   6.30055025
_cell_length_c   9.67193588
_cell_angle_alpha   90.18681427
_cell_angle_beta   90.00000000
_cell_angle_gamma   90.00000000
_symmetry_Int_Tables_number   1
_chemical_formula_structural   Ho8Fe3OsC8
_chemical_formula_sum   'Ho8 Fe3 Os1 C8'
_cell_volume   307.61917270
_cell_formula_units_Z   1
loop_
 _symmetry_equiv_pos_site_id
 _symmetry_equiv_pos_as_xyz
  1  'x, y, z'
loop_
 _atom_site_type_symbol
 _atom_site_label
 _atom_site_symmetry_multiplicity
 _atom_site_fract_x
 _atom_site_fract_y
 _atom_site_fract_z
 _atom_site_occupancy
  Ho  Ho0  1  0.250000  0.688704  0.554485  1
  Ho  Ho1  1  0.750000  0.320779  0.443863  1
  Ho  Ho2  1  0.750000  0.816508  0.055732  1
  Ho  Ho3  1  0.250000  0.180650  0.948773  1
  Ho  Ho4  1  0.250000  0.518742  0.216720  1
  Ho  Ho5  1  0.750000  0.477026  0.782430  1
  Ho  Ho6  1  0.750000  0.976864  0.716610  1
  Ho  Ho7  1  0.250000  0.019820  0.283327  1
  Fe  Fe8  1  0.250000  0.726496  0.862014  1
  Fe  Fe9  1  0.750000  0.269261  0.143991  1
  Fe  Fe10  1  0.750000  0.771514  0.356369  1
  Os  Os11  1  0.250000  0.224822  0.638338  1
  C  C12  1  0.250000  0.470146  0.761705  1
  C  C13  1  0.750000  0.535976  0.238997  1
  C  C14  1  0.750000  0.034631  0.260037  1
  C  C15  1  0.250000  0.954419  0.745736  1
  C  C16  1  0.250000  0.812571  0.041884  1
  C  C17  1  0.750000  0.189965  0.961359  1
  C  C18  1  0.750000  0.689075  0.540173  1
  C  C19  1  0.250000  0.322034  0.447457  1
