# generated using pymatgen
data_CsRb3Ti2(ZnTe4)2
_symmetry_space_group_name_H-M   'P 1'
_cell_length_a   15.41602242
_cell_length_b   13.74372339
_cell_length_c   8.30799052
_cell_angle_alpha   84.91044891
_cell_angle_beta   62.62386796
_cell_angle_gamma   32.35941939
_symmetry_Int_Tables_number   1
_chemical_formula_structural   CsRb3Ti2(ZnTe4)2
_chemical_formula_sum   'Cs1 Rb3 Ti2 Zn2 Te8'
_cell_volume   649.31765853
_cell_formula_units_Z   1
loop_
 _symmetry_equiv_pos_site_id
 _symmetry_equiv_pos_as_xyz
  1  'x, y, z'
loop_
 _atom_site_type_symbol
 _atom_site_label
 _atom_site_symmetry_multiplicity
 _atom_site_fract_x
 _atom_site_fract_y
 _atom_site_fract_z
 _atom_site_occupancy
  Cs  Cs0  1  0.068108  0.068108  0.431892  1
  Rb  Rb1  1  0.817567  0.817567  0.182433  1
  Rb  Rb2  1  0.182600  0.182600  0.817400  1
  Rb  Rb3  1  0.432285  0.432285  0.067715  1
  Ti  Ti4  1  0.250418  0.250418  0.249582  1
  Ti  Ti5  1  0.999243  0.999243  0.000757  1
  Zn  Zn6  1  0.750118  0.750118  0.749882  1
  Zn  Zn7  1  0.499884  0.499884  0.500116  1
  Te  Te8  1  0.395624  0.716880  0.799396  1
  Te  Te9  1  0.085703  0.800116  0.717731  1
  Te  Te10  1  0.800116  0.085703  0.396451  1
  Te  Te11  1  0.716880  0.395624  0.088101  1
  Te  Te12  1  0.852770  0.535753  0.448519  1
  Te  Te13  1  0.164534  0.448397  0.533516  1
  Te  Te14  1  0.448397  0.164534  0.853552  1
  Te  Te15  1  0.535753  0.852770  0.162957  1
