# generated using pymatgen
data_DyY3(PS4)4
_symmetry_space_group_name_H-M   'P 1'
_cell_length_a   8.81530652
_cell_length_b   6.56096201
_cell_length_c   12.77851470
_cell_angle_alpha   89.99492972
_cell_angle_beta   120.87693620
_cell_angle_gamma   90.00233395
_symmetry_Int_Tables_number   1
_chemical_formula_structural   DyY3(PS4)4
_chemical_formula_sum   'Dy1 Y3 P4 S16'
_cell_volume   634.32238253
_cell_formula_units_Z   1
loop_
 _symmetry_equiv_pos_site_id
 _symmetry_equiv_pos_as_xyz
  1  'x, y, z'
loop_
 _atom_site_type_symbol
 _atom_site_label
 _atom_site_symmetry_multiplicity
 _atom_site_fract_x
 _atom_site_fract_y
 _atom_site_fract_z
 _atom_site_occupancy
  Dy  Dy0  1  0.557226  0.318598  0.164772  1
  Y  Y1  1  0.442780  0.818651  0.335273  1
  Y  Y2  1  0.557225  0.181337  0.664725  1
  Y  Y3  1  0.442779  0.681331  0.835289  1
  P  P4  1  0.311039  0.769797  0.038578  1
  P  P5  1  0.688935  0.269858  0.461395  1
  P  P6  1  0.311037  0.730151  0.538562  1
  P  P7  1  0.688947  0.230161  0.961465  1
  S  S8  1  0.573942  0.732876  0.087927  1
  S  S9  1  0.280456  0.037653  0.112059  1
  S  S10  1  0.261289  0.550096  0.132920  1
  S  S11  1  0.846527  0.246101  0.143415  1
  S  S12  1  0.153376  0.746052  0.356603  1
  S  S13  1  0.738721  0.050229  0.366994  1
  S  S14  1  0.719607  0.537452  0.387870  1
  S  S15  1  0.426082  0.233018  0.412093  1
  S  S16  1  0.573919  0.766993  0.587892  1
  S  S17  1  0.280340  0.462517  0.612045  1
  S  S18  1  0.261220  0.949853  0.632914  1
  S  S19  1  0.846636  0.253949  0.643406  1
  S  S20  1  0.153377  0.753948  0.856600  1
  S  S21  1  0.738778  0.449859  0.867082  1
  S  S22  1  0.719659  0.962502  0.887949  1
  S  S23  1  0.426099  0.267018  0.912172  1
