# generated using pymatgen
data_BaNd2(H6Ru)2
_symmetry_space_group_name_H-M   'P 1'
_cell_length_a   5.11172800
_cell_length_b   5.11172910
_cell_length_c   8.62868800
_cell_angle_alpha   90.00000000
_cell_angle_beta   90.00000000
_cell_angle_gamma   120.00000581
_symmetry_Int_Tables_number   1
_chemical_formula_structural   BaNd2(H6Ru)2
_chemical_formula_sum   'Ba1 Nd2 H12 Ru2'
_cell_volume   195.25894515
_cell_formula_units_Z   1
loop_
 _symmetry_equiv_pos_site_id
 _symmetry_equiv_pos_as_xyz
  1  'x, y, z'
loop_
 _atom_site_type_symbol
 _atom_site_label
 _atom_site_symmetry_multiplicity
 _atom_site_fract_x
 _atom_site_fract_y
 _atom_site_fract_z
 _atom_site_occupancy
  Ba  Ba0  1  0.000000  0.000000  0.000000  1
  Nd  Nd1  1  0.666667  0.333333  0.362660  1
  Nd  Nd2  1  0.333333  0.666667  0.637340  1
  H  H3  1  0.171714  0.828286  0.382019  1
  H  H4  1  0.656572  0.828286  0.382019  1
  H  H5  1  0.171714  0.343428  0.382019  1
  H  H6  1  0.828286  0.171714  0.617981  1
  H  H7  1  0.343428  0.171714  0.617981  1
  H  H8  1  0.828286  0.656572  0.617981  1
  H  H9  1  0.513257  0.026514  0.848843  1
  H  H10  1  0.513257  0.486743  0.848843  1
  H  H11  1  0.973486  0.486743  0.848843  1
  H  H12  1  0.486743  0.973486  0.151157  1
  H  H13  1  0.486743  0.513257  0.151157  1
  H  H14  1  0.026514  0.513257  0.151157  1
  Ru  Ru15  1  0.666667  0.333333  0.727405  1
  Ru  Ru16  1  0.333333  0.666667  0.272595  1
