# generated using pymatgen
data_Y5LuTcRh
_symmetry_space_group_name_H-M   'P 1'
_cell_length_a   6.33185903
_cell_length_b   7.34568166
_cell_length_c   9.22497150
_cell_angle_alpha   90.24870061
_cell_angle_beta   90.97298616
_cell_angle_gamma   90.17263078
_symmetry_Int_Tables_number   1
_chemical_formula_structural   Y5LuTcRh
_chemical_formula_sum   'Y10 Lu2 Tc2 Rh2'
_cell_volume   429.00226900
_cell_formula_units_Z   2
loop_
 _symmetry_equiv_pos_site_id
 _symmetry_equiv_pos_as_xyz
  1  'x, y, z'
loop_
 _atom_site_type_symbol
 _atom_site_label
 _atom_site_symmetry_multiplicity
 _atom_site_fract_x
 _atom_site_fract_y
 _atom_site_fract_z
 _atom_site_occupancy
  Y  Y0  1  0.633984  0.039869  0.247473  1
  Y  Y1  1  0.366016  0.960131  0.752527  1
  Y  Y2  1  0.127901  0.460111  0.752440  1
  Y  Y3  1  0.872099  0.539889  0.247560  1
  Y  Y4  1  0.663928  0.324558  0.938669  1
  Y  Y5  1  0.826777  0.820704  0.569121  1
  Y  Y6  1  0.336072  0.675442  0.061331  1
  Y  Y7  1  0.173223  0.179296  0.430879  1
  Y  Y8  1  0.333165  0.673605  0.437838  1
  Y  Y9  1  0.666835  0.326395  0.562162  1
  Lu  Lu10  1  0.170545  0.177669  0.064524  1
  Lu  Lu11  1  0.829455  0.822331  0.935476  1
  Tc  Tc12  1  0.460225  0.383025  0.249576  1
  Tc  Tc13  1  0.539775  0.616975  0.750424  1
  Rh  Rh14  1  0.957073  0.111959  0.762262  1
  Rh  Rh15  1  0.042927  0.888041  0.237738  1
