# generated using pymatgen
data_Ho20Ir6Ru5Au
_symmetry_space_group_name_H-M   'P 1'
_cell_length_a   10.80990683
_cell_length_b   10.80990638
_cell_length_c   6.42062433
_cell_angle_alpha   89.87426244
_cell_angle_beta   89.87426731
_cell_angle_gamma   89.75180627
_symmetry_Int_Tables_number   1
_chemical_formula_structural   Ho20Ir6Ru5Au
_chemical_formula_sum   'Ho20 Ir6 Ru5 Au1'
_cell_volume   750.26551727
_cell_formula_units_Z   1
loop_
 _symmetry_equiv_pos_site_id
 _symmetry_equiv_pos_as_xyz
  1  'x, y, z'
loop_
 _atom_site_type_symbol
 _atom_site_label
 _atom_site_symmetry_multiplicity
 _atom_site_fract_x
 _atom_site_fract_y
 _atom_site_fract_z
 _atom_site_occupancy
  Ho  Ho0  1  0.296539  0.092833  0.380944  1
  Ho  Ho1  1  0.297741  0.916809  0.865519  1
  Ho  Ho2  1  0.705675  0.086877  0.877862  1
  Ho  Ho3  1  0.708345  0.914243  0.375724  1
  Ho  Ho4  1  0.587247  0.793227  0.879174  1
  Ho  Ho5  1  0.588167  0.207297  0.378707  1
  Ho  Ho6  1  0.421778  0.792861  0.378259  1
  Ho  Ho7  1  0.413533  0.207038  0.877928  1
  Ho  Ho8  1  0.206773  0.412753  0.620826  1
  Ho  Ho9  1  0.207139  0.578222  0.121741  1
  Ho  Ho10  1  0.792703  0.411833  0.121293  1
  Ho  Ho11  1  0.792962  0.586467  0.622072  1
  Ho  Ho12  1  0.907167  0.703461  0.119056  1
  Ho  Ho13  1  0.913123  0.294325  0.622138  1
  Ho  Ho14  1  0.083191  0.702259  0.634481  1
  Ho  Ho15  1  0.085757  0.291655  0.124276  1
  Ho  Ho16  1  0.996376  0.005030  0.502629  1
  Ho  Ho17  1  0.994970  0.003624  0.997371  1
  Ho  Ho18  1  0.500402  0.499930  0.999190  1
  Ho  Ho19  1  0.500070  0.499598  0.500810  1
  Ir  Ir20  1  0.848086  0.847640  0.749519  1
  Ir  Ir21  1  0.152360  0.151914  0.750481  1
  Ir  Ir22  1  0.651688  0.348312  0.750000  1
  Ir  Ir23  1  0.652123  0.651971  0.249927  1
  Ir  Ir24  1  0.348029  0.347877  0.250073  1
  Ir  Ir25  1  0.346418  0.653582  0.750000  1
  Ru  Ru26  1  0.848233  0.151767  0.250000  1
  Ru  Ru27  1  0.499904  0.000651  0.124073  1
  Ru  Ru28  1  0.500070  0.000788  0.622004  1
  Ru  Ru29  1  0.999212  0.499930  0.877996  1
  Ru  Ru30  1  0.999349  0.500096  0.375927  1
  Au  Au31  1  0.154871  0.845129  0.250000  1
