# generated using pymatgen
data_CsLi4PaO5
_symmetry_space_group_name_H-M   'P 1'
_cell_length_a   6.23265094
_cell_length_b   6.25828805
_cell_length_c   9.83062800
_cell_angle_alpha   94.33112001
_cell_angle_beta   99.80412907
_cell_angle_gamma   119.65633256
_symmetry_Int_Tables_number   1
_chemical_formula_structural   CsLi4PaO5
_chemical_formula_sum   'Cs2 Li8 Pa2 O10'
_cell_volume   322.58941816
_cell_formula_units_Z   2
loop_
 _symmetry_equiv_pos_site_id
 _symmetry_equiv_pos_as_xyz
  1  'x, y, z'
loop_
 _atom_site_type_symbol
 _atom_site_label
 _atom_site_symmetry_multiplicity
 _atom_site_fract_x
 _atom_site_fract_y
 _atom_site_fract_z
 _atom_site_occupancy
  Cs  Cs0  1  0.626631  0.788559  0.403847  1
  Cs  Cs1  1  0.373369  0.211441  0.596153  1
  Li  Li2  1  0.328643  0.954933  0.882357  1
  Li  Li3  1  0.671357  0.045067  0.117643  1
  Li  Li4  1  0.602652  0.403758  0.068894  1
  Li  Li5  1  0.920974  0.430765  0.318903  1
  Li  Li6  1  0.099937  0.422942  0.092096  1
  Li  Li7  1  0.397348  0.596242  0.931106  1
  Li  Li8  1  0.079026  0.569235  0.681097  1
  Li  Li9  1  0.900063  0.577058  0.907904  1
  Pa  Pa10  1  0.168953  0.993599  0.171894  1
  Pa  Pa11  1  0.831047  0.006401  0.828106  1
  O  O12  1  0.771977  0.765838  0.014662  1
  O  O13  1  0.569209  0.246263  0.240931  1
  O  O14  1  0.228023  0.234162  0.985338  1
  O  O15  1  0.261010  0.758179  0.041064  1
  O  O16  1  0.430791  0.753737  0.759069  1
  O  O17  1  0.898245  0.221898  0.670206  1
  O  O18  1  0.041757  0.229429  0.248253  1
  O  O19  1  0.738990  0.241821  0.958936  1
  O  O20  1  0.101755  0.778102  0.329794  1
  O  O21  1  0.958243  0.770571  0.751747  1
