# generated using pymatgen
data_Be2TlBr5
_symmetry_space_group_name_H-M   'P 1'
_cell_length_a   11.21698392
_cell_length_b   11.21698411
_cell_length_c   11.21698400
_cell_angle_alpha   60.00000034
_cell_angle_beta   59.99999975
_cell_angle_gamma   59.99999701
_symmetry_Int_Tables_number   1
_chemical_formula_structural   Be2TlBr5
_chemical_formula_sum   'Be8 Tl4 Br20'
_cell_volume   997.96036911
_cell_formula_units_Z   4
loop_
 _symmetry_equiv_pos_site_id
 _symmetry_equiv_pos_as_xyz
  1  'x, y, z'
loop_
 _atom_site_type_symbol
 _atom_site_label
 _atom_site_symmetry_multiplicity
 _atom_site_fract_x
 _atom_site_fract_y
 _atom_site_fract_z
 _atom_site_occupancy
  Be  Be0  1  0.011634  0.329455  0.329455  1
  Be  Be1  1  0.329455  0.011634  0.329455  1
  Be  Be2  1  0.329455  0.329455  0.011634  1
  Be  Be3  1  0.329455  0.329455  0.329455  1
  Be  Be4  1  0.238366  0.920545  0.920545  1
  Be  Be5  1  0.920545  0.238366  0.920545  1
  Be  Be6  1  0.920545  0.920545  0.238366  1
  Be  Be7  1  0.920545  0.920545  0.920545  1
  Tl  Tl8  1  0.125000  0.625000  0.625000  1
  Tl  Tl9  1  0.625000  0.125000  0.625000  1
  Tl  Tl10  1  0.625000  0.625000  0.125000  1
  Tl  Tl11  1  0.625000  0.625000  0.625000  1
  Br  Br12  1  0.087699  0.087699  0.412301  1
  Br  Br13  1  0.412301  0.412301  0.087699  1
  Br  Br14  1  0.087699  0.412301  0.087699  1
  Br  Br15  1  0.412301  0.087699  0.412301  1
  Br  Br16  1  0.412301  0.087699  0.087699  1
  Br  Br17  1  0.087699  0.412301  0.412301  1
  Br  Br18  1  0.162301  0.162301  0.837699  1
  Br  Br19  1  0.837699  0.837699  0.162301  1
  Br  Br20  1  0.162301  0.837699  0.162301  1
  Br  Br21  1  0.837699  0.162301  0.837699  1
  Br  Br22  1  0.837699  0.162301  0.162301  1
  Br  Br23  1  0.162301  0.837699  0.837699  1
  Br  Br24  1  0.775145  0.408284  0.408284  1
  Br  Br25  1  0.408284  0.775145  0.408284  1
  Br  Br26  1  0.408284  0.408284  0.775145  1
  Br  Br27  1  0.408284  0.408284  0.408284  1
  Br  Br28  1  0.474855  0.841716  0.841716  1
  Br  Br29  1  0.841716  0.474855  0.841716  1
  Br  Br30  1  0.841716  0.841716  0.474855  1
  Br  Br31  1  0.841716  0.841716  0.841716  1
