# generated using pymatgen
data_Ce10TlHgBi6
_symmetry_space_group_name_H-M   'P 1'
_cell_length_a   6.54818900
_cell_length_b   9.72587987
_cell_length_c   9.72587900
_cell_angle_alpha   120.00000045
_cell_angle_beta   90.00000000
_cell_angle_gamma   90.00000000
_symmetry_Int_Tables_number   1
_chemical_formula_structural   Ce10TlHgBi6
_chemical_formula_sum   'Ce10 Tl1 Hg1 Bi6'
_cell_volume   536.42572733
_cell_formula_units_Z   1
loop_
 _symmetry_equiv_pos_site_id
 _symmetry_equiv_pos_as_xyz
  1  'x, y, z'
loop_
 _atom_site_type_symbol
 _atom_site_label
 _atom_site_symmetry_multiplicity
 _atom_site_fract_x
 _atom_site_fract_y
 _atom_site_fract_z
 _atom_site_occupancy
  Ce  Ce0  1  0.749679  0.719366  0.719366  1
  Ce  Ce1  1  0.250321  0.280634  0.280634  1
  Ce  Ce2  1  0.749679  0.000000  0.280634  1
  Ce  Ce3  1  0.250321  0.000000  0.719366  1
  Ce  Ce4  1  0.749679  0.280634  0.000000  1
  Ce  Ce5  1  0.250321  0.719366  0.000000  1
  Ce  Ce6  1  0.000000  0.666667  0.333333  1
  Ce  Ce7  1  0.000000  0.333333  0.666667  1
  Ce  Ce8  1  0.500000  0.333333  0.666667  1
  Ce  Ce9  1  0.500000  0.666667  0.333333  1
  Tl  Tl10  1  0.500000  0.000000  0.000000  1
  Hg  Hg11  1  0.000000  0.000000  0.000000  1
  Bi  Bi12  1  0.750004  0.373843  0.373843  1
  Bi  Bi13  1  0.249996  0.626157  0.626157  1
  Bi  Bi14  1  0.750004  0.000000  0.626157  1
  Bi  Bi15  1  0.249996  0.000000  0.373843  1
  Bi  Bi16  1  0.750004  0.626157  0.000000  1
  Bi  Bi17  1  0.249996  0.373843  0.000000  1
