# generated using pymatgen
data_NaLaNd5OsBr12
_symmetry_space_group_name_H-M   'P 1'
_cell_length_a   9.59775822
_cell_length_b   9.59762189
_cell_length_c   9.60265353
_cell_angle_alpha   107.13496860
_cell_angle_beta   107.03818677
_cell_angle_gamma   107.42047351
_symmetry_Int_Tables_number   1
_chemical_formula_structural   NaLaNd5OsBr12
_chemical_formula_sum   'Na1 La1 Nd5 Os1 Br12'
_cell_volume   732.64604805
_cell_formula_units_Z   1
loop_
 _symmetry_equiv_pos_site_id
 _symmetry_equiv_pos_as_xyz
  1  'x, y, z'
loop_
 _atom_site_type_symbol
 _atom_site_label
 _atom_site_symmetry_multiplicity
 _atom_site_fract_x
 _atom_site_fract_y
 _atom_site_fract_z
 _atom_site_occupancy
  Na  Na0  1  0.500080  0.499920  0.500160  1
  La  La1  1  0.112871  0.321130  0.031247  1
  Nd  Nd2  1  0.319057  0.031646  0.111668  1
  Nd  Nd3  1  0.031238  0.110612  0.318730  1
  Nd  Nd4  1  0.968254  0.887541  0.680861  1
  Nd  Nd5  1  0.680882  0.968091  0.888544  1
  Nd  Nd6  1  0.887450  0.682210  0.968145  1
  Os  Os7  1  0.000818  0.002485  0.999811  1
  Br  Br8  1  0.216855  0.686713  0.071314  1
  Br  Br9  1  0.458058  0.371484  0.157204  1
  Br  Br10  1  0.685475  0.071340  0.216722  1
  Br  Br11  1  0.929011  0.781824  0.314457  1
  Br  Br12  1  0.155266  0.453389  0.376380  1
  Br  Br13  1  0.371108  0.154226  0.452283  1
  Br  Br14  1  0.628841  0.845477  0.547616  1
  Br  Br15  1  0.845072  0.546752  0.628902  1
  Br  Br16  1  0.069749  0.214885  0.680207  1
  Br  Br17  1  0.314420  0.928376  0.783224  1
  Br  Br18  1  0.547081  0.627752  0.845215  1
  Br  Br19  1  0.778413  0.314149  0.927313  1
