# generated using pymatgen
data_Yb2HoOsO6
_symmetry_space_group_name_H-M   'P 1'
_cell_length_a   5.51067047
_cell_length_b   5.78621900
_cell_length_c   9.64046014
_cell_angle_alpha   90.00000000
_cell_angle_beta   124.27531830
_cell_angle_gamma   90.00000000
_symmetry_Int_Tables_number   1
_chemical_formula_structural   Yb2HoOsO6
_chemical_formula_sum   'Yb4 Ho2 Os2 O12'
_cell_volume   254.01324267
_cell_formula_units_Z   2
loop_
 _symmetry_equiv_pos_site_id
 _symmetry_equiv_pos_as_xyz
  1  'x, y, z'
loop_
 _atom_site_type_symbol
 _atom_site_label
 _atom_site_symmetry_multiplicity
 _atom_site_fract_x
 _atom_site_fract_y
 _atom_site_fract_z
 _atom_site_occupancy
  Yb  Yb0  1  0.230473  0.435926  0.750915  1
  Yb  Yb1  1  0.230473  0.064074  0.250915  1
  Yb  Yb2  1  0.769527  0.564074  0.249085  1
  Yb  Yb3  1  0.769527  0.935926  0.749085  1
  Ho  Ho4  1  0.500000  0.500000  0.500000  1
  Ho  Ho5  1  0.500000  0.000000  0.000000  1
  Os  Os6  1  0.000000  0.500000  0.000000  1
  Os  Os7  1  0.000000  0.000000  0.500000  1
  O  O8  1  0.767071  0.184475  0.558518  1
  O  O9  1  0.767071  0.315525  0.058518  1
  O  O10  1  0.232929  0.815525  0.441482  1
  O  O11  1  0.232929  0.684475  0.941482  1
  O  O12  1  0.888051  0.711897  0.564744  1
  O  O13  1  0.888051  0.788103  0.064744  1
  O  O14  1  0.111949  0.288103  0.435256  1
  O  O15  1  0.111949  0.211897  0.935256  1
  O  O16  1  0.350894  0.046115  0.733415  1
  O  O17  1  0.350894  0.453885  0.233415  1
  O  O18  1  0.649106  0.953885  0.266585  1
  O  O19  1  0.649106  0.546115  0.766585  1
