# generated using pymatgen
data_Rb2Ge3PbO9
_symmetry_space_group_name_H-M   'P 1'
_cell_length_a   7.36671400
_cell_length_b   7.36671360
_cell_length_c   10.82592900
_cell_angle_alpha   90.00000000
_cell_angle_beta   90.00000000
_cell_angle_gamma   119.99999404
_symmetry_Int_Tables_number   1
_chemical_formula_structural   Rb2Ge3PbO9
_chemical_formula_sum   'Rb4 Ge6 Pb2 O18'
_cell_volume   508.79569426
_cell_formula_units_Z   2
loop_
 _symmetry_equiv_pos_site_id
 _symmetry_equiv_pos_as_xyz
  1  'x, y, z'
loop_
 _atom_site_type_symbol
 _atom_site_label
 _atom_site_symmetry_multiplicity
 _atom_site_fract_x
 _atom_site_fract_y
 _atom_site_fract_z
 _atom_site_occupancy
  Rb  Rb0  1  0.333333  0.666667  0.060962  1
  Rb  Rb1  1  0.666667  0.333333  0.560962  1
  Rb  Rb2  1  0.333333  0.666667  0.439038  1
  Rb  Rb3  1  0.666667  0.333333  0.939038  1
  Ge  Ge4  1  0.620802  0.751593  0.750000  1
  Ge  Ge5  1  0.869209  0.620802  0.250000  1
  Ge  Ge6  1  0.751593  0.130791  0.250000  1
  Ge  Ge7  1  0.248407  0.869209  0.750000  1
  Ge  Ge8  1  0.130791  0.379198  0.750000  1
  Ge  Ge9  1  0.379198  0.248407  0.250000  1
  Pb  Pb10  1  0.000000  0.000000  0.000000  1
  Pb  Pb11  1  0.000000  0.000000  0.500000  1
  O  O12  1  0.258059  0.242229  0.390464  1
  O  O13  1  0.015831  0.258059  0.890464  1
  O  O14  1  0.242229  0.984169  0.890464  1
  O  O15  1  0.757771  0.015831  0.390464  1
  O  O16  1  0.984169  0.741941  0.390464  1
  O  O17  1  0.741941  0.757771  0.890464  1
  O  O18  1  0.741941  0.757771  0.609536  1
  O  O19  1  0.984169  0.741941  0.109536  1
  O  O20  1  0.757771  0.015831  0.109536  1
  O  O21  1  0.242229  0.984169  0.609536  1
  O  O22  1  0.015831  0.258059  0.609536  1
  O  O23  1  0.258059  0.242229  0.109536  1
  O  O24  1  0.481612  0.073089  0.250000  1
  O  O25  1  0.408523  0.481612  0.750000  1
  O  O26  1  0.073089  0.591477  0.750000  1
  O  O27  1  0.926911  0.408523  0.250000  1
  O  O28  1  0.591477  0.518388  0.250000  1
  O  O29  1  0.518388  0.926911  0.750000  1
