# generated using pymatgen
data_Cs7(CoSe2)4
_symmetry_space_group_name_H-M   'P 1'
_cell_length_a   10.80144150
_cell_length_b   10.80144079
_cell_length_c   17.46390000
_cell_angle_alpha   64.92270784
_cell_angle_beta   64.92270989
_cell_angle_gamma   48.71978815
_symmetry_Int_Tables_number   1
_chemical_formula_structural   Cs7(CoSe2)4
_chemical_formula_sum   'Cs14 Co8 Se16'
_cell_volume   1355.36829255
_cell_formula_units_Z   2
loop_
 _symmetry_equiv_pos_site_id
 _symmetry_equiv_pos_as_xyz
  1  'x, y, z'
loop_
 _atom_site_type_symbol
 _atom_site_label
 _atom_site_symmetry_multiplicity
 _atom_site_fract_x
 _atom_site_fract_y
 _atom_site_fract_z
 _atom_site_occupancy
  Cs  Cs0  1  0.230815  0.769185  0.750000  1
  Cs  Cs1  1  0.769185  0.230815  0.250000  1
  Cs  Cs2  1  0.245695  0.746048  0.990152  1
  Cs  Cs3  1  0.253952  0.754305  0.509848  1
  Cs  Cs4  1  0.754305  0.253952  0.009848  1
  Cs  Cs5  1  0.746048  0.245695  0.490152  1
  Cs  Cs6  1  0.998633  0.523352  0.612292  1
  Cs  Cs7  1  0.476648  0.001367  0.887708  1
  Cs  Cs8  1  0.001367  0.476648  0.387708  1
  Cs  Cs9  1  0.523352  0.998633  0.112292  1
  Cs  Cs10  1  0.008356  0.508297  0.861971  1
  Cs  Cs11  1  0.491703  0.991644  0.638029  1
  Cs  Cs12  1  0.991644  0.491703  0.138029  1
  Cs  Cs13  1  0.508297  0.008356  0.361971  1
  Co  Co14  1  0.681850  0.427195  0.668671  1
  Co  Co15  1  0.572805  0.318150  0.831329  1
  Co  Co16  1  0.318150  0.572805  0.331329  1
  Co  Co17  1  0.427195  0.681850  0.168671  1
  Co  Co18  1  0.889295  0.216425  0.776264  1
  Co  Co19  1  0.783575  0.110705  0.723736  1
  Co  Co20  1  0.110705  0.783575  0.223736  1
  Co  Co21  1  0.216425  0.889295  0.276264  1
  Se  Se22  1  0.655783  0.501833  0.790110  1
  Se  Se23  1  0.498167  0.344217  0.709890  1
  Se  Se24  1  0.344217  0.498167  0.209890  1
  Se  Se25  1  0.501833  0.655783  0.290110  1
  Se  Se26  1  0.968136  0.192883  0.629042  1
  Se  Se27  1  0.807117  0.031864  0.870958  1
  Se  Se28  1  0.031864  0.807117  0.370958  1
  Se  Se29  1  0.192883  0.968136  0.129042  1
  Se  Se30  1  0.661837  0.611994  0.051319  1
  Se  Se31  1  0.388006  0.338163  0.448681  1
  Se  Se32  1  0.338163  0.388006  0.948681  1
  Se  Se33  1  0.611994  0.661837  0.551319  1
  Se  Se34  1  0.862045  0.878143  0.685112  1
  Se  Se35  1  0.121857  0.137955  0.814888  1
  Se  Se36  1  0.137955  0.121857  0.314888  1
  Se  Se37  1  0.878143  0.862045  0.185112  1
