# generated using pymatgen
data_TbYb3Al18OsPd5
_symmetry_space_group_name_H-M   'P 1'
_cell_length_a   7.65957720
_cell_length_b   7.64867593
_cell_length_c   9.52570965
_cell_angle_alpha   90.04817384
_cell_angle_beta   90.08722937
_cell_angle_gamma   119.63780672
_symmetry_Int_Tables_number   1
_chemical_formula_structural   TbYb3Al18OsPd5
_chemical_formula_sum   'Tb1 Yb3 Al18 Os1 Pd5'
_cell_volume   485.05535010
_cell_formula_units_Z   1
loop_
 _symmetry_equiv_pos_site_id
 _symmetry_equiv_pos_as_xyz
  1  'x, y, z'
loop_
 _atom_site_type_symbol
 _atom_site_label
 _atom_site_symmetry_multiplicity
 _atom_site_fract_x
 _atom_site_fract_y
 _atom_site_fract_z
 _atom_site_occupancy
  Tb  Tb0  1  0.330882  0.002158  0.752285  1
  Yb  Yb1  1  0.993744  0.668700  0.247860  1
  Yb  Yb2  1  0.002784  0.329460  0.751442  1
  Yb  Yb3  1  0.672104  0.997065  0.248376  1
  Al  Al4  1  0.130183  0.132569  0.249478  1
  Al  Al5  1  0.871132  0.870597  0.750462  1
  Al  Al6  1  0.995304  0.334636  0.074991  1
  Al  Al7  1  0.994788  0.658423  0.923928  1
  Al  Al8  1  0.998311  0.665310  0.578123  1
  Al  Al9  1  0.333836  0.001084  0.420564  1
  Al  Al10  1  0.001695  0.335481  0.423889  1
  Al  Al11  1  0.665585  0.998977  0.577059  1
  Al  Al12  1  0.667139  0.004102  0.924508  1
  Al  Al13  1  0.340786  0.004830  0.077615  1
  Al  Al14  1  0.333023  0.333539  0.556374  1
  Al  Al15  1  0.665120  0.666246  0.445232  1
  Al  Al16  1  0.667240  0.662061  0.048968  1
  Al  Al17  1  0.336761  0.332262  0.949734  1
  Al  Al18  1  0.338778  0.545639  0.249284  1
  Al  Al19  1  0.658253  0.451880  0.753326  1
  Al  Al20  1  0.547574  0.340704  0.246454  1
  Al  Al21  1  0.456876  0.664272  0.750846  1
  Os  Os22  1  0.669915  0.327678  0.998728  1
  Pd  Pd23  1  0.327852  0.672253  0.999468  1
  Pd  Pd24  1  0.328131  0.671987  0.500655  1
  Pd  Pd25  1  0.671556  0.328427  0.500488  1
  Pd  Pd26  1  0.000614  0.999532  0.999483  1
  Pd  Pd27  1  0.000033  0.000127  0.500380  1
