# generated using pymatgen
data_HfSc(VP)2
_symmetry_space_group_name_H-M   'P 1'
_cell_length_a   3.48130100
_cell_length_b   6.62172600
_cell_length_c   7.87935400
_cell_angle_alpha   90.00000000
_cell_angle_beta   90.00000000
_cell_angle_gamma   90.00000000
_symmetry_Int_Tables_number   1
_chemical_formula_structural   HfSc(VP)2
_chemical_formula_sum   'Hf2 Sc2 V4 P4'
_cell_volume   181.63661247
_cell_formula_units_Z   2
loop_
 _symmetry_equiv_pos_site_id
 _symmetry_equiv_pos_as_xyz
  1  'x, y, z'
loop_
 _atom_site_type_symbol
 _atom_site_label
 _atom_site_symmetry_multiplicity
 _atom_site_fract_x
 _atom_site_fract_y
 _atom_site_fract_z
 _atom_site_occupancy
  Hf  Hf0  1  0.750000  0.958874  0.168199  1
  Hf  Hf1  1  0.750000  0.458874  0.331801  1
  Sc  Sc2  1  0.250000  0.040330  0.833457  1
  Sc  Sc3  1  0.250000  0.540330  0.666543  1
  V  V4  1  0.250000  0.129764  0.441319  1
  V  V5  1  0.250000  0.629764  0.058681  1
  V  V6  1  0.750000  0.872405  0.555413  1
  V  V7  1  0.750000  0.372405  0.944587  1
  P  P8  1  0.250000  0.761020  0.364092  1
  P  P9  1  0.250000  0.261020  0.135908  1
  P  P10  1  0.750000  0.237607  0.637875  1
  P  P11  1  0.750000  0.737607  0.862125  1
