# generated using pymatgen
data_Ce3HfZn2Pt3
_symmetry_space_group_name_H-M   'P 1'
_cell_length_a   7.15217900
_cell_length_b   7.30872850
_cell_length_c   4.26981600
_cell_angle_alpha   90.00000000
_cell_angle_beta   90.00000000
_cell_angle_gamma   119.29393707
_symmetry_Int_Tables_number   1
_chemical_formula_structural   Ce3HfZn2Pt3
_chemical_formula_sum   'Ce3 Hf1 Zn2 Pt3'
_cell_volume   194.65525630
_cell_formula_units_Z   1
loop_
 _symmetry_equiv_pos_site_id
 _symmetry_equiv_pos_as_xyz
  1  'x, y, z'
loop_
 _atom_site_type_symbol
 _atom_site_label
 _atom_site_symmetry_multiplicity
 _atom_site_fract_x
 _atom_site_fract_y
 _atom_site_fract_z
 _atom_site_occupancy
  Ce  Ce0  1  0.422590  0.437168  0.000000  1
  Ce  Ce1  1  0.607872  0.000000  0.000000  1
  Ce  Ce2  1  0.985422  0.562832  0.000000  1
  Hf  Hf3  1  0.235509  0.000000  0.500000  1
  Zn  Zn4  1  0.000828  0.242269  0.500000  1
  Zn  Zn5  1  0.758558  0.757731  0.500000  1
  Pt  Pt6  1  0.324773  0.677308  0.500000  1
  Pt  Pt7  1  0.016983  0.000000  0.000000  1
  Pt  Pt8  1  0.647465  0.322692  0.500000  1
