# generated using pymatgen
data_Hf16Ta4Si15Sn
_symmetry_space_group_name_H-M   'P 1'
_cell_length_a   6.79709931
_cell_length_b   6.96709983
_cell_length_c   13.41730076
_cell_angle_alpha   90.11696952
_cell_angle_beta   89.64212417
_cell_angle_gamma   90.01603939
_symmetry_Int_Tables_number   1
_chemical_formula_structural   Hf16Ta4Si15Sn
_chemical_formula_sum   'Hf16 Ta4 Si15 Sn1'
_cell_volume   635.37688531
_cell_formula_units_Z   1
loop_
 _symmetry_equiv_pos_site_id
 _symmetry_equiv_pos_as_xyz
  1  'x, y, z'
loop_
 _atom_site_type_symbol
 _atom_site_label
 _atom_site_symmetry_multiplicity
 _atom_site_fract_x
 _atom_site_fract_y
 _atom_site_fract_z
 _atom_site_occupancy
  Hf  Hf0  1  0.337942  0.676257  0.877015  1
  Hf  Hf1  1  0.836228  0.824749  0.876420  1
  Hf  Hf2  1  0.654358  0.340361  0.370490  1
  Hf  Hf3  1  0.999734  0.675868  0.093933  1
  Hf  Hf4  1  0.481326  0.813202  0.399447  1
  Hf  Hf5  1  0.500988  0.176604  0.903886  1
  Hf  Hf6  1  0.495785  0.182944  0.600985  1
  Hf  Hf7  1  0.001637  0.324053  0.905418  1
  Hf  Hf8  1  0.165223  0.175354  0.123033  1
  Hf  Hf9  1  0.169197  0.175593  0.373927  1
  Hf  Hf10  1  0.000649  0.664985  0.403307  1
  Hf  Hf11  1  0.664221  0.326098  0.122844  1
  Hf  Hf12  1  0.499259  0.824477  0.095002  1
  Hf  Hf13  1  0.008697  0.330393  0.599390  1
  Hf  Hf14  1  0.337169  0.672943  0.626143  1
  Hf  Hf15  1  0.845024  0.815178  0.630576  1
  Ta  Ta16  1  0.665427  0.500548  0.751129  1
  Ta  Ta17  1  0.165993  0.998748  0.751370  1
  Ta  Ta18  1  0.334437  0.499713  0.248484  1
  Ta  Ta19  1  0.835594  0.003375  0.243591  1
  Si  Si20  1  0.675078  0.530689  0.539011  1
  Si  Si21  1  0.170935  0.971218  0.959780  1
  Si  Si22  1  0.298198  0.360897  0.752973  1
  Si  Si23  1  0.829639  0.029796  0.039012  1
  Si  Si24  1  0.328699  0.470477  0.039215  1
  Si  Si25  1  0.463062  0.104348  0.248152  1
  Si  Si26  1  0.703813  0.643872  0.246972  1
  Si  Si27  1  0.961398  0.392165  0.248736  1
  Si  Si28  1  0.799545  0.140246  0.750786  1
  Si  Si29  1  0.672458  0.529656  0.960155  1
  Si  Si30  1  0.181856  0.969925  0.540651  1
  Si  Si31  1  0.041394  0.603410  0.753909  1
  Si  Si32  1  0.323419  0.466974  0.463547  1
  Si  Si33  1  0.539290  0.893910  0.750401  1
  Si  Si34  1  0.198290  0.859652  0.248389  1
  Sn  Sn35  1  0.814040  0.031321  0.461920  1
