# generated using pymatgen
data_Sm8Dy12Si15Sb
_symmetry_space_group_name_H-M   'P 1'
_cell_length_a   7.58568492
_cell_length_b   7.76877665
_cell_length_c   14.79691346
_cell_angle_alpha   90.12681461
_cell_angle_beta   86.71736399
_cell_angle_gamma   90.08252365
_symmetry_Int_Tables_number   1
_chemical_formula_structural   Sm8Dy12Si15Sb
_chemical_formula_sum   'Sm8 Dy12 Si15 Sb1'
_cell_volume   870.57052999
_cell_formula_units_Z   1
loop_
 _symmetry_equiv_pos_site_id
 _symmetry_equiv_pos_as_xyz
  1  'x, y, z'
loop_
 _atom_site_type_symbol
 _atom_site_label
 _atom_site_symmetry_multiplicity
 _atom_site_fract_x
 _atom_site_fract_y
 _atom_site_fract_z
 _atom_site_occupancy
  Sm  Sm0  1  0.027779  0.184971  0.100754  1
  Sm  Sm1  1  0.971813  0.816385  0.900087  1
  Sm  Sm2  1  0.472231  0.683944  0.900013  1
  Sm  Sm3  1  0.996118  0.822594  0.599253  1
  Sm  Sm4  1  0.528338  0.316125  0.102063  1
  Sm  Sm5  1  0.000754  0.177706  0.399678  1
  Sm  Sm6  1  0.510381  0.315653  0.397808  1
  Sm  Sm7  1  0.506483  0.685206  0.601321  1
  Dy  Dy8  1  0.163122  0.505833  0.751141  1
  Dy  Dy9  1  0.835695  0.494273  0.254306  1
  Dy  Dy10  1  0.335875  0.008847  0.253584  1
  Dy  Dy11  1  0.667078  0.991066  0.748077  1
  Dy  Dy12  1  0.353347  0.154236  0.623001  1
  Dy  Dy13  1  0.651238  0.833081  0.379166  1
  Dy  Dy14  1  0.147455  0.678322  0.372545  1
  Dy  Dy15  1  0.677729  0.823053  0.121602  1
  Dy  Dy16  1  0.837164  0.329840  0.622287  1
  Dy  Dy17  1  0.321777  0.177466  0.878492  1
  Dy  Dy18  1  0.821928  0.321551  0.878336  1
  Dy  Dy19  1  0.177671  0.678421  0.122181  1
  Si  Si20  1  0.039973  0.111089  0.752517  1
  Si  Si21  1  0.959672  0.892269  0.245661  1
  Si  Si22  1  0.461068  0.611716  0.246869  1
  Si  Si23  1  0.537178  0.389159  0.752878  1
  Si  Si24  1  0.280259  0.871722  0.753099  1
  Si  Si25  1  0.721134  0.125264  0.247226  1
  Si  Si26  1  0.220359  0.376729  0.247734  1
  Si  Si27  1  0.780699  0.624196  0.752528  1
  Si  Si28  1  0.802219  0.537569  0.456672  1
  Si  Si29  1  0.305303  0.964679  0.456256  1
  Si  Si30  1  0.857415  0.529241  0.042101  1
  Si  Si31  1  0.695690  0.034393  0.543272  1
  Si  Si32  1  0.140571  0.471876  0.958427  1
  Si  Si33  1  0.640616  0.029018  0.958229  1
  Si  Si34  1  0.357764  0.972535  0.042622  1
  Sb  Sb35  1  0.196100  0.459975  0.538216  1
