# generated using pymatgen
data_CrRe3(TeS)4
_symmetry_space_group_name_H-M   'P 1'
_cell_length_a   7.17644593
_cell_length_b   7.17644587
_cell_length_c   7.17644600
_cell_angle_alpha   59.60776627
_cell_angle_beta   59.60776742
_cell_angle_gamma   59.60776058
_symmetry_Int_Tables_number   1
_chemical_formula_structural   CrRe3(TeS)4
_chemical_formula_sum   'Cr1 Re3 Te4 S4'
_cell_volume   259.01464514
_cell_formula_units_Z   1
loop_
 _symmetry_equiv_pos_site_id
 _symmetry_equiv_pos_as_xyz
  1  'x, y, z'
loop_
 _atom_site_type_symbol
 _atom_site_label
 _atom_site_symmetry_multiplicity
 _atom_site_fract_x
 _atom_site_fract_y
 _atom_site_fract_z
 _atom_site_occupancy
  Cr  Cr0  1  0.156224  0.156224  0.156224  1
  Re  Re1  1  0.542282  0.153060  0.153060  1
  Re  Re2  1  0.153060  0.153060  0.542282  1
  Re  Re3  1  0.153060  0.542282  0.153060  1
  Te  Te4  1  0.880509  0.364373  0.880509  1
  Te  Te5  1  0.880509  0.880509  0.364373  1
  Te  Te6  1  0.364373  0.880509  0.880509  1
  Te  Te7  1  0.877313  0.877313  0.877313  1
  S  S8  1  0.379605  0.379605  0.379605  1
  S  S9  1  0.867834  0.372616  0.372616  1
  S  S10  1  0.372616  0.372616  0.867834  1
  S  S11  1  0.372616  0.867834  0.372616  1
