# generated using pymatgen
data_Eu7ThP6
_symmetry_space_group_name_H-M   'P 1'
_cell_length_a   7.79881319
_cell_length_b   7.79881340
_cell_length_c   7.69672600
_cell_angle_alpha   109.20627338
_cell_angle_beta   109.20627393
_cell_angle_gamma   109.73486232
_symmetry_Int_Tables_number   1
_chemical_formula_structural   Eu7ThP6
_chemical_formula_sum   'Eu7 Th1 P6'
_cell_volume   361.53538252
_cell_formula_units_Z   1
loop_
 _symmetry_equiv_pos_site_id
 _symmetry_equiv_pos_as_xyz
  1  'x, y, z'
loop_
 _atom_site_type_symbol
 _atom_site_label
 _atom_site_symmetry_multiplicity
 _atom_site_fract_x
 _atom_site_fract_y
 _atom_site_fract_z
 _atom_site_occupancy
  Eu  Eu0  1  0.632529  0.632095  0.632342  1
  Eu  Eu1  1  0.009740  0.378584  0.506115  1
  Eu  Eu2  1  0.368844  0.490260  0.996375  1
  Eu  Eu3  1  0.999566  0.867471  0.499814  1
  Eu  Eu4  1  0.867905  0.500434  0.000248  1
  Eu  Eu5  1  0.500000  0.000000  0.865899  1
  Eu  Eu6  1  0.121416  0.131156  0.127531  1
  Th  Th7  1  0.500000  0.000000  0.361547  1
  P  P8  1  0.864447  0.121766  0.739145  1
  P  P9  1  0.378234  0.242681  0.617379  1
  P  P10  1  0.135676  0.757364  0.890649  1
  P  P11  1  0.742636  0.878312  0.133286  1
  P  P12  1  0.257319  0.635553  0.374698  1
  P  P13  1  0.621688  0.364324  0.254973  1
