# generated using pymatgen
data_Nd2Ga9Os2Pd
_symmetry_space_group_name_H-M   'P 1'
_cell_length_a   7.64508576
_cell_length_b   7.64508538
_cell_length_c   9.73782700
_cell_angle_alpha   90.00000000
_cell_angle_beta   90.00000000
_cell_angle_gamma   119.25989206
_symmetry_Int_Tables_number   1
_chemical_formula_structural   Nd2Ga9Os2Pd
_chemical_formula_sum   'Nd4 Ga18 Os4 Pd2'
_cell_volume   496.53309996
_cell_formula_units_Z   2
loop_
 _symmetry_equiv_pos_site_id
 _symmetry_equiv_pos_as_xyz
  1  'x, y, z'
loop_
 _atom_site_type_symbol
 _atom_site_label
 _atom_site_symmetry_multiplicity
 _atom_site_fract_x
 _atom_site_fract_y
 _atom_site_fract_z
 _atom_site_occupancy
  Nd  Nd0  1  0.996949  0.671397  0.250000  1
  Nd  Nd1  1  0.003051  0.328603  0.750000  1
  Nd  Nd2  1  0.671397  0.996949  0.250000  1
  Nd  Nd3  1  0.328603  0.003051  0.750000  1
  Ga  Ga4  1  0.136278  0.136278  0.250000  1
  Ga  Ga5  1  0.863722  0.863722  0.750000  1
  Ga  Ga6  1  0.004763  0.340904  0.074567  1
  Ga  Ga7  1  0.995237  0.659096  0.925433  1
  Ga  Ga8  1  0.995237  0.659096  0.574567  1
  Ga  Ga9  1  0.340904  0.004763  0.425433  1
  Ga  Ga10  1  0.004763  0.340904  0.425433  1
  Ga  Ga11  1  0.659096  0.995237  0.574567  1
  Ga  Ga12  1  0.659096  0.995237  0.925433  1
  Ga  Ga13  1  0.340904  0.004763  0.074567  1
  Ga  Ga14  1  0.342602  0.342602  0.560247  1
  Ga  Ga15  1  0.657398  0.657398  0.439753  1
  Ga  Ga16  1  0.657398  0.657398  0.060247  1
  Ga  Ga17  1  0.342602  0.342602  0.939753  1
  Ga  Ga18  1  0.334766  0.547421  0.250000  1
  Ga  Ga19  1  0.665234  0.452579  0.750000  1
  Ga  Ga20  1  0.547421  0.334766  0.250000  1
  Ga  Ga21  1  0.452579  0.665234  0.750000  1
  Os  Os22  1  0.672800  0.327200  0.000000  1
  Os  Os23  1  0.327200  0.672800  0.000000  1
  Os  Os24  1  0.327200  0.672800  0.500000  1
  Os  Os25  1  0.672800  0.327200  0.500000  1
  Pd  Pd26  1  0.000000  0.000000  0.000000  1
  Pd  Pd27  1  0.000000  0.000000  0.500000  1
