# generated using pymatgen
data_Be3CoRu2
_symmetry_space_group_name_H-M   'P 1'
_cell_length_a   4.49075300
_cell_length_b   4.49075259
_cell_length_c   6.90686400
_cell_angle_alpha   90.00000000
_cell_angle_beta   90.00000000
_cell_angle_gamma   119.99999562
_symmetry_Int_Tables_number   1
_chemical_formula_structural   Be3CoRu2
_chemical_formula_sum   'Be6 Co2 Ru4'
_cell_volume   120.62847947
_cell_formula_units_Z   2
loop_
 _symmetry_equiv_pos_site_id
 _symmetry_equiv_pos_as_xyz
  1  'x, y, z'
loop_
 _atom_site_type_symbol
 _atom_site_label
 _atom_site_symmetry_multiplicity
 _atom_site_fract_x
 _atom_site_fract_y
 _atom_site_fract_z
 _atom_site_occupancy
  Be  Be0  1  0.828420  0.171580  0.250000  1
  Be  Be1  1  0.828420  0.656839  0.250000  1
  Be  Be2  1  0.343161  0.171580  0.250000  1
  Be  Be3  1  0.171580  0.828420  0.750000  1
  Be  Be4  1  0.171580  0.343161  0.750000  1
  Be  Be5  1  0.656839  0.828420  0.750000  1
  Co  Co6  1  0.000000  0.000000  0.500000  1
  Co  Co7  1  0.000000  0.000000  0.000000  1
  Ru  Ru8  1  0.333333  0.666667  0.444517  1
  Ru  Ru9  1  0.666667  0.333333  0.555483  1
  Ru  Ru10  1  0.666667  0.333333  0.944517  1
  Ru  Ru11  1  0.333333  0.666667  0.055483  1
