# generated using pymatgen
data_Nb6ZnIn5Ru12
_symmetry_space_group_name_H-M   'P 1'
_cell_length_a   4.50839401
_cell_length_b   6.37035901
_cell_length_c   13.49229901
_cell_angle_alpha   90.00214036
_cell_angle_beta   90.00353303
_cell_angle_gamma   90.00443283
_symmetry_Int_Tables_number   1
_chemical_formula_structural   Nb6ZnIn5Ru12
_chemical_formula_sum   'Nb6 Zn1 In5 Ru12'
_cell_volume   387.50001748
_cell_formula_units_Z   1
loop_
 _symmetry_equiv_pos_site_id
 _symmetry_equiv_pos_as_xyz
  1  'x, y, z'
loop_
 _atom_site_type_symbol
 _atom_site_label
 _atom_site_symmetry_multiplicity
 _atom_site_fract_x
 _atom_site_fract_y
 _atom_site_fract_z
 _atom_site_occupancy
  Nb  Nb0  1  0.999990  0.500005  0.995254  1
  Nb  Nb1  1  0.499916  0.000058  0.163882  1
  Nb  Nb2  1  0.999640  0.499938  0.333325  1
  Nb  Nb3  1  0.500140  0.000024  0.502801  1
  Nb  Nb4  1  0.000232  0.500033  0.671410  1
  Nb  Nb5  1  0.500169  0.000080  0.833309  1
  Zn  Zn6  1  0.500230  0.499976  0.833318  1
  In  In7  1  0.999976  0.999999  0.998934  1
  In  In8  1  0.499773  0.499942  0.165515  1
  In  In9  1  0.999759  0.999931  0.333222  1
  In  In10  1  0.499915  0.500050  0.501154  1
  In  In11  1  0.000137  0.999927  0.668006  1
  Ru  Ru12  1  0.500011  0.253913  0.996620  1
  Ru  Ru13  1  0.499990  0.746147  0.996618  1
  Ru  Ru14  1  0.999860  0.249069  0.166280  1
  Ru  Ru15  1  0.999833  0.750944  0.166252  1
  Ru  Ru16  1  0.499770  0.250330  0.333349  1
  Ru  Ru17  1  0.499874  0.749709  0.333361  1
  Ru  Ru18  1  0.000079  0.248999  0.500345  1
  Ru  Ru19  1  0.000000  0.751033  0.500333  1
  Ru  Ru20  1  0.500089  0.253845  0.670021  1
  Ru  Ru21  1  0.500193  0.746071  0.670017  1
  Ru  Ru22  1  0.000176  0.257234  0.833348  1
  Ru  Ru23  1  0.000247  0.742744  0.833326  1
