# generated using pymatgen
data_U2ZnPtRh4
_symmetry_space_group_name_H-M   'P 1'
_cell_length_a   4.20071900
_cell_length_b   5.66501068
_cell_length_c   11.28885300
_cell_angle_alpha   89.11506275
_cell_angle_beta   90.00000000
_cell_angle_gamma   90.00000000
_symmetry_Int_Tables_number   1
_chemical_formula_structural   U2ZnPtRh4
_chemical_formula_sum   'U4 Zn2 Pt2 Rh8'
_cell_volume   268.61012529
_cell_formula_units_Z   2
loop_
 _symmetry_equiv_pos_site_id
 _symmetry_equiv_pos_as_xyz
  1  'x, y, z'
loop_
 _atom_site_type_symbol
 _atom_site_label
 _atom_site_symmetry_multiplicity
 _atom_site_fract_x
 _atom_site_fract_y
 _atom_site_fract_z
 _atom_site_occupancy
  U  U0  1  0.500000  0.194030  0.632393  1
  U  U1  1  0.500000  0.805970  0.367607  1
  U  U2  1  0.500000  0.710437  0.868287  1
  U  U3  1  0.500000  0.289563  0.131713  1
  Zn  Zn4  1  0.000000  0.500000  0.500000  1
  Zn  Zn5  1  0.000000  0.000000  0.000000  1
  Pt  Pt6  1  0.000000  0.452267  0.745803  1
  Pt  Pt7  1  0.000000  0.547733  0.254197  1
  Rh  Rh8  1  0.500000  0.211335  0.884509  1
  Rh  Rh9  1  0.500000  0.788665  0.115491  1
  Rh  Rh10  1  0.500000  0.703034  0.613558  1
  Rh  Rh11  1  0.500000  0.296966  0.386442  1
  Rh  Rh12  1  0.000000  0.000000  0.500000  1
  Rh  Rh13  1  0.000000  0.500000  0.000000  1
  Rh  Rh14  1  0.000000  0.048718  0.244057  1
  Rh  Rh15  1  0.000000  0.951282  0.755943  1
