# generated using pymatgen
data_TbDy7Y12(Cd3Ru)2
_symmetry_space_group_name_H-M   'P 1'
_cell_length_a   9.63775778
_cell_length_b   9.63775574
_cell_length_c   9.85190001
_cell_angle_alpha   89.93606056
_cell_angle_beta   90.06394490
_cell_angle_gamma   120.01432476
_symmetry_Int_Tables_number   1
_chemical_formula_structural   TbDy7Y12(Cd3Ru)2
_chemical_formula_sum   'Tb1 Dy7 Y12 Cd6 Ru2'
_cell_volume   792.39090548
_cell_formula_units_Z   1
loop_
 _symmetry_equiv_pos_site_id
 _symmetry_equiv_pos_as_xyz
  1  'x, y, z'
loop_
 _atom_site_type_symbol
 _atom_site_label
 _atom_site_symmetry_multiplicity
 _atom_site_fract_x
 _atom_site_fract_y
 _atom_site_fract_z
 _atom_site_occupancy
  Tb  Tb0  1  0.000012  0.999988  0.500079  1
  Dy  Dy1  1  0.209942  0.790058  0.439547  1
  Dy  Dy2  1  0.210221  0.420269  0.440043  1
  Dy  Dy3  1  0.579731  0.789779  0.440043  1
  Dy  Dy4  1  0.790257  0.209743  0.560526  1
  Dy  Dy5  1  0.789440  0.579347  0.560244  1
  Dy  Dy6  1  0.420653  0.210560  0.560244  1
  Dy  Dy7  1  0.789807  0.210193  0.938917  1
  Y  Y8  1  0.999640  0.000360  0.999812  1
  Y  Y9  1  0.790036  0.580073  0.940172  1
  Y  Y10  1  0.419927  0.209964  0.940172  1
  Y  Y11  1  0.209628  0.790372  0.060122  1
  Y  Y12  1  0.209652  0.419779  0.059802  1
  Y  Y13  1  0.580221  0.790348  0.059802  1
  Y  Y14  1  0.540949  0.459051  0.251199  1
  Y  Y15  1  0.541179  0.082587  0.250924  1
  Y  Y16  1  0.917413  0.458821  0.250924  1
  Y  Y17  1  0.458904  0.541096  0.748953  1
  Y  Y18  1  0.459307  0.918159  0.748991  1
  Y  Y19  1  0.081841  0.540693  0.748991  1
  Cd  Cd20  1  0.885025  0.114975  0.249466  1
  Cd  Cd21  1  0.885324  0.770189  0.249392  1
  Cd  Cd22  1  0.229811  0.114676  0.249392  1
  Cd  Cd23  1  0.114945  0.885055  0.750762  1
  Cd  Cd24  1  0.114884  0.229873  0.750421  1
  Cd  Cd25  1  0.770127  0.885116  0.750421  1
  Ru  Ru26  1  0.333686  0.666314  0.252474  1
  Ru  Ru27  1  0.667435  0.332565  0.748167  1
