# generated using pymatgen
data_LiNd3OsC6
_symmetry_space_group_name_H-M   'P 1'
_cell_length_a   8.70872200
_cell_length_b   8.70872244
_cell_length_c   5.22907400
_cell_angle_alpha   90.00000000
_cell_angle_beta   90.00000000
_cell_angle_gamma   119.99999831
_symmetry_Int_Tables_number   1
_chemical_formula_structural   LiNd3OsC6
_chemical_formula_sum   'Li2 Nd6 Os2 C12'
_cell_volume   343.45061909
_cell_formula_units_Z   2
loop_
 _symmetry_equiv_pos_site_id
 _symmetry_equiv_pos_as_xyz
  1  'x, y, z'
loop_
 _atom_site_type_symbol
 _atom_site_label
 _atom_site_symmetry_multiplicity
 _atom_site_fract_x
 _atom_site_fract_y
 _atom_site_fract_z
 _atom_site_occupancy
  Li  Li0  1  0.000000  0.000000  0.500000  1
  Li  Li1  1  0.000000  0.000000  0.000000  1
  Nd  Nd2  1  0.620486  0.688477  0.750000  1
  Nd  Nd3  1  0.932010  0.620486  0.250000  1
  Nd  Nd4  1  0.688477  0.067990  0.250000  1
  Nd  Nd5  1  0.311523  0.932010  0.750000  1
  Nd  Nd6  1  0.067990  0.379514  0.750000  1
  Nd  Nd7  1  0.379514  0.311523  0.250000  1
  Os  Os8  1  0.666667  0.333333  0.750000  1
  Os  Os9  1  0.333333  0.666667  0.250000  1
  C  C10  1  0.974175  0.747775  0.750000  1
  C  C11  1  0.226399  0.974175  0.250000  1
  C  C12  1  0.747775  0.773601  0.250000  1
  C  C13  1  0.252225  0.226399  0.750000  1
  C  C14  1  0.773601  0.025825  0.750000  1
  C  C15  1  0.025825  0.252225  0.250000  1
  C  C16  1  0.858346  0.575698  0.750000  1
  C  C17  1  0.282648  0.858346  0.250000  1
  C  C18  1  0.575698  0.717352  0.250000  1
  C  C19  1  0.424302  0.282648  0.750000  1
  C  C20  1  0.141654  0.424302  0.250000  1
  C  C21  1  0.717352  0.141654  0.750000  1
