# generated using pymatgen
data_NdCo2(Sn3Ru)2
_symmetry_space_group_name_H-M   'P 1'
_cell_length_a   6.89947977
_cell_length_b   6.89947898
_cell_length_c   6.77263498
_cell_angle_alpha   119.65135402
_cell_angle_beta   119.65135018
_cell_angle_gamma   91.64739617
_symmetry_Int_Tables_number   1
_chemical_formula_structural   NdCo2(Sn3Ru)2
_chemical_formula_sum   'Nd1 Co2 Sn6 Ru2'
_cell_volume   226.96427454
_cell_formula_units_Z   1
loop_
 _symmetry_equiv_pos_site_id
 _symmetry_equiv_pos_as_xyz
  1  'x, y, z'
loop_
 _atom_site_type_symbol
 _atom_site_label
 _atom_site_symmetry_multiplicity
 _atom_site_fract_x
 _atom_site_fract_y
 _atom_site_fract_z
 _atom_site_occupancy
  Nd  Nd0  1  0.990493  0.990493  0.000000  1
  Co  Co1  1  0.605737  0.245842  0.000000  1
  Co  Co2  1  0.245842  0.605737  0.000000  1
  Sn  Sn3  1  0.891638  0.522522  0.000000  1
  Sn  Sn4  1  0.522522  0.891638  0.000000  1
  Sn  Sn5  1  0.463085  0.463085  0.335035  1
  Sn  Sn6  1  0.498781  0.998780  0.500001  1
  Sn  Sn7  1  0.998780  0.498781  0.500001  1
  Sn  Sn8  1  0.128051  0.128051  0.664966  1
  Ru  Ru9  1  0.740859  0.740859  0.326642  1
  Ru  Ru10  1  0.414217  0.414217  0.673359  1
