# generated using pymatgen
data_Ho5Co16Si2Tc3P10
_symmetry_space_group_name_H-M   'P 1'
_cell_length_a   12.06567365
_cell_length_b   12.05759714
_cell_length_c   3.70992700
_cell_angle_alpha   90.00000000
_cell_angle_beta   90.00000000
_cell_angle_gamma   119.96242673
_symmetry_Int_Tables_number   1
_chemical_formula_structural   Ho5Co16Si2Tc3P10
_chemical_formula_sum   'Ho5 Co16 Si2 Tc3 P10'
_cell_volume   467.59799983
_cell_formula_units_Z   1
loop_
 _symmetry_equiv_pos_site_id
 _symmetry_equiv_pos_as_xyz
  1  'x, y, z'
loop_
 _atom_site_type_symbol
 _atom_site_label
 _atom_site_symmetry_multiplicity
 _atom_site_fract_x
 _atom_site_fract_y
 _atom_site_fract_z
 _atom_site_occupancy
  Ho  Ho0  1  0.664549  0.333202  0.000000  1
  Ho  Ho1  1  0.333269  0.667061  0.000000  1
  Ho  Ho2  1  0.815080  0.813565  0.500000  1
  Ho  Ho3  1  0.184712  0.000552  0.500000  1
  Ho  Ho4  1  0.999110  0.184404  0.500000  1
  Co  Co5  1  0.879563  0.354505  0.500000  1
  Co  Co6  1  0.641153  0.518563  0.500000  1
  Co  Co7  1  0.475389  0.124392  0.500000  1
  Co  Co8  1  0.355312  0.873016  0.500000  1
  Co  Co9  1  0.516400  0.644128  0.500000  1
  Co  Co10  1  0.128915  0.483638  0.500000  1
  Co  Co11  1  0.805308  0.175759  0.000000  1
  Co  Co12  1  0.822575  0.627769  0.000000  1
  Co  Co13  1  0.373675  0.198253  0.000000  1
  Co  Co14  1  0.179363  0.804160  0.000000  1
  Co  Co15  1  0.623643  0.820167  0.000000  1
  Co  Co16  1  0.197160  0.375457  0.000000  1
  Co  Co17  1  0.281228  0.282307  0.500000  1
  Co  Co18  1  0.718306  0.995087  0.500000  1
  Co  Co19  1  0.004189  0.723060  0.500000  1
  Co  Co20  1  0.000574  0.000444  0.000000  1
  Si  Si21  1  0.684332  0.162923  0.500000  1
  Si  Si22  1  0.837508  0.520812  0.500000  1
  Tc  Tc23  1  0.445245  0.446750  0.000000  1
  Tc  Tc24  1  0.553469  0.999033  0.000000  1
  Tc  Tc25  1  0.002177  0.555707  0.000000  1
  P  P26  1  0.478693  0.315049  0.500000  1
  P  P27  1  0.164951  0.685858  0.500000  1
  P  P28  1  0.520476  0.835229  0.500000  1
  P  P29  1  0.314582  0.479802  0.500000  1
  P  P30  1  0.177871  0.179044  0.000000  1
  P  P31  1  0.820769  0.998103  0.000000  1
  P  P32  1  0.000642  0.821777  0.000000  1
  P  P33  1  0.637510  0.636981  0.000000  1
  P  P34  1  0.362970  0.000715  0.000000  1
  P  P35  1  0.999333  0.362731  0.000000  1
