# generated using pymatgen
data_Ac5In3Cl
_symmetry_space_group_name_H-M   'P 1'
_cell_length_a   10.10407200
_cell_length_b   10.10441061
_cell_length_c   7.23288900
_cell_angle_alpha   90.00000000
_cell_angle_beta   90.00000000
_cell_angle_gamma   120.00110891
_symmetry_Int_Tables_number   1
_chemical_formula_structural   Ac5In3Cl
_chemical_formula_sum   'Ac10 In6 Cl2'
_cell_volume   639.50655070
_cell_formula_units_Z   2
loop_
 _symmetry_equiv_pos_site_id
 _symmetry_equiv_pos_as_xyz
  1  'x, y, z'
loop_
 _atom_site_type_symbol
 _atom_site_label
 _atom_site_symmetry_multiplicity
 _atom_site_fract_x
 _atom_site_fract_y
 _atom_site_fract_z
 _atom_site_occupancy
  Ac  Ac0  1  0.666650  0.333325  0.000000  1
  Ac  Ac1  1  0.333350  0.666675  0.500000  1
  Ac  Ac2  1  0.666650  0.333325  0.500000  1
  Ac  Ac3  1  0.333350  0.666675  0.000000  1
  Ac  Ac4  1  0.740311  0.999936  0.750000  1
  Ac  Ac5  1  0.740311  0.740375  0.250000  1
  Ac  Ac6  1  0.000000  0.259683  0.250000  1
  Ac  Ac7  1  0.000000  0.740317  0.750000  1
  Ac  Ac8  1  0.259689  0.259625  0.750000  1
  Ac  Ac9  1  0.259689  0.000064  0.250000  1
  In  In10  1  0.608043  0.608186  0.750000  1
  In  In11  1  0.000000  0.608068  0.250000  1
  In  In12  1  0.608043  0.999857  0.250000  1
  In  In13  1  0.391957  0.000143  0.750000  1
  In  In14  1  0.000000  0.391932  0.750000  1
  In  In15  1  0.391957  0.391814  0.250000  1
  Cl  Cl16  1  0.000000  0.000000  0.500000  1
  Cl  Cl17  1  0.000000  0.000000  0.000000  1
