# generated using pymatgen
data_Tb5ThRuRh
_symmetry_space_group_name_H-M   'P 1'
_cell_length_a   6.35596500
_cell_length_b   7.24429500
_cell_length_c   9.58378300
_cell_angle_alpha   90.00000000
_cell_angle_beta   90.00000000
_cell_angle_gamma   90.00000000
_symmetry_Int_Tables_number   1
_chemical_formula_structural   Tb5ThRuRh
_chemical_formula_sum   'Tb10 Th2 Ru2 Rh2'
_cell_volume   441.28035709
_cell_formula_units_Z   2
loop_
 _symmetry_equiv_pos_site_id
 _symmetry_equiv_pos_as_xyz
  1  'x, y, z'
loop_
 _atom_site_type_symbol
 _atom_site_label
 _atom_site_symmetry_multiplicity
 _atom_site_fract_x
 _atom_site_fract_y
 _atom_site_fract_z
 _atom_site_occupancy
  Tb  Tb0  1  0.333359  0.677973  0.066216  1
  Tb  Tb1  1  0.166641  0.177973  0.433784  1
  Tb  Tb2  1  0.670245  0.323837  0.566051  1
  Tb  Tb3  1  0.829755  0.823837  0.933949  1
  Tb  Tb4  1  0.670245  0.323837  0.933949  1
  Tb  Tb5  1  0.829755  0.823837  0.566051  1
  Tb  Tb6  1  0.333359  0.677973  0.433784  1
  Tb  Tb7  1  0.166641  0.177973  0.066216  1
  Tb  Tb8  1  0.141302  0.462544  0.750000  1
  Tb  Tb9  1  0.358698  0.962544  0.750000  1
  Th  Th10  1  0.848563  0.545736  0.250000  1
  Th  Th11  1  0.651437  0.045736  0.250000  1
  Ru  Ru12  1  0.033231  0.870091  0.250000  1
  Ru  Ru13  1  0.466769  0.370091  0.250000  1
  Rh  Rh14  1  0.949492  0.118010  0.750000  1
  Rh  Rh15  1  0.550508  0.618010  0.750000  1
