# generated using pymatgen
data_Eu2ThSn3Ir2Rh
_symmetry_space_group_name_H-M   'P 1'
_cell_length_a   7.54153863
_cell_length_b   7.68277412
_cell_length_c   4.15212500
_cell_angle_alpha   90.00000000
_cell_angle_beta   90.00000000
_cell_angle_gamma   120.62145940
_symmetry_Int_Tables_number   1
_chemical_formula_structural   Eu2ThSn3Ir2Rh
_chemical_formula_sum   'Eu2 Th1 Sn3 Ir2 Rh1'
_cell_volume   207.02615464
_cell_formula_units_Z   1
loop_
 _symmetry_equiv_pos_site_id
 _symmetry_equiv_pos_as_xyz
  1  'x, y, z'
loop_
 _atom_site_type_symbol
 _atom_site_label
 _atom_site_symmetry_multiplicity
 _atom_site_fract_x
 _atom_site_fract_y
 _atom_site_fract_z
 _atom_site_occupancy
  Eu  Eu0  1  0.411910  0.413521  0.500000  1
  Eu  Eu1  1  0.588090  0.001611  0.500000  1
  Th  Th2  1  0.000000  0.585294  0.500000  1
  Sn  Sn3  1  0.737483  0.747954  0.000000  1
  Sn  Sn4  1  0.262517  0.010470  0.000000  1
  Sn  Sn5  1  0.000000  0.239871  0.000000  1
  Ir  Ir6  1  0.694381  0.356416  0.000000  1
  Ir  Ir7  1  0.305619  0.662036  0.000000  1
  Rh  Rh8  1  0.000000  0.982828  0.500000  1
