# generated using pymatgen
data_KPuS2
_symmetry_space_group_name_H-M   'P 1'
_cell_length_a   7.71588240
_cell_length_b   7.71588219
_cell_length_c   7.71588299
_cell_angle_alpha   30.92197542
_cell_angle_beta   30.92197891
_cell_angle_gamma   30.92197708
_symmetry_Int_Tables_number   1
_chemical_formula_structural   KPuS2
_chemical_formula_sum   'K1 Pu1 S2'
_cell_volume   107.59519139
_cell_formula_units_Z   1
loop_
 _symmetry_equiv_pos_site_id
 _symmetry_equiv_pos_as_xyz
  1  'x, y, z'
loop_
 _atom_site_type_symbol
 _atom_site_label
 _atom_site_symmetry_multiplicity
 _atom_site_fract_x
 _atom_site_fract_y
 _atom_site_fract_z
 _atom_site_occupancy
  K  K0  1  0.500000  0.500000  0.500000  1
  Pu  Pu1  1  0.000000  0.000000  0.000000  1
  S  S2  1  0.733113  0.733113  0.733113  1
  S  S3  1  0.266887  0.266887  0.266887  1
