# generated using pymatgen
data_TiMn2NbRu4
_symmetry_space_group_name_H-M   'P 1'
_cell_length_a   6.09013101
_cell_length_b   6.08966100
_cell_length_c   6.25761400
_cell_angle_alpha   89.99997327
_cell_angle_beta   90.00104975
_cell_angle_gamma   89.99786453
_symmetry_Int_Tables_number   1
_chemical_formula_structural   TiMn2NbRu4
_chemical_formula_sum   'Ti2 Mn4 Nb2 Ru8'
_cell_volume   232.07508736
_cell_formula_units_Z   2
loop_
 _symmetry_equiv_pos_site_id
 _symmetry_equiv_pos_as_xyz
  1  'x, y, z'
loop_
 _atom_site_type_symbol
 _atom_site_label
 _atom_site_symmetry_multiplicity
 _atom_site_fract_x
 _atom_site_fract_y
 _atom_site_fract_z
 _atom_site_occupancy
  Ti  Ti0  1  0.249827  0.249969  0.999958  1
  Ti  Ti1  1  0.750173  0.750031  0.999966  1
  Mn  Mn2  1  0.750035  0.249998  0.000016  1
  Mn  Mn3  1  0.249995  0.750006  0.500005  1
  Mn  Mn4  1  0.750006  0.249997  0.500062  1
  Mn  Mn5  1  0.249957  0.750002  0.999963  1
  Nb  Nb6  1  0.249965  0.249985  0.500005  1
  Nb  Nb7  1  0.750032  0.750016  0.500013  1
  Ru  Ru8  1  0.500041  0.499964  0.244290  1
  Ru  Ru9  1  0.500038  0.000040  0.244285  1
  Ru  Ru10  1  0.999955  0.499969  0.244314  1
  Ru  Ru11  1  0.999956  0.000032  0.244311  1
  Ru  Ru12  1  0.999963  0.499959  0.755688  1
  Ru  Ru13  1  0.999965  0.000043  0.755694  1
  Ru  Ru14  1  0.500038  0.499959  0.755714  1
  Ru  Ru15  1  0.500038  0.000042  0.755713  1
