# generated using pymatgen
data_Ho2ErZn2In3Ir
_symmetry_space_group_name_H-M   'P 1'
_cell_length_a   7.75627127
_cell_length_b   7.75756474
_cell_length_c   3.80714400
_cell_angle_alpha   90.00000000
_cell_angle_beta   90.00000000
_cell_angle_gamma   119.99298194
_symmetry_Int_Tables_number   1
_chemical_formula_structural   Ho2ErZn2In3Ir
_chemical_formula_sum   'Ho2 Er1 Zn2 In3 Ir1'
_cell_volume   198.39880058
_cell_formula_units_Z   1
loop_
 _symmetry_equiv_pos_site_id
 _symmetry_equiv_pos_as_xyz
  1  'x, y, z'
loop_
 _atom_site_type_symbol
 _atom_site_label
 _atom_site_symmetry_multiplicity
 _atom_site_fract_x
 _atom_site_fract_y
 _atom_site_fract_z
 _atom_site_occupancy
  Ho  Ho0  1  0.386228  0.972178  0.500000  1
  Ho  Ho1  1  0.028237  0.414367  0.500000  1
  Er  Er2  1  0.585612  0.613497  0.500000  1
  Zn  Zn3  1  0.666710  0.333263  0.000000  1
  Zn  Zn4  1  0.999641  0.999905  0.500000  1
  In  In5  1  0.739267  0.009800  0.000000  1
  In  In6  1  0.990224  0.729664  0.000000  1
  In  In7  1  0.270626  0.260638  0.000000  1
  Ir  Ir8  1  0.333455  0.666686  0.000000  1
