# generated using pymatgen
data_La5IrRhO12
_symmetry_space_group_name_H-M   'P 1'
_cell_length_a   7.17847370
_cell_length_b   7.17847446
_cell_length_c   7.71804644
_cell_angle_alpha   74.53913579
_cell_angle_beta   74.53913326
_cell_angle_gamma   51.27383800
_symmetry_Int_Tables_number   1
_chemical_formula_structural   La5IrRhO12
_chemical_formula_sum   'La5 Ir1 Rh1 O12'
_cell_volume   296.40084121
_cell_formula_units_Z   1
loop_
 _symmetry_equiv_pos_site_id
 _symmetry_equiv_pos_as_xyz
  1  'x, y, z'
loop_
 _atom_site_type_symbol
 _atom_site_label
 _atom_site_symmetry_multiplicity
 _atom_site_fract_x
 _atom_site_fract_y
 _atom_site_fract_z
 _atom_site_occupancy
  La  La0  1  0.314788  0.298116  0.356723  1
  La  La1  1  0.701884  0.685212  0.643277  1
  La  La2  1  0.695153  0.692058  0.164102  1
  La  La3  1  0.307942  0.304847  0.835898  1
  La  La4  1  0.004531  0.995469  0.500000  1
  Ir  Ir5  1  0.240540  0.759460  0.000000  1
  Rh  Rh6  1  0.748789  0.251211  0.000000  1
  O  O7  1  0.098949  0.596805  0.574905  1
  O  O8  1  0.997901  0.002525  0.165105  1
  O  O9  1  0.403195  0.901051  0.425095  1
  O  O10  1  0.493502  0.508743  0.169722  1
  O  O11  1  0.103070  0.581895  0.080717  1
  O  O12  1  0.911810  0.397146  0.421379  1
  O  O13  1  0.997475  0.002099  0.834895  1
  O  O14  1  0.602854  0.088189  0.578621  1
  O  O15  1  0.491257  0.506498  0.830278  1
  O  O16  1  0.569250  0.100996  0.081281  1
  O  O17  1  0.418105  0.896930  0.919283  1
  O  O18  1  0.899004  0.430750  0.918719  1
