# generated using pymatgen
data_Rb4Bi2Au7
_symmetry_space_group_name_H-M   'P 1'
_cell_length_a   11.07862450
_cell_length_b   11.07862411
_cell_length_c   11.07862431
_cell_angle_alpha   37.23413077
_cell_angle_beta   37.23413428
_cell_angle_gamma   37.23413175
_symmetry_Int_Tables_number   1
_chemical_formula_structural   Rb4Bi2Au7
_chemical_formula_sum   'Rb4 Bi2 Au7'
_cell_volume   446.24397581
_cell_formula_units_Z   1
loop_
 _symmetry_equiv_pos_site_id
 _symmetry_equiv_pos_as_xyz
  1  'x, y, z'
loop_
 _atom_site_type_symbol
 _atom_site_label
 _atom_site_symmetry_multiplicity
 _atom_site_fract_x
 _atom_site_fract_y
 _atom_site_fract_z
 _atom_site_occupancy
  Rb  Rb0  1  0.684292  0.684292  0.684292  1
  Rb  Rb1  1  0.315708  0.315708  0.315708  1
  Rb  Rb2  1  0.812761  0.812761  0.812761  1
  Rb  Rb3  1  0.187239  0.187239  0.187239  1
  Bi  Bi4  1  0.445547  0.445547  0.445547  1
  Bi  Bi5  1  0.554453  0.554453  0.554453  1
  Au  Au6  1  0.000000  0.000000  0.000000  1
  Au  Au7  1  0.186911  0.793504  0.793504  1
  Au  Au8  1  0.793504  0.793504  0.186911  1
  Au  Au9  1  0.793504  0.186911  0.793504  1
  Au  Au10  1  0.206496  0.813089  0.206496  1
  Au  Au11  1  0.813089  0.206496  0.206496  1
  Au  Au12  1  0.206496  0.206496  0.813089  1
