# generated using pymatgen
data_Ba2SrBPO3
_symmetry_space_group_name_H-M   'P 1'
_cell_length_a   5.47265200
_cell_length_b   5.47256136
_cell_length_c   13.33497000
_cell_angle_alpha   90.00000000
_cell_angle_beta   90.00000000
_cell_angle_gamma   120.00054787
_symmetry_Int_Tables_number   1
_chemical_formula_structural   Ba2SrBPO3
_chemical_formula_sum   'Ba4 Sr2 B2 P2 O6'
_cell_volume   345.86669964
_cell_formula_units_Z   2
loop_
 _symmetry_equiv_pos_site_id
 _symmetry_equiv_pos_as_xyz
  1  'x, y, z'
loop_
 _atom_site_type_symbol
 _atom_site_label
 _atom_site_symmetry_multiplicity
 _atom_site_fract_x
 _atom_site_fract_y
 _atom_site_fract_z
 _atom_site_occupancy
  Ba  Ba0  1  0.333330  0.666659  0.094910  1
  Ba  Ba1  1  0.333330  0.666659  0.405090  1
  Ba  Ba2  1  0.666669  0.333340  0.594910  1
  Ba  Ba3  1  0.666669  0.333340  0.905090  1
  Sr  Sr4  1  0.999997  0.999996  0.250000  1
  Sr  Sr5  1  0.000003  0.000005  0.750000  1
  B  B6  1  0.666652  0.333304  0.250000  1
  B  B7  1  0.333348  0.666697  0.750000  1
  P  P8  1  0.000000  0.000000  0.000000  1
  P  P9  1  0.000000  0.000000  0.500000  1
  O  O10  1  0.519731  0.039464  0.250000  1
  O  O11  1  0.519720  0.480277  0.250000  1
  O  O12  1  0.960556  0.480277  0.250000  1
  O  O13  1  0.039442  0.519721  0.750000  1
  O  O14  1  0.480279  0.519721  0.750000  1
  O  O15  1  0.480268  0.960534  0.750000  1
