# generated using pymatgen
data_Zr7Ta(TcOs)4
_symmetry_space_group_name_H-M   'P 1'
_cell_length_a   6.52452800
_cell_length_b   4.64740200
_cell_length_c   9.28088600
_cell_angle_alpha   90.00037014
_cell_angle_beta   89.99940510
_cell_angle_gamma   90.00071757
_symmetry_Int_Tables_number   1
_chemical_formula_structural   Zr7Ta(TcOs)4
_chemical_formula_sum   'Zr7 Ta1 Tc4 Os4'
_cell_volume   281.41599490
_cell_formula_units_Z   1
loop_
 _symmetry_equiv_pos_site_id
 _symmetry_equiv_pos_as_xyz
  1  'x, y, z'
loop_
 _atom_site_type_symbol
 _atom_site_label
 _atom_site_symmetry_multiplicity
 _atom_site_fract_x
 _atom_site_fract_y
 _atom_site_fract_z
 _atom_site_occupancy
  Zr  Zr0  1  0.500044  0.749999  0.123483  1
  Zr  Zr1  1  0.999938  0.750000  0.124579  1
  Zr  Zr2  1  0.499735  0.249997  0.374984  1
  Zr  Zr3  1  0.000478  0.250003  0.374987  1
  Zr  Zr4  1  0.999939  0.750001  0.625458  1
  Zr  Zr5  1  0.500044  0.749998  0.626542  1
  Zr  Zr6  1  0.999647  0.250004  0.874989  1
  Ta  Ta7  1  0.500082  0.249994  0.874981  1
  Tc  Tc8  1  0.746339  0.249999  0.119630  1
  Tc  Tc9  1  0.249804  0.749996  0.374992  1
  Tc  Tc10  1  0.746372  0.249997  0.630361  1
  Tc  Tc11  1  0.256755  0.750003  0.875021  1
  Os  Os12  1  0.253469  0.250000  0.119881  1
  Os  Os13  1  0.750225  0.750004  0.375013  1
  Os  Os14  1  0.253488  0.250001  0.630104  1
  Os  Os15  1  0.743640  0.749995  0.874996  1
