# generated using pymatgen
data_Y3Er3(SiIr)4
_symmetry_space_group_name_H-M   'P 1'
_cell_length_a   5.56333003
_cell_length_b   5.56332838
_cell_length_c   13.25153830
_cell_angle_alpha   89.90456757
_cell_angle_beta   90.09543350
_cell_angle_gamma   136.93185866
_symmetry_Int_Tables_number   1
_chemical_formula_structural   Y3Er3(SiIr)4
_chemical_formula_sum   'Y3 Er3 Si4 Ir4'
_cell_volume   280.07327581
_cell_formula_units_Z   1
loop_
 _symmetry_equiv_pos_site_id
 _symmetry_equiv_pos_as_xyz
  1  'x, y, z'
loop_
 _atom_site_type_symbol
 _atom_site_label
 _atom_site_symmetry_multiplicity
 _atom_site_fract_x
 _atom_site_fract_y
 _atom_site_fract_z
 _atom_site_occupancy
  Y  Y0  1  0.775764  0.224236  0.604279  1
  Y  Y1  1  0.224134  0.775866  0.395264  1
  Y  Y2  1  0.775771  0.224229  0.896493  1
  Er  Er3  1  0.516542  0.483458  0.249434  1
  Er  Er4  1  0.483724  0.516276  0.750065  1
  Er  Er5  1  0.225346  0.774654  0.105032  1
  Si  Si6  1  0.062227  0.937773  0.590147  1
  Si  Si7  1  0.062672  0.937328  0.910403  1
  Si  Si8  1  0.937337  0.062663  0.409055  1
  Si  Si9  1  0.938569  0.061431  0.090699  1
  Ir  Ir10  1  0.811485  0.188515  0.248292  1
  Ir  Ir11  1  0.187056  0.812944  0.750245  1
  Ir  Ir12  1  0.499543  0.500457  0.000846  1
  Ir  Ir13  1  0.499828  0.500172  0.499746  1
