# generated using pymatgen
data_NdMn4MoP3
_symmetry_space_group_name_H-M   'P 1'
_cell_length_a   3.73015600
_cell_length_b   10.85601300
_cell_length_c   12.35109900
_cell_angle_alpha   90.00000000
_cell_angle_beta   90.00000000
_cell_angle_gamma   90.00000000
_symmetry_Int_Tables_number   1
_chemical_formula_structural   NdMn4MoP3
_chemical_formula_sum   'Nd4 Mn16 Mo4 P12'
_cell_volume   500.15308564
_cell_formula_units_Z   4
loop_
 _symmetry_equiv_pos_site_id
 _symmetry_equiv_pos_as_xyz
  1  'x, y, z'
loop_
 _atom_site_type_symbol
 _atom_site_label
 _atom_site_symmetry_multiplicity
 _atom_site_fract_x
 _atom_site_fract_y
 _atom_site_fract_z
 _atom_site_occupancy
  Nd  Nd0  1  0.250000  0.588812  0.706389  1
  Nd  Nd1  1  0.250000  0.911188  0.206389  1
  Nd  Nd2  1  0.750000  0.411188  0.293611  1
  Nd  Nd3  1  0.750000  0.088812  0.793611  1
  Mn  Mn4  1  0.250000  0.409806  0.495400  1
  Mn  Mn5  1  0.250000  0.090194  0.995400  1
  Mn  Mn6  1  0.750000  0.590194  0.504600  1
  Mn  Mn7  1  0.750000  0.909806  0.004600  1
  Mn  Mn8  1  0.250000  0.210112  0.180933  1
  Mn  Mn9  1  0.250000  0.289888  0.680933  1
  Mn  Mn10  1  0.750000  0.789888  0.819067  1
  Mn  Mn11  1  0.750000  0.710112  0.319067  1
  Mn  Mn12  1  0.250000  0.884398  0.691757  1
  Mn  Mn13  1  0.250000  0.615602  0.191757  1
  Mn  Mn14  1  0.750000  0.115602  0.308243  1
  Mn  Mn15  1  0.750000  0.384398  0.808243  1
  Mn  Mn16  1  0.250000  0.467139  0.935533  1
  Mn  Mn17  1  0.250000  0.032861  0.435533  1
  Mn  Mn18  1  0.750000  0.532861  0.064467  1
  Mn  Mn19  1  0.750000  0.967139  0.564467  1
  Mo  Mo20  1  0.250000  0.709465  0.982391  1
  Mo  Mo21  1  0.250000  0.790535  0.482391  1
  Mo  Mo22  1  0.750000  0.290535  0.017609  1
  Mo  Mo23  1  0.750000  0.209465  0.517609  1
  P  P24  1  0.250000  0.413737  0.114349  1
  P  P25  1  0.250000  0.086263  0.614349  1
  P  P26  1  0.750000  0.586263  0.885651  1
  P  P27  1  0.750000  0.913737  0.385651  1
  P  P28  1  0.250000  0.270037  0.873574  1
  P  P29  1  0.250000  0.229963  0.373574  1
  P  P30  1  0.750000  0.729963  0.126426  1
  P  P31  1  0.750000  0.770037  0.626426  1
  P  P32  1  0.250000  0.592770  0.384529  1
  P  P33  1  0.250000  0.907230  0.884529  1
  P  P34  1  0.750000  0.407230  0.615471  1
  P  P35  1  0.750000  0.092770  0.115471  1
