# generated using pymatgen
data_Nd3Al9Re3Os4
_symmetry_space_group_name_H-M   'P 1'
_cell_length_a   8.93309700
_cell_length_b   8.93309767
_cell_length_c   9.65689800
_cell_angle_alpha   90.00000000
_cell_angle_beta   90.00000000
_cell_angle_gamma   119.99999381
_symmetry_Int_Tables_number   1
_chemical_formula_structural   Nd3Al9Re3Os4
_chemical_formula_sum   'Nd6 Al18 Re6 Os8'
_cell_volume   667.37884384
_cell_formula_units_Z   2
loop_
 _symmetry_equiv_pos_site_id
 _symmetry_equiv_pos_as_xyz
  1  'x, y, z'
loop_
 _atom_site_type_symbol
 _atom_site_label
 _atom_site_symmetry_multiplicity
 _atom_site_fract_x
 _atom_site_fract_y
 _atom_site_fract_z
 _atom_site_occupancy
  Nd  Nd0  1  0.195174  0.390349  0.250000  1
  Nd  Nd1  1  0.804826  0.609651  0.750000  1
  Nd  Nd2  1  0.609651  0.804826  0.250000  1
  Nd  Nd3  1  0.390349  0.195174  0.750000  1
  Nd  Nd4  1  0.195174  0.804826  0.250000  1
  Nd  Nd5  1  0.804826  0.195174  0.750000  1
  Al  Al6  1  0.333333  0.666667  0.006297  1
  Al  Al7  1  0.666667  0.333333  0.993703  1
  Al  Al8  1  0.666667  0.333333  0.506297  1
  Al  Al9  1  0.333333  0.666667  0.493703  1
  Al  Al10  1  0.165554  0.331107  0.576007  1
  Al  Al11  1  0.834446  0.668893  0.423993  1
  Al  Al12  1  0.668893  0.834446  0.576007  1
  Al  Al13  1  0.834446  0.668893  0.076007  1
  Al  Al14  1  0.331107  0.165554  0.423993  1
  Al  Al15  1  0.165554  0.331107  0.923993  1
  Al  Al16  1  0.165554  0.834446  0.576007  1
  Al  Al17  1  0.331107  0.165554  0.076007  1
  Al  Al18  1  0.834446  0.165554  0.423993  1
  Al  Al19  1  0.668893  0.834446  0.923993  1
  Al  Al20  1  0.834446  0.165554  0.076007  1
  Al  Al21  1  0.165554  0.834446  0.923993  1
  Al  Al22  1  0.000000  0.000000  0.250000  1
  Al  Al23  1  0.000000  0.000000  0.750000  1
  Re  Re24  1  0.572013  0.144026  0.250000  1
  Re  Re25  1  0.427987  0.855974  0.750000  1
  Re  Re26  1  0.855974  0.427987  0.250000  1
  Re  Re27  1  0.144026  0.572013  0.750000  1
  Re  Re28  1  0.572013  0.427987  0.250000  1
  Re  Re29  1  0.427987  0.572013  0.750000  1
  Os  Os30  1  0.500000  0.000000  0.000000  1
  Os  Os31  1  0.000000  0.500000  0.000000  1
  Os  Os32  1  0.500000  0.000000  0.500000  1
  Os  Os33  1  0.500000  0.500000  0.000000  1
  Os  Os34  1  0.000000  0.500000  0.500000  1
  Os  Os35  1  0.500000  0.500000  0.500000  1
  Os  Os36  1  0.000000  0.000000  0.000000  1
  Os  Os37  1  0.000000  0.000000  0.500000  1
