# generated using pymatgen
data_Ba4CdSbO7F
_symmetry_space_group_name_H-M   'P 1'
_cell_length_a   7.47759765
_cell_length_b   7.47759710
_cell_length_c   6.04466200
_cell_angle_alpha   90.00000000
_cell_angle_beta   90.00000000
_cell_angle_gamma   132.62930967
_symmetry_Int_Tables_number   1
_chemical_formula_structural   Ba4CdSbO7F
_chemical_formula_sum   'Ba4 Cd1 Sb1 O7 F1'
_cell_volume   248.67199575
_cell_formula_units_Z   1
loop_
 _symmetry_equiv_pos_site_id
 _symmetry_equiv_pos_as_xyz
  1  'x, y, z'
loop_
 _atom_site_type_symbol
 _atom_site_label
 _atom_site_symmetry_multiplicity
 _atom_site_fract_x
 _atom_site_fract_y
 _atom_site_fract_z
 _atom_site_occupancy
  Ba  Ba0  1  0.364285  0.635715  0.000000  1
  Ba  Ba1  1  0.853639  0.146361  0.500000  1
  Ba  Ba2  1  0.140417  0.859583  0.500000  1
  Ba  Ba3  1  0.639949  0.360051  0.000000  1
  Cd  Cd4  1  0.983763  0.016237  0.000000  1
  Sb  Sb5  1  0.502405  0.497595  0.500000  1
  O  O6  1  0.265779  0.257698  0.733507  1
  O  O7  1  0.742302  0.734221  0.266493  1
  O  O8  1  0.742302  0.734221  0.733507  1
  O  O9  1  0.265779  0.257698  0.266493  1
  O  O10  1  0.653265  0.346735  0.500000  1
  O  O11  1  0.351094  0.648906  0.500000  1
  O  O12  1  0.822917  0.177083  0.000000  1
  F  F13  1  0.172106  0.827894  0.000000  1
