# generated using pymatgen
data_NaTb(Al3Pd)3
_symmetry_space_group_name_H-M   'P 1'
_cell_length_a   7.64616500
_cell_length_b   7.64481250
_cell_length_c   9.48786600
_cell_angle_alpha   90.00000000
_cell_angle_beta   90.00000000
_cell_angle_gamma   119.66441826
_symmetry_Int_Tables_number   1
_chemical_formula_structural   NaTb(Al3Pd)3
_chemical_formula_sum   'Na2 Tb2 Al18 Pd6'
_cell_volume   481.91268021
_cell_formula_units_Z   2
loop_
 _symmetry_equiv_pos_site_id
 _symmetry_equiv_pos_as_xyz
  1  'x, y, z'
loop_
 _atom_site_type_symbol
 _atom_site_label
 _atom_site_symmetry_multiplicity
 _atom_site_fract_x
 _atom_site_fract_y
 _atom_site_fract_z
 _atom_site_occupancy
  Na  Na0  1  0.993622  0.668673  0.250000  1
  Na  Na1  1  0.006378  0.331327  0.750000  1
  Tb  Tb2  1  0.673197  0.999018  0.250000  1
  Tb  Tb3  1  0.326803  0.000982  0.750000  1
  Al  Al4  1  0.126357  0.132296  0.250000  1
  Al  Al5  1  0.873643  0.867704  0.750000  1
  Al  Al6  1  0.001646  0.338631  0.074525  1
  Al  Al7  1  0.998354  0.661369  0.925475  1
  Al  Al8  1  0.998354  0.661369  0.574525  1
  Al  Al9  1  0.330222  0.996653  0.420192  1
  Al  Al10  1  0.001646  0.338631  0.425475  1
  Al  Al11  1  0.669778  0.003347  0.579808  1
  Al  Al12  1  0.669778  0.003347  0.920192  1
  Al  Al13  1  0.330222  0.996653  0.079808  1
  Al  Al14  1  0.330953  0.333091  0.555901  1
  Al  Al15  1  0.669047  0.666909  0.444099  1
  Al  Al16  1  0.669047  0.666909  0.055901  1
  Al  Al17  1  0.330953  0.333091  0.944099  1
  Al  Al18  1  0.342799  0.549201  0.250000  1
  Al  Al19  1  0.657201  0.450799  0.750000  1
  Al  Al20  1  0.543311  0.336177  0.250000  1
  Al  Al21  1  0.456689  0.663823  0.750000  1
  Pd  Pd22  1  0.667506  0.324981  0.000844  1
  Pd  Pd23  1  0.332494  0.675019  0.999156  1
  Pd  Pd24  1  0.332494  0.675019  0.500844  1
  Pd  Pd25  1  0.667506  0.324981  0.499156  1
  Pd  Pd26  1  0.000000  0.000000  0.000000  1
  Pd  Pd27  1  0.000000  0.000000  0.500000  1
