# generated using pymatgen
data_Li3La3TlGe2
_symmetry_space_group_name_H-M   'P 1'
_cell_length_a   7.59426600
_cell_length_b   7.59426712
_cell_length_c   4.43707800
_cell_angle_alpha   90.00000000
_cell_angle_beta   90.00000000
_cell_angle_gamma   120.00000381
_symmetry_Int_Tables_number   1
_chemical_formula_structural   Li3La3TlGe2
_chemical_formula_sum   'Li3 La3 Tl1 Ge2'
_cell_volume   221.61510209
_cell_formula_units_Z   1
loop_
 _symmetry_equiv_pos_site_id
 _symmetry_equiv_pos_as_xyz
  1  'x, y, z'
loop_
 _atom_site_type_symbol
 _atom_site_label
 _atom_site_symmetry_multiplicity
 _atom_site_fract_x
 _atom_site_fract_y
 _atom_site_fract_z
 _atom_site_occupancy
  Li  Li0  1  0.751774  0.751774  0.500000  1
  Li  Li1  1  0.248226  0.000000  0.500000  1
  Li  Li2  1  0.000000  0.248226  0.500000  1
  La  La3  1  0.000000  0.568170  0.000000  1
  La  La4  1  0.431830  0.431830  0.000000  1
  La  La5  1  0.568170  0.000000  0.000000  1
  Tl  Tl6  1  0.000000  0.000000  0.000000  1
  Ge  Ge7  1  0.333333  0.666667  0.500000  1
  Ge  Ge8  1  0.666667  0.333333  0.500000  1
