# generated using pymatgen
data_Dy16Tm4Si13As3
_symmetry_space_group_name_H-M   'P 1'
_cell_length_a   7.53811303
_cell_length_b   7.59740133
_cell_length_c   14.51955500
_cell_angle_alpha   89.86968282
_cell_angle_beta   89.17573952
_cell_angle_gamma   90.02233102
_symmetry_Int_Tables_number   1
_chemical_formula_structural   Dy16Tm4Si13As3
_chemical_formula_sum   'Dy16 Tm4 Si13 As3'
_cell_volume   831.44765995
_cell_formula_units_Z   1
loop_
 _symmetry_equiv_pos_site_id
 _symmetry_equiv_pos_as_xyz
  1  'x, y, z'
loop_
 _atom_site_type_symbol
 _atom_site_label
 _atom_site_symmetry_multiplicity
 _atom_site_fract_x
 _atom_site_fract_y
 _atom_site_fract_z
 _atom_site_occupancy
  Dy  Dy0  1  0.039630  0.824551  0.106590  1
  Dy  Dy1  1  0.526374  0.673691  0.397100  1
  Dy  Dy2  1  0.459843  0.325373  0.893395  1
  Dy  Dy3  1  0.972843  0.180251  0.602334  1
  Dy  Dy4  1  0.968890  0.177240  0.893951  1
  Dy  Dy5  1  0.477123  0.323521  0.601367  1
  Dy  Dy6  1  0.530406  0.677617  0.105658  1
  Dy  Dy7  1  0.021595  0.817002  0.397676  1
  Dy  Dy8  1  0.613277  0.837548  0.882253  1
  Dy  Dy9  1  0.120592  0.663968  0.619021  1
  Dy  Dy10  1  0.887677  0.336953  0.117103  1
  Dy  Dy11  1  0.378987  0.164312  0.382285  1
  Dy  Dy12  1  0.383811  0.164750  0.116974  1
  Dy  Dy13  1  0.878496  0.334640  0.380786  1
  Dy  Dy14  1  0.116267  0.665091  0.882628  1
  Dy  Dy15  1  0.623020  0.835294  0.618186  1
  Tm  Tm16  1  0.713210  0.998503  0.253972  1
  Tm  Tm17  1  0.214044  0.499856  0.250810  1
  Tm  Tm18  1  0.785612  0.498939  0.746502  1
  Tm  Tm19  1  0.286851  0.001398  0.751873  1
  Si  Si20  1  0.825079  0.629112  0.249489  1
  Si  Si21  1  0.326219  0.870427  0.250841  1
  Si  Si22  1  0.673220  0.130709  0.749655  1
  Si  Si23  1  0.172791  0.370473  0.749161  1
  Si  Si24  1  0.088691  0.111048  0.249606  1
  Si  Si25  1  0.588273  0.387259  0.248111  1
  Si  Si26  1  0.412708  0.613205  0.750160  1
  Si  Si27  1  0.911859  0.888882  0.750677  1
  Si  Si28  1  0.215565  0.468138  0.456319  1
  Si  Si29  1  0.224942  0.476059  0.046503  1
  Si  Si30  1  0.719037  0.029817  0.455076  1
  Si  Si31  1  0.275378  0.976013  0.953405  1
  Si  Si32  1  0.786272  0.531695  0.544391  1
  As  As33  1  0.772402  0.522764  0.952724  1
  As  As34  1  0.281332  0.971266  0.546443  1
  As  As35  1  0.727680  0.022633  0.046971  1
