# generated using pymatgen
data_CaHg3(Rh2O7)2
_symmetry_space_group_name_H-M   'P 1'
_cell_length_a   7.32589468
_cell_length_b   7.32589566
_cell_length_c   7.32589595
_cell_angle_alpha   59.21778714
_cell_angle_beta   59.21778695
_cell_angle_gamma   59.21778190
_symmetry_Int_Tables_number   1
_chemical_formula_structural   CaHg3(Rh2O7)2
_chemical_formula_sum   'Ca1 Hg3 Rh4 O14'
_cell_volume   273.06014370
_cell_formula_units_Z   1
loop_
 _symmetry_equiv_pos_site_id
 _symmetry_equiv_pos_as_xyz
  1  'x, y, z'
loop_
 _atom_site_type_symbol
 _atom_site_label
 _atom_site_symmetry_multiplicity
 _atom_site_fract_x
 _atom_site_fract_y
 _atom_site_fract_z
 _atom_site_occupancy
  Ca  Ca0  1  0.125000  0.125000  0.125000  1
  Hg  Hg1  1  0.125000  0.625000  0.125000  1
  Hg  Hg2  1  0.625000  0.125000  0.125000  1
  Hg  Hg3  1  0.125000  0.125000  0.625000  1
  Rh  Rh4  1  0.625000  0.625000  0.625000  1
  Rh  Rh5  1  0.625000  0.625000  0.125000  1
  Rh  Rh6  1  0.125000  0.625000  0.625000  1
  Rh  Rh7  1  0.625000  0.125000  0.625000  1
  O  O8  1  0.257009  0.257009  0.257009  1
  O  O9  1  0.299504  0.704994  0.299504  1
  O  O10  1  0.950496  0.950496  0.545006  1
  O  O11  1  0.552299  0.948349  0.552299  1
  O  O12  1  0.697701  0.697701  0.301651  1
  O  O13  1  0.948349  0.552299  0.552299  1
  O  O14  1  0.697701  0.301651  0.697701  1
  O  O15  1  0.299504  0.299504  0.704994  1
  O  O16  1  0.704994  0.299504  0.299504  1
  O  O17  1  0.301651  0.697701  0.697701  1
  O  O18  1  0.950496  0.545006  0.950496  1
  O  O19  1  0.552299  0.552299  0.948349  1
  O  O20  1  0.992991  0.992991  0.992991  1
  O  O21  1  0.545006  0.950496  0.950496  1
