# generated using pymatgen
data_K2TiZn3P4
_symmetry_space_group_name_H-M   'P 1'
_cell_length_a   7.49759855
_cell_length_b   7.49759775
_cell_length_c   5.71375700
_cell_angle_alpha   90.00000000
_cell_angle_beta   90.00000000
_cell_angle_gamma   135.13240344
_symmetry_Int_Tables_number   1
_chemical_formula_structural   K2TiZn3P4
_chemical_formula_sum   'K2 Ti1 Zn3 P4'
_cell_volume   226.59230896
_cell_formula_units_Z   1
loop_
 _symmetry_equiv_pos_site_id
 _symmetry_equiv_pos_as_xyz
  1  'x, y, z'
loop_
 _atom_site_type_symbol
 _atom_site_label
 _atom_site_symmetry_multiplicity
 _atom_site_fract_x
 _atom_site_fract_y
 _atom_site_fract_z
 _atom_site_occupancy
  K  K0  1  0.500000  0.000000  0.253436  1
  K  K1  1  0.000000  0.500000  0.746564  1
  Ti  Ti2  1  0.000000  0.000000  0.000000  1
  Zn  Zn3  1  0.500000  0.500000  0.500000  1
  Zn  Zn4  1  0.500000  0.500000  0.000000  1
  Zn  Zn5  1  0.000000  0.000000  0.500000  1
  P  P6  1  0.656494  0.857393  0.757311  1
  P  P7  1  0.142607  0.343506  0.242689  1
  P  P8  1  0.857393  0.656494  0.242689  1
  P  P9  1  0.343506  0.142607  0.757311  1
