# generated using pymatgen
data_Sr5Ti3FeRuO15
_symmetry_space_group_name_H-M   'P 1'
_cell_length_a   5.60014558
_cell_length_b   6.86863091
_cell_length_c   8.87890404
_cell_angle_alpha   104.99133534
_cell_angle_beta   71.60546072
_cell_angle_gamma   89.99061168
_symmetry_Int_Tables_number   1
_chemical_formula_structural   Sr5Ti3FeRuO15
_chemical_formula_sum   'Sr5 Ti3 Fe1 Ru1 O15'
_cell_volume   311.80104610
_cell_formula_units_Z   1
loop_
 _symmetry_equiv_pos_site_id
 _symmetry_equiv_pos_as_xyz
  1  'x, y, z'
loop_
 _atom_site_type_symbol
 _atom_site_label
 _atom_site_symmetry_multiplicity
 _atom_site_fract_x
 _atom_site_fract_y
 _atom_site_fract_z
 _atom_site_occupancy
  Sr  Sr0  1  0.599100  0.599415  0.801899  1
  Sr  Sr1  1  0.198399  0.198158  0.603280  1
  Sr  Sr2  1  0.998838  0.003251  0.002316  1
  Sr  Sr3  1  0.399297  0.401182  0.201413  1
  Sr  Sr4  1  0.797833  0.802409  0.404445  1
  Ti  Ti5  1  0.995487  0.511686  0.009223  1
  Ti  Ti6  1  0.200731  0.684600  0.598429  1
  Ti  Ti7  1  0.394463  0.908013  0.211376  1
  Fe  Fe8  1  0.801717  0.300348  0.396546  1
  Ru  Ru9  1  0.600025  0.099765  0.799845  1
  O  O10  1  0.100846  0.599672  0.798359  1
  O  O11  1  0.104727  0.095381  0.296507  1
  O  O12  1  0.598888  0.095319  0.296498  1
  O  O13  1  0.699244  0.196224  0.601046  1
  O  O14  1  0.501027  0.000084  0.998242  1
  O  O15  1  0.903024  0.400697  0.193778  1
  O  O16  1  0.300926  0.800312  0.398153  1
  O  O17  1  0.496095  0.503908  0.500926  1
  O  O18  1  0.702276  0.697714  0.096352  1
  O  O19  1  0.002540  0.504021  0.501114  1
  O  O20  1  0.201869  0.697552  0.096142  1
  O  O21  1  0.900030  0.901379  0.700347  1
  O  O22  1  0.301899  0.298750  0.896741  1
  O  O23  1  0.399888  0.901110  0.700362  1
  O  O24  1  0.800831  0.299047  0.896665  1
