# generated using pymatgen
data_TbDyLuGa5
_symmetry_space_group_name_H-M   'P 1'
_cell_length_a   6.06248800
_cell_length_b   9.58623600
_cell_length_c   11.54860300
_cell_angle_alpha   90.00000000
_cell_angle_beta   90.00000000
_cell_angle_gamma   90.00000000
_symmetry_Int_Tables_number   1
_chemical_formula_structural   TbDyLuGa5
_chemical_formula_sum   'Tb4 Dy4 Lu4 Ga20'
_cell_volume   671.16370159
_cell_formula_units_Z   4
loop_
 _symmetry_equiv_pos_site_id
 _symmetry_equiv_pos_as_xyz
  1  'x, y, z'
loop_
 _atom_site_type_symbol
 _atom_site_label
 _atom_site_symmetry_multiplicity
 _atom_site_fract_x
 _atom_site_fract_y
 _atom_site_fract_z
 _atom_site_occupancy
  Tb  Tb0  1  0.890690  0.506568  0.351231  1
  Tb  Tb1  1  0.609310  0.993432  0.851231  1
  Tb  Tb2  1  0.109310  0.006568  0.648769  1
  Tb  Tb3  1  0.390690  0.493432  0.148769  1
  Dy  Dy4  1  0.109260  0.493470  0.648985  1
  Dy  Dy5  1  0.390740  0.006530  0.148985  1
  Dy  Dy6  1  0.890740  0.993470  0.351015  1
  Dy  Dy7  1  0.609260  0.506530  0.851015  1
  Lu  Lu8  1  0.849748  0.749981  0.074295  1
  Lu  Lu9  1  0.650252  0.750019  0.574295  1
  Lu  Lu10  1  0.150252  0.249981  0.925705  1
  Lu  Lu11  1  0.349748  0.250019  0.425705  1
  Ga  Ga12  1  0.876402  0.053106  0.089528  1
  Ga  Ga13  1  0.623598  0.446894  0.589528  1
  Ga  Ga14  1  0.123598  0.553106  0.910472  1
  Ga  Ga15  1  0.376402  0.946894  0.410472  1
  Ga  Ga16  1  0.123437  0.946787  0.910754  1
  Ga  Ga17  1  0.376563  0.553213  0.410754  1
  Ga  Ga18  1  0.876563  0.446787  0.089246  1
  Ga  Ga19  1  0.623437  0.053213  0.589246  1
  Ga  Ga20  1  0.166982  0.750280  0.254063  1
  Ga  Ga21  1  0.333018  0.749720  0.754063  1
  Ga  Ga22  1  0.833018  0.250280  0.745937  1
  Ga  Ga23  1  0.666982  0.249720  0.245937  1
  Ga  Ga24  1  0.378808  0.750104  0.001294  1
  Ga  Ga25  1  0.121192  0.749896  0.501294  1
  Ga  Ga26  1  0.621192  0.250104  0.998706  1
  Ga  Ga27  1  0.878808  0.249896  0.498706  1
  Ga  Ga28  1  0.603928  0.750247  0.298767  1
  Ga  Ga29  1  0.896072  0.749753  0.798767  1
  Ga  Ga30  1  0.396072  0.250247  0.701233  1
  Ga  Ga31  1  0.103928  0.249753  0.201233  1
