# generated using pymatgen
data_Dy3In3Ga2Rh
_symmetry_space_group_name_H-M   'P 1'
_cell_length_a   7.27991800
_cell_length_b   7.27991843
_cell_length_c   4.40393500
_cell_angle_alpha   90.00000000
_cell_angle_beta   90.00000000
_cell_angle_gamma   119.99998896
_symmetry_Int_Tables_number   1
_chemical_formula_structural   Dy3In3Ga2Rh
_chemical_formula_sum   'Dy3 In3 Ga2 Rh1'
_cell_volume   202.12711678
_cell_formula_units_Z   1
loop_
 _symmetry_equiv_pos_site_id
 _symmetry_equiv_pos_as_xyz
  1  'x, y, z'
loop_
 _atom_site_type_symbol
 _atom_site_label
 _atom_site_symmetry_multiplicity
 _atom_site_fract_x
 _atom_site_fract_y
 _atom_site_fract_z
 _atom_site_occupancy
  Dy  Dy0  1  0.000000  0.595555  0.500000  1
  Dy  Dy1  1  0.595555  0.000000  0.500000  1
  Dy  Dy2  1  0.404445  0.404445  0.500000  1
  In  In3  1  0.000000  0.247887  0.000000  1
  In  In4  1  0.247887  0.000000  0.000000  1
  In  In5  1  0.752113  0.752113  0.000000  1
  Ga  Ga6  1  0.666667  0.333333  0.000000  1
  Ga  Ga7  1  0.333333  0.666667  0.000000  1
  Rh  Rh8  1  0.000000  0.000000  0.500000  1
