# generated using pymatgen
data_Nd2YHfAl16(GaIr3)2
_symmetry_space_group_name_H-M   'P 1'
_cell_length_a   7.57234900
_cell_length_b   7.56318343
_cell_length_c   9.47302500
_cell_angle_alpha   90.00000000
_cell_angle_beta   90.00000000
_cell_angle_gamma   119.53912609
_symmetry_Int_Tables_number   1
_chemical_formula_structural   Nd2YHfAl16(GaIr3)2
_chemical_formula_sum   'Nd2 Y1 Hf1 Al16 Ga2 Ir6'
_cell_volume   472.01172742
_cell_formula_units_Z   1
loop_
 _symmetry_equiv_pos_site_id
 _symmetry_equiv_pos_as_xyz
  1  'x, y, z'
loop_
 _atom_site_type_symbol
 _atom_site_label
 _atom_site_symmetry_multiplicity
 _atom_site_fract_x
 _atom_site_fract_y
 _atom_site_fract_z
 _atom_site_occupancy
  Nd  Nd0  1  0.002390  0.324179  0.750000  1
  Nd  Nd1  1  0.331144  0.011001  0.750000  1
  Y  Y2  1  0.672308  0.997880  0.250000  1
  Hf  Hf3  1  0.997663  0.674019  0.250000  1
  Al  Al4  1  0.126465  0.124179  0.250000  1
  Al  Al5  1  0.999968  0.339148  0.081844  1
  Al  Al6  1  0.998225  0.665142  0.935034  1
  Al  Al7  1  0.998225  0.665142  0.564966  1
  Al  Al8  1  0.332616  0.997073  0.418631  1
  Al  Al9  1  0.999968  0.339148  0.418156  1
  Al  Al10  1  0.663824  0.994503  0.570038  1
  Al  Al11  1  0.663824  0.994503  0.929962  1
  Al  Al12  1  0.332616  0.997073  0.081369  1
  Al  Al13  1  0.334756  0.335512  0.539199  1
  Al  Al14  1  0.669877  0.667228  0.436106  1
  Al  Al15  1  0.669877  0.667228  0.063894  1
  Al  Al16  1  0.334756  0.335512  0.960801  1
  Al  Al17  1  0.335427  0.551126  0.250000  1
  Al  Al18  1  0.556102  0.343685  0.250000  1
  Al  Al19  1  0.450909  0.658074  0.750000  1
  Ga  Ga20  1  0.866676  0.863718  0.750000  1
  Ga  Ga21  1  0.660287  0.457223  0.750000  1
  Ir  Ir22  1  0.673258  0.328991  0.004790  1
  Ir  Ir23  1  0.329094  0.672279  0.003323  1
  Ir  Ir24  1  0.329094  0.672279  0.496677  1
  Ir  Ir25  1  0.673258  0.328991  0.495210  1
  Ir  Ir26  1  0.998698  0.997583  0.006052  1
  Ir  Ir27  1  0.998698  0.997583  0.493948  1
