# generated using pymatgen
data_Tb3Be2Co9B4
_symmetry_space_group_name_H-M   'P 1'
_cell_length_a   5.06328200
_cell_length_b   5.06398017
_cell_length_c   9.37139200
_cell_angle_alpha   89.99997281
_cell_angle_beta   90.00005438
_cell_angle_gamma   119.99543939
_symmetry_Int_Tables_number   1
_chemical_formula_structural   Tb3Be2Co9B4
_chemical_formula_sum   'Tb3 Be2 Co9 B4'
_cell_volume   208.10322253
_cell_formula_units_Z   1
loop_
 _symmetry_equiv_pos_site_id
 _symmetry_equiv_pos_as_xyz
  1  'x, y, z'
loop_
 _atom_site_type_symbol
 _atom_site_label
 _atom_site_symmetry_multiplicity
 _atom_site_fract_x
 _atom_site_fract_y
 _atom_site_fract_z
 _atom_site_occupancy
  Tb  Tb0  1  0.999991  0.000000  0.000010  1
  Tb  Tb1  1  0.999995  0.000000  0.337757  1
  Tb  Tb2  1  0.999999  0.000000  0.662195  1
  Be  Be3  1  0.333103  0.666222  0.000028  1
  Be  Be4  1  0.666881  0.333778  0.000028  1
  Co  Co5  1  0.499996  0.000000  0.499983  1
  Co  Co6  1  0.499996  0.500000  0.499982  1
  Co  Co7  1  0.999996  0.500000  0.499982  1
  Co  Co8  1  0.499992  0.000000  0.190299  1
  Co  Co9  1  0.499991  0.500000  0.190222  1
  Co  Co10  1  0.999991  0.500000  0.190222  1
  Co  Co11  1  0.499998  0.000000  0.809704  1
  Co  Co12  1  0.499997  0.500000  0.809809  1
  Co  Co13  1  0.999996  0.500000  0.809809  1
  B  B14  1  0.333242  0.666498  0.341884  1
  B  B15  1  0.666744  0.333502  0.341884  1
  B  B16  1  0.666804  0.333616  0.658102  1
  B  B17  1  0.333187  0.666384  0.658102  1
