# generated using pymatgen
data_Li2Y3AlSi2Hg
_symmetry_space_group_name_H-M   'P 1'
_cell_length_a   7.05206100
_cell_length_b   7.03852171
_cell_length_c   4.32467900
_cell_angle_alpha   90.00000000
_cell_angle_beta   90.00000000
_cell_angle_gamma   120.06363846
_symmetry_Int_Tables_number   1
_chemical_formula_structural   Li2Y3AlSi2Hg
_chemical_formula_sum   'Li2 Y3 Al1 Si2 Hg1'
_cell_volume   185.78180128
_cell_formula_units_Z   1
loop_
 _symmetry_equiv_pos_site_id
 _symmetry_equiv_pos_as_xyz
  1  'x, y, z'
loop_
 _atom_site_type_symbol
 _atom_site_label
 _atom_site_symmetry_multiplicity
 _atom_site_fract_x
 _atom_site_fract_y
 _atom_site_fract_z
 _atom_site_occupancy
  Li  Li0  1  0.755119  0.753514  0.500000  1
  Li  Li1  1  0.001605  0.246486  0.500000  1
  Y  Y2  1  0.999747  0.566797  0.000000  1
  Y  Y3  1  0.571524  0.000000  0.000000  1
  Y  Y4  1  0.432950  0.433203  0.000000  1
  Al  Al5  1  0.250117  0.000000  0.500000  1
  Si  Si6  1  0.331982  0.672408  0.500000  1
  Si  Si7  1  0.659574  0.327592  0.500000  1
  Hg  Hg8  1  0.997380  0.000000  0.000000  1
