# generated using pymatgen
data_Yb8Si6Ni3Pt5
_symmetry_space_group_name_H-M   'P 1'
_cell_length_a   10.44680067
_cell_length_b   10.45804629
_cell_length_c   7.57818100
_cell_angle_alpha   70.85422539
_cell_angle_beta   70.69848317
_cell_angle_gamma   31.13688250
_symmetry_Int_Tables_number   1
_chemical_formula_structural   Yb8Si6Ni3Pt5
_chemical_formula_sum   'Yb8 Si6 Ni3 Pt5'
_cell_volume   402.32601291
_cell_formula_units_Z   1
loop_
 _symmetry_equiv_pos_site_id
 _symmetry_equiv_pos_as_xyz
  1  'x, y, z'
loop_
 _atom_site_type_symbol
 _atom_site_label
 _atom_site_symmetry_multiplicity
 _atom_site_fract_x
 _atom_site_fract_y
 _atom_site_fract_z
 _atom_site_occupancy
  Yb  Yb0  1  0.929895  0.209176  0.322999  1
  Yb  Yb1  1  0.070210  0.791967  0.671977  1
  Yb  Yb2  1  0.794806  0.068861  0.173222  1
  Yb  Yb3  1  0.439756  0.210898  0.915229  1
  Yb  Yb4  1  0.784844  0.559673  0.593205  1
  Yb  Yb5  1  0.208267  0.442224  0.415192  1
  Yb  Yb6  1  0.207740  0.932355  0.826408  1
  Yb  Yb7  1  0.564458  0.786015  0.085227  1
  Si  Si8  1  0.284953  0.065579  0.428951  1
  Si  Si9  1  0.383499  0.616009  0.250631  1
  Si  Si10  1  0.060119  0.298419  0.923347  1
  Si  Si11  1  0.696763  0.944382  0.586560  1
  Si  Si12  1  0.956377  0.690080  0.066912  1
  Si  Si13  1  0.616055  0.384924  0.748896  1
  Ni  Ni14  1  0.928027  0.632010  0.823915  1
  Ni  Ni15  1  0.359161  0.080575  0.675419  1
  Ni  Ni16  1  0.078978  0.361208  0.173348  1
  Pt  Pt17  1  0.579435  0.289358  0.530709  1
  Pt  Pt18  1  0.709470  0.421282  0.970553  1
  Pt  Pt19  1  0.292442  0.578602  0.028297  1
  Pt  Pt20  1  0.419951  0.710553  0.470145  1
  Pt  Pt21  1  0.634793  0.925847  0.318860  1
