# generated using pymatgen
data_Hf4Al2Rh9Au
_symmetry_space_group_name_H-M   'P 1'
_cell_length_a   5.58447400
_cell_length_b   5.58447360
_cell_length_c   8.29278400
_cell_angle_alpha   89.99997948
_cell_angle_beta   89.99997948
_cell_angle_gamma   98.81697127
_symmetry_Int_Tables_number   1
_chemical_formula_structural   Hf4Al2Rh9Au
_chemical_formula_sum   'Hf4 Al2 Rh9 Au1'
_cell_volume   255.56551838
_cell_formula_units_Z   1
loop_
 _symmetry_equiv_pos_site_id
 _symmetry_equiv_pos_as_xyz
  1  'x, y, z'
loop_
 _atom_site_type_symbol
 _atom_site_label
 _atom_site_symmetry_multiplicity
 _atom_site_fract_x
 _atom_site_fract_y
 _atom_site_fract_z
 _atom_site_occupancy
  Hf  Hf0  1  0.774719  0.225265  0.506300  1
  Hf  Hf1  1  0.225266  0.774716  0.993700  1
  Hf  Hf2  1  0.225265  0.774719  0.506300  1
  Hf  Hf3  1  0.774716  0.225266  0.993700  1
  Al  Al4  1  0.500289  0.500289  0.749999  1
  Al  Al5  1  0.499724  0.499724  0.250001  1
  Rh  Rh6  1  0.715982  0.715982  0.997325  1
  Rh  Rh7  1  0.715984  0.715984  0.502671  1
  Rh  Rh8  1  0.284022  0.284022  0.997112  1
  Rh  Rh9  1  0.284023  0.284023  0.502887  1
  Rh  Rh10  1  0.499984  0.000047  0.750003  1
  Rh  Rh11  1  0.500021  0.999949  0.249999  1
  Rh  Rh12  1  0.999946  0.999946  0.750002  1
  Rh  Rh13  1  0.000047  0.499984  0.750003  1
  Rh  Rh14  1  0.999949  0.500021  0.249999  1
  Au  Au15  1  0.000066  0.000066  0.250000  1
