# generated using pymatgen
data_Li6Pr5Nd(WO6)4
_symmetry_space_group_name_H-M   'P 1'
_cell_length_a   10.98253583
_cell_length_b   10.97510749
_cell_length_c   10.97879234
_cell_angle_alpha   109.44947651
_cell_angle_beta   109.47693629
_cell_angle_gamma   109.48754997
_symmetry_Int_Tables_number   1
_chemical_formula_structural   Li6Pr5Nd(WO6)4
_chemical_formula_sum   'Li12 Pr10 Nd2 W8 O48'
_cell_volume   1018.69093106
_cell_formula_units_Z   2
loop_
 _symmetry_equiv_pos_site_id
 _symmetry_equiv_pos_as_xyz
  1  'x, y, z'
loop_
 _atom_site_type_symbol
 _atom_site_label
 _atom_site_symmetry_multiplicity
 _atom_site_fract_x
 _atom_site_fract_y
 _atom_site_fract_z
 _atom_site_occupancy
  Li  Li0  1  0.249819  0.874972  0.125006  1
  Li  Li1  1  0.375186  0.250033  0.125003  1
  Li  Li2  1  0.124796  0.374979  0.249947  1
  Li  Li3  1  0.625150  0.874967  0.249944  1
  Li  Li4  1  0.124544  0.749817  0.374573  1
  Li  Li5  1  0.750031  0.624759  0.374577  1
  Li  Li6  1  0.250001  0.374941  0.624956  1
  Li  Li7  1  0.874958  0.250017  0.624960  1
  Li  Li8  1  0.375187  0.125174  0.750184  1
  Li  Li9  1  0.874997  0.625009  0.750182  1
  Li  Li10  1  0.625311  0.750005  0.875335  1
  Li  Li11  1  0.750021  0.125327  0.875332  1
  Pr  Pr12  1  0.375044  0.625044  0.250087  1
  Pr  Pr13  1  0.874858  0.124859  0.249716  1
  Pr  Pr14  1  0.249790  0.124733  0.374882  1
  Pr  Pr15  1  0.625092  0.250149  0.374882  1
  Pr  Pr16  1  0.749951  0.874976  0.624971  1
  Pr  Pr17  1  0.375019  0.749995  0.624970  1
  Pr  Pr18  1  0.125003  0.875002  0.750006  1
  Pr  Pr19  1  0.625230  0.375231  0.750461  1
  Pr  Pr20  1  0.250009  0.625028  0.874984  1
  Pr  Pr21  1  0.124976  0.249956  0.874985  1
  Nd  Nd22  1  0.750163  0.375288  0.125062  1
  Nd  Nd23  1  0.874899  0.749775  0.125063  1
  W  W24  1  0.999798  0.999481  0.000138  1
  W  W25  1  0.500339  0.000657  0.000138  1
  W  W26  1  0.500834  0.500172  0.000498  1
  W  W27  1  0.999663  0.500326  0.000498  1
  W  W28  1  0.999642  0.999480  0.499339  1
  W  W29  1  0.500015  0.000122  0.500023  1
  W  W30  1  0.999698  0.499860  0.499339  1
  W  W31  1  0.500009  0.499902  0.500024  1
  O  O32  1  0.828325  0.907155  0.023207  1
  O  O33  1  0.694882  0.116052  0.023208  1
  O  O34  1  0.194382  0.671958  0.079983  1
  O  O35  1  0.385601  0.408025  0.079984  1
  O  O36  1  0.477763  0.671887  0.092262  1
  O  O37  1  0.114498  0.420374  0.092260  1
  O  O38  1  0.523377  0.195421  0.114723  1
  O  O39  1  0.091345  0.919302  0.114723  1
  O  O40  1  0.976095  0.592221  0.171774  1
  O  O41  1  0.695680  0.579554  0.171773  1
  O  O42  1  0.079733  0.171698  0.194376  1
  O  O43  1  0.614642  0.022677  0.194376  1
  O  O44  1  0.827941  0.919283  0.304613  1
  O  O45  1  0.976672  0.385331  0.304613  1
  O  O46  1  0.407970  0.022656  0.328097  1
  O  O47  1  0.420128  0.305442  0.328098  1
  O  O48  1  0.078742  0.907091  0.383904  1
  O  O49  1  0.805161  0.476813  0.383903  1
  O  O50  1  0.328119  0.522587  0.407944  1
  O  O51  1  0.579825  0.885358  0.407945  1
  O  O52  1  0.592080  0.614678  0.420098  1
  O  O53  1  0.328018  0.805421  0.420099  1
  O  O54  1  0.091900  0.171710  0.477258  1
  O  O55  1  0.885357  0.305548  0.477257  1
  O  O56  1  0.114729  0.694703  0.522594  1
  O  O57  1  0.907864  0.827891  0.522593  1
  O  O58  1  0.408044  0.385364  0.579971  1
  O  O59  1  0.671927  0.194608  0.579972  1
  O  O60  1  0.671932  0.477397  0.592036  1
  O  O61  1  0.420104  0.114640  0.592035  1
  O  O62  1  0.194212  0.522427  0.614321  1
  O  O63  1  0.920110  0.091895  0.614322  1
  O  O64  1  0.579876  0.694536  0.671934  1
  O  O65  1  0.592058  0.977399  0.671934  1
  O  O66  1  0.171763  0.079550  0.693997  1
  O  O67  1  0.022234  0.614446  0.693998  1
  O  O68  1  0.385300  0.977420  0.805399  1
  O  O69  1  0.920099  0.827979  0.805399  1
  O  O70  1  0.306258  0.420385  0.828330  1
  O  O71  1  0.022071  0.407944  0.828329  1
  O  O72  1  0.477746  0.805945  0.885536  1
  O  O73  1  0.907789  0.079590  0.885536  1
  O  O74  1  0.523392  0.328161  0.908714  1
  O  O75  1  0.885323  0.580553  0.908715  1
  O  O76  1  0.616052  0.592780  0.921323  1
  O  O77  1  0.805271  0.328543  0.921323  1
  O  O78  1  0.305739  0.885662  0.977573  1
  O  O79  1  0.171834  0.091912  0.977574  1
