# generated using pymatgen
data_Hf3Zr3MnBiTe
_symmetry_space_group_name_H-M   'P 1'
_cell_length_a   3.65856500
_cell_length_b   7.84739525
_cell_length_c   7.84739500
_cell_angle_alpha   119.99999473
_cell_angle_beta   90.00000000
_cell_angle_gamma   90.00000000
_symmetry_Int_Tables_number   1
_chemical_formula_structural   Hf3Zr3MnBiTe
_chemical_formula_sum   'Hf3 Zr3 Mn1 Bi1 Te1'
_cell_volume   195.11581431
_cell_formula_units_Z   1
loop_
 _symmetry_equiv_pos_site_id
 _symmetry_equiv_pos_as_xyz
  1  'x, y, z'
loop_
 _atom_site_type_symbol
 _atom_site_label
 _atom_site_symmetry_multiplicity
 _atom_site_fract_x
 _atom_site_fract_y
 _atom_site_fract_z
 _atom_site_occupancy
  Hf  Hf0  1  0.500000  0.764869  0.766125  1
  Hf  Hf1  1  0.500000  0.001256  0.235131  1
  Hf  Hf2  1  0.500000  0.233875  0.998744  1
  Zr  Zr3  1  0.000000  0.392934  0.401211  1
  Zr  Zr4  1  0.000000  0.008276  0.607066  1
  Zr  Zr5  1  0.000000  0.598789  0.991724  1
  Mn  Mn6  1  0.000000  0.000000  0.000000  1
  Bi  Bi7  1  0.500000  0.666667  0.333333  1
  Te  Te8  1  0.500000  0.333333  0.666667  1
