# generated using pymatgen
data_K2U(Br2O)2
_symmetry_space_group_name_H-M   'P 1'
_cell_length_a   5.87349839
_cell_length_b   7.14781166
_cell_length_c   7.14781102
_cell_angle_alpha   68.21307754
_cell_angle_beta   98.39163372
_cell_angle_gamma   98.39163592
_symmetry_Int_Tables_number   1
_chemical_formula_structural   K2U(Br2O)2
_chemical_formula_sum   'K2 U1 Br4 O2'
_cell_volume   274.28689441
_cell_formula_units_Z   1
loop_
 _symmetry_equiv_pos_site_id
 _symmetry_equiv_pos_as_xyz
  1  'x, y, z'
loop_
 _atom_site_type_symbol
 _atom_site_label
 _atom_site_symmetry_multiplicity
 _atom_site_fract_x
 _atom_site_fract_y
 _atom_site_fract_z
 _atom_site_occupancy
  K  K0  1  0.681223  0.332516  0.332516  1
  K  K1  1  0.318777  0.667484  0.667484  1
  U  U2  1  0.000000  0.000000  0.000000  1
  Br  Br3  1  0.212702  0.632710  0.154307  1
  Br  Br4  1  0.787298  0.845693  0.367290  1
  Br  Br5  1  0.212702  0.154307  0.632710  1
  Br  Br6  1  0.787298  0.367290  0.845693  1
  O  O7  1  0.236087  0.120506  0.120506  1
  O  O8  1  0.763913  0.879494  0.879494  1
