# generated using pymatgen
data_Er7ScSi16(Mo2W)4
_symmetry_space_group_name_H-M   'P 1'
_cell_length_a   6.72489344
_cell_length_b   6.90145023
_cell_length_c   12.84651005
_cell_angle_alpha   90.07137257
_cell_angle_beta   89.98249260
_cell_angle_gamma   90.04538766
_symmetry_Int_Tables_number   1
_chemical_formula_structural   Er7ScSi16(Mo2W)4
_chemical_formula_sum   'Er7 Sc1 Si16 Mo8 W4'
_cell_volume   596.22534769
_cell_formula_units_Z   1
loop_
 _symmetry_equiv_pos_site_id
 _symmetry_equiv_pos_as_xyz
  1  'x, y, z'
loop_
 _atom_site_type_symbol
 _atom_site_label
 _atom_site_symmetry_multiplicity
 _atom_site_fract_x
 _atom_site_fract_y
 _atom_site_fract_z
 _atom_site_occupancy
  Er  Er0  1  0.495360  0.668241  0.593445  1
  Er  Er1  1  0.995724  0.832189  0.906582  1
  Er  Er2  1  0.504544  0.332168  0.093695  1
  Er  Er3  1  0.004031  0.167500  0.408179  1
  Er  Er4  1  0.503867  0.331447  0.407548  1
  Er  Er5  1  0.004334  0.168023  0.093739  1
  Er  Er6  1  0.495574  0.668665  0.904883  1
  Sc  Sc7  1  0.993745  0.829954  0.595497  1
  Si  Si8  1  0.662589  0.957962  0.454497  1
  Si  Si9  1  0.161497  0.541459  0.047093  1
  Si  Si10  1  0.339572  0.042120  0.952265  1
  Si  Si11  1  0.840543  0.462620  0.547802  1
  Si  Si12  1  0.332579  0.038116  0.547561  1
  Si  Si13  1  0.838475  0.458075  0.952512  1
  Si  Si14  1  0.661219  0.958049  0.047176  1
  Si  Si15  1  0.160652  0.544402  0.454377  1
  Si  Si16  1  0.464739  0.369246  0.749593  1
  Si  Si17  1  0.965307  0.127437  0.747697  1
  Si  Si18  1  0.535980  0.630708  0.250253  1
  Si  Si19  1  0.035635  0.869801  0.250124  1
  Si  Si20  1  0.700671  0.865804  0.748167  1
  Si  Si21  1  0.194392  0.636193  0.747893  1
  Si  Si22  1  0.302704  0.134056  0.250535  1
  Si  Si23  1  0.803294  0.366680  0.250950  1
  Mo  Mo24  1  0.668292  0.162831  0.625096  1
  Mo  Mo25  1  0.167694  0.334931  0.873211  1
  Mo  Mo26  1  0.331778  0.836785  0.125403  1
  Mo  Mo27  1  0.832321  0.665815  0.375709  1
  Mo  Mo28  1  0.331380  0.835624  0.374798  1
  Mo  Mo29  1  0.831673  0.663881  0.125751  1
  Mo  Mo30  1  0.670192  0.163221  0.874016  1
  Mo  Mo31  1  0.169155  0.336282  0.625063  1
  W  W32  1  0.833473  0.502150  0.749213  1
  W  W33  1  0.333178  0.997090  0.748644  1
  W  W34  1  0.167055  0.498673  0.250294  1
  W  W35  1  0.666785  0.001803  0.250738  1
