# generated using pymatgen
data_DySc2Cr(Co4P3)2
_symmetry_space_group_name_H-M   'P 1'
_cell_length_a   3.62659200
_cell_length_b   10.38641300
_cell_length_c   12.00966500
_cell_angle_alpha   90.00000000
_cell_angle_beta   90.00000000
_cell_angle_gamma   90.00000000
_symmetry_Int_Tables_number   1
_chemical_formula_structural   DySc2Cr(Co4P3)2
_chemical_formula_sum   'Dy2 Sc4 Cr2 Co16 P12'
_cell_volume   452.37144182
_cell_formula_units_Z   2
loop_
 _symmetry_equiv_pos_site_id
 _symmetry_equiv_pos_as_xyz
  1  'x, y, z'
loop_
 _atom_site_type_symbol
 _atom_site_label
 _atom_site_symmetry_multiplicity
 _atom_site_fract_x
 _atom_site_fract_y
 _atom_site_fract_z
 _atom_site_occupancy
  Dy  Dy0  1  0.000000  0.500000  0.524723  1
  Dy  Dy1  1  0.500000  0.000000  0.475277  1
  Sc  Sc2  1  0.500000  0.818106  0.203583  1
  Sc  Sc3  1  0.500000  0.181894  0.203583  1
  Sc  Sc4  1  0.000000  0.681894  0.796417  1
  Sc  Sc5  1  0.000000  0.318106  0.796417  1
  Cr  Cr6  1  0.500000  0.500000  0.155202  1
  Cr  Cr7  1  0.000000  0.000000  0.844798  1
  Co  Co8  1  0.500000  0.500000  0.704117  1
  Co  Co9  1  0.000000  0.000000  0.295883  1
  Co  Co10  1  0.000000  0.500000  0.986438  1
  Co  Co11  1  0.500000  0.000000  0.013562  1
  Co  Co12  1  0.500000  0.332465  0.991501  1
  Co  Co13  1  0.500000  0.667535  0.991501  1
  Co  Co14  1  0.000000  0.167535  0.008499  1
  Co  Co15  1  0.000000  0.832465  0.008499  1
  Co  Co16  1  0.500000  0.296081  0.430083  1
  Co  Co17  1  0.500000  0.703919  0.430083  1
  Co  Co18  1  0.000000  0.203919  0.569917  1
  Co  Co19  1  0.000000  0.796081  0.569917  1
  Co  Co20  1  0.500000  0.877475  0.709744  1
  Co  Co21  1  0.500000  0.122525  0.709744  1
  Co  Co22  1  0.000000  0.622525  0.290256  1
  Co  Co23  1  0.000000  0.377475  0.290256  1
  P  P24  1  0.500000  0.500000  0.879728  1
  P  P25  1  0.000000  0.000000  0.120272  1
  P  P26  1  0.500000  0.500000  0.344219  1
  P  P27  1  0.000000  0.000000  0.655781  1
  P  P28  1  0.500000  0.312492  0.619735  1
  P  P29  1  0.500000  0.687508  0.619735  1
  P  P30  1  0.000000  0.187508  0.380265  1
  P  P31  1  0.000000  0.812492  0.380265  1
  P  P32  1  0.500000  0.845248  0.890493  1
  P  P33  1  0.500000  0.154752  0.890493  1
  P  P34  1  0.000000  0.654752  0.109507  1
  P  P35  1  0.000000  0.345248  0.109507  1
