# generated using pymatgen
data_La19Lu(SnBi)8
_symmetry_space_group_name_H-M   'P 1'
_cell_length_a   8.58485100
_cell_length_b   8.66524591
_cell_length_c   16.45475100
_cell_angle_alpha   90.00000000
_cell_angle_beta   90.00000000
_cell_angle_gamma   89.91336777
_symmetry_Int_Tables_number   1
_chemical_formula_structural   La19Lu(SnBi)8
_chemical_formula_sum   'La19 Lu1 Sn8 Bi8'
_cell_volume   1224.06497676
_cell_formula_units_Z   1
loop_
 _symmetry_equiv_pos_site_id
 _symmetry_equiv_pos_as_xyz
  1  'x, y, z'
loop_
 _atom_site_type_symbol
 _atom_site_label
 _atom_site_symmetry_multiplicity
 _atom_site_fract_x
 _atom_site_fract_y
 _atom_site_fract_z
 _atom_site_occupancy
  La  La0  1  0.393313  0.836242  0.881902  1
  La  La1  1  0.893935  0.664828  0.620149  1
  La  La2  1  0.607674  0.162882  0.380123  1
  La  La3  1  0.108223  0.335759  0.120888  1
  La  La4  1  0.607674  0.162882  0.119877  1
  La  La5  1  0.108223  0.335759  0.379112  1
  La  La6  1  0.393313  0.836242  0.618098  1
  La  La7  1  0.893935  0.664828  0.879851  1
  La  La8  1  0.550002  0.325390  0.889933  1
  La  La9  1  0.049146  0.176342  0.608324  1
  La  La10  1  0.448665  0.673149  0.389802  1
  La  La11  1  0.949351  0.826270  0.109945  1
  La  La12  1  0.448665  0.673149  0.110198  1
  La  La13  1  0.949351  0.826270  0.390055  1
  La  La14  1  0.550002  0.325390  0.610067  1
  La  La15  1  0.049146  0.176342  0.891676  1
  La  La16  1  0.219434  0.495970  0.750000  1
  La  La17  1  0.719451  0.005086  0.750000  1
  La  La18  1  0.780188  0.504604  0.250000  1
  Lu  Lu19  1  0.277893  0.994890  0.250000  1
  Sn  Sn20  1  0.591716  0.624348  0.750000  1
  Sn  Sn21  1  0.094172  0.878661  0.750000  1
  Sn  Sn22  1  0.407409  0.371307  0.250000  1
  Sn  Sn23  1  0.913627  0.121345  0.250000  1
  Sn  Sn24  1  0.349917  0.134365  0.750000  1
  Sn  Sn25  1  0.851520  0.364367  0.750000  1
  Sn  Sn26  1  0.640334  0.864846  0.250000  1
  Sn  Sn27  1  0.149668  0.644193  0.250000  1
  Bi  Bi28  1  0.268301  0.015845  0.051318  1
  Bi  Bi29  1  0.767076  0.481245  0.455140  1
  Bi  Bi30  1  0.733615  0.982047  0.545266  1
  Bi  Bi31  1  0.233035  0.518010  0.955227  1
  Bi  Bi32  1  0.733615  0.982047  0.954734  1
  Bi  Bi33  1  0.233035  0.518010  0.544773  1
  Bi  Bi34  1  0.268301  0.015845  0.448682  1
  Bi  Bi35  1  0.767076  0.481245  0.044860  1
