# generated using pymatgen
data_Tb3Y7Cd3Ru
_symmetry_space_group_name_H-M   'P 1'
_cell_length_a   9.63937700
_cell_length_b   9.63937644
_cell_length_c   9.88202800
_cell_angle_alpha   90.00000000
_cell_angle_beta   90.00000000
_cell_angle_gamma   119.99999849
_symmetry_Int_Tables_number   1
_chemical_formula_structural   Tb3Y7Cd3Ru
_chemical_formula_sum   'Tb6 Y14 Cd6 Ru2'
_cell_volume   795.19680273
_cell_formula_units_Z   2
loop_
 _symmetry_equiv_pos_site_id
 _symmetry_equiv_pos_as_xyz
  1  'x, y, z'
loop_
 _atom_site_type_symbol
 _atom_site_label
 _atom_site_symmetry_multiplicity
 _atom_site_fract_x
 _atom_site_fract_y
 _atom_site_fract_z
 _atom_site_occupancy
  Tb  Tb0  1  0.209961  0.790039  0.439757  1
  Tb  Tb1  1  0.209961  0.419924  0.439757  1
  Tb  Tb2  1  0.580076  0.790039  0.439757  1
  Tb  Tb3  1  0.790039  0.209961  0.560243  1
  Tb  Tb4  1  0.790039  0.580076  0.560243  1
  Tb  Tb5  1  0.419924  0.209961  0.560243  1
  Y  Y6  1  0.000000  0.000000  0.500000  1
  Y  Y7  1  0.000000  0.000000  0.000000  1
  Y  Y8  1  0.790146  0.209854  0.940269  1
  Y  Y9  1  0.790146  0.580291  0.940269  1
  Y  Y10  1  0.419709  0.209854  0.940269  1
  Y  Y11  1  0.209854  0.790146  0.059731  1
  Y  Y12  1  0.209854  0.419709  0.059731  1
  Y  Y13  1  0.580291  0.790146  0.059731  1
  Y  Y14  1  0.541385  0.458615  0.250043  1
  Y  Y15  1  0.541385  0.082769  0.250043  1
  Y  Y16  1  0.917231  0.458615  0.250043  1
  Y  Y17  1  0.458615  0.541385  0.749957  1
  Y  Y18  1  0.458615  0.917231  0.749957  1
  Y  Y19  1  0.082769  0.541385  0.749957  1
  Cd  Cd20  1  0.885246  0.114754  0.249607  1
  Cd  Cd21  1  0.885246  0.770493  0.249607  1
  Cd  Cd22  1  0.229507  0.114754  0.249607  1
  Cd  Cd23  1  0.114754  0.885246  0.750393  1
  Cd  Cd24  1  0.114754  0.229507  0.750393  1
  Cd  Cd25  1  0.770493  0.885246  0.750393  1
  Ru  Ru26  1  0.333333  0.666667  0.251802  1
  Ru  Ru27  1  0.666667  0.333333  0.748198  1
