# generated using pymatgen
data_Ag6PbCO11
_symmetry_space_group_name_H-M   'P 1'
_cell_length_a   7.10335161
_cell_length_b   7.10335285
_cell_length_c   7.10335273
_cell_angle_alpha   61.13831172
_cell_angle_beta   61.13831678
_cell_angle_gamma   61.13830246
_symmetry_Int_Tables_number   1
_chemical_formula_structural   Ag6PbCO11
_chemical_formula_sum   'Ag6 Pb1 C1 O11'
_cell_volume   259.93212163
_cell_formula_units_Z   1
loop_
 _symmetry_equiv_pos_site_id
 _symmetry_equiv_pos_as_xyz
  1  'x, y, z'
loop_
 _atom_site_type_symbol
 _atom_site_label
 _atom_site_symmetry_multiplicity
 _atom_site_fract_x
 _atom_site_fract_y
 _atom_site_fract_z
 _atom_site_occupancy
  Ag  Ag0  1  0.499452  0.000443  0.000443  1
  Ag  Ag1  1  0.500236  0.500236  0.001102  1
  Ag  Ag2  1  0.500236  0.001102  0.500236  1
  Ag  Ag3  1  0.000443  0.000443  0.499452  1
  Ag  Ag4  1  0.001102  0.500236  0.500236  1
  Ag  Ag5  1  0.000443  0.499452  0.000443  1
  Pb  Pb6  1  0.999554  0.999554  0.999554  1
  C  C7  1  0.499773  0.499773  0.499773  1
  O  O8  1  0.580770  0.144446  0.144446  1
  O  O9  1  0.144446  0.580770  0.144446  1
  O  O10  1  0.136586  0.136586  0.136586  1
  O  O11  1  0.144446  0.144446  0.580770  1
  O  O12  1  0.602872  0.602872  0.293399  1
  O  O13  1  0.602872  0.293399  0.602872  1
  O  O14  1  0.293399  0.602872  0.602872  1
  O  O15  1  0.857085  0.857085  0.415226  1
  O  O16  1  0.857085  0.415226  0.857085  1
  O  O17  1  0.863974  0.863974  0.863974  1
  O  O18  1  0.415226  0.857085  0.857085  1
