# generated using pymatgen
data_Ho2Tm2Si4Ru3Rh
_symmetry_space_group_name_H-M   'P 1'
_cell_length_a   4.29474100
_cell_length_b   6.91834111
_cell_length_c   7.14430882
_cell_angle_alpha   89.88487533
_cell_angle_beta   90.00000000
_cell_angle_gamma   90.00000000
_symmetry_Int_Tables_number   1
_chemical_formula_structural   Ho2Tm2Si4Ru3Rh
_chemical_formula_sum   'Ho2 Tm2 Si4 Ru3 Rh1'
_cell_volume   212.27472739
_cell_formula_units_Z   1
loop_
 _symmetry_equiv_pos_site_id
 _symmetry_equiv_pos_as_xyz
  1  'x, y, z'
loop_
 _atom_site_type_symbol
 _atom_site_label
 _atom_site_symmetry_multiplicity
 _atom_site_fract_x
 _atom_site_fract_y
 _atom_site_fract_z
 _atom_site_occupancy
  Ho  Ho0  1  0.250000  0.988993  0.813762  1
  Ho  Ho1  1  0.250000  0.489520  0.686764  1
  Tm  Tm2  1  0.750000  0.013505  0.188924  1
  Tm  Tm3  1  0.750000  0.508089  0.311216  1
  Si  Si4  1  0.250000  0.301897  0.107358  1
  Si  Si5  1  0.750000  0.698971  0.899270  1
  Si  Si6  1  0.250000  0.801378  0.386061  1
  Si  Si7  1  0.750000  0.200272  0.606239  1
  Ru  Ru8  1  0.250000  0.152684  0.433666  1
  Ru  Ru9  1  0.750000  0.345198  0.934789  1
  Ru  Ru10  1  0.250000  0.654606  0.067272  1
  Rh  Rh11  1  0.750000  0.844890  0.564680  1
