# generated using pymatgen
data_Dy11In(Hg2Pt)4
_symmetry_space_group_name_H-M   'P 1'
_cell_length_a   3.71180400
_cell_length_b   13.07029288
_cell_length_c   13.07029303
_cell_angle_alpha   112.23147864
_cell_angle_beta   90.00000000
_cell_angle_gamma   90.00000000
_symmetry_Int_Tables_number   1
_chemical_formula_structural   Dy11In(Hg2Pt)4
_chemical_formula_sum   'Dy11 In1 Hg8 Pt4'
_cell_volume   586.96001490
_cell_formula_units_Z   1
loop_
 _symmetry_equiv_pos_site_id
 _symmetry_equiv_pos_as_xyz
  1  'x, y, z'
loop_
 _atom_site_type_symbol
 _atom_site_label
 _atom_site_symmetry_multiplicity
 _atom_site_fract_x
 _atom_site_fract_y
 _atom_site_fract_z
 _atom_site_occupancy
  Dy  Dy0  1  0.000000  0.922346  0.584690  1
  Dy  Dy1  1  0.000000  0.077654  0.415310  1
  Dy  Dy2  1  0.000000  0.584690  0.922346  1
  Dy  Dy3  1  0.000000  0.415310  0.077654  1
  Dy  Dy4  1  0.000000  0.166242  0.833758  1
  Dy  Dy5  1  0.000000  0.833758  0.166242  1
  Dy  Dy6  1  0.000000  0.371916  0.628084  1
  Dy  Dy7  1  0.000000  0.628084  0.371916  1
  Dy  Dy8  1  0.000000  0.697952  0.697952  1
  Dy  Dy9  1  0.000000  0.302048  0.302048  1
  Dy  Dy10  1  0.000000  0.000000  0.000000  1
  In  In11  1  0.500000  0.500000  0.500000  1
  Hg  Hg12  1  0.500000  0.152282  0.633066  1
  Hg  Hg13  1  0.500000  0.847718  0.366934  1
  Hg  Hg14  1  0.500000  0.633066  0.152282  1
  Hg  Hg15  1  0.500000  0.366934  0.847718  1
  Hg  Hg16  1  0.500000  0.937851  0.788477  1
  Hg  Hg17  1  0.500000  0.062149  0.211523  1
  Hg  Hg18  1  0.500000  0.788477  0.937851  1
  Hg  Hg19  1  0.500000  0.211523  0.062149  1
  Pt  Pt20  1  0.500000  0.748827  0.550978  1
  Pt  Pt21  1  0.500000  0.251173  0.449022  1
  Pt  Pt22  1  0.500000  0.550978  0.748827  1
  Pt  Pt23  1  0.500000  0.449022  0.251173  1
