# generated using pymatgen
data_Zr10TiSnBi4
_symmetry_space_group_name_H-M   'P 1'
_cell_length_a   5.71410678
_cell_length_b   8.56878986
_cell_length_c   8.56878973
_cell_angle_alpha   96.38291411
_cell_angle_beta   109.47682237
_cell_angle_gamma   70.52317237
_symmetry_Int_Tables_number   1
_chemical_formula_structural   Zr10TiSnBi4
_chemical_formula_sum   'Zr10 Ti1 Sn1 Bi4'
_cell_volume   372.91063102
_cell_formula_units_Z   1
loop_
 _symmetry_equiv_pos_site_id
 _symmetry_equiv_pos_as_xyz
  1  'x, y, z'
loop_
 _atom_site_type_symbol
 _atom_site_label
 _atom_site_symmetry_multiplicity
 _atom_site_fract_x
 _atom_site_fract_y
 _atom_site_fract_z
 _atom_site_occupancy
  Zr  Zr0  1  0.438350  0.859168  0.709073  1
  Zr  Zr1  1  0.588446  0.140832  0.290927  1
  Zr  Zr2  1  0.911554  0.290927  0.140832  1
  Zr  Zr3  1  0.061650  0.709073  0.859168  1
  Zr  Zr4  1  0.729276  0.709073  0.140832  1
  Zr  Zr5  1  0.297518  0.290927  0.859168  1
  Zr  Zr6  1  0.770724  0.140832  0.709073  1
  Zr  Zr7  1  0.202482  0.859168  0.290927  1
  Zr  Zr8  1  0.250000  0.500000  0.500000  1
  Zr  Zr9  1  0.750000  0.500000  0.500000  1
  Ti  Ti10  1  0.750000  0.000000  0.000000  1
  Sn  Sn11  1  0.250000  0.000000  0.000000  1
  Bi  Bi12  1  0.335641  0.500000  0.171283  1
  Bi  Bi13  1  0.664359  0.500000  0.828717  1
  Bi  Bi14  1  0.835641  0.828717  0.500000  1
  Bi  Bi15  1  0.164359  0.171283  0.500000  1
