# generated using pymatgen
data_CaY6NiBr12
_symmetry_space_group_name_H-M   'P 1'
_cell_length_a   9.20963996
_cell_length_b   9.20963961
_cell_length_c   9.20963898
_cell_angle_alpha   106.53923570
_cell_angle_beta   106.53923399
_cell_angle_gamma   106.53922650
_symmetry_Int_Tables_number   1
_chemical_formula_structural   CaY6NiBr12
_chemical_formula_sum   'Ca1 Y6 Ni1 Br12'
_cell_volume   658.54511375
_cell_formula_units_Z   1
loop_
 _symmetry_equiv_pos_site_id
 _symmetry_equiv_pos_as_xyz
  1  'x, y, z'
loop_
 _atom_site_type_symbol
 _atom_site_label
 _atom_site_symmetry_multiplicity
 _atom_site_fract_x
 _atom_site_fract_y
 _atom_site_fract_z
 _atom_site_occupancy
  Ca  Ca0  1  0.500000  0.500000  0.500000  1
  Y  Y1  1  0.100265  0.023220  0.307047  1
  Y  Y2  1  0.023220  0.307047  0.100265  1
  Y  Y3  1  0.307047  0.100265  0.023220  1
  Y  Y4  1  0.899734  0.976780  0.692953  1
  Y  Y5  1  0.976780  0.692953  0.899734  1
  Y  Y6  1  0.692953  0.899734  0.976780  1
  Ni  Ni7  1  0.000000  0.000000  0.000000  1
  Br  Br8  1  0.073933  0.677308  0.220254  1
  Br  Br9  1  0.677308  0.220254  0.073933  1
  Br  Br10  1  0.220254  0.073933  0.677308  1
  Br  Br11  1  0.926067  0.322692  0.779746  1
  Br  Br12  1  0.322692  0.779746  0.926067  1
  Br  Br13  1  0.779746  0.926067  0.322692  1
  Br  Br14  1  0.451893  0.153417  0.375077  1
  Br  Br15  1  0.153417  0.375077  0.451893  1
  Br  Br16  1  0.375077  0.451893  0.153417  1
  Br  Br17  1  0.548107  0.846583  0.624923  1
  Br  Br18  1  0.846583  0.624923  0.548107  1
  Br  Br19  1  0.624923  0.548107  0.846583  1
