# generated using pymatgen
data_Ho12ZnNi4Pb
_symmetry_space_group_name_H-M   'P 1'
_cell_length_a   8.34106935
_cell_length_b   8.34122266
_cell_length_c   8.34106857
_cell_angle_alpha   113.04969287
_cell_angle_beta   109.50091681
_cell_angle_gamma   105.94036348
_symmetry_Int_Tables_number   1
_chemical_formula_structural   Ho12ZnNi4Pb
_chemical_formula_sum   'Ho12 Zn1 Ni4 Pb1'
_cell_volume   445.02142037
_cell_formula_units_Z   1
loop_
 _symmetry_equiv_pos_site_id
 _symmetry_equiv_pos_as_xyz
  1  'x, y, z'
loop_
 _atom_site_type_symbol
 _atom_site_label
 _atom_site_symmetry_multiplicity
 _atom_site_fract_x
 _atom_site_fract_y
 _atom_site_fract_z
 _atom_site_occupancy
  Ho  Ho0  1  0.424178  0.226301  0.197881  1
  Ho  Ho1  1  0.575822  0.773699  0.802119  1
  Ho  Ho2  1  0.028420  0.226301  0.802124  1
  Ho  Ho3  1  0.971580  0.773699  0.197876  1
  Ho  Ho4  1  0.179988  0.289476  0.469465  1
  Ho  Ho5  1  0.820012  0.710524  0.530535  1
  Ho  Ho6  1  0.179989  0.710524  0.890512  1
  Ho  Ho7  1  0.820011  0.289476  0.109488  1
  Ho  Ho8  1  0.322942  0.632986  0.310044  1
  Ho  Ho9  1  0.677058  0.367014  0.689956  1
  Ho  Ho10  1  0.322922  0.012867  0.689944  1
  Ho  Ho11  1  0.677078  0.987133  0.310056  1
  Zn  Zn12  1  0.000000  0.000000  0.000000  1
  Ni  Ni13  1  0.350535  0.000000  0.350535  1
  Ni  Ni14  1  0.649465  0.000000  0.649465  1
  Ni  Ni15  1  0.123455  0.623422  0.499967  1
  Ni  Ni16  1  0.876545  0.376578  0.500033  1
  Pb  Pb17  1  0.500000  0.500000  0.000000  1
