# generated using pymatgen
data_Sc4Mn6SiOs
_symmetry_space_group_name_H-M   'P 1'
_cell_length_a   4.88781200
_cell_length_b   4.88781255
_cell_length_c   8.30832000
_cell_angle_alpha   90.00000000
_cell_angle_beta   90.00000000
_cell_angle_gamma   119.99999625
_symmetry_Int_Tables_number   1
_chemical_formula_structural   Sc4Mn6SiOs
_chemical_formula_sum   'Sc4 Mn6 Si1 Os1'
_cell_volume   171.89882144
_cell_formula_units_Z   1
loop_
 _symmetry_equiv_pos_site_id
 _symmetry_equiv_pos_as_xyz
  1  'x, y, z'
loop_
 _atom_site_type_symbol
 _atom_site_label
 _atom_site_symmetry_multiplicity
 _atom_site_fract_x
 _atom_site_fract_y
 _atom_site_fract_z
 _atom_site_occupancy
  Sc  Sc0  1  0.333333  0.666667  0.566252  1
  Sc  Sc1  1  0.666667  0.333333  0.433748  1
  Sc  Sc2  1  0.666667  0.333333  0.065600  1
  Sc  Sc3  1  0.333333  0.666667  0.934400  1
  Mn  Mn4  1  0.173037  0.346073  0.254149  1
  Mn  Mn5  1  0.826963  0.653927  0.745851  1
  Mn  Mn6  1  0.653927  0.826963  0.254149  1
  Mn  Mn7  1  0.346073  0.173037  0.745851  1
  Mn  Mn8  1  0.173037  0.826963  0.254149  1
  Mn  Mn9  1  0.826963  0.173037  0.745851  1
  Si  Si10  1  0.000000  0.000000  0.500000  1
  Os  Os11  1  0.000000  0.000000  0.000000  1
