# generated using pymatgen
data_CaY(Al5Os)4
_symmetry_space_group_name_H-M   'P 1'
_cell_length_a   6.89029761
_cell_length_b   6.89029784
_cell_length_c   9.18177300
_cell_angle_alpha   90.00000000
_cell_angle_beta   90.00000000
_cell_angle_gamma   96.46864357
_symmetry_Int_Tables_number   1
_chemical_formula_structural   CaY(Al5Os)4
_chemical_formula_sum   'Ca1 Y1 Al20 Os4'
_cell_volume   433.14052892
_cell_formula_units_Z   1
loop_
 _symmetry_equiv_pos_site_id
 _symmetry_equiv_pos_as_xyz
  1  'x, y, z'
loop_
 _atom_site_type_symbol
 _atom_site_label
 _atom_site_symmetry_multiplicity
 _atom_site_fract_x
 _atom_site_fract_y
 _atom_site_fract_z
 _atom_site_occupancy
  Ca  Ca0  1  0.872429  0.127571  0.750000  1
  Y  Y1  1  0.127909  0.872091  0.250000  1
  Al  Al2  1  0.523105  0.783516  0.750000  1
  Al  Al3  1  0.782042  0.520260  0.250000  1
  Al  Al4  1  0.479740  0.217958  0.250000  1
  Al  Al5  1  0.216484  0.476895  0.750000  1
  Al  Al6  1  0.623668  0.376332  0.960043  1
  Al  Al7  1  0.376523  0.623477  0.048364  1
  Al  Al8  1  0.623668  0.376332  0.539957  1
  Al  Al9  1  0.376523  0.623477  0.451636  1
  Al  Al10  1  0.413092  0.145045  0.750000  1
  Al  Al11  1  0.145501  0.417211  0.250000  1
  Al  Al12  1  0.582789  0.854499  0.250000  1
  Al  Al13  1  0.854955  0.586908  0.750000  1
  Al  Al14  1  0.846157  0.153843  0.399751  1
  Al  Al15  1  0.158150  0.841850  0.600637  1
  Al  Al16  1  0.846157  0.153843  0.100249  1
  Al  Al17  1  0.158150  0.841850  0.899363  1
  Al  Al18  1  0.775024  0.776332  0.001146  1
  Al  Al19  1  0.775024  0.776332  0.498854  1
  Al  Al20  1  0.223668  0.224976  0.001146  1
  Al  Al21  1  0.223668  0.224976  0.498854  1
  Os  Os22  1  0.498224  0.000438  0.000583  1
  Os  Os23  1  0.999562  0.501776  0.000583  1
  Os  Os24  1  0.498224  0.000438  0.499417  1
  Os  Os25  1  0.999562  0.501776  0.499417  1
