# generated using pymatgen
data_Ta6Al4CuRuC2
_symmetry_space_group_name_H-M   'P 1'
_cell_length_a   8.29646279
_cell_length_b   8.29646308
_cell_length_c   8.26263600
_cell_angle_alpha   60.13477627
_cell_angle_beta   60.13477512
_cell_angle_gamma   60.33035092
_symmetry_Int_Tables_number   1
_chemical_formula_structural   Ta6Al4CuRuC2
_chemical_formula_sum   'Ta12 Al8 Cu2 Ru2 C4'
_cell_volume   403.96921628
_cell_formula_units_Z   2
loop_
 _symmetry_equiv_pos_site_id
 _symmetry_equiv_pos_as_xyz
  1  'x, y, z'
loop_
 _atom_site_type_symbol
 _atom_site_label
 _atom_site_symmetry_multiplicity
 _atom_site_fract_x
 _atom_site_fract_y
 _atom_site_fract_z
 _atom_site_occupancy
  Ta  Ta0  1  0.569919  0.934174  0.559180  1
  Ta  Ta1  1  0.315826  0.680081  0.690820  1
  Ta  Ta2  1  0.680081  0.315826  0.313272  1
  Ta  Ta3  1  0.315826  0.680081  0.313272  1
  Ta  Ta4  1  0.686910  0.686910  0.313090  1
  Ta  Ta5  1  0.317578  0.317578  0.682422  1
  Ta  Ta6  1  0.563090  0.563090  0.936910  1
  Ta  Ta7  1  0.934174  0.569919  0.559180  1
  Ta  Ta8  1  0.569919  0.934174  0.936728  1
  Ta  Ta9  1  0.932422  0.932422  0.567578  1
  Ta  Ta10  1  0.680081  0.315826  0.690820  1
  Ta  Ta11  1  0.934174  0.569919  0.936728  1
  Al  Al12  1  0.918670  0.918670  0.916428  1
  Al  Al13  1  0.996690  0.332506  0.335401  1
  Al  Al14  1  0.332506  0.996690  0.335401  1
  Al  Al15  1  0.331330  0.331330  0.003768  1
  Al  Al16  1  0.917494  0.253310  0.914599  1
  Al  Al17  1  0.918670  0.918670  0.246232  1
  Al  Al18  1  0.253310  0.917494  0.914599  1
  Al  Al19  1  0.331330  0.331330  0.333572  1
  Cu  Cu20  1  0.125000  0.125000  0.125000  1
  Cu  Cu21  1  0.125000  0.125000  0.625000  1
  Ru  Ru22  1  0.625000  0.125000  0.125000  1
  Ru  Ru23  1  0.125000  0.625000  0.125000  1
  C  C24  1  0.625000  0.625000  0.625000  1
  C  C25  1  0.125000  0.625000  0.625000  1
  C  C26  1  0.625000  0.125000  0.625000  1
  C  C27  1  0.625000  0.625000  0.125000  1
