# generated using pymatgen
data_Tb2Re2TcB6
_symmetry_space_group_name_H-M   'P 1'
_cell_length_a   6.22035079
_cell_length_b   6.22035046
_cell_length_c   7.52811068
_cell_angle_alpha   89.34426911
_cell_angle_beta   89.34426238
_cell_angle_gamma   113.74767434
_symmetry_Int_Tables_number   1
_chemical_formula_structural   Tb2Re2TcB6
_chemical_formula_sum   'Tb4 Re4 Tc2 B12'
_cell_volume   266.56132377
_cell_formula_units_Z   2
loop_
 _symmetry_equiv_pos_site_id
 _symmetry_equiv_pos_as_xyz
  1  'x, y, z'
loop_
 _atom_site_type_symbol
 _atom_site_label
 _atom_site_symmetry_multiplicity
 _atom_site_fract_x
 _atom_site_fract_y
 _atom_site_fract_z
 _atom_site_occupancy
  Tb  Tb0  1  0.899857  0.556622  0.323004  1
  Tb  Tb1  1  0.443378  0.100143  0.176996  1
  Tb  Tb2  1  0.100143  0.443378  0.676996  1
  Tb  Tb3  1  0.556622  0.899857  0.823004  1
  Re  Re4  1  0.009557  0.193659  0.088753  1
  Re  Re5  1  0.806341  0.990443  0.411247  1
  Re  Re6  1  0.990443  0.806341  0.911247  1
  Re  Re7  1  0.193659  0.009557  0.588753  1
  Tc  Tc8  1  0.412345  0.587655  0.250000  1
  Tc  Tc9  1  0.587655  0.412345  0.750000  1
  B  B10  1  0.752411  0.846865  0.130657  1
  B  B11  1  0.153135  0.247589  0.369343  1
  B  B12  1  0.247589  0.153135  0.869343  1
  B  B13  1  0.846865  0.752411  0.630657  1
  B  B14  1  0.414302  0.841424  0.481564  1
  B  B15  1  0.158576  0.585698  0.018436  1
  B  B16  1  0.585698  0.158576  0.518436  1
  B  B17  1  0.841424  0.414302  0.981564  1
  B  B18  1  0.557152  0.649678  0.534582  1
  B  B19  1  0.350322  0.442848  0.965418  1
  B  B20  1  0.442848  0.350322  0.465418  1
  B  B21  1  0.649678  0.557152  0.034582  1
