# generated using pymatgen
data_Cs4Cu(PS4)2
_symmetry_space_group_name_H-M   'P 1'
_cell_length_a   13.43893000
_cell_length_b   7.43647897
_cell_length_c   9.80305238
_cell_angle_alpha   84.87526870
_cell_angle_beta   90.00000000
_cell_angle_gamma   90.00000000
_symmetry_Int_Tables_number   1
_chemical_formula_structural   Cs4Cu(PS4)2
_chemical_formula_sum   'Cs8 Cu2 P4 S16'
_cell_volume   975.78433610
_cell_formula_units_Z   2
loop_
 _symmetry_equiv_pos_site_id
 _symmetry_equiv_pos_as_xyz
  1  'x, y, z'
loop_
 _atom_site_type_symbol
 _atom_site_label
 _atom_site_symmetry_multiplicity
 _atom_site_fract_x
 _atom_site_fract_y
 _atom_site_fract_z
 _atom_site_occupancy
  Cs  Cs0  1  0.133689  0.821617  0.682496  1
  Cs  Cs1  1  0.633689  0.178383  0.817504  1
  Cs  Cs2  1  0.866311  0.178383  0.317504  1
  Cs  Cs3  1  0.366311  0.821617  0.182496  1
  Cs  Cs4  1  0.344980  0.276701  0.534166  1
  Cs  Cs5  1  0.844980  0.723299  0.965834  1
  Cs  Cs6  1  0.655020  0.723299  0.465834  1
  Cs  Cs7  1  0.155020  0.276701  0.034166  1
  Cu  Cu8  1  0.000000  0.500000  0.500000  1
  Cu  Cu9  1  0.500000  0.500000  0.000000  1
  P  P10  1  0.421673  0.757612  0.762135  1
  P  P11  1  0.921673  0.242388  0.737865  1
  P  P12  1  0.578327  0.242388  0.237865  1
  P  P13  1  0.078327  0.757612  0.262135  1
  S  S14  1  0.068653  0.305249  0.677121  1
  S  S15  1  0.568653  0.694751  0.822879  1
  S  S16  1  0.931347  0.694751  0.322879  1
  S  S17  1  0.431347  0.305249  0.177121  1
  S  S18  1  0.397553  0.759352  0.558652  1
  S  S19  1  0.897553  0.240648  0.941348  1
  S  S20  1  0.602447  0.240648  0.441348  1
  S  S21  1  0.102447  0.759352  0.058652  1
  S  S22  1  0.143773  0.532349  0.370653  1
  S  S23  1  0.643773  0.467651  0.129347  1
  S  S24  1  0.856227  0.467651  0.629347  1
  S  S25  1  0.356227  0.532349  0.870653  1
  S  S26  1  0.376619  0.991090  0.833866  1
  S  S27  1  0.876619  0.008910  0.666134  1
  S  S28  1  0.623381  0.008910  0.166134  1
  S  S29  1  0.123381  0.991090  0.333866  1
