# generated using pymatgen
data_Th14Tc3PdPt2
_symmetry_space_group_name_H-M   'P 1'
_cell_length_a   10.04874400
_cell_length_b   10.04583317
_cell_length_c   6.35997997
_cell_angle_alpha   90.07820847
_cell_angle_beta   90.00000000
_cell_angle_gamma   120.00959205
_symmetry_Int_Tables_number   1
_chemical_formula_structural   Th14Tc3PdPt2
_chemical_formula_sum   'Th14 Tc3 Pd1 Pt2'
_cell_volume   555.95750724
_cell_formula_units_Z   1
loop_
 _symmetry_equiv_pos_site_id
 _symmetry_equiv_pos_as_xyz
  1  'x, y, z'
loop_
 _atom_site_type_symbol
 _atom_site_label
 _atom_site_symmetry_multiplicity
 _atom_site_fract_x
 _atom_site_fract_y
 _atom_site_fract_z
 _atom_site_occupancy
  Th  Th0  1  0.666062  0.332123  0.599534  1
  Th  Th1  1  0.333345  0.666691  0.030510  1
  Th  Th2  1  0.876933  0.753865  0.756274  1
  Th  Th3  1  0.247075  0.123515  0.754940  1
  Th  Th4  1  0.876441  0.123515  0.754940  1
  Th  Th5  1  0.127991  0.255982  0.247325  1
  Th  Th6  1  0.743599  0.872806  0.246632  1
  Th  Th7  1  0.129206  0.872806  0.246632  1
  Th  Th8  1  0.456771  0.913543  0.543603  1
  Th  Th9  1  0.086884  0.543035  0.543666  1
  Th  Th10  1  0.456149  0.543035  0.543666  1
  Th  Th11  1  0.537206  0.074410  0.034273  1
  Th  Th12  1  0.926365  0.462463  0.032782  1
  Th  Th13  1  0.536099  0.462463  0.032782  1
  Tc  Tc14  1  0.182577  0.365153  0.798631  1
  Tc  Tc15  1  0.635560  0.817374  0.798785  1
  Tc  Tc16  1  0.181814  0.817374  0.798785  1
  Pd  Pd17  1  0.809199  0.618398  0.308124  1
  Pt  Pt18  1  0.381301  0.190725  0.308106  1
  Pt  Pt19  1  0.809423  0.190725  0.308106  1
