# generated using pymatgen
data_Tb19Y(Cd3Ru)2
_symmetry_space_group_name_H-M   'P 1'
_cell_length_a   9.64892800
_cell_length_b   9.64856937
_cell_length_c   9.89832400
_cell_angle_alpha   90.00000000
_cell_angle_beta   90.00000000
_cell_angle_gamma   119.99877299
_symmetry_Int_Tables_number   1
_chemical_formula_structural   Tb19Y(Cd3Ru)2
_chemical_formula_sum   'Tb19 Y1 Cd6 Ru2'
_cell_volume   798.06755649
_cell_formula_units_Z   1
loop_
 _symmetry_equiv_pos_site_id
 _symmetry_equiv_pos_as_xyz
  1  'x, y, z'
loop_
 _atom_site_type_symbol
 _atom_site_label
 _atom_site_symmetry_multiplicity
 _atom_site_fract_x
 _atom_site_fract_y
 _atom_site_fract_z
 _atom_site_occupancy
  Tb  Tb0  1  0.999979  0.999989  0.500023  1
  Tb  Tb1  1  0.999979  0.999989  0.999977  1
  Tb  Tb2  1  0.209848  0.790186  0.439813  1
  Tb  Tb3  1  0.209848  0.419663  0.439813  1
  Tb  Tb4  1  0.580294  0.790148  0.439858  1
  Tb  Tb5  1  0.790153  0.209820  0.560166  1
  Tb  Tb6  1  0.790153  0.580332  0.560166  1
  Tb  Tb7  1  0.419680  0.209840  0.560189  1
  Tb  Tb8  1  0.790153  0.209820  0.939834  1
  Tb  Tb9  1  0.790153  0.580332  0.939834  1
  Tb  Tb10  1  0.419680  0.209840  0.939811  1
  Tb  Tb11  1  0.209848  0.790186  0.060187  1
  Tb  Tb12  1  0.209848  0.419663  0.060187  1
  Tb  Tb13  1  0.580294  0.790148  0.060142  1
  Tb  Tb14  1  0.541311  0.458677  0.250000  1
  Tb  Tb15  1  0.541311  0.082633  0.250000  1
  Tb  Tb16  1  0.917347  0.458673  0.250000  1
  Tb  Tb17  1  0.458676  0.541297  0.750000  1
  Tb  Tb18  1  0.458676  0.917379  0.750000  1
  Y  Y19  1  0.082670  0.541335  0.750000  1
  Cd  Cd20  1  0.885469  0.114616  0.250000  1
  Cd  Cd21  1  0.885469  0.770854  0.250000  1
  Cd  Cd22  1  0.229157  0.114579  0.250000  1
  Cd  Cd23  1  0.114579  0.885386  0.750000  1
  Cd  Cd24  1  0.114579  0.229193  0.750000  1
  Cd  Cd25  1  0.770843  0.885421  0.750000  1
  Ru  Ru26  1  0.333353  0.666677  0.250000  1
  Ru  Ru27  1  0.666651  0.333325  0.750000  1
