# generated using pymatgen
data_Mn4Ni2P3
_symmetry_space_group_name_H-M   'P 1'
_cell_length_a   3.38169300
_cell_length_b   5.97884096
_cell_length_c   5.98668103
_cell_angle_alpha   120.05993181
_cell_angle_beta   90.00000000
_cell_angle_gamma   90.00000000
_symmetry_Int_Tables_number   1
_chemical_formula_structural   Mn4Ni2P3
_chemical_formula_sum   'Mn4 Ni2 P3'
_cell_volume   104.76237574
_cell_formula_units_Z   1
loop_
 _symmetry_equiv_pos_site_id
 _symmetry_equiv_pos_as_xyz
  1  'x, y, z'
loop_
 _atom_site_type_symbol
 _atom_site_label
 _atom_site_symmetry_multiplicity
 _atom_site_fract_x
 _atom_site_fract_y
 _atom_site_fract_z
 _atom_site_occupancy
  Mn  Mn0  1  0.000000  0.999932  0.256103  1
  Mn  Mn1  1  0.500000  0.594991  0.997702  1
  Mn  Mn2  1  0.500000  0.405124  0.402994  1
  Mn  Mn3  1  0.500000  0.999850  0.598622  1
  Ni  Ni4  1  0.000000  0.258724  0.001137  1
  Ni  Ni5  1  0.000000  0.741249  0.742358  1
  P  P6  1  0.500000  0.000044  0.999880  1
  P  P7  1  0.000000  0.332082  0.666696  1
  P  P8  1  0.000000  0.667905  0.334508  1
