# generated using pymatgen
data_PrMnRuO5
_symmetry_space_group_name_H-M   'P 1'
_cell_length_a   5.71282400
_cell_length_b   7.89374800
_cell_length_c   8.98064000
_cell_angle_alpha   90.00000000
_cell_angle_beta   90.00000000
_cell_angle_gamma   90.00000000
_symmetry_Int_Tables_number   1
_chemical_formula_structural   PrMnRuO5
_chemical_formula_sum   'Pr4 Mn4 Ru4 O20'
_cell_volume   404.98728654
_cell_formula_units_Z   4
loop_
 _symmetry_equiv_pos_site_id
 _symmetry_equiv_pos_as_xyz
  1  'x, y, z'
loop_
 _atom_site_type_symbol
 _atom_site_label
 _atom_site_symmetry_multiplicity
 _atom_site_fract_x
 _atom_site_fract_y
 _atom_site_fract_z
 _atom_site_occupancy
  Pr  Pr0  1  0.000000  0.354630  0.673394  1
  Pr  Pr1  1  0.000000  0.645370  0.326606  1
  Pr  Pr2  1  0.000000  0.854630  0.826606  1
  Pr  Pr3  1  0.000000  0.145370  0.173394  1
  Mn  Mn4  1  0.500000  0.081861  0.853806  1
  Mn  Mn5  1  0.500000  0.918139  0.146194  1
  Mn  Mn6  1  0.500000  0.581861  0.646194  1
  Mn  Mn7  1  0.500000  0.418139  0.353806  1
  Ru  Ru8  1  0.279449  0.500000  0.000000  1
  Ru  Ru9  1  0.720551  0.000000  0.500000  1
  Ru  Ru10  1  0.720551  0.500000  0.000000  1
  Ru  Ru11  1  0.279449  0.000000  0.500000  1
  O  O12  1  0.250920  0.903886  0.288819  1
  O  O13  1  0.250920  0.096114  0.711181  1
  O  O14  1  0.749080  0.403886  0.211181  1
  O  O15  1  0.749080  0.596114  0.788819  1
  O  O16  1  0.749080  0.096114  0.711181  1
  O  O17  1  0.749080  0.903886  0.288819  1
  O  O18  1  0.250920  0.596114  0.788819  1
  O  O19  1  0.250920  0.403886  0.211181  1
  O  O20  1  0.500000  0.328926  0.927536  1
  O  O21  1  0.500000  0.671074  0.072464  1
  O  O22  1  0.500000  0.828926  0.572464  1
  O  O23  1  0.500000  0.171074  0.427536  1
  O  O24  1  0.267799  0.000000  0.000000  1
  O  O25  1  0.732201  0.500000  0.500000  1
  O  O26  1  0.732201  0.000000  0.000000  1
  O  O27  1  0.267799  0.500000  0.500000  1
  O  O28  1  0.000000  0.153228  0.448635  1
  O  O29  1  0.000000  0.846772  0.551365  1
  O  O30  1  0.000000  0.653228  0.051365  1
  O  O31  1  0.000000  0.346772  0.948635  1
