# generated using pymatgen
data_TbYbEr6(B6Os)4
_symmetry_space_group_name_H-M   'P 1'
_cell_length_a   3.63571600
_cell_length_b   9.11579593
_cell_length_c   11.50038146
_cell_angle_alpha   89.92462672
_cell_angle_beta   90.00000000
_cell_angle_gamma   90.00000000
_symmetry_Int_Tables_number   1
_chemical_formula_structural   TbYbEr6(B6Os)4
_chemical_formula_sum   'Tb1 Yb1 Er6 B24 Os4'
_cell_volume   381.15043128
_cell_formula_units_Z   1
loop_
 _symmetry_equiv_pos_site_id
 _symmetry_equiv_pos_as_xyz
  1  'x, y, z'
loop_
 _atom_site_type_symbol
 _atom_site_label
 _atom_site_symmetry_multiplicity
 _atom_site_fract_x
 _atom_site_fract_y
 _atom_site_fract_z
 _atom_site_occupancy
  Tb  Tb0  1  0.000000  0.323307  0.414787  1
  Yb  Yb1  1  0.000000  0.677471  0.586452  1
  Er  Er2  1  0.000000  0.821129  0.085149  1
  Er  Er3  1  0.000000  0.178198  0.913710  1
  Er  Er4  1  0.000000  0.942114  0.372334  1
  Er  Er5  1  0.000000  0.055867  0.628549  1
  Er  Er6  1  0.000000  0.443772  0.127149  1
  Er  Er7  1  0.000000  0.557104  0.871396  1
  B  B8  1  0.500000  0.554580  0.432658  1
  B  B9  1  0.500000  0.446445  0.567961  1
  B  B10  1  0.500000  0.053719  0.066751  1
  B  B11  1  0.500000  0.946871  0.933743  1
  B  B12  1  0.500000  0.748509  0.418805  1
  B  B13  1  0.500000  0.251267  0.581667  1
  B  B14  1  0.500000  0.248472  0.080092  1
  B  B15  1  0.500000  0.752146  0.919494  1
  B  B16  1  0.500000  0.790722  0.265170  1
  B  B17  1  0.500000  0.208401  0.734744  1
  B  B18  1  0.500000  0.290442  0.233265  1
  B  B19  1  0.500000  0.709976  0.766283  1
  B  B20  1  0.500000  0.631331  0.184314  1
  B  B21  1  0.500000  0.368594  0.814747  1
  B  B22  1  0.500000  0.130480  0.314399  1
  B  B23  1  0.500000  0.869144  0.686010  1
  B  B24  1  0.500000  0.982255  0.212348  1
  B  B25  1  0.500000  0.017447  0.788300  1
  B  B26  1  0.500000  0.483532  0.286734  1
  B  B27  1  0.500000  0.517029  0.712792  1
  B  B28  1  0.500000  0.606684  0.029096  1
  B  B29  1  0.500000  0.393264  0.970286  1
  B  B30  1  0.500000  0.103248  0.471446  1
  B  B31  1  0.500000  0.897139  0.528587  1
  Os  Os32  1  0.000000  0.637962  0.319733  1
  Os  Os33  1  0.000000  0.360796  0.680033  1
  Os  Os34  1  0.000000  0.136753  0.178107  1
  Os  Os35  1  0.000000  0.863829  0.822909  1
