# generated using pymatgen
data_TbDyTh2(CdNi2)2
_symmetry_space_group_name_H-M   'P 1'
_cell_length_a   7.53467609
_cell_length_b   7.53467714
_cell_length_c   3.65812100
_cell_angle_alpha   90.00000000
_cell_angle_beta   90.00000000
_cell_angle_gamma   92.94819026
_symmetry_Int_Tables_number   1
_chemical_formula_structural   TbDyTh2(CdNi2)2
_chemical_formula_sum   'Tb1 Dy1 Th2 Cd2 Ni4'
_cell_volume   207.40160398
_cell_formula_units_Z   1
loop_
 _symmetry_equiv_pos_site_id
 _symmetry_equiv_pos_as_xyz
  1  'x, y, z'
loop_
 _atom_site_type_symbol
 _atom_site_label
 _atom_site_symmetry_multiplicity
 _atom_site_fract_x
 _atom_site_fract_y
 _atom_site_fract_z
 _atom_site_occupancy
  Tb  Tb0  1  0.827564  0.672436  0.500000  1
  Dy  Dy1  1  0.172452  0.327548  0.500000  1
  Th  Th2  1  0.675270  0.175336  0.500000  1
  Th  Th3  1  0.324664  0.824730  0.500000  1
  Cd  Cd4  1  0.000086  0.000128  0.000000  1
  Cd  Cd5  1  0.499872  0.499914  0.000000  1
  Ni  Ni6  1  0.122280  0.622063  0.000000  1
  Ni  Ni7  1  0.877937  0.377720  0.000000  1
  Ni  Ni8  1  0.618062  0.881938  0.000000  1
  Ni  Ni9  1  0.381813  0.118187  0.000000  1
