# generated using pymatgen
data_Ba2Ta14NbO32
_symmetry_space_group_name_H-M   'P 1'
_cell_length_a   12.83967072
_cell_length_b   12.83967092
_cell_length_c   12.83967000
_cell_angle_alpha   35.67340431
_cell_angle_beta   35.67340307
_cell_angle_gamma   35.67340173
_symmetry_Int_Tables_number   1
_chemical_formula_structural   Ba2Ta14NbO32
_chemical_formula_sum   'Ba2 Ta14 Nb1 O32'
_cell_volume   643.48845287
_cell_formula_units_Z   1
loop_
 _symmetry_equiv_pos_site_id
 _symmetry_equiv_pos_as_xyz
  1  'x, y, z'
loop_
 _atom_site_type_symbol
 _atom_site_label
 _atom_site_symmetry_multiplicity
 _atom_site_fract_x
 _atom_site_fract_y
 _atom_site_fract_z
 _atom_site_occupancy
  Ba  Ba0  1  0.359839  0.359973  0.360013  1
  Ba  Ba1  1  0.639631  0.639865  0.639485  1
  Ta  Ta2  1  0.275160  0.444801  0.683387  1
  Ta  Ta3  1  0.683068  0.274993  0.445074  1
  Ta  Ta4  1  0.444815  0.682678  0.275822  1
  Ta  Ta5  1  0.859983  0.863627  0.860158  1
  Ta  Ta6  1  0.138721  0.137635  0.139567  1
  Ta  Ta7  1  0.926697  0.805260  0.471281  1
  Ta  Ta8  1  0.471074  0.926475  0.805823  1
  Ta  Ta9  1  0.805428  0.470973  0.927054  1
  Ta  Ta10  1  0.072755  0.195682  0.528257  1
  Ta  Ta11  1  0.528345  0.073868  0.194587  1
  Ta  Ta12  1  0.194771  0.529136  0.071991  1
  Ta  Ta13  1  0.999737  0.999668  0.000000  1
  Ta  Ta14  1  0.316999  0.724119  0.556260  1
  Ta  Ta15  1  0.724729  0.555651  0.316845  1
  Nb  Nb16  1  0.555899  0.316852  0.724445  1
  O  O17  1  0.960079  0.181419  0.763344  1
  O  O18  1  0.763085  0.960345  0.181761  1
  O  O19  1  0.180756  0.763361  0.961023  1
  O  O20  1  0.039785  0.818779  0.236932  1
  O  O21  1  0.236882  0.039602  0.819024  1
  O  O22  1  0.818846  0.236956  0.039663  1
  O  O23  1  0.468125  0.352223  0.057787  1
  O  O24  1  0.059657  0.467304  0.351746  1
  O  O25  1  0.352365  0.057894  0.467822  1
  O  O26  1  0.532228  0.647899  0.941875  1
  O  O27  1  0.941755  0.532258  0.648006  1
  O  O28  1  0.647833  0.941804  0.532399  1
  O  O29  1  0.071623  0.957057  0.658028  1
  O  O30  1  0.662229  0.065890  0.959792  1
  O  O31  1  0.955890  0.658279  0.072434  1
  O  O32  1  0.926979  0.043876  0.341748  1
  O  O33  1  0.341340  0.927331  0.044168  1
  O  O34  1  0.538890  0.802106  0.363883  1
  O  O35  1  0.806635  0.365657  0.533602  1
  O  O36  1  0.359269  0.545167  0.801760  1
  O  O37  1  0.461021  0.197426  0.636745  1
  O  O38  1  0.197089  0.636711  0.461466  1
  O  O39  1  0.636807  0.460942  0.197542  1
  O  O40  1  0.763194  0.069136  0.665161  1
  O  O41  1  0.072537  0.666866  0.760423  1
  O  O42  1  0.667340  0.760169  0.072023  1
  O  O43  1  0.239277  0.928013  0.333278  1
  O  O44  1  0.927379  0.332399  0.240359  1
  O  O45  1  0.329434  0.240269  0.928817  1
  O  O46  1  0.238388  0.237992  0.236713  1
  O  O47  1  0.762209  0.762154  0.762460  1
  O  O48  1  0.043422  0.341457  0.928167  1
