# generated using pymatgen
data_KTlSe2
_symmetry_space_group_name_H-M   'P 1'
_cell_length_a   6.86694241
_cell_length_b   6.86694206
_cell_length_c   6.86694189
_cell_angle_alpha   106.05122991
_cell_angle_beta   106.05123115
_cell_angle_gamma   116.55178291
_symmetry_Int_Tables_number   1
_chemical_formula_structural   KTlSe2
_chemical_formula_sum   'K2 Tl2 Se4'
_cell_volume   246.38012716
_cell_formula_units_Z   2
loop_
 _symmetry_equiv_pos_site_id
 _symmetry_equiv_pos_as_xyz
  1  'x, y, z'
loop_
 _atom_site_type_symbol
 _atom_site_label
 _atom_site_symmetry_multiplicity
 _atom_site_fract_x
 _atom_site_fract_y
 _atom_site_fract_z
 _atom_site_occupancy
  K  K0  1  0.249999  0.249999  0.000000  1
  K  K1  1  0.749999  0.749999  0.000000  1
  Tl  Tl2  1  0.749999  0.249999  0.500000  1
  Tl  Tl3  1  0.249999  0.749999  0.500000  1
  Se  Se4  1  0.324543  0.824543  0.149086  1
  Se  Se5  1  0.175457  0.324543  0.500000  1
  Se  Se6  1  0.824543  0.675457  0.500000  1
  Se  Se7  1  0.675457  0.175457  0.850914  1
