# generated using pymatgen
data_Ce3Pu2(MoN4)3
_symmetry_space_group_name_H-M   'P 1'
_cell_length_a   11.33487229
_cell_length_b   11.33487197
_cell_length_c   11.33487200
_cell_angle_alpha   109.47122248
_cell_angle_beta   109.47122190
_cell_angle_gamma   109.47121996
_symmetry_Int_Tables_number   1
_chemical_formula_structural   Ce3Pu2(MoN4)3
_chemical_formula_sum   'Ce12 Pu8 Mo12 N48'
_cell_volume   1121.05770187
_cell_formula_units_Z   4
loop_
 _symmetry_equiv_pos_site_id
 _symmetry_equiv_pos_as_xyz
  1  'x, y, z'
loop_
 _atom_site_type_symbol
 _atom_site_label
 _atom_site_symmetry_multiplicity
 _atom_site_fract_x
 _atom_site_fract_y
 _atom_site_fract_z
 _atom_site_occupancy
  Ce  Ce0  1  0.250000  0.375001  0.125000  1
  Ce  Ce1  1  0.375000  0.750000  0.125000  1
  Ce  Ce2  1  0.375001  0.125000  0.250000  1
  Ce  Ce3  1  0.875000  0.625000  0.250000  1
  Ce  Ce4  1  0.750000  0.125000  0.375000  1
  Ce  Ce5  1  0.125000  0.250000  0.375001  1
  Ce  Ce6  1  0.875000  0.750000  0.625000  1
  Ce  Ce7  1  0.250000  0.875000  0.625000  1
  Ce  Ce8  1  0.125000  0.375000  0.750000  1
  Ce  Ce9  1  0.625000  0.875000  0.750000  1
  Ce  Ce10  1  0.625000  0.250000  0.875000  1
  Ce  Ce11  1  0.750000  0.625000  0.875000  1
  Pu  Pu12  1  0.000000  0.000000  0.000000  1
  Pu  Pu13  1  0.500001  0.000000  0.000000  1
  Pu  Pu14  1  0.000000  0.500001  0.000000  1
  Pu  Pu15  1  0.500000  0.500000  0.000000  1
  Pu  Pu16  1  0.000000  0.000000  0.500001  1
  Pu  Pu17  1  0.500000  0.000000  0.500000  1
  Pu  Pu18  1  0.000000  0.500000  0.500000  1
  Pu  Pu19  1  0.500001  0.500001  0.500001  1
  Mo  Mo20  1  0.875000  0.250000  0.124999  1
  Mo  Mo21  1  0.750000  0.875000  0.125000  1
  Mo  Mo22  1  0.625000  0.375000  0.250000  1
  Mo  Mo23  1  0.124999  0.875000  0.250000  1
  Mo  Mo24  1  0.250000  0.625000  0.375000  1
  Mo  Mo25  1  0.625000  0.750000  0.375001  1
  Mo  Mo26  1  0.375000  0.250000  0.625000  1
  Mo  Mo27  1  0.750000  0.375001  0.625000  1
  Mo  Mo28  1  0.875000  0.125000  0.750000  1
  Mo  Mo29  1  0.375001  0.625000  0.750000  1
  Mo  Mo30  1  0.250000  0.124999  0.875000  1
  Mo  Mo31  1  0.125000  0.750000  0.875000  1
  N  N32  1  0.216515  0.127709  0.027647  1
  N  N33  1  0.311134  0.899940  0.027648  1
  N  N34  1  0.872291  0.399939  0.088806  1
  N  N35  1  0.716515  0.688867  0.088807  1
  N  N36  1  0.627709  0.411193  0.100060  1
  N  N37  1  0.972353  0.688868  0.100061  1
  N  N38  1  0.027647  0.216515  0.127709  1
  N  N39  1  0.600061  0.911194  0.127709  1
  N  N40  1  0.216516  0.588806  0.188867  1
  N  N41  1  0.472353  0.600060  0.188867  1
  N  N42  1  0.127709  0.027647  0.216515  1
  N  N43  1  0.588806  0.188867  0.216516  1
  N  N44  1  0.472353  0.372290  0.283485  1
  N  N45  1  0.311133  0.911193  0.283485  1
  N  N46  1  0.899940  0.027648  0.311134  1
  N  N47  1  0.911193  0.283485  0.311133  1
  N  N48  1  0.283485  0.472353  0.372290  1
  N  N49  1  0.588806  0.899939  0.372291  1
  N  N50  1  0.811133  0.527647  0.399939  1
  N  N51  1  0.088806  0.872291  0.399939  1
  N  N52  1  0.100060  0.627709  0.411193  1
  N  N53  1  0.811134  0.783485  0.411194  1
  N  N54  1  0.600060  0.188867  0.472353  1
  N  N55  1  0.372290  0.283485  0.472353  1
  N  N56  1  0.627709  0.716516  0.527648  1
  N  N57  1  0.399939  0.811133  0.527647  1
  N  N58  1  0.188867  0.216516  0.588806  1
  N  N59  1  0.899939  0.372291  0.588806  1
  N  N60  1  0.911194  0.127709  0.600061  1
  N  N61  1  0.188867  0.472353  0.600060  1
  N  N62  1  0.411193  0.100060  0.627709  1
  N  N63  1  0.716516  0.527648  0.627709  1
  N  N64  1  0.100061  0.972353  0.688868  1
  N  N65  1  0.088807  0.716515  0.688867  1
  N  N66  1  0.688867  0.088807  0.716515  1
  N  N67  1  0.527648  0.627709  0.716516  1
  N  N68  1  0.411194  0.811134  0.783485  1
  N  N69  1  0.872291  0.972353  0.783485  1
  N  N70  1  0.527647  0.399939  0.811133  1
  N  N71  1  0.783485  0.411194  0.811134  1
  N  N72  1  0.972353  0.783485  0.872291  1
  N  N73  1  0.399939  0.088806  0.872291  1
  N  N74  1  0.027648  0.311134  0.899940  1
  N  N75  1  0.372291  0.588806  0.899939  1
  N  N76  1  0.283485  0.311133  0.911193  1
  N  N77  1  0.127709  0.600061  0.911194  1
  N  N78  1  0.688868  0.100061  0.972353  1
  N  N79  1  0.783485  0.872291  0.972353  1
