# generated using pymatgen
data_NdGa3HgPt
_symmetry_space_group_name_H-M   'P 1'
_cell_length_a   4.42527321
_cell_length_b   6.75124800
_cell_length_c   8.36024175
_cell_angle_alpha   90.00000000
_cell_angle_beta   105.34687188
_cell_angle_gamma   90.00000000
_symmetry_Int_Tables_number   1
_chemical_formula_structural   NdGa3HgPt
_chemical_formula_sum   'Nd2 Ga6 Hg2 Pt2'
_cell_volume   240.86501353
_cell_formula_units_Z   2
loop_
 _symmetry_equiv_pos_site_id
 _symmetry_equiv_pos_as_xyz
  1  'x, y, z'
loop_
 _atom_site_type_symbol
 _atom_site_label
 _atom_site_symmetry_multiplicity
 _atom_site_fract_x
 _atom_site_fract_y
 _atom_site_fract_z
 _atom_site_occupancy
  Nd  Nd0  1  0.874086  0.750000  0.748170  1
  Nd  Nd1  1  0.125914  0.250000  0.251830  1
  Ga  Ga2  1  0.063823  0.750000  0.127647  1
  Ga  Ga3  1  0.936177  0.250000  0.872353  1
  Ga  Ga4  1  0.683281  0.550369  0.366563  1
  Ga  Ga5  1  0.316719  0.449631  0.633437  1
  Ga  Ga6  1  0.683281  0.949631  0.366563  1
  Ga  Ga7  1  0.316719  0.050369  0.633437  1
  Hg  Hg8  1  0.500000  0.500000  0.000000  1
  Hg  Hg9  1  0.500000  0.000000  0.000000  1
  Pt  Pt10  1  0.218222  0.750000  0.436443  1
  Pt  Pt11  1  0.781778  0.250000  0.563557  1
