# generated using pymatgen
data_Tb3Er(HfPt)4
_symmetry_space_group_name_H-M   'P 1'
_cell_length_a   4.65852700
_cell_length_b   7.10685294
_cell_length_c   8.21978500
_cell_angle_alpha   89.91991160
_cell_angle_beta   90.00000000
_cell_angle_gamma   90.00000000
_symmetry_Int_Tables_number   1
_chemical_formula_structural   Tb3Er(HfPt)4
_chemical_formula_sum   'Tb3 Er1 Hf4 Pt4'
_cell_volume   272.13598918
_cell_formula_units_Z   1
loop_
 _symmetry_equiv_pos_site_id
 _symmetry_equiv_pos_as_xyz
  1  'x, y, z'
loop_
 _atom_site_type_symbol
 _atom_site_label
 _atom_site_symmetry_multiplicity
 _atom_site_fract_x
 _atom_site_fract_y
 _atom_site_fract_z
 _atom_site_occupancy
  Tb  Tb0  1  0.250000  0.484245  0.177519  1
  Tb  Tb1  1  0.750000  0.016070  0.679071  1
  Tb  Tb2  1  0.250000  0.984316  0.321626  1
  Er  Er3  1  0.750000  0.517468  0.821673  1
  Hf  Hf4  1  0.750000  0.644978  0.423200  1
  Hf  Hf5  1  0.250000  0.354428  0.579532  1
  Hf  Hf6  1  0.750000  0.146497  0.076928  1
  Hf  Hf7  1  0.250000  0.853645  0.921745  1
  Pt  Pt8  1  0.750000  0.272041  0.405492  1
  Pt  Pt9  1  0.250000  0.726230  0.595883  1
  Pt  Pt10  1  0.750000  0.771586  0.092676  1
  Pt  Pt11  1  0.250000  0.228497  0.904655  1
