# generated using pymatgen
data_Nd3Y2Ho3(CdIr)2
_symmetry_space_group_name_H-M   'P 1'
_cell_length_a   9.73588015
_cell_length_b   9.74683162
_cell_length_c   9.74683114
_cell_angle_alpha   59.92568430
_cell_angle_beta   60.03715322
_cell_angle_gamma   60.03716178
_symmetry_Int_Tables_number   1
_chemical_formula_structural   Nd3Y2Ho3(CdIr)2
_chemical_formula_sum   'Nd6 Y4 Ho6 Cd4 Ir4'
_cell_volume   654.01247071
_cell_formula_units_Z   2
loop_
 _symmetry_equiv_pos_site_id
 _symmetry_equiv_pos_as_xyz
  1  'x, y, z'
loop_
 _atom_site_type_symbol
 _atom_site_label
 _atom_site_symmetry_multiplicity
 _atom_site_fract_x
 _atom_site_fract_y
 _atom_site_fract_z
 _atom_site_occupancy
  Nd  Nd0  1  0.940282  0.559718  0.559718  1
  Nd  Nd1  1  0.559718  0.940282  0.940282  1
  Nd  Nd2  1  0.559588  0.940412  0.559588  1
  Nd  Nd3  1  0.940412  0.559588  0.940412  1
  Nd  Nd4  1  0.559588  0.559588  0.940412  1
  Nd  Nd5  1  0.940412  0.940412  0.559588  1
  Y  Y6  1  0.188069  0.811931  0.188069  1
  Y  Y7  1  0.811931  0.188069  0.811931  1
  Y  Y8  1  0.188069  0.188069  0.811931  1
  Y  Y9  1  0.811931  0.811931  0.188069  1
  Ho  Ho10  1  0.347439  0.347340  0.347340  1
  Ho  Ho11  1  0.347340  0.347439  0.957881  1
  Ho  Ho12  1  0.347340  0.957881  0.347439  1
  Ho  Ho13  1  0.957881  0.347340  0.347340  1
  Ho  Ho14  1  0.812005  0.187995  0.187995  1
  Ho  Ho15  1  0.187995  0.812005  0.812005  1
  Cd  Cd16  1  0.579491  0.579494  0.579494  1
  Cd  Cd17  1  0.579494  0.579491  0.261520  1
  Cd  Cd18  1  0.579494  0.261520  0.579491  1
  Cd  Cd19  1  0.261520  0.579494  0.579494  1
  Ir  Ir20  1  0.140760  0.142442  0.142442  1
  Ir  Ir21  1  0.142442  0.140760  0.574355  1
  Ir  Ir22  1  0.142442  0.574355  0.140760  1
  Ir  Ir23  1  0.574355  0.142442  0.142442  1
