# generated using pymatgen
data_Pr7Sm(Si3Au)4
_symmetry_space_group_name_H-M   'P 1'
_cell_length_a   8.30448158
_cell_length_b   8.30448272
_cell_length_c   8.73322700
_cell_angle_alpha   90.00000000
_cell_angle_beta   90.00000000
_cell_angle_gamma   119.95360963
_symmetry_Int_Tables_number   1
_chemical_formula_structural   Pr7Sm(Si3Au)4
_chemical_formula_sum   'Pr7 Sm1 Si12 Au4'
_cell_volume   521.83513648
_cell_formula_units_Z   1
loop_
 _symmetry_equiv_pos_site_id
 _symmetry_equiv_pos_as_xyz
  1  'x, y, z'
loop_
 _atom_site_type_symbol
 _atom_site_label
 _atom_site_symmetry_multiplicity
 _atom_site_fract_x
 _atom_site_fract_y
 _atom_site_fract_z
 _atom_site_occupancy
  Pr  Pr0  1  0.500278  0.499722  0.250000  1
  Pr  Pr1  1  0.000666  0.500319  0.750000  1
  Pr  Pr2  1  0.999447  0.499753  0.250000  1
  Pr  Pr3  1  0.499681  0.999334  0.750000  1
  Pr  Pr4  1  0.500247  0.000553  0.250000  1
  Pr  Pr5  1  0.000035  0.999965  0.750000  1
  Pr  Pr6  1  0.999962  0.000038  0.250000  1
  Sm  Sm7  1  0.499735  0.500265  0.750000  1
  Si  Si8  1  0.836048  0.163952  0.000064  1
  Si  Si9  1  0.163930  0.836070  0.000038  1
  Si  Si10  1  0.327799  0.164233  0.998869  1
  Si  Si11  1  0.163930  0.836070  0.499962  1
  Si  Si12  1  0.672199  0.835761  0.998642  1
  Si  Si13  1  0.836048  0.163952  0.499936  1
  Si  Si14  1  0.835767  0.672201  0.998869  1
  Si  Si15  1  0.672199  0.835761  0.501358  1
  Si  Si16  1  0.164239  0.327801  0.998642  1
  Si  Si17  1  0.327799  0.164233  0.501131  1
  Si  Si18  1  0.164239  0.327801  0.501358  1
  Si  Si19  1  0.835767  0.672201  0.501131  1
  Au  Au20  1  0.666044  0.333956  0.996349  1
  Au  Au21  1  0.333949  0.666051  0.998585  1
  Au  Au22  1  0.333949  0.666051  0.501415  1
  Au  Au23  1  0.666044  0.333956  0.503651  1
