# generated using pymatgen
data_Tm6Al24FeRuRh6
_symmetry_space_group_name_H-M   'P 1'
_cell_length_a   8.75868600
_cell_length_b   8.75868600
_cell_length_c   9.42239700
_cell_angle_alpha   90.00000000
_cell_angle_beta   90.00000000
_cell_angle_gamma   120.00000756
_symmetry_Int_Tables_number   1
_chemical_formula_structural   Tm6Al24FeRuRh6
_chemical_formula_sum   'Tm6 Al24 Fe1 Ru1 Rh6'
_cell_volume   625.99362638
_cell_formula_units_Z   1
loop_
 _symmetry_equiv_pos_site_id
 _symmetry_equiv_pos_as_xyz
  1  'x, y, z'
loop_
 _atom_site_type_symbol
 _atom_site_label
 _atom_site_symmetry_multiplicity
 _atom_site_fract_x
 _atom_site_fract_y
 _atom_site_fract_z
 _atom_site_occupancy
  Tm  Tm0  1  0.806779  0.193221  0.749672  1
  Tm  Tm1  1  0.193221  0.806779  0.250328  1
  Tm  Tm2  1  0.386442  0.193221  0.749672  1
  Tm  Tm3  1  0.613558  0.806779  0.250328  1
  Tm  Tm4  1  0.806779  0.613558  0.749672  1
  Tm  Tm5  1  0.193221  0.386442  0.250328  1
  Al  Al6  1  0.666667  0.333333  0.972719  1
  Al  Al7  1  0.333333  0.666667  0.027281  1
  Al  Al8  1  0.333333  0.666667  0.470931  1
  Al  Al9  1  0.666667  0.333333  0.529069  1
  Al  Al10  1  0.836888  0.163112  0.421569  1
  Al  Al11  1  0.163112  0.836888  0.578431  1
  Al  Al12  1  0.326224  0.163112  0.421569  1
  Al  Al13  1  0.160334  0.839666  0.923030  1
  Al  Al14  1  0.673776  0.836888  0.578431  1
  Al  Al15  1  0.839666  0.160334  0.076970  1
  Al  Al16  1  0.836888  0.673776  0.421569  1
  Al  Al17  1  0.679332  0.839666  0.923030  1
  Al  Al18  1  0.163112  0.326224  0.578431  1
  Al  Al19  1  0.320668  0.160334  0.076970  1
  Al  Al20  1  0.160334  0.320668  0.923030  1
  Al  Al21  1  0.839666  0.679332  0.076970  1
  Al  Al22  1  0.438113  0.561887  0.750548  1
  Al  Al23  1  0.561887  0.438113  0.249452  1
  Al  Al24  1  0.123773  0.561887  0.750548  1
  Al  Al25  1  0.876227  0.438113  0.249452  1
  Al  Al26  1  0.438113  0.876227  0.750548  1
  Al  Al27  1  0.561887  0.123773  0.249452  1
  Al  Al28  1  0.000000  0.000000  0.755661  1
  Al  Al29  1  0.000000  0.000000  0.244339  1
  Fe  Fe30  1  0.000000  0.000000  0.000000  1
  Ru  Ru31  1  0.000000  0.000000  0.500000  1
  Rh  Rh32  1  0.500000  0.500000  0.000000  1
  Rh  Rh33  1  0.000000  0.500000  0.000000  1
  Rh  Rh34  1  0.500000  0.500000  0.500000  1
  Rh  Rh35  1  0.500000  0.000000  0.000000  1
  Rh  Rh36  1  0.000000  0.500000  0.500000  1
  Rh  Rh37  1  0.500000  0.000000  0.500000  1
