# generated using pymatgen
data_Hf16Ta3ReNi4
_symmetry_space_group_name_H-M   'P 1'
_cell_length_a   8.70467242
_cell_length_b   8.70467122
_cell_length_c   8.70467227
_cell_angle_alpha   60.52805181
_cell_angle_beta   60.52805390
_cell_angle_gamma   60.52806029
_symmetry_Int_Tables_number   1
_chemical_formula_structural   Hf16Ta3ReNi4
_chemical_formula_sum   'Hf16 Ta3 Re1 Ni4'
_cell_volume   471.94726820
_cell_formula_units_Z   1
loop_
 _symmetry_equiv_pos_site_id
 _symmetry_equiv_pos_as_xyz
  1  'x, y, z'
loop_
 _atom_site_type_symbol
 _atom_site_label
 _atom_site_symmetry_multiplicity
 _atom_site_fract_x
 _atom_site_fract_y
 _atom_site_fract_z
 _atom_site_occupancy
  Hf  Hf0  1  0.692161  0.103385  0.103385  1
  Hf  Hf1  1  0.103385  0.692161  0.103385  1
  Hf  Hf2  1  0.103385  0.103385  0.692161  1
  Hf  Hf3  1  0.101555  0.101555  0.101555  1
  Hf  Hf4  1  0.314666  0.314666  0.681342  1
  Hf  Hf5  1  0.685049  0.685049  0.315187  1
  Hf  Hf6  1  0.314666  0.681342  0.314666  1
  Hf  Hf7  1  0.685049  0.315187  0.685049  1
  Hf  Hf8  1  0.681342  0.314666  0.314666  1
  Hf  Hf9  1  0.315187  0.685049  0.685049  1
  Hf  Hf10  1  0.949700  0.949700  0.550528  1
  Hf  Hf11  1  0.549647  0.549647  0.952210  1
  Hf  Hf12  1  0.949700  0.550528  0.949700  1
  Hf  Hf13  1  0.549647  0.952210  0.549647  1
  Hf  Hf14  1  0.550528  0.949700  0.949700  1
  Hf  Hf15  1  0.952210  0.549647  0.549647  1
  Ta  Ta16  1  0.001165  0.333484  0.333484  1
  Ta  Ta17  1  0.333484  0.001165  0.333484  1
  Ta  Ta18  1  0.333484  0.333484  0.001165  1
  Re  Re19  1  0.334898  0.334898  0.334898  1
  Ni  Ni20  1  0.323716  0.891198  0.891198  1
  Ni  Ni21  1  0.891198  0.323716  0.891198  1
  Ni  Ni22  1  0.891198  0.891198  0.323716  1
  Ni  Ni23  1  0.892975  0.892975  0.892975  1
