# generated using pymatgen
data_Tb2Y6Hf9Si16Mo3
_symmetry_space_group_name_H-M   'P 1'
_cell_length_a   7.20504342
_cell_length_b   7.20455331
_cell_length_c   13.17576300
_cell_angle_alpha   90.11693870
_cell_angle_beta   90.11316173
_cell_angle_gamma   90.07980380
_symmetry_Int_Tables_number   1
_chemical_formula_structural   Tb2Y6Hf9Si16Mo3
_chemical_formula_sum   'Tb2 Y6 Hf9 Si16 Mo3'
_cell_volume   683.93882926
_cell_formula_units_Z   1
loop_
 _symmetry_equiv_pos_site_id
 _symmetry_equiv_pos_as_xyz
  1  'x, y, z'
loop_
 _atom_site_type_symbol
 _atom_site_label
 _atom_site_symmetry_multiplicity
 _atom_site_fract_x
 _atom_site_fract_y
 _atom_site_fract_z
 _atom_site_occupancy
  Tb  Tb0  1  0.343146  0.996670  0.785410  1
  Tb  Tb1  1  0.655865  0.000350  0.284827  1
  Y  Y2  1  0.999674  0.344216  0.215204  1
  Y  Y3  1  0.003297  0.656853  0.714510  1
  Y  Y4  1  0.155047  0.500295  0.464029  1
  Y  Y5  1  0.499774  0.844913  0.035941  1
  Y  Y6  1  0.846128  0.501331  0.967688  1
  Y  Y7  1  0.498721  0.153853  0.532278  1
  Hf  Hf8  1  0.675378  0.324636  0.749985  1
  Hf  Hf9  1  0.146730  0.992643  0.373603  1
  Hf  Hf10  1  0.854648  0.004965  0.876662  1
  Hf  Hf11  1  0.506177  0.649363  0.621583  1
  Hf  Hf12  1  0.350627  0.493949  0.878417  1
  Hf  Hf13  1  0.492542  0.352719  0.125541  1
  Hf  Hf14  1  0.647290  0.507485  0.374489  1
  Hf  Hf15  1  0.995085  0.145214  0.623323  1
  Hf  Hf16  1  0.007209  0.853311  0.126439  1
  Si  Si17  1  0.361395  0.296858  0.316933  1
  Si  Si18  1  0.637567  0.705499  0.817514  1
  Si  Si19  1  0.204348  0.861957  0.566123  1
  Si  Si20  1  0.138005  0.795467  0.933939  1
  Si  Si21  1  0.796116  0.137854  0.067335  1
  Si  Si22  1  0.862236  0.203932  0.432739  1
  Si  Si23  1  0.294450  0.362525  0.682449  1
  Si  Si24  1  0.703187  0.638455  0.183041  1
  Si  Si25  1  0.295500  0.051118  0.184264  1
  Si  Si26  1  0.705029  0.947655  0.682497  1
  Si  Si27  1  0.448378  0.795160  0.432695  1
  Si  Si28  1  0.204765  0.551550  0.067349  1
  Si  Si29  1  0.548042  0.203240  0.936149  1
  Si  Si30  1  0.796782  0.452141  0.563873  1
  Si  Si31  1  0.052279  0.295104  0.817386  1
  Si  Si32  1  0.948926  0.704367  0.315731  1
  Mo  Mo33  1  0.176412  0.175298  0.001319  1
  Mo  Mo34  1  0.824752  0.823567  0.498714  1
  Mo  Mo35  1  0.324494  0.675486  0.250021  1
