# generated using pymatgen
data_Ho3CdSn3Ru2
_symmetry_space_group_name_H-M   'P 1'
_cell_length_a   7.82680200
_cell_length_b   7.82680119
_cell_length_c   3.77942700
_cell_angle_alpha   90.00000000
_cell_angle_beta   90.00000000
_cell_angle_gamma   120.00000231
_symmetry_Int_Tables_number   1
_chemical_formula_structural   Ho3CdSn3Ru2
_chemical_formula_sum   'Ho3 Cd1 Sn3 Ru2'
_cell_volume   200.50501167
_cell_formula_units_Z   1
loop_
 _symmetry_equiv_pos_site_id
 _symmetry_equiv_pos_as_xyz
  1  'x, y, z'
loop_
 _atom_site_type_symbol
 _atom_site_label
 _atom_site_symmetry_multiplicity
 _atom_site_fract_x
 _atom_site_fract_y
 _atom_site_fract_z
 _atom_site_occupancy
  Ho  Ho0  1  0.967584  0.380924  0.500000  1
  Ho  Ho1  1  0.619076  0.586660  0.500000  1
  Ho  Ho2  1  0.413340  0.032416  0.500000  1
  Cd  Cd3  1  0.333333  0.666667  0.000000  1
  Sn  Sn4  1  0.997557  0.739278  0.000000  1
  Sn  Sn5  1  0.260722  0.258279  0.000000  1
  Sn  Sn6  1  0.741721  0.002443  0.000000  1
  Ru  Ru7  1  0.666667  0.333333  0.000000  1
  Ru  Ru8  1  0.000000  0.000000  0.500000  1
