# generated using pymatgen
data_CeReH5
_symmetry_space_group_name_H-M   'P 1'
_cell_length_a   4.65937600
_cell_length_b   4.54138100
_cell_length_c   11.84486500
_cell_angle_alpha   90.00000000
_cell_angle_beta   90.00000000
_cell_angle_gamma   90.00000000
_symmetry_Int_Tables_number   1
_chemical_formula_structural   CeReH5
_chemical_formula_sum   'Ce4 Re4 H20'
_cell_volume   250.63736280
_cell_formula_units_Z   4
loop_
 _symmetry_equiv_pos_site_id
 _symmetry_equiv_pos_as_xyz
  1  'x, y, z'
loop_
 _atom_site_type_symbol
 _atom_site_label
 _atom_site_symmetry_multiplicity
 _atom_site_fract_x
 _atom_site_fract_y
 _atom_site_fract_z
 _atom_site_occupancy
  Ce  Ce0  1  0.750187  0.742420  0.857312  1
  Ce  Ce1  1  0.250187  0.757580  0.142688  1
  Ce  Ce2  1  0.749813  0.257580  0.357312  1
  Ce  Ce3  1  0.249813  0.242420  0.642688  1
  Re  Re4  1  0.250383  0.208116  0.911764  1
  Re  Re5  1  0.750383  0.291884  0.088236  1
  Re  Re6  1  0.249617  0.791884  0.411764  1
  Re  Re7  1  0.749617  0.708116  0.588236  1
  H  H8  1  0.519642  0.021219  0.003042  1
  H  H9  1  0.019642  0.478781  0.996958  1
  H  H10  1  0.980358  0.978781  0.503042  1
  H  H11  1  0.480358  0.521219  0.496958  1
  H  H12  1  0.250244  0.886965  0.836280  1
  H  H13  1  0.750244  0.613035  0.163720  1
  H  H14  1  0.249756  0.113035  0.336280  1
  H  H15  1  0.749756  0.386965  0.663720  1
  H  H16  1  0.481940  0.225176  0.185635  1
  H  H17  1  0.981940  0.274824  0.814365  1
  H  H18  1  0.018060  0.774824  0.685635  1
  H  H19  1  0.518060  0.725176  0.314365  1
  H  H20  1  0.518718  0.274593  0.814282  1
  H  H21  1  0.018718  0.225407  0.185718  1
  H  H22  1  0.981282  0.725407  0.314282  1
  H  H23  1  0.481282  0.774593  0.685718  1
  H  H24  1  0.981173  0.021224  0.003031  1
  H  H25  1  0.481173  0.478776  0.996969  1
  H  H26  1  0.518827  0.978776  0.503031  1
  H  H27  1  0.018827  0.521224  0.496969  1
