# generated using pymatgen
data_Nb5In(B2Ru5)2
_symmetry_space_group_name_H-M   'P 1'
_cell_length_a   9.48213300
_cell_length_b   9.48213300
_cell_length_c   3.03377700
_cell_angle_alpha   90.00000000
_cell_angle_beta   90.00000000
_cell_angle_gamma   90.00000000
_symmetry_Int_Tables_number   1
_chemical_formula_structural   Nb5In(B2Ru5)2
_chemical_formula_sum   'Nb5 In1 B4 Ru10'
_cell_volume   272.76945734
_cell_formula_units_Z   1
loop_
 _symmetry_equiv_pos_site_id
 _symmetry_equiv_pos_as_xyz
  1  'x, y, z'
loop_
 _atom_site_type_symbol
 _atom_site_label
 _atom_site_symmetry_multiplicity
 _atom_site_fract_x
 _atom_site_fract_y
 _atom_site_fract_z
 _atom_site_occupancy
  Nb  Nb0  1  0.822047  0.676318  0.000000  1
  Nb  Nb1  1  0.177953  0.323682  0.000000  1
  Nb  Nb2  1  0.323682  0.822047  0.000000  1
  Nb  Nb3  1  0.676318  0.177953  0.000000  1
  Nb  Nb4  1  0.000000  0.000000  0.000000  1
  In  In5  1  0.500000  0.500000  0.000000  1
  B  B6  1  0.619101  0.876055  0.000000  1
  B  B7  1  0.380899  0.123945  0.000000  1
  B  B8  1  0.123945  0.619101  0.000000  1
  B  B9  1  0.876055  0.380899  0.000000  1
  Ru  Ru10  1  0.574617  0.723427  0.500000  1
  Ru  Ru11  1  0.425383  0.276573  0.500000  1
  Ru  Ru12  1  0.068370  0.781290  0.500000  1
  Ru  Ru13  1  0.931630  0.218710  0.500000  1
  Ru  Ru14  1  0.276573  0.574617  0.500000  1
  Ru  Ru15  1  0.723427  0.425383  0.500000  1
  Ru  Ru16  1  0.218710  0.068370  0.500000  1
  Ru  Ru17  1  0.781290  0.931630  0.500000  1
  Ru  Ru18  1  0.500000  0.000000  0.500000  1
  Ru  Ru19  1  0.000000  0.500000  0.500000  1
