# generated using pymatgen
data_Lu8ReTc3C8
_symmetry_space_group_name_H-M   'P 1'
_cell_length_a   4.97165600
_cell_length_b   6.46520941
_cell_length_c   9.66668860
_cell_angle_alpha   90.04056218
_cell_angle_beta   90.00000000
_cell_angle_gamma   90.00000000
_symmetry_Int_Tables_number   1
_chemical_formula_structural   Lu8ReTc3C8
_chemical_formula_sum   'Lu8 Re1 Tc3 C8'
_cell_volume   310.71433290
_cell_formula_units_Z   1
loop_
 _symmetry_equiv_pos_site_id
 _symmetry_equiv_pos_as_xyz
  1  'x, y, z'
loop_
 _atom_site_type_symbol
 _atom_site_label
 _atom_site_symmetry_multiplicity
 _atom_site_fract_x
 _atom_site_fract_y
 _atom_site_fract_z
 _atom_site_occupancy
  Lu  Lu0  1  0.250000  0.824653  0.940746  1
  Lu  Lu1  1  0.250000  0.324295  0.559047  1
  Lu  Lu2  1  0.750000  0.174776  0.058539  1
  Lu  Lu3  1  0.750000  0.676548  0.440400  1
  Lu  Lu4  1  0.250000  0.464354  0.218329  1
  Lu  Lu5  1  0.250000  0.964593  0.281762  1
  Lu  Lu6  1  0.750000  0.535006  0.781461  1
  Lu  Lu7  1  0.750000  0.035030  0.718087  1
  Re  Re8  1  0.750000  0.215326  0.370210  1
  Tc  Tc9  1  0.250000  0.284915  0.870010  1
  Tc  Tc10  1  0.250000  0.784670  0.629986  1
  Tc  Tc11  1  0.750000  0.715648  0.129661  1
  C  C12  1  0.250000  0.052602  0.740909  1
  C  C13  1  0.250000  0.552214  0.758824  1
  C  C14  1  0.750000  0.948552  0.259822  1
  C  C15  1  0.750000  0.447405  0.241266  1
  C  C16  1  0.250000  0.672373  0.444842  1
  C  C17  1  0.250000  0.172626  0.055108  1
  C  C18  1  0.750000  0.326959  0.556266  1
  C  C19  1  0.750000  0.827455  0.944725  1
