# generated using pymatgen
data_Th4Zr6Si7Sn
_symmetry_space_group_name_H-M   'P 1'
_cell_length_a   7.49863884
_cell_length_b   7.33921761
_cell_length_c   7.54108518
_cell_angle_alpha   70.77866438
_cell_angle_beta   89.90040119
_cell_angle_gamma   89.96800018
_symmetry_Int_Tables_number   1
_chemical_formula_structural   Th4Zr6Si7Sn
_chemical_formula_sum   'Th4 Zr6 Si7 Sn1'
_cell_volume   391.88095091
_cell_formula_units_Z   1
loop_
 _symmetry_equiv_pos_site_id
 _symmetry_equiv_pos_as_xyz
  1  'x, y, z'
loop_
 _atom_site_type_symbol
 _atom_site_label
 _atom_site_symmetry_multiplicity
 _atom_site_fract_x
 _atom_site_fract_y
 _atom_site_fract_z
 _atom_site_occupancy
  Th  Th0  1  0.665994  0.934356  0.697665  1
  Th  Th1  1  0.336042  0.071836  0.306621  1
  Th  Th2  1  0.178431  0.558877  0.303289  1
  Th  Th3  1  0.825533  0.426889  0.695842  1
  Zr  Zr4  1  0.663576  0.741515  0.239967  1
  Zr  Zr5  1  0.326554  0.252857  0.753226  1
  Zr  Zr6  1  0.181428  0.751070  0.759861  1
  Zr  Zr7  1  0.822731  0.259767  0.243911  1
  Zr  Zr8  1  0.999860  0.002168  0.991909  1
  Zr  Zr9  1  0.499434  0.499957  0.999369  1
  Si  Si10  1  0.039219  0.138243  0.586964  1
  Si  Si11  1  0.462814  0.632638  0.583455  1
  Si  Si12  1  0.538713  0.366673  0.419742  1
  Si  Si13  1  0.877743  0.630264  0.994220  1
  Si  Si14  1  0.123877  0.369533  0.002796  1
  Si  Si15  1  0.373289  0.874934  0.004678  1
  Si  Si16  1  0.625016  0.127262  0.998974  1
  Sn  Sn17  1  0.959749  0.861161  0.417511  1
