# generated using pymatgen
data_CsSc2VF9
_symmetry_space_group_name_H-M   'P 1'
_cell_length_a   7.75641016
_cell_length_b   7.82303015
_cell_length_c   7.98164800
_cell_angle_alpha   89.63941571
_cell_angle_beta   89.79601788
_cell_angle_gamma   59.71844434
_symmetry_Int_Tables_number   1
_chemical_formula_structural   CsSc2VF9
_chemical_formula_sum   'Cs2 Sc4 V2 F18'
_cell_volume   418.22613562
_cell_formula_units_Z   2
loop_
 _symmetry_equiv_pos_site_id
 _symmetry_equiv_pos_as_xyz
  1  'x, y, z'
loop_
 _atom_site_type_symbol
 _atom_site_label
 _atom_site_symmetry_multiplicity
 _atom_site_fract_x
 _atom_site_fract_y
 _atom_site_fract_z
 _atom_site_occupancy
  Cs  Cs0  1  0.015323  0.492264  0.249876  1
  Cs  Cs1  1  0.983167  0.508419  0.749909  1
  Sc  Sc2  1  0.499337  0.500028  0.999464  1
  Sc  Sc3  1  0.999227  0.000120  0.499442  1
  Sc  Sc4  1  0.999284  0.000088  0.999571  1
  Sc  Sc5  1  0.499225  0.000210  0.499708  1
  V  V6  1  0.499320  0.000049  0.999591  1
  V  V7  1  0.499125  0.500255  0.499622  1
  F  F8  1  0.571055  0.496250  0.755745  1
  F  F9  1  0.428142  0.068139  0.255874  1
  F  F10  1  0.807135  0.290528  0.460948  1
  F  F11  1  0.207436  0.078525  0.546902  1
  F  F12  1  0.790980  0.286555  0.046857  1
  F  F13  1  0.191048  0.098782  0.960630  1
  F  F14  1  0.410488  0.288137  0.541061  1
  F  F15  1  0.588309  0.712296  0.458768  1
  F  F16  1  0.068559  0.965336  0.249534  1
  F  F17  1  0.928973  0.035260  0.749577  1
  F  F18  1  0.410606  0.300908  0.958217  1
  F  F19  1  0.588455  0.698982  0.040405  1
  F  F20  1  0.790985  0.921926  0.452069  1
  F  F21  1  0.190867  0.709845  0.538626  1
  F  F22  1  0.807348  0.901608  0.038138  1
  F  F23  1  0.207580  0.713495  0.952100  1
  F  F24  1  0.571241  0.932278  0.743392  1
  F  F25  1  0.427915  0.503502  0.243367  1
