# generated using pymatgen
data_Yb3Be2(SiPd5)4
_symmetry_space_group_name_H-M   'P 1'
_cell_length_a   8.65522635
_cell_length_b   8.59005397
_cell_length_c   8.59005412
_cell_angle_alpha   60.50258202
_cell_angle_beta   59.74870866
_cell_angle_gamma   59.74870402
_symmetry_Int_Tables_number   1
_chemical_formula_structural   Yb3Be2(SiPd5)4
_chemical_formula_sum   'Yb3 Be2 Si4 Pd20'
_cell_volume   451.54893772
_cell_formula_units_Z   1
loop_
 _symmetry_equiv_pos_site_id
 _symmetry_equiv_pos_as_xyz
  1  'x, y, z'
loop_
 _atom_site_type_symbol
 _atom_site_label
 _atom_site_symmetry_multiplicity
 _atom_site_fract_x
 _atom_site_fract_y
 _atom_site_fract_z
 _atom_site_occupancy
  Yb  Yb0  1  0.250000  0.250000  0.250000  1
  Yb  Yb1  1  0.750000  0.750000  0.750000  1
  Yb  Yb2  1  0.000000  0.000000  0.000000  1
  Be  Be3  1  0.727993  0.272007  0.272007  1
  Be  Be4  1  0.272007  0.727993  0.727993  1
  Si  Si5  1  0.271082  0.728918  0.271082  1
  Si  Si6  1  0.728918  0.271082  0.728918  1
  Si  Si7  1  0.271082  0.271082  0.728918  1
  Si  Si8  1  0.728918  0.728918  0.271082  1
  Pd  Pd9  1  0.387117  0.381016  0.381016  1
  Pd  Pd10  1  0.612883  0.618984  0.618984  1
  Pd  Pd11  1  0.381016  0.387117  0.850852  1
  Pd  Pd12  1  0.381016  0.850852  0.387117  1
  Pd  Pd13  1  0.618984  0.612883  0.149148  1
  Pd  Pd14  1  0.618984  0.149148  0.612883  1
  Pd  Pd15  1  0.850852  0.381016  0.381016  1
  Pd  Pd16  1  0.149148  0.618984  0.618984  1
  Pd  Pd17  1  0.342619  0.000000  0.000000  1
  Pd  Pd18  1  0.657381  0.000000  0.000000  1
  Pd  Pd19  1  0.000000  0.342619  0.657381  1
  Pd  Pd20  1  0.000000  0.657381  0.342619  1
  Pd  Pd21  1  0.995204  0.340577  0.004796  1
  Pd  Pd22  1  0.659423  0.004796  0.340577  1
  Pd  Pd23  1  0.004796  0.659423  0.995204  1
  Pd  Pd24  1  0.340577  0.995204  0.659423  1
  Pd  Pd25  1  0.995204  0.004796  0.340577  1
  Pd  Pd26  1  0.004796  0.995204  0.659423  1
  Pd  Pd27  1  0.659423  0.340577  0.004796  1
  Pd  Pd28  1  0.340577  0.659423  0.995204  1
