# generated using pymatgen
data_ErLu3OsWC4
_symmetry_space_group_name_H-M   'P 1'
_cell_length_a   5.00067300
_cell_length_b   6.51474535
_cell_length_c   9.71865374
_cell_angle_alpha   88.97443394
_cell_angle_beta   90.00000000
_cell_angle_gamma   90.00000000
_symmetry_Int_Tables_number   1
_chemical_formula_structural   ErLu3OsWC4
_chemical_formula_sum   'Er2 Lu6 Os2 W2 C8'
_cell_volume   316.56466256
_cell_formula_units_Z   2
loop_
 _symmetry_equiv_pos_site_id
 _symmetry_equiv_pos_as_xyz
  1  'x, y, z'
loop_
 _atom_site_type_symbol
 _atom_site_label
 _atom_site_symmetry_multiplicity
 _atom_site_fract_x
 _atom_site_fract_y
 _atom_site_fract_z
 _atom_site_occupancy
  Er  Er0  1  0.750000  0.966395  0.715819  1
  Er  Er1  1  0.250000  0.033605  0.284181  1
  Lu  Lu2  1  0.250000  0.674050  0.559024  1
  Lu  Lu3  1  0.750000  0.325950  0.440976  1
  Lu  Lu4  1  0.750000  0.828555  0.059860  1
  Lu  Lu5  1  0.250000  0.171445  0.940140  1
  Lu  Lu6  1  0.250000  0.542564  0.219223  1
  Lu  Lu7  1  0.750000  0.457436  0.780777  1
  Os  Os8  1  0.750000  0.782409  0.369891  1
  Os  Os9  1  0.250000  0.217591  0.630109  1
  W  W10  1  0.250000  0.710846  0.871492  1
  W  W11  1  0.750000  0.289154  0.128508  1
  C  C12  1  0.250000  0.444792  0.758887  1
  C  C13  1  0.750000  0.555208  0.241113  1
  C  C14  1  0.750000  0.052552  0.259932  1
  C  C15  1  0.250000  0.947448  0.740068  1
  C  C16  1  0.250000  0.828753  0.058034  1
  C  C17  1  0.750000  0.171247  0.941966  1
  C  C18  1  0.750000  0.668239  0.553248  1
  C  C19  1  0.250000  0.331761  0.446752  1
