# generated using pymatgen
data_MnZn2Fe(NiO4)2
_symmetry_space_group_name_H-M   'P 1'
_cell_length_a   5.93766855
_cell_length_b   5.91087020
_cell_length_c   5.99733004
_cell_angle_alpha   60.47575825
_cell_angle_beta   59.98027591
_cell_angle_gamma   60.14918548
_symmetry_Int_Tables_number   1
_chemical_formula_structural   MnZn2Fe(NiO4)2
_chemical_formula_sum   'Mn1 Zn2 Fe1 Ni2 O8'
_cell_volume   149.51094776
_cell_formula_units_Z   1
loop_
 _symmetry_equiv_pos_site_id
 _symmetry_equiv_pos_as_xyz
  1  'x, y, z'
loop_
 _atom_site_type_symbol
 _atom_site_label
 _atom_site_symmetry_multiplicity
 _atom_site_fract_x
 _atom_site_fract_y
 _atom_site_fract_z
 _atom_site_occupancy
  Mn  Mn0  1  0.125000  0.125000  0.625000  1
  Zn  Zn1  1  0.753546  0.757849  0.730755  1
  Zn  Zn2  1  0.496454  0.492151  0.519245  1
  Fe  Fe3  1  0.625000  0.125000  0.125000  1
  Ni  Ni4  1  0.125000  0.125000  0.125000  1
  Ni  Ni5  1  0.125000  0.625000  0.125000  1
  O  O6  1  0.888157  0.346418  0.868884  1
  O  O7  1  0.362345  0.359521  0.918612  1
  O  O8  1  0.361843  0.353459  0.381116  1
  O  O9  1  0.908134  0.354212  0.383442  1
  O  O10  1  0.888157  0.896541  0.868884  1
  O  O11  1  0.341866  0.895788  0.866558  1
  O  O12  1  0.361843  0.903582  0.381116  1
  O  O13  1  0.887655  0.890479  0.331388  1
