# generated using pymatgen
data_La4CePrTe8
_symmetry_space_group_name_H-M   'P 1'
_cell_length_a   8.35507839
_cell_length_b   8.35507898
_cell_length_c   8.35507898
_cell_angle_alpha   109.33546053
_cell_angle_beta   109.33545775
_cell_angle_gamma   109.74308986
_symmetry_Int_Tables_number   1
_chemical_formula_structural   La4CePrTe8
_chemical_formula_sum   'La4 Ce1 Pr1 Te8'
_cell_volume   448.97524917
_cell_formula_units_Z   1
loop_
 _symmetry_equiv_pos_site_id
 _symmetry_equiv_pos_as_xyz
  1  'x, y, z'
loop_
 _atom_site_type_symbol
 _atom_site_label
 _atom_site_symmetry_multiplicity
 _atom_site_fract_x
 _atom_site_fract_y
 _atom_site_fract_z
 _atom_site_occupancy
  La  La0  1  0.998995  0.874225  0.624237  1
  La  La1  1  0.249988  0.374758  0.375763  1
  La  La2  1  0.125775  0.750012  0.124770  1
  La  La3  1  0.625242  0.001005  0.875230  1
  Ce  Ce4  1  0.750000  0.250000  0.500000  1
  Pr  Pr5  1  0.500000  0.500000  0.000000  1
  Te  Te6  1  0.027909  0.278398  0.901185  1
  Te  Te7  1  0.377214  0.126725  0.098815  1
  Te  Te8  1  0.221712  0.623465  0.749421  1
  Te  Te9  1  0.874044  0.472291  0.250579  1
  Te  Te10  1  0.376535  0.125956  0.598247  1
  Te  Te11  1  0.527709  0.778288  0.401753  1
  Te  Te12  1  0.721602  0.622786  0.749511  1
  Te  Te13  1  0.873275  0.972091  0.250489  1
