# generated using pymatgen
data_Ti4Ag(PO4)6
_symmetry_space_group_name_H-M   'P 1'
_cell_length_a   8.59332119
_cell_length_b   8.59332159
_cell_length_c   8.87555789
_cell_angle_alpha   61.04645295
_cell_angle_beta   118.95355640
_cell_angle_gamma   119.99999509
_symmetry_Int_Tables_number   1
_chemical_formula_structural   Ti4Ag(PO4)6
_chemical_formula_sum   'Ti4 Ag1 P6 O24'
_cell_volume   470.64553184
_cell_formula_units_Z   1
loop_
 _symmetry_equiv_pos_site_id
 _symmetry_equiv_pos_as_xyz
  1  'x, y, z'
loop_
 _atom_site_type_symbol
 _atom_site_label
 _atom_site_symmetry_multiplicity
 _atom_site_fract_x
 _atom_site_fract_y
 _atom_site_fract_z
 _atom_site_occupancy
  Ti  Ti0  1  0.359611  0.640389  0.078832  1
  Ti  Ti1  1  0.146903  0.853098  0.440709  1
  Ti  Ti2  1  0.853098  0.146903  0.559291  1
  Ti  Ti3  1  0.640389  0.359611  0.921168  1
  Ag  Ag4  1  0.000000  0.000000  0.000000  1
  P  P5  1  0.029448  0.247909  0.243566  1
  P  P6  1  0.752090  0.537974  0.243566  1
  P  P7  1  0.462027  0.970552  0.243566  1
  P  P8  1  0.537973  0.029448  0.756433  1
  P  P9  1  0.247910  0.462027  0.756433  1
  P  P10  1  0.970552  0.752091  0.756433  1
  O  O11  1  0.488923  0.151119  0.080797  1
  O  O12  1  0.848882  0.257008  0.080797  1
  O  O13  1  0.742993  0.511078  0.080797  1
  O  O14  1  0.197741  0.435401  0.220803  1
  O  O15  1  0.564598  0.541537  0.220803  1
  O  O16  1  0.458465  0.802260  0.220803  1
  O  O17  1  0.079145  0.086985  0.262799  1
  O  O18  1  0.913015  0.729363  0.262799  1
  O  O19  1  0.270638  0.920854  0.262799  1
  O  O20  1  0.996858  0.201295  0.420450  1
  O  O21  1  0.798705  0.375112  0.420450  1
  O  O22  1  0.624888  0.003143  0.420450  1
  O  O23  1  0.375112  0.996857  0.579550  1
  O  O24  1  0.201296  0.624888  0.579550  1
  O  O25  1  0.003143  0.798704  0.579550  1
  O  O26  1  0.729362  0.079145  0.737202  1
  O  O27  1  0.086985  0.270637  0.737202  1
  O  O28  1  0.920853  0.913015  0.737202  1
  O  O29  1  0.541536  0.197741  0.779197  1
  O  O30  1  0.435402  0.458464  0.779197  1
  O  O31  1  0.802260  0.564598  0.779197  1
  O  O32  1  0.257007  0.488923  0.919203  1
  O  O33  1  0.151119  0.742993  0.919203  1
  O  O34  1  0.511078  0.848882  0.919203  1
