# generated using pymatgen
data_CePr3Nd6(Al2Ru3)2
_symmetry_space_group_name_H-M   'P 1'
_cell_length_a   8.60971534
_cell_length_b   8.49699401
_cell_length_c   8.49726375
_cell_angle_alpha   108.42047928
_cell_angle_beta   110.33730621
_cell_angle_gamma   109.12994416
_symmetry_Int_Tables_number   1
_chemical_formula_structural   CePr3Nd6(Al2Ru3)2
_chemical_formula_sum   'Ce1 Pr3 Nd6 Al4 Ru6'
_cell_volume   481.50955923
_cell_formula_units_Z   1
loop_
 _symmetry_equiv_pos_site_id
 _symmetry_equiv_pos_as_xyz
  1  'x, y, z'
loop_
 _atom_site_type_symbol
 _atom_site_label
 _atom_site_symmetry_multiplicity
 _atom_site_fract_x
 _atom_site_fract_y
 _atom_site_fract_z
 _atom_site_occupancy
  Ce  Ce0  1  0.249953  0.695657  0.445666  1
  Pr  Pr1  1  0.505205  0.001175  0.287485  1
  Pr  Pr2  1  0.281578  0.502138  0.999783  1
  Pr  Pr3  1  0.994703  0.282072  0.495394  1
  Nd  Nd4  1  0.750445  0.811540  0.061278  1
  Nd  Nd5  1  0.438564  0.254540  0.689055  1
  Nd  Nd6  1  0.684649  0.437010  0.248874  1
  Nd  Nd7  1  0.061482  0.751008  0.816160  1
  Nd  Nd8  1  0.815261  0.064017  0.752478  1
  Nd  Nd9  1  0.217782  0.217535  0.220094  1
  Al  Al10  1  0.594458  0.594840  0.587255  1
  Al  Al11  1  0.498708  0.004945  0.909739  1
  Al  Al12  1  0.905029  0.492770  0.000412  1
  Al  Al13  1  0.001345  0.911037  0.506248  1
  Ru  Ru14  1  0.250016  0.123469  0.874089  1
  Ru  Ru15  1  0.749905  0.381937  0.631973  1
  Ru  Ru16  1  0.864117  0.238464  0.117178  1
  Ru  Ru17  1  0.131347  0.845667  0.267824  1
  Ru  Ru18  1  0.636734  0.753598  0.375101  1
  Ru  Ru19  1  0.368718  0.636578  0.713916  1
