# generated using pymatgen
data_Zr4Al2Pt3Rh7
_symmetry_space_group_name_H-M   'P 1'
_cell_length_a   5.57644143
_cell_length_b   5.59154134
_cell_length_c   8.29078800
_cell_angle_alpha   90.00005812
_cell_angle_beta   89.99999985
_cell_angle_gamma   98.20423861
_symmetry_Int_Tables_number   1
_chemical_formula_structural   Zr4Al2Pt3Rh7
_chemical_formula_sum   'Zr4 Al2 Pt3 Rh7'
_cell_volume   255.86853622
_cell_formula_units_Z   1
loop_
 _symmetry_equiv_pos_site_id
 _symmetry_equiv_pos_as_xyz
  1  'x, y, z'
loop_
 _atom_site_type_symbol
 _atom_site_label
 _atom_site_symmetry_multiplicity
 _atom_site_fract_x
 _atom_site_fract_y
 _atom_site_fract_z
 _atom_site_occupancy
  Zr  Zr0  1  0.780022  0.226522  0.497088  1
  Zr  Zr1  1  0.219974  0.773481  0.002917  1
  Zr  Zr2  1  0.219975  0.773480  0.497083  1
  Zr  Zr3  1  0.780021  0.226521  0.002912  1
  Al  Al4  1  0.500352  0.500345  0.750000  1
  Al  Al5  1  0.499663  0.499641  0.250000  1
  Pt  Pt6  1  0.499969  0.000047  0.750001  1
  Pt  Pt7  1  0.000066  0.000065  0.249999  1
  Pt  Pt8  1  0.999942  0.999943  0.750001  1
  Rh  Rh9  1  0.714157  0.715260  0.000045  1
  Rh  Rh10  1  0.714156  0.715259  0.499956  1
  Rh  Rh11  1  0.285841  0.284739  0.999794  1
  Rh  Rh12  1  0.285844  0.284739  0.500206  1
  Rh  Rh13  1  0.500023  0.999963  0.250000  1
  Rh  Rh14  1  0.000052  0.499979  0.750000  1
  Rh  Rh15  1  0.999946  0.500016  0.249999  1
