# generated using pymatgen
data_Th8Si12TcOs3
_symmetry_space_group_name_H-M   'P 1'
_cell_length_a   8.26861004
_cell_length_b   8.26880901
_cell_length_c   8.40291700
_cell_angle_alpha   90.00406741
_cell_angle_beta   89.99420710
_cell_angle_gamma   120.00675742
_symmetry_Int_Tables_number   1
_chemical_formula_structural   Th8Si12TcOs3
_chemical_formula_sum   'Th8 Si12 Tc1 Os3'
_cell_volume   497.51548022
_cell_formula_units_Z   1
loop_
 _symmetry_equiv_pos_site_id
 _symmetry_equiv_pos_as_xyz
  1  'x, y, z'
loop_
 _atom_site_type_symbol
 _atom_site_label
 _atom_site_symmetry_multiplicity
 _atom_site_fract_x
 _atom_site_fract_y
 _atom_site_fract_z
 _atom_site_occupancy
  Th  Th0  1  0.000000  0.999996  0.250076  1
  Th  Th1  1  0.999989  0.999989  0.750705  1
  Th  Th2  1  0.499621  0.500369  0.247949  1
  Th  Th3  1  0.499629  0.999268  0.247953  1
  Th  Th4  1  0.000740  0.500369  0.247949  1
  Th  Th5  1  0.499813  0.500197  0.751751  1
  Th  Th6  1  0.499811  0.999617  0.751747  1
  Th  Th7  1  0.000394  0.500200  0.751757  1
  Si  Si8  1  0.166532  0.833472  0.492153  1
  Si  Si9  1  0.166538  0.333050  0.492153  1
  Si  Si10  1  0.666952  0.833466  0.492164  1
  Si  Si11  1  0.833625  0.166368  0.507265  1
  Si  Si12  1  0.833612  0.667238  0.507254  1
  Si  Si13  1  0.332756  0.166381  0.507264  1
  Si  Si14  1  0.834008  0.165990  0.007162  1
  Si  Si15  1  0.834002  0.668028  0.007164  1
  Si  Si16  1  0.331972  0.165997  0.007173  1
  Si  Si17  1  0.165950  0.834055  0.992818  1
  Si  Si18  1  0.165961  0.331908  0.992810  1
  Si  Si19  1  0.668089  0.834040  0.992818  1
  Tc  Tc20  1  0.333313  0.666682  0.018148  1
  Os  Os21  1  0.333346  0.666694  0.516431  1
  Os  Os22  1  0.666665  0.333303  0.483519  1
  Os  Os23  1  0.666685  0.333327  0.983818  1
