# generated using pymatgen
data_Cs4NbV(AgTe4)2
_symmetry_space_group_name_H-M   'P 1'
_cell_length_a   15.70621591
_cell_length_b   13.99433960
_cell_length_c   8.45416354
_cell_angle_alpha   84.99846126
_cell_angle_beta   62.57490912
_cell_angle_gamma   32.42662111
_symmetry_Int_Tables_number   1
_chemical_formula_structural   Cs4NbV(AgTe4)2
_chemical_formula_sum   'Cs4 Nb1 V1 Ag2 Te8'
_cell_volume   684.20636982
_cell_formula_units_Z   1
loop_
 _symmetry_equiv_pos_site_id
 _symmetry_equiv_pos_as_xyz
  1  'x, y, z'
loop_
 _atom_site_type_symbol
 _atom_site_label
 _atom_site_symmetry_multiplicity
 _atom_site_fract_x
 _atom_site_fract_y
 _atom_site_fract_z
 _atom_site_occupancy
  Cs  Cs0  1  0.679249  0.679249  0.320751  1
  Cs  Cs1  1  0.320751  0.320751  0.679249  1
  Cs  Cs2  1  0.930304  0.930304  0.569696  1
  Cs  Cs3  1  0.569696  0.569696  0.930304  1
  Nb  Nb4  1  0.750000  0.750000  0.750000  1
  V  V5  1  0.500000  0.500000  0.500000  1
  Ag  Ag6  1  0.000000  0.000000  0.000000  1
  Ag  Ag7  1  0.250000  0.250000  0.250000  1
  Te  Te8  1  0.363819  0.022077  0.936804  1
  Te  Te9  1  0.677303  0.936804  0.022077  1
  Te  Te10  1  0.936804  0.677303  0.363819  1
  Te  Te11  1  0.022077  0.363819  0.677303  1
  Te  Te12  1  0.241793  0.868300  0.565754  1
  Te  Te13  1  0.565754  0.324150  0.241793  1
  Te  Te14  1  0.324150  0.565754  0.868300  1
  Te  Te15  1  0.868300  0.241793  0.324150  1
