# generated using pymatgen
data_Na(Sn3Rh2)2
_symmetry_space_group_name_H-M   'P 1'
_cell_length_a   6.95227489
_cell_length_b   6.95227574
_cell_length_c   6.95227445
_cell_angle_alpha   119.66795775
_cell_angle_beta   119.66795244
_cell_angle_gamma   90.57608174
_symmetry_Int_Tables_number   1
_chemical_formula_structural   Na(Sn3Rh2)2
_chemical_formula_sum   'Na1 Sn6 Rh4'
_cell_volume   238.79008833
_cell_formula_units_Z   1
loop_
 _symmetry_equiv_pos_site_id
 _symmetry_equiv_pos_as_xyz
  1  'x, y, z'
loop_
 _atom_site_type_symbol
 _atom_site_label
 _atom_site_symmetry_multiplicity
 _atom_site_fract_x
 _atom_site_fract_y
 _atom_site_fract_z
 _atom_site_occupancy
  Na  Na0  1  0.000000  0.000000  0.000000  1
  Sn  Sn1  1  0.878012  0.534969  0.000000  1
  Sn  Sn2  1  0.534969  0.878012  0.000000  1
  Sn  Sn3  1  0.465031  0.465031  0.343043  1
  Sn  Sn4  1  0.500000  0.000000  0.500000  1
  Sn  Sn5  1  0.000000  0.500000  0.500000  1
  Sn  Sn6  1  0.121987  0.121987  0.656957  1
  Rh  Rh7  1  0.594296  0.246468  0.000000  1
  Rh  Rh8  1  0.246468  0.594296  0.000000  1
  Rh  Rh9  1  0.753533  0.753533  0.347829  1
  Rh  Rh10  1  0.405703  0.405703  0.652171  1
