# generated using pymatgen
data_Tb16Ni4Ag3Hg
_symmetry_space_group_name_H-M   'P 1'
_cell_length_a   9.48394375
_cell_length_b   9.50271365
_cell_length_c   9.50271400
_cell_angle_alpha   59.99999878
_cell_angle_beta   59.93450828
_cell_angle_gamma   59.93450907
_symmetry_Int_Tables_number   1
_chemical_formula_structural   Tb16Ni4Ag3Hg
_chemical_formula_sum   'Tb16 Ni4 Ag3 Hg1'
_cell_volume   604.97670260
_cell_formula_units_Z   1
loop_
 _symmetry_equiv_pos_site_id
 _symmetry_equiv_pos_as_xyz
  1  'x, y, z'
loop_
 _atom_site_type_symbol
 _atom_site_label
 _atom_site_symmetry_multiplicity
 _atom_site_fract_x
 _atom_site_fract_y
 _atom_site_fract_z
 _atom_site_occupancy
  Tb  Tb0  1  0.350536  0.349908  0.349908  1
  Tb  Tb1  1  0.350536  0.349908  0.949649  1
  Tb  Tb2  1  0.350536  0.949649  0.349908  1
  Tb  Tb3  1  0.946524  0.351159  0.351159  1
  Tb  Tb4  1  0.811190  0.188876  0.188876  1
  Tb  Tb5  1  0.189302  0.810470  0.810470  1
  Tb  Tb6  1  0.189302  0.810470  0.189758  1
  Tb  Tb7  1  0.811190  0.188876  0.811059  1
  Tb  Tb8  1  0.189302  0.189758  0.810470  1
  Tb  Tb9  1  0.811190  0.811059  0.188876  1
  Tb  Tb10  1  0.934061  0.564358  0.564358  1
  Tb  Tb11  1  0.564530  0.935631  0.935631  1
  Tb  Tb12  1  0.564530  0.935631  0.564206  1
  Tb  Tb13  1  0.934061  0.564358  0.937223  1
  Tb  Tb14  1  0.564530  0.564206  0.935631  1
  Tb  Tb15  1  0.934061  0.937223  0.564358  1
  Ni  Ni16  1  0.142049  0.143371  0.143371  1
  Ni  Ni17  1  0.142049  0.143371  0.571208  1
  Ni  Ni18  1  0.142049  0.571208  0.143371  1
  Ni  Ni19  1  0.572672  0.142442  0.142442  1
  Ag  Ag20  1  0.583391  0.582444  0.582444  1
  Ag  Ag21  1  0.583391  0.582444  0.251718  1
  Ag  Ag22  1  0.583391  0.251718  0.582444  1
  Hg  Hg23  1  0.255622  0.581459  0.581459  1
