# generated using pymatgen
data_Ce3Pa(B4W)4
_symmetry_space_group_name_H-M   'P 1'
_cell_length_a   3.69601200
_cell_length_b   6.05609229
_cell_length_c   11.72537177
_cell_angle_alpha   89.97965960
_cell_angle_beta   90.00000000
_cell_angle_gamma   90.00000000
_symmetry_Int_Tables_number   1
_chemical_formula_structural   Ce3Pa(B4W)4
_chemical_formula_sum   'Ce3 Pa1 B16 W4'
_cell_volume   262.45355032
_cell_formula_units_Z   1
loop_
 _symmetry_equiv_pos_site_id
 _symmetry_equiv_pos_as_xyz
  1  'x, y, z'
loop_
 _atom_site_type_symbol
 _atom_site_label
 _atom_site_symmetry_multiplicity
 _atom_site_fract_x
 _atom_site_fract_y
 _atom_site_fract_z
 _atom_site_occupancy
  Ce  Ce0  1  0.000000  0.625042  0.348887  1
  Ce  Ce1  1  0.000000  0.374903  0.650874  1
  Ce  Ce2  1  0.000000  0.125539  0.151015  1
  Pa  Pa3  1  0.000000  0.874882  0.849187  1
  B  B4  1  0.500000  0.785880  0.185742  1
  B  B5  1  0.500000  0.210222  0.814450  1
  B  B6  1  0.500000  0.286229  0.314279  1
  B  B7  1  0.500000  0.714522  0.687240  1
  B  B8  1  0.500000  0.864775  0.030535  1
  B  B9  1  0.500000  0.134379  0.967054  1
  B  B10  1  0.500000  0.364223  0.468226  1
  B  B11  1  0.500000  0.636002  0.532560  1
  B  B12  1  0.500000  0.886093  0.453860  1
  B  B13  1  0.500000  0.113338  0.546656  1
  B  B14  1  0.500000  0.386532  0.045833  1
  B  B15  1  0.500000  0.614679  0.952882  1
  B  B16  1  0.500000  0.974242  0.308336  1
  B  B17  1  0.500000  0.024262  0.693081  1
  B  B18  1  0.500000  0.473997  0.191343  1
  B  B19  1  0.500000  0.529321  0.808364  1
  W  W20  1  0.000000  0.632868  0.085955  1
  W  W21  1  0.000000  0.367843  0.912015  1
  W  W22  1  0.000000  0.130883  0.414114  1
  W  W23  1  0.000000  0.869346  0.587511  1
