# generated using pymatgen
data_PrTh(GaRh)2
_symmetry_space_group_name_H-M   'P 1'
_cell_length_a   4.36052500
_cell_length_b   7.02605951
_cell_length_c   8.08865572
_cell_angle_alpha   90.29765284
_cell_angle_beta   90.00000000
_cell_angle_gamma   90.00000000
_symmetry_Int_Tables_number   1
_chemical_formula_structural   PrTh(GaRh)2
_chemical_formula_sum   'Pr2 Th2 Ga4 Rh4'
_cell_volume   247.81129377
_cell_formula_units_Z   2
loop_
 _symmetry_equiv_pos_site_id
 _symmetry_equiv_pos_as_xyz
  1  'x, y, z'
loop_
 _atom_site_type_symbol
 _atom_site_label
 _atom_site_symmetry_multiplicity
 _atom_site_fract_x
 _atom_site_fract_y
 _atom_site_fract_z
 _atom_site_occupancy
  Pr  Pr0  1  0.750000  0.959394  0.683163  1
  Pr  Pr1  1  0.250000  0.040606  0.316837  1
  Th  Th2  1  0.250000  0.541370  0.184443  1
  Th  Th3  1  0.750000  0.458630  0.815557  1
  Ga  Ga4  1  0.250000  0.641665  0.563345  1
  Ga  Ga5  1  0.750000  0.358335  0.436655  1
  Ga  Ga6  1  0.750000  0.868862  0.063448  1
  Ga  Ga7  1  0.250000  0.131138  0.936552  1
  Rh  Rh8  1  0.250000  0.745543  0.887436  1
  Rh  Rh9  1  0.750000  0.254457  0.112564  1
  Rh  Rh10  1  0.750000  0.730013  0.372083  1
  Rh  Rh11  1  0.250000  0.269987  0.627917  1
