# generated using pymatgen
data_YbHfU2Sb5
_symmetry_space_group_name_H-M   'P 1'
_cell_length_a   9.28117811
_cell_length_b   9.22980531
_cell_length_c   6.19983700
_cell_angle_alpha   90.00000000
_cell_angle_beta   90.00000000
_cell_angle_gamma   119.87187434
_symmetry_Int_Tables_number   1
_chemical_formula_structural   YbHfU2Sb5
_chemical_formula_sum   'Yb2 Hf2 U4 Sb10'
_cell_volume   460.53836229
_cell_formula_units_Z   2
loop_
 _symmetry_equiv_pos_site_id
 _symmetry_equiv_pos_as_xyz
  1  'x, y, z'
loop_
 _atom_site_type_symbol
 _atom_site_label
 _atom_site_symmetry_multiplicity
 _atom_site_fract_x
 _atom_site_fract_y
 _atom_site_fract_z
 _atom_site_occupancy
  Yb  Yb0  1  0.380600  0.002721  0.750000  1
  Yb  Yb1  1  0.379727  0.378270  0.250000  1
  Hf  Hf2  1  0.000862  0.999906  0.500778  1
  Hf  Hf3  1  0.000862  0.999906  0.999222  1
  U  U4  1  0.002702  0.615103  0.250000  1
  U  U5  1  0.003752  0.388077  0.750000  1
  U  U6  1  0.613698  0.612437  0.750000  1
  U  U7  1  0.613126  0.999418  0.250000  1
  Sb  Sb8  1  0.337390  0.669910  0.499972  1
  Sb  Sb9  1  0.672682  0.335245  0.000764  1
  Sb  Sb10  1  0.672682  0.335245  0.499236  1
  Sb  Sb11  1  0.337390  0.669910  0.000028  1
  Sb  Sb12  1  0.729901  0.001599  0.750000  1
  Sb  Sb13  1  0.731564  0.732677  0.250000  1
  Sb  Sb14  1  0.993624  0.265957  0.250000  1
  Sb  Sb15  1  0.996501  0.727805  0.750000  1
  Sb  Sb16  1  0.267211  0.996378  0.250000  1
  Sb  Sb17  1  0.265726  0.269438  0.750000  1
