# generated using pymatgen
data_Pr8Sc12Ga9Sn7
_symmetry_space_group_name_H-M   'P 1'
_cell_length_a   7.58753338
_cell_length_b   7.93204282
_cell_length_c   14.89673948
_cell_angle_alpha   89.96027034
_cell_angle_beta   90.18873474
_cell_angle_gamma   89.89420127
_symmetry_Int_Tables_number   1
_chemical_formula_structural   Pr8Sc12Ga9Sn7
_chemical_formula_sum   'Pr8 Sc12 Ga9 Sn7'
_cell_volume   896.54828606
_cell_formula_units_Z   1
loop_
 _symmetry_equiv_pos_site_id
 _symmetry_equiv_pos_as_xyz
  1  'x, y, z'
loop_
 _atom_site_type_symbol
 _atom_site_label
 _atom_site_symmetry_multiplicity
 _atom_site_fract_x
 _atom_site_fract_y
 _atom_site_fract_z
 _atom_site_occupancy
  Pr  Pr0  1  0.007684  0.173613  0.402383  1
  Pr  Pr1  1  0.508039  0.320679  0.401821  1
  Pr  Pr2  1  0.504926  0.673897  0.902308  1
  Pr  Pr3  1  0.501154  0.670657  0.594087  1
  Pr  Pr4  1  0.988812  0.820784  0.595662  1
  Pr  Pr5  1  0.985557  0.828032  0.902854  1
  Pr  Pr6  1  0.505738  0.313621  0.099255  1
  Pr  Pr7  1  0.001958  0.174282  0.099994  1
  Sc  Sc8  1  0.325641  0.170740  0.627246  1
  Sc  Sc9  1  0.680013  0.830863  0.375159  1
  Sc  Sc10  1  0.675127  0.004576  0.752339  1
  Sc  Sc11  1  0.159302  0.679131  0.374237  1
  Sc  Sc12  1  0.821996  0.324675  0.870896  1
  Sc  Sc13  1  0.825310  0.337613  0.628376  1
  Sc  Sc14  1  0.843784  0.497821  0.254870  1
  Sc  Sc15  1  0.334979  0.002379  0.254177  1
  Sc  Sc16  1  0.340128  0.172050  0.869297  1
  Sc  Sc17  1  0.160119  0.672166  0.129909  1
  Sc  Sc18  1  0.680918  0.846141  0.126046  1
  Sc  Sc19  1  0.163590  0.491925  0.749672  1
  Ga  Ga20  1  0.028623  0.129207  0.749796  1
  Ga  Ga21  1  0.528908  0.378812  0.747965  1
  Ga  Ga22  1  0.969865  0.880640  0.250398  1
  Ga  Ga23  1  0.712085  0.120705  0.251427  1
  Ga  Ga24  1  0.335415  0.957808  0.457086  1
  Ga  Ga25  1  0.834254  0.539517  0.456830  1
  Ga  Ga26  1  0.792699  0.620051  0.750507  1
  Ga  Ga27  1  0.203904  0.373195  0.249966  1
  Ga  Ga28  1  0.662081  0.042815  0.955806  1
  Sn  Sn29  1  0.291572  0.870069  0.748950  1
  Sn  Sn30  1  0.471340  0.623544  0.249083  1
  Sn  Sn31  1  0.161038  0.459484  0.539146  1
  Sn  Sn32  1  0.828365  0.542423  0.042847  1
  Sn  Sn33  1  0.336210  0.955146  0.039095  1
  Sn  Sn34  1  0.170407  0.458093  0.958398  1
  Sn  Sn35  1  0.658457  0.042846  0.542111  1
