# generated using pymatgen
data_Er16MgTl2AgRh4
_symmetry_space_group_name_H-M   'P 1'
_cell_length_a   9.57595474
_cell_length_b   9.54914323
_cell_length_c   9.60958600
_cell_angle_alpha   59.79039490
_cell_angle_beta   59.88375407
_cell_angle_gamma   59.80660443
_symmetry_Int_Tables_number   1
_chemical_formula_structural   Er16MgTl2AgRh4
_chemical_formula_sum   'Er16 Mg1 Tl2 Ag1 Rh4'
_cell_volume   618.90792320
_cell_formula_units_Z   1
loop_
 _symmetry_equiv_pos_site_id
 _symmetry_equiv_pos_as_xyz
  1  'x, y, z'
loop_
 _atom_site_type_symbol
 _atom_site_label
 _atom_site_symmetry_multiplicity
 _atom_site_fract_x
 _atom_site_fract_y
 _atom_site_fract_z
 _atom_site_occupancy
  Er  Er0  1  0.349423  0.349419  0.346259  1
  Er  Er1  1  0.349423  0.349419  0.954900  1
  Er  Er2  1  0.351928  0.952074  0.347999  1
  Er  Er3  1  0.945606  0.353173  0.350610  1
  Er  Er4  1  0.810097  0.187931  0.189677  1
  Er  Er5  1  0.185588  0.811825  0.814046  1
  Er  Er6  1  0.185588  0.811825  0.188539  1
  Er  Er7  1  0.810097  0.187931  0.812295  1
  Er  Er8  1  0.185266  0.187203  0.813765  1
  Er  Er9  1  0.809431  0.810061  0.190254  1
  Er  Er10  1  0.937424  0.564245  0.564005  1
  Er  Er11  1  0.562453  0.943165  0.930653  1
  Er  Er12  1  0.562453  0.943165  0.563729  1
  Er  Er13  1  0.937424  0.564245  0.934325  1
  Er  Er14  1  0.563338  0.564892  0.935885  1
  Er  Er15  1  0.934798  0.940553  0.562324  1
  Mg  Mg16  1  0.276015  0.570648  0.576668  1
  Tl  Tl17  1  0.582881  0.581649  0.588284  1
  Tl  Tl18  1  0.582881  0.581649  0.247185  1
  Ag  Ag19  1  0.581683  0.244607  0.586855  1
  Rh  Rh20  1  0.141220  0.143178  0.143983  1
  Rh  Rh21  1  0.141220  0.143178  0.571617  1
  Rh  Rh22  1  0.141729  0.571132  0.143569  1
  Rh  Rh23  1  0.572032  0.142829  0.142570  1
