# generated using pymatgen
data_TaGaNi2(PtRh)2
_symmetry_space_group_name_H-M   'P 1'
_cell_length_a   3.84330100
_cell_length_b   3.97160000
_cell_length_c   7.39143600
_cell_angle_alpha   90.00000000
_cell_angle_beta   90.00000000
_cell_angle_gamma   90.00000000
_symmetry_Int_Tables_number   1
_chemical_formula_structural   TaGaNi2(PtRh)2
_chemical_formula_sum   'Ta1 Ga1 Ni2 Pt2 Rh2'
_cell_volume   112.82328010
_cell_formula_units_Z   1
loop_
 _symmetry_equiv_pos_site_id
 _symmetry_equiv_pos_as_xyz
  1  'x, y, z'
loop_
 _atom_site_type_symbol
 _atom_site_label
 _atom_site_symmetry_multiplicity
 _atom_site_fract_x
 _atom_site_fract_y
 _atom_site_fract_z
 _atom_site_occupancy
  Ta  Ta0  1  0.000000  0.000000  0.500000  1
  Ga  Ga1  1  0.000000  0.000000  0.000000  1
  Ni  Ni2  1  0.500000  0.500000  0.000000  1
  Ni  Ni3  1  0.500000  0.500000  0.500000  1
  Pt  Pt4  1  0.000000  0.500000  0.248080  1
  Pt  Pt5  1  0.000000  0.500000  0.751920  1
  Rh  Rh6  1  0.500000  0.000000  0.245887  1
  Rh  Rh7  1  0.500000  0.000000  0.754113  1
