# generated using pymatgen
data_PaAgBr6
_symmetry_space_group_name_H-M   'P 1'
_cell_length_a   7.53530435
_cell_length_b   7.53530471
_cell_length_c   6.98393946
_cell_angle_alpha   82.20545088
_cell_angle_beta   82.20544855
_cell_angle_gamma   116.15810724
_symmetry_Int_Tables_number   1
_chemical_formula_structural   PaAgBr6
_chemical_formula_sum   'Pa1 Ag1 Br6'
_cell_volume   344.03137226
_cell_formula_units_Z   1
loop_
 _symmetry_equiv_pos_site_id
 _symmetry_equiv_pos_as_xyz
  1  'x, y, z'
loop_
 _atom_site_type_symbol
 _atom_site_label
 _atom_site_symmetry_multiplicity
 _atom_site_fract_x
 _atom_site_fract_y
 _atom_site_fract_z
 _atom_site_occupancy
  Pa  Pa0  1  0.990299  0.009701  0.000000  1
  Ag  Ag1  1  0.923017  0.076983  0.500000  1
  Br  Br2  1  0.254977  0.276017  0.186767  1
  Br  Br3  1  0.723983  0.745023  0.813233  1
  Br  Br4  1  0.009951  0.339967  0.750332  1
  Br  Br5  1  0.301445  0.029708  0.744440  1
  Br  Br6  1  0.970292  0.698555  0.255560  1
  Br  Br7  1  0.660033  0.990049  0.249668  1
