# generated using pymatgen
data_CaDy(TcO4)6
_symmetry_space_group_name_H-M   'P 1'
_cell_length_a   9.94794500
_cell_length_b   9.94794554
_cell_length_c   6.17063800
_cell_angle_alpha   90.00000000
_cell_angle_beta   90.00000000
_cell_angle_gamma   119.99999487
_symmetry_Int_Tables_number   1
_chemical_formula_structural   CaDy(TcO4)6
_chemical_formula_sum   'Ca1 Dy1 Tc6 O24'
_cell_volume   528.84389851
_cell_formula_units_Z   1
loop_
 _symmetry_equiv_pos_site_id
 _symmetry_equiv_pos_as_xyz
  1  'x, y, z'
loop_
 _atom_site_type_symbol
 _atom_site_label
 _atom_site_symmetry_multiplicity
 _atom_site_fract_x
 _atom_site_fract_y
 _atom_site_fract_z
 _atom_site_occupancy
  Ca  Ca0  1  0.333333  0.666667  0.250000  1
  Dy  Dy1  1  0.666667  0.333333  0.750000  1
  Tc  Tc2  1  0.613720  0.703311  0.750000  1
  Tc  Tc3  1  0.392177  0.290835  0.250000  1
  Tc  Tc4  1  0.089591  0.386280  0.750000  1
  Tc  Tc5  1  0.898657  0.607823  0.250000  1
  Tc  Tc6  1  0.296689  0.910409  0.750000  1
  Tc  Tc7  1  0.709165  0.101343  0.250000  1
  O  O8  1  0.948413  0.443528  0.750000  1
  O  O9  1  0.041360  0.556764  0.250000  1
  O  O10  1  0.495116  0.051587  0.750000  1
  O  O11  1  0.515404  0.958640  0.250000  1
  O  O12  1  0.556472  0.504884  0.750000  1
  O  O13  1  0.443236  0.484596  0.250000  1
  O  O14  1  0.811188  0.815945  0.750000  1
  O  O15  1  0.195427  0.173690  0.250000  1
  O  O16  1  0.004758  0.188812  0.750000  1
  O  O17  1  0.978262  0.804573  0.250000  1
  O  O18  1  0.184055  0.995242  0.750000  1
  O  O19  1  0.826310  0.021738  0.250000  1
  O  O20  1  0.537537  0.744296  0.979302  1
  O  O21  1  0.471650  0.253212  0.018392  1
  O  O22  1  0.206759  0.462463  0.979302  1
  O  O23  1  0.471650  0.253212  0.481608  1
  O  O24  1  0.781562  0.528350  0.018392  1
  O  O25  1  0.537537  0.744296  0.520698  1
  O  O26  1  0.255704  0.793241  0.979302  1
  O  O27  1  0.781562  0.528350  0.481608  1
  O  O28  1  0.746788  0.218438  0.018392  1
  O  O29  1  0.206759  0.462463  0.520698  1
  O  O30  1  0.746788  0.218438  0.481608  1
  O  O31  1  0.255704  0.793241  0.520698  1
