# generated using pymatgen
data_AcAl6Cu7
_symmetry_space_group_name_H-M   'P 1'
_cell_length_a   8.46432170
_cell_length_b   8.46432131
_cell_length_c   8.46432058
_cell_angle_alpha   121.78956633
_cell_angle_beta   118.71076749
_cell_angle_gamma   89.58806937
_symmetry_Int_Tables_number   1
_chemical_formula_structural   AcAl6Cu7
_chemical_formula_sum   'Ac2 Al12 Cu14'
_cell_volume   426.78421028
_cell_formula_units_Z   2
loop_
 _symmetry_equiv_pos_site_id
 _symmetry_equiv_pos_as_xyz
  1  'x, y, z'
loop_
 _atom_site_type_symbol
 _atom_site_label
 _atom_site_symmetry_multiplicity
 _atom_site_fract_x
 _atom_site_fract_y
 _atom_site_fract_z
 _atom_site_occupancy
  Ac  Ac0  1  0.250000  0.750000  0.500000  1
  Ac  Ac1  1  0.750000  0.250000  0.500000  1
  Al  Al2  1  0.555544  0.547572  0.357521  1
  Al  Al3  1  0.444456  0.452428  0.642479  1
  Al  Al4  1  0.190051  0.198023  0.642479  1
  Al  Al5  1  0.309949  0.952428  0.007971  1
  Al  Al6  1  0.809949  0.801977  0.357521  1
  Al  Al7  1  0.690051  0.047572  0.992029  1
  Al  Al8  1  0.944456  0.301977  0.992029  1
  Al  Al9  1  0.055544  0.698023  0.007971  1
  Al  Al10  1  0.053480  0.306801  0.360281  1
  Al  Al11  1  0.946520  0.693199  0.639719  1
  Al  Al12  1  0.553480  0.193199  0.746679  1
  Al  Al13  1  0.446520  0.806801  0.253321  1
  Cu  Cu14  1  0.284914  0.296004  0.230115  1
  Cu  Cu15  1  0.715086  0.703996  0.769885  1
  Cu  Cu16  1  0.065889  0.054799  0.769885  1
  Cu  Cu17  1  0.434111  0.203996  0.988910  1
  Cu  Cu18  1  0.934111  0.945201  0.230115  1
  Cu  Cu19  1  0.565889  0.796004  0.011090  1
  Cu  Cu20  1  0.215086  0.445201  0.011090  1
  Cu  Cu21  1  0.784914  0.554799  0.988910  1
  Cu  Cu22  1  0.000000  0.000000  0.000000  1
  Cu  Cu23  1  0.500000  0.500000  0.000000  1
  Cu  Cu24  1  0.286573  0.065092  0.351666  1
  Cu  Cu25  1  0.713427  0.934908  0.648334  1
  Cu  Cu26  1  0.786573  0.434908  0.221481  1
  Cu  Cu27  1  0.213427  0.565092  0.778519  1
