# generated using pymatgen
data_Pa2Mn14(BeC)3
_symmetry_space_group_name_H-M   'P 1'
_cell_length_a   6.32124602
_cell_length_b   6.32124555
_cell_length_c   6.32124584
_cell_angle_alpha   83.02328738
_cell_angle_beta   83.02328362
_cell_angle_gamma   83.02327356
_symmetry_Int_Tables_number   1
_chemical_formula_structural   Pa2Mn14(BeC)3
_chemical_formula_sum   'Pa2 Mn14 Be3 C3'
_cell_volume   247.39464240
_cell_formula_units_Z   1
loop_
 _symmetry_equiv_pos_site_id
 _symmetry_equiv_pos_as_xyz
  1  'x, y, z'
loop_
 _atom_site_type_symbol
 _atom_site_label
 _atom_site_symmetry_multiplicity
 _atom_site_fract_x
 _atom_site_fract_y
 _atom_site_fract_z
 _atom_site_occupancy
  Pa  Pa0  1  0.658563  0.658563  0.658563  1
  Pa  Pa1  1  0.341437  0.341437  0.341437  1
  Mn  Mn2  1  0.729548  0.270452  0.000000  1
  Mn  Mn3  1  0.000000  0.729548  0.270452  1
  Mn  Mn4  1  0.270452  0.000000  0.729548  1
  Mn  Mn5  1  0.000000  0.270452  0.729548  1
  Mn  Mn6  1  0.729548  0.000000  0.270452  1
  Mn  Mn7  1  0.270452  0.729548  0.000000  1
  Mn  Mn8  1  0.344610  0.344610  0.853344  1
  Mn  Mn9  1  0.853344  0.344610  0.344610  1
  Mn  Mn10  1  0.344610  0.853344  0.344610  1
  Mn  Mn11  1  0.655390  0.655390  0.146656  1
  Mn  Mn12  1  0.146656  0.655390  0.655390  1
  Mn  Mn13  1  0.655390  0.146656  0.655390  1
  Mn  Mn14  1  0.901505  0.901505  0.901505  1
  Mn  Mn15  1  0.098495  0.098495  0.098495  1
  Be  Be16  1  0.000000  0.000000  0.500000  1
  Be  Be17  1  0.500000  0.000000  0.000000  1
  Be  Be18  1  0.000000  0.500000  0.000000  1
  C  C19  1  0.500000  0.500000  0.000000  1
  C  C20  1  0.000000  0.500000  0.500000  1
  C  C21  1  0.500000  0.000000  0.500000  1
