# generated using pymatgen
data_Cs4As4PdPt
_symmetry_space_group_name_H-M   'P 1'
_cell_length_a   8.42085760
_cell_length_b   8.42085706
_cell_length_c   6.49735656
_cell_angle_alpha   89.74408931
_cell_angle_beta   90.25590596
_cell_angle_gamma   129.86391726
_symmetry_Int_Tables_number   1
_chemical_formula_structural   Cs4As4PdPt
_chemical_formula_sum   'Cs4 As4 Pd1 Pt1'
_cell_volume   353.64005054
_cell_formula_units_Z   1
loop_
 _symmetry_equiv_pos_site_id
 _symmetry_equiv_pos_as_xyz
  1  'x, y, z'
loop_
 _atom_site_type_symbol
 _atom_site_label
 _atom_site_symmetry_multiplicity
 _atom_site_fract_x
 _atom_site_fract_y
 _atom_site_fract_z
 _atom_site_occupancy
  Cs  Cs0  1  0.792257  0.207743  0.250047  1
  Cs  Cs1  1  0.207743  0.792257  0.749953  1
  Cs  Cs2  1  0.415764  0.584236  0.248965  1
  Cs  Cs3  1  0.584236  0.415764  0.751035  1
  As  As4  1  0.070836  0.270880  0.750489  1
  As  As5  1  0.929164  0.729120  0.249511  1
  As  As6  1  0.270880  0.070836  0.249511  1
  As  As7  1  0.729120  0.929164  0.750489  1
  Pd  Pd8  1  0.000000  0.000000  0.500000  1
  Pt  Pt9  1  0.000000  0.000000  0.000000  1
