# generated using pymatgen
data_Tb8Ti10Nb2Si15Sn
_symmetry_space_group_name_H-M   'P 1'
_cell_length_a   7.13031016
_cell_length_b   7.09590848
_cell_length_c   13.08896413
_cell_angle_alpha   89.97735592
_cell_angle_beta   89.83969077
_cell_angle_gamma   89.93751849
_symmetry_Int_Tables_number   1
_chemical_formula_structural   Tb8Ti10Nb2Si15Sn
_chemical_formula_sum   'Tb8 Ti10 Nb2 Si15 Sn1'
_cell_volume   662.24656262
_cell_formula_units_Z   1
loop_
 _symmetry_equiv_pos_site_id
 _symmetry_equiv_pos_as_xyz
  1  'x, y, z'
loop_
 _atom_site_type_symbol
 _atom_site_label
 _atom_site_symmetry_multiplicity
 _atom_site_fract_x
 _atom_site_fract_y
 _atom_site_fract_z
 _atom_site_occupancy
  Tb  Tb0  1  0.342729  0.999549  0.461663  1
  Tb  Tb1  1  0.505177  0.834339  0.718320  1
  Tb  Tb2  1  0.501757  0.159787  0.216644  1
  Tb  Tb3  1  0.840626  0.497563  0.282033  1
  Tb  Tb4  1  0.159869  0.509552  0.786059  1
  Tb  Tb5  1  0.661430  0.996841  0.968803  1
  Tb  Tb6  1  0.993601  0.347125  0.527492  1
  Tb  Tb7  1  0.999372  0.659346  0.034292  1
  Ti  Ti8  1  0.816885  0.175393  0.751871  1
  Ti  Ti9  1  0.672480  0.672949  0.499581  1
  Ti  Ti10  1  0.154311  0.008920  0.883546  1
  Ti  Ti11  1  0.490757  0.651877  0.126503  1
  Ti  Ti12  1  0.515036  0.352572  0.626252  1
  Ti  Ti13  1  0.654338  0.492640  0.875970  1
  Ti  Ti14  1  0.345530  0.509991  0.372442  1
  Ti  Ti15  1  0.846705  0.991465  0.375183  1
  Ti  Ti16  1  0.010706  0.152893  0.123701  1
  Ti  Ti17  1  0.979727  0.834590  0.618984  1
  Nb  Nb18  1  0.326406  0.326660  0.001098  1
  Nb  Nb19  1  0.173849  0.826333  0.249777  1
  Si  Si20  1  0.372559  0.702713  0.936358  1
  Si  Si21  1  0.626817  0.297851  0.433714  1
  Si  Si22  1  0.703201  0.371233  0.065566  1
  Si  Si23  1  0.297541  0.629017  0.564872  1
  Si  Si24  1  0.797979  0.871683  0.185126  1
  Si  Si25  1  0.128281  0.202559  0.314453  1
  Si  Si26  1  0.871899  0.800782  0.815274  1
  Si  Si27  1  0.292981  0.952216  0.066003  1
  Si  Si28  1  0.549583  0.789112  0.313863  1
  Si  Si29  1  0.460496  0.210039  0.818870  1
  Si  Si30  1  0.793447  0.544250  0.686528  1
  Si  Si31  1  0.208817  0.452690  0.186109  1
  Si  Si32  1  0.707140  0.048141  0.564671  1
  Si  Si33  1  0.952184  0.291368  0.934999  1
  Si  Si34  1  0.047199  0.710255  0.433785  1
  Sn  Sn35  1  0.198585  0.125707  0.679590  1
