# generated using pymatgen
data_PrSmHoSi6(Pd3Pt)5
_symmetry_space_group_name_H-M   'P 1'
_cell_length_a   8.74679553
_cell_length_b   8.74679665
_cell_length_c   8.74679600
_cell_angle_alpha   60.00000244
_cell_angle_beta   59.99999824
_cell_angle_gamma   60.00000521
_symmetry_Int_Tables_number   1
_chemical_formula_structural   PrSmHoSi6(Pd3Pt)5
_chemical_formula_sum   'Pr1 Sm1 Ho1 Si6 Pd15 Pt5'
_cell_volume   473.18614887
_cell_formula_units_Z   1
loop_
 _symmetry_equiv_pos_site_id
 _symmetry_equiv_pos_as_xyz
  1  'x, y, z'
loop_
 _atom_site_type_symbol
 _atom_site_label
 _atom_site_symmetry_multiplicity
 _atom_site_fract_x
 _atom_site_fract_y
 _atom_site_fract_z
 _atom_site_occupancy
  Pr  Pr0  1  0.750289  0.750563  0.749574  1
  Sm  Sm1  1  0.249908  0.250167  0.249962  1
  Ho  Ho2  1  0.000001  0.000023  0.999988  1
  Si  Si3  1  0.732175  0.267473  0.266530  1
  Si  Si4  1  0.268136  0.732353  0.732797  1
  Si  Si5  1  0.268136  0.732353  0.266714  1
  Si  Si6  1  0.732175  0.267473  0.733822  1
  Si  Si7  1  0.267446  0.266815  0.732869  1
  Si  Si8  1  0.732108  0.733083  0.267404  1
  Pd  Pd9  1  0.615914  0.155959  0.614064  1
  Pd  Pd10  1  0.848197  0.382749  0.384528  1
  Pd  Pd11  1  0.155088  0.615098  0.614907  1
  Pd  Pd12  1  0.344212  0.000814  0.000257  1
  Pd  Pd13  1  0.654629  0.000831  0.000386  1
  Pd  Pd14  1  0.000338  0.344674  0.654701  1
  Pd  Pd15  1  0.000380  0.654806  0.344387  1
  Pd  Pd16  1  0.000338  0.344674  0.000286  1
  Pd  Pd17  1  0.654629  0.000831  0.344153  1
  Pd  Pd18  1  0.000380  0.654806  0.000425  1
  Pd  Pd19  1  0.344212  0.000814  0.654716  1
  Pd  Pd20  1  0.000302  0.000937  0.344383  1
  Pd  Pd21  1  0.000302  0.000937  0.654378  1
  Pd  Pd22  1  0.655006  0.344417  0.000288  1
  Pd  Pd23  1  0.344108  0.655203  0.000344  1
  Pt  Pt24  1  0.383953  0.384140  0.385982  1
  Pt  Pt25  1  0.615401  0.613500  0.613324  1
  Pt  Pt26  1  0.383953  0.384140  0.845927  1
  Pt  Pt27  1  0.382882  0.846863  0.385129  1
  Pt  Pt28  1  0.615401  0.613500  0.157775  1
