# generated using pymatgen
data_Lu16TlIn2HgRh4
_symmetry_space_group_name_H-M   'P 1'
_cell_length_a   9.44761212
_cell_length_b   9.44761230
_cell_length_c   9.44825411
_cell_angle_alpha   60.00112410
_cell_angle_beta   60.00112229
_cell_angle_gamma   60.00391489
_symmetry_Int_Tables_number   1
_chemical_formula_structural   Lu16TlIn2HgRh4
_chemical_formula_sum   'Lu16 Tl1 In2 Hg1 Rh4'
_cell_volume   596.34956365
_cell_formula_units_Z   1
loop_
 _symmetry_equiv_pos_site_id
 _symmetry_equiv_pos_as_xyz
  1  'x, y, z'
loop_
 _atom_site_type_symbol
 _atom_site_label
 _atom_site_symmetry_multiplicity
 _atom_site_fract_x
 _atom_site_fract_y
 _atom_site_fract_z
 _atom_site_occupancy
  Lu  Lu0  1  0.597847  0.597847  0.598481  1
  Lu  Lu1  1  0.602081  0.602081  0.197414  1
  Lu  Lu2  1  0.601897  0.197510  0.602481  1
  Lu  Lu3  1  0.197510  0.601897  0.602481  1
  Lu  Lu4  1  0.059053  0.439250  0.440477  1
  Lu  Lu5  1  0.438511  0.060435  0.060526  1
  Lu  Lu6  1  0.439250  0.059053  0.440477  1
  Lu  Lu7  1  0.060435  0.438511  0.060526  1
  Lu  Lu8  1  0.440165  0.440165  0.058749  1
  Lu  Lu9  1  0.060826  0.060826  0.438829  1
  Lu  Lu10  1  0.185079  0.812990  0.813055  1
  Lu  Lu11  1  0.811580  0.189191  0.188429  1
  Lu  Lu12  1  0.812990  0.185079  0.813055  1
  Lu  Lu13  1  0.189191  0.811580  0.188429  1
  Lu  Lu14  1  0.812821  0.812821  0.184740  1
  Lu  Lu15  1  0.188553  0.188553  0.811721  1
  Tl  Tl16  1  0.834454  0.834454  0.496645  1
  In  In17  1  0.833023  0.500072  0.833866  1
  In  In18  1  0.500072  0.833023  0.833866  1
  Hg  Hg19  1  0.837183  0.837183  0.838280  1
  Rh  Rh20  1  0.392731  0.392731  0.392836  1
  Rh  Rh21  1  0.390762  0.390762  0.823156  1
  Rh  Rh22  1  0.390855  0.823131  0.390740  1
  Rh  Rh23  1  0.823131  0.390855  0.390740  1
