# generated using pymatgen
data_Li3CeDy3Si8Ir
_symmetry_space_group_name_H-M   'P 1'
_cell_length_a   3.84703100
_cell_length_b   7.45596944
_cell_length_c   10.09089264
_cell_angle_alpha   90.00063794
_cell_angle_beta   90.00000000
_cell_angle_gamma   90.00000000
_symmetry_Int_Tables_number   1
_chemical_formula_structural   Li3CeDy3Si8Ir
_chemical_formula_sum   'Li3 Ce1 Dy3 Si8 Ir1'
_cell_volume   289.44056088
_cell_formula_units_Z   1
loop_
 _symmetry_equiv_pos_site_id
 _symmetry_equiv_pos_as_xyz
  1  'x, y, z'
loop_
 _atom_site_type_symbol
 _atom_site_label
 _atom_site_symmetry_multiplicity
 _atom_site_fract_x
 _atom_site_fract_y
 _atom_site_fract_z
 _atom_site_occupancy
  Li  Li0  1  0.250000  0.490123  0.107854  1
  Li  Li1  1  0.750000  0.009296  0.604064  1
  Li  Li2  1  0.750000  0.503905  0.892533  1
  Ce  Ce3  1  0.750000  0.370374  0.364945  1
  Dy  Dy4  1  0.250000  0.135901  0.867443  1
  Dy  Dy5  1  0.250000  0.641695  0.627916  1
  Dy  Dy6  1  0.750000  0.863696  0.135869  1
  Si  Si7  1  0.250000  0.222040  0.563579  1
  Si  Si8  1  0.250000  0.731588  0.929481  1
  Si  Si9  1  0.750000  0.787920  0.431116  1
  Si  Si10  1  0.750000  0.259054  0.073314  1
  Si  Si11  1  0.250000  0.665651  0.320815  1
  Si  Si12  1  0.250000  0.156026  0.191686  1
  Si  Si13  1  0.750000  0.334239  0.678048  1
  Si  Si14  1  0.750000  0.841579  0.816607  1
  Ir  Ir15  1  0.250000  0.986915  0.394730  1
