# generated using pymatgen
data_Lu10In8HgIr3
_symmetry_space_group_name_H-M   'P 1'
_cell_length_a   3.55542000
_cell_length_b   8.07788655
_cell_length_c   18.13061258
_cell_angle_alpha   89.81305901
_cell_angle_beta   90.00000000
_cell_angle_gamma   90.00000000
_symmetry_Int_Tables_number   1
_chemical_formula_structural   Lu10In8HgIr3
_chemical_formula_sum   'Lu10 In8 Hg1 Ir3'
_cell_volume   520.71348724
_cell_formula_units_Z   1
loop_
 _symmetry_equiv_pos_site_id
 _symmetry_equiv_pos_as_xyz
  1  'x, y, z'
loop_
 _atom_site_type_symbol
 _atom_site_label
 _atom_site_symmetry_multiplicity
 _atom_site_fract_x
 _atom_site_fract_y
 _atom_site_fract_z
 _atom_site_occupancy
  Lu  Lu0  1  0.000000  0.874371  0.075995  1
  Lu  Lu1  1  0.000000  0.735000  0.284851  1
  Lu  Lu2  1  0.000000  0.744707  0.777668  1
  Lu  Lu3  1  0.000000  0.384548  0.415341  1
  Lu  Lu4  1  0.000000  0.115476  0.911106  1
  Lu  Lu5  1  0.000000  0.246103  0.722323  1
  Lu  Lu6  1  0.000000  0.500752  0.998120  1
  Lu  Lu7  1  0.000000  0.281898  0.223541  1
  Lu  Lu8  1  0.000000  0.616694  0.588410  1
  Lu  Lu9  1  0.000000  0.999542  0.501560  1
  In  In10  1  0.500000  0.208466  0.063470  1
  In  In11  1  0.500000  0.426696  0.851523  1
  In  In12  1  0.500000  0.573521  0.147126  1
  In  In13  1  0.500000  0.079657  0.354908  1
  In  In14  1  0.500000  0.927000  0.648783  1
  In  In15  1  0.500000  0.791887  0.930934  1
  In  In16  1  0.500000  0.706060  0.434785  1
  In  In17  1  0.500000  0.293468  0.566925  1
  Hg  Hg18  1  0.500000  0.973855  0.198261  1
  Ir  Ir19  1  0.500000  0.022537  0.803327  1
  Ir  Ir20  1  0.500000  0.522851  0.696519  1
  Ir  Ir21  1  0.500000  0.474912  0.304524  1
