# generated using pymatgen
data_Nd18MgCdIr12
_symmetry_space_group_name_H-M   'P 1'
_cell_length_a   11.12457000
_cell_length_b   11.12457000
_cell_length_c   6.40740500
_cell_angle_alpha   90.00000000
_cell_angle_beta   90.00000000
_cell_angle_gamma   90.00000000
_symmetry_Int_Tables_number   1
_chemical_formula_structural   Nd18MgCdIr12
_chemical_formula_sum   'Nd18 Mg1 Cd1 Ir12'
_cell_volume   792.95518279
_cell_formula_units_Z   1
loop_
 _symmetry_equiv_pos_site_id
 _symmetry_equiv_pos_as_xyz
  1  'x, y, z'
loop_
 _atom_site_type_symbol
 _atom_site_label
 _atom_site_symmetry_multiplicity
 _atom_site_fract_x
 _atom_site_fract_y
 _atom_site_fract_z
 _atom_site_occupancy
  Nd  Nd0  1  0.282806  0.085565  0.382090  1
  Nd  Nd1  1  0.290502  0.912725  0.878142  1
  Nd  Nd2  1  0.709498  0.087275  0.878142  1
  Nd  Nd3  1  0.717194  0.914435  0.382090  1
  Nd  Nd4  1  0.585813  0.781042  0.880850  1
  Nd  Nd5  1  0.587334  0.208620  0.377311  1
  Nd  Nd6  1  0.412666  0.791380  0.377311  1
  Nd  Nd7  1  0.414187  0.218958  0.880850  1
  Nd  Nd8  1  0.208620  0.412666  0.622689  1
  Nd  Nd9  1  0.218958  0.585813  0.119150  1
  Nd  Nd10  1  0.781042  0.414187  0.119150  1
  Nd  Nd11  1  0.791380  0.587334  0.622689  1
  Nd  Nd12  1  0.912725  0.709498  0.121858  1
  Nd  Nd13  1  0.914435  0.282806  0.617910  1
  Nd  Nd14  1  0.085565  0.717194  0.617910  1
  Nd  Nd15  1  0.087275  0.290502  0.121858  1
  Nd  Nd16  1  0.000000  0.000000  0.000000  1
  Nd  Nd17  1  0.500000  0.500000  0.500000  1
  Mg  Mg18  1  0.000000  0.000000  0.500000  1
  Cd  Cd19  1  0.500000  0.500000  0.000000  1
  Ir  Ir20  1  0.848395  0.155553  0.244948  1
  Ir  Ir21  1  0.844447  0.848395  0.755052  1
  Ir  Ir22  1  0.155553  0.151605  0.755052  1
  Ir  Ir23  1  0.151605  0.844447  0.244948  1
  Ir  Ir24  1  0.658676  0.345639  0.739883  1
  Ir  Ir25  1  0.654361  0.658676  0.260117  1
  Ir  Ir26  1  0.345639  0.341324  0.260117  1
  Ir  Ir27  1  0.341324  0.654361  0.739883  1
  Ir  Ir28  1  0.500000  0.000000  0.114644  1
  Ir  Ir29  1  0.500000  0.000000  0.617729  1
  Ir  Ir30  1  0.000000  0.500000  0.885356  1
  Ir  Ir31  1  0.000000  0.500000  0.382271  1
