# generated using pymatgen
data_PrNd2Hg5
_symmetry_space_group_name_H-M   'P 1'
_cell_length_a   6.54092548
_cell_length_b   6.54092666
_cell_length_c   10.61554100
_cell_angle_alpha   90.00000000
_cell_angle_beta   90.00000000
_cell_angle_gamma   105.95044045
_symmetry_Int_Tables_number   1
_chemical_formula_structural   PrNd2Hg5
_chemical_formula_sum   'Pr2 Nd4 Hg10'
_cell_volume   436.68652591
_cell_formula_units_Z   2
loop_
 _symmetry_equiv_pos_site_id
 _symmetry_equiv_pos_as_xyz
  1  'x, y, z'
loop_
 _atom_site_type_symbol
 _atom_site_label
 _atom_site_symmetry_multiplicity
 _atom_site_fract_x
 _atom_site_fract_y
 _atom_site_fract_z
 _atom_site_occupancy
  Pr  Pr0  1  0.203546  0.796454  0.500000  1
  Pr  Pr1  1  0.203546  0.796454  0.000000  1
  Nd  Nd2  1  0.590626  0.590042  0.250000  1
  Nd  Nd3  1  0.409958  0.409374  0.750000  1
  Nd  Nd4  1  0.796496  0.203504  0.500000  1
  Nd  Nd5  1  0.796496  0.203504  0.000000  1
  Hg  Hg6  1  0.996712  0.997267  0.250000  1
  Hg  Hg7  1  0.002733  0.003288  0.750000  1
  Hg  Hg8  1  0.302804  0.302901  0.033771  1
  Hg  Hg9  1  0.697099  0.697196  0.966229  1
  Hg  Hg10  1  0.302804  0.302901  0.466229  1
  Hg  Hg11  1  0.697099  0.697196  0.533771  1
  Hg  Hg12  1  0.487474  0.050774  0.250000  1
  Hg  Hg13  1  0.949226  0.512526  0.750000  1
  Hg  Hg14  1  0.513593  0.950212  0.750000  1
  Hg  Hg15  1  0.049788  0.486407  0.250000  1
