# generated using pymatgen
data_Pr3Nd13(Ga3Tc)2
_symmetry_space_group_name_H-M   'P 1'
_cell_length_a   10.49493901
_cell_length_b   10.49492474
_cell_length_c   7.14810310
_cell_angle_alpha   90.00828988
_cell_angle_beta   89.99134390
_cell_angle_gamma   119.99768998
_symmetry_Int_Tables_number   1
_chemical_formula_structural   Pr3Nd13(Ga3Tc)2
_chemical_formula_sum   'Pr3 Nd13 Ga6 Tc2'
_cell_volume   681.85305367
_cell_formula_units_Z   1
loop_
 _symmetry_equiv_pos_site_id
 _symmetry_equiv_pos_as_xyz
  1  'x, y, z'
loop_
 _atom_site_type_symbol
 _atom_site_label
 _atom_site_symmetry_multiplicity
 _atom_site_fract_x
 _atom_site_fract_y
 _atom_site_fract_z
 _atom_site_occupancy
  Pr  Pr0  1  0.536696  0.463303  0.796061  1
  Pr  Pr1  1  0.999945  0.000053  0.272940  1
  Pr  Pr2  1  0.999963  0.000035  0.772735  1
  Nd  Nd3  1  0.169344  0.830657  0.988350  1
  Nd  Nd4  1  0.338322  0.168965  0.487957  1
  Nd  Nd5  1  0.831035  0.661677  0.487957  1
  Nd  Nd6  1  0.168860  0.338316  0.988678  1
  Nd  Nd7  1  0.661685  0.831141  0.988677  1
  Nd  Nd8  1  0.830830  0.169170  0.488077  1
  Nd  Nd9  1  0.333120  0.666880  0.667704  1
  Nd  Nd10  1  0.666804  0.333196  0.167885  1
  Nd  Nd11  1  0.462803  0.537198  0.296035  1
  Nd  Nd12  1  0.926265  0.462939  0.796377  1
  Nd  Nd13  1  0.537061  0.073737  0.796374  1
  Nd  Nd14  1  0.463060  0.926155  0.296532  1
  Nd  Nd15  1  0.073843  0.536941  0.296533  1
  Ga  Ga16  1  0.165333  0.834668  0.539288  1
  Ga  Ga17  1  0.330236  0.164821  0.039968  1
  Ga  Ga18  1  0.835180  0.669764  0.039970  1
  Ga  Ga19  1  0.165358  0.330754  0.539333  1
  Ga  Ga20  1  0.669246  0.834642  0.539332  1
  Ga  Ga21  1  0.834609  0.165391  0.039133  1
  Tc  Tc22  1  0.333321  0.666677  0.050383  1
  Tc  Tc23  1  0.667081  0.332920  0.549714  1
