# generated using pymatgen
data_TbTm11(TcOs)2
_symmetry_space_group_name_H-M   'P 1'
_cell_length_a   6.22248905
_cell_length_b   7.36972623
_cell_length_c   8.95316900
_cell_angle_alpha   90.00000000
_cell_angle_beta   90.00000000
_cell_angle_gamma   90.06626205
_symmetry_Int_Tables_number   1
_chemical_formula_structural   TbTm11(TcOs)2
_chemical_formula_sum   'Tb1 Tm11 Tc2 Os2'
_cell_volume   410.57451391
_cell_formula_units_Z   1
loop_
 _symmetry_equiv_pos_site_id
 _symmetry_equiv_pos_as_xyz
  1  'x, y, z'
loop_
 _atom_site_type_symbol
 _atom_site_label
 _atom_site_symmetry_multiplicity
 _atom_site_fract_x
 _atom_site_fract_y
 _atom_site_fract_z
 _atom_site_occupancy
  Tb  Tb0  1  0.623117  0.039773  0.250000  1
  Tm  Tm1  1  0.337250  0.675081  0.061281  1
  Tm  Tm2  1  0.160690  0.175666  0.439065  1
  Tm  Tm3  1  0.664713  0.325460  0.563216  1
  Tm  Tm4  1  0.835902  0.823357  0.936522  1
  Tm  Tm5  1  0.664713  0.325460  0.936784  1
  Tm  Tm6  1  0.835902  0.823357  0.563478  1
  Tm  Tm7  1  0.337250  0.675081  0.438719  1
  Tm  Tm8  1  0.160690  0.175666  0.060935  1
  Tm  Tm9  1  0.876584  0.539318  0.250000  1
  Tm  Tm10  1  0.130487  0.458772  0.750000  1
  Tm  Tm11  1  0.370012  0.959105  0.750000  1
  Tc  Tc12  1  0.041266  0.883312  0.250000  1
  Tc  Tc13  1  0.461545  0.384888  0.250000  1
  Os  Os14  1  0.959938  0.117844  0.750000  1
  Os  Os15  1  0.539940  0.617854  0.750000  1
