# generated using pymatgen
data_Dy7Er3(IrPt2)2
_symmetry_space_group_name_H-M   'P 1'
_cell_length_a   11.03018800
_cell_length_b   11.03489100
_cell_length_c   6.30896300
_cell_angle_alpha   89.99988840
_cell_angle_beta   89.99670958
_cell_angle_gamma   90.00011425
_symmetry_Int_Tables_number   1
_chemical_formula_structural   Dy7Er3(IrPt2)2
_chemical_formula_sum   'Dy14 Er6 Ir4 Pt8'
_cell_volume   767.90755856
_cell_formula_units_Z   2
loop_
 _symmetry_equiv_pos_site_id
 _symmetry_equiv_pos_as_xyz
  1  'x, y, z'
loop_
 _atom_site_type_symbol
 _atom_site_label
 _atom_site_symmetry_multiplicity
 _atom_site_fract_x
 _atom_site_fract_y
 _atom_site_fract_z
 _atom_site_occupancy
  Dy  Dy0  1  0.705681  0.087511  0.875035  1
  Dy  Dy1  1  0.705680  0.912485  0.375040  1
  Dy  Dy2  1  0.587316  0.794383  0.875084  1
  Dy  Dy3  1  0.587316  0.205616  0.375089  1
  Dy  Dy4  1  0.412032  0.794690  0.375228  1
  Dy  Dy5  1  0.412035  0.205307  0.875224  1
  Dy  Dy6  1  0.205692  0.412374  0.624735  1
  Dy  Dy7  1  0.205691  0.587630  0.124735  1
  Dy  Dy8  1  0.794249  0.412465  0.124918  1
  Dy  Dy9  1  0.794251  0.587538  0.624909  1
  Dy  Dy10  1  0.912419  0.705815  0.124936  1
  Dy  Dy11  1  0.912417  0.294185  0.624929  1
  Dy  Dy12  1  0.087793  0.705892  0.624969  1
  Dy  Dy13  1  0.087792  0.294109  0.124974  1
  Er  Er14  1  0.294954  0.087187  0.375666  1
  Er  Er15  1  0.294950  0.912812  0.875661  1
  Er  Er16  1  0.000371  0.000079  0.499914  1
  Er  Er17  1  0.000370  0.999911  0.999913  1
  Er  Er18  1  0.499953  0.499951  0.999937  1
  Er  Er19  1  0.499952  0.500064  0.499937  1
  Ir  Ir20  1  0.499114  0.999940  0.121751  1
  Ir  Ir21  1  0.499112  0.000049  0.621748  1
  Ir  Ir22  1  0.000038  0.500028  0.878318  1
  Ir  Ir23  1  0.000037  0.499980  0.378302  1
  Pt  Pt24  1  0.847322  0.152652  0.250043  1
  Pt  Pt25  1  0.847315  0.847347  0.750041  1
  Pt  Pt26  1  0.153246  0.152058  0.749221  1
  Pt  Pt27  1  0.153242  0.847933  0.249228  1
  Pt  Pt28  1  0.652667  0.347360  0.749982  1
  Pt  Pt29  1  0.652670  0.652636  0.249990  1
  Pt  Pt30  1  0.347160  0.346785  0.250276  1
  Pt  Pt31  1  0.347162  0.653229  0.750266  1
