# generated using pymatgen
data_YHf4Zr(SnIr)6
_symmetry_space_group_name_H-M   'P 1'
_cell_length_a   7.42394514
_cell_length_b   7.48507937
_cell_length_c   7.34396300
_cell_angle_alpha   90.00135078
_cell_angle_beta   90.00041912
_cell_angle_gamma   119.78635073
_symmetry_Int_Tables_number   1
_chemical_formula_structural   YHf4Zr(SnIr)6
_chemical_formula_sum   'Y1 Hf4 Zr1 Sn6 Ir6'
_cell_volume   354.17934948
_cell_formula_units_Z   1
loop_
 _symmetry_equiv_pos_site_id
 _symmetry_equiv_pos_as_xyz
  1  'x, y, z'
loop_
 _atom_site_type_symbol
 _atom_site_label
 _atom_site_symmetry_multiplicity
 _atom_site_fract_x
 _atom_site_fract_y
 _atom_site_fract_z
 _atom_site_occupancy
  Y  Y0  1  0.404193  0.007520  0.250005  1
  Hf  Hf1  1  0.606516  0.612331  0.749974  1
  Hf  Hf2  1  0.603461  0.604114  0.249963  1
  Hf  Hf3  1  0.011274  0.396158  0.749994  1
  Hf  Hf4  1  0.387645  0.995493  0.750010  1
  Zr  Zr5  1  0.989042  0.391270  0.250029  1
  Sn  Sn6  1  0.269575  0.267410  0.496776  1
  Sn  Sn7  1  0.269530  0.267414  0.003236  1
  Sn  Sn8  1  0.731055  0.003836  0.991070  1
  Sn  Sn9  1  0.997725  0.728425  0.498516  1
  Sn  Sn10  1  0.731049  0.003798  0.508945  1
  Sn  Sn11  1  0.997719  0.728360  0.001428  1
  Ir  Ir12  1  0.670695  0.338055  0.537051  1
  Ir  Ir13  1  0.670630  0.338066  0.962994  1
  Ir  Ir14  1  0.336097  0.661062  0.991791  1
  Ir  Ir15  1  0.336119  0.661075  0.508217  1
  Ir  Ir16  1  0.003880  0.000185  0.750009  1
  Ir  Ir17  1  0.983797  0.995428  0.249988  1
