# generated using pymatgen
data_Li3Ac2HoGe3
_symmetry_space_group_name_H-M   'P 1'
_cell_length_a   7.46427433
_cell_length_b   7.46427455
_cell_length_c   4.48610500
_cell_angle_alpha   90.00000000
_cell_angle_beta   90.00000000
_cell_angle_gamma   118.71222688
_symmetry_Int_Tables_number   1
_chemical_formula_structural   Li3Ac2HoGe3
_chemical_formula_sum   'Li3 Ac2 Ho1 Ge3'
_cell_volume   219.21276876
_cell_formula_units_Z   1
loop_
 _symmetry_equiv_pos_site_id
 _symmetry_equiv_pos_as_xyz
  1  'x, y, z'
loop_
 _atom_site_type_symbol
 _atom_site_label
 _atom_site_symmetry_multiplicity
 _atom_site_fract_x
 _atom_site_fract_y
 _atom_site_fract_z
 _atom_site_occupancy
  Li  Li0  1  0.232337  0.011298  0.500000  1
  Li  Li1  1  0.764452  0.764452  0.500000  1
  Li  Li2  1  0.011298  0.232337  0.500000  1
  Ac  Ac3  1  0.996180  0.577607  0.000000  1
  Ac  Ac4  1  0.577607  0.996180  0.000000  1
  Ho  Ho5  1  0.409231  0.409231  0.000000  1
  Ge  Ge6  1  0.342015  0.646842  0.500000  1
  Ge  Ge7  1  0.646842  0.342015  0.500000  1
  Ge  Ge8  1  0.020038  0.020038  0.000000  1
