# generated using pymatgen
data_Li2Ag3
_symmetry_space_group_name_H-M   'P 1'
_cell_length_a   4.90553733
_cell_length_b   5.06619897
_cell_length_c   5.07023371
_cell_angle_alpha   47.88858290
_cell_angle_beta   77.98848877
_cell_angle_gamma   97.63823954
_symmetry_Int_Tables_number   1
_chemical_formula_structural   Li2Ag3
_chemical_formula_sum   'Li2 Ag3'
_cell_volume   84.74007912
_cell_formula_units_Z   1
loop_
 _symmetry_equiv_pos_site_id
 _symmetry_equiv_pos_as_xyz
  1  'x, y, z'
loop_
 _atom_site_type_symbol
 _atom_site_label
 _atom_site_symmetry_multiplicity
 _atom_site_fract_x
 _atom_site_fract_y
 _atom_site_fract_z
 _atom_site_occupancy
  Li  Li0  1  0.014279  0.755180  0.247793  1
  Li  Li1  1  0.238931  0.573360  0.841392  1
  Ag  Ag2  1  0.421396  0.362795  0.450583  1
  Ag  Ag3  1  0.626561  0.164473  0.044318  1
  Ag  Ag4  1  0.831888  0.966109  0.638139  1
