# generated using pymatgen
data_Lu12Th8Sn11Sb5
_symmetry_space_group_name_H-M   'P 1'
_cell_length_a   8.13594543
_cell_length_b   8.17396770
_cell_length_c   15.40792100
_cell_angle_alpha   90.03611317
_cell_angle_beta   90.01859168
_cell_angle_gamma   89.99217264
_symmetry_Int_Tables_number   1
_chemical_formula_structural   Lu12Th8Sn11Sb5
_chemical_formula_sum   'Lu12 Th8 Sn11 Sb5'
_cell_volume   1024.67201201
_cell_formula_units_Z   1
loop_
 _symmetry_equiv_pos_site_id
 _symmetry_equiv_pos_as_xyz
  1  'x, y, z'
loop_
 _atom_site_type_symbol
 _atom_site_label
 _atom_site_symmetry_multiplicity
 _atom_site_fract_x
 _atom_site_fract_y
 _atom_site_fract_z
 _atom_site_occupancy
  Lu  Lu0  1  0.357396  0.841783  0.876143  1
  Lu  Lu1  1  0.858310  0.658755  0.624903  1
  Lu  Lu2  1  0.641248  0.158887  0.375183  1
  Lu  Lu3  1  0.140652  0.342020  0.124740  1
  Lu  Lu4  1  0.643309  0.159371  0.123862  1
  Lu  Lu5  1  0.143530  0.339542  0.375655  1
  Lu  Lu6  1  0.356414  0.840033  0.624684  1
  Lu  Lu7  1  0.858078  0.658806  0.875625  1
  Lu  Lu8  1  0.186700  0.496446  0.748455  1
  Lu  Lu9  1  0.686802  0.003642  0.750229  1
  Lu  Lu10  1  0.813057  0.503135  0.248620  1
  Lu  Lu11  1  0.313054  0.997109  0.251313  1
  Th  Th12  1  0.518925  0.322059  0.905954  1
  Th  Th13  1  0.018352  0.178036  0.594400  1
  Th  Th14  1  0.481654  0.677804  0.405470  1
  Th  Th15  1  0.981840  0.821229  0.094455  1
  Th  Th16  1  0.483657  0.678828  0.093631  1
  Th  Th17  1  0.984133  0.820841  0.406235  1
  Th  Th18  1  0.515587  0.320583  0.593981  1
  Th  Th19  1  0.017664  0.180640  0.906020  1
  Sn  Sn20  1  0.199136  0.542322  0.543301  1
  Sn  Sn21  1  0.301167  0.041956  0.456751  1
  Sn  Sn22  1  0.800682  0.457621  0.043119  1
  Sn  Sn23  1  0.551207  0.623889  0.750611  1
  Sn  Sn24  1  0.050894  0.876980  0.751022  1
  Sn  Sn25  1  0.448581  0.376786  0.249156  1
  Sn  Sn26  1  0.948252  0.123179  0.250071  1
  Sn  Sn27  1  0.323686  0.145646  0.750562  1
  Sn  Sn28  1  0.823436  0.354447  0.749740  1
  Sn  Sn29  1  0.676600  0.854520  0.249970  1
  Sn  Sn30  1  0.176772  0.645561  0.249832  1
  Sb  Sb31  1  0.299259  0.043557  0.043890  1
  Sb  Sb32  1  0.800821  0.456057  0.456935  1
  Sb  Sb33  1  0.699014  0.956251  0.543172  1
  Sb  Sb34  1  0.199211  0.543407  0.956544  1
  Sb  Sb35  1  0.700919  0.958270  0.955767  1
