# generated using pymatgen
data_Ti4NbB4Ru10W
_symmetry_space_group_name_H-M   'P 1'
_cell_length_a   9.30299870
_cell_length_b   9.30299756
_cell_length_c   2.99832600
_cell_angle_alpha   90.00000000
_cell_angle_beta   90.00000000
_cell_angle_gamma   89.34985292
_symmetry_Int_Tables_number   1
_chemical_formula_structural   Ti4NbB4Ru10W
_chemical_formula_sum   'Ti4 Nb1 B4 Ru10 W1'
_cell_volume   259.47573915
_cell_formula_units_Z   1
loop_
 _symmetry_equiv_pos_site_id
 _symmetry_equiv_pos_as_xyz
  1  'x, y, z'
loop_
 _atom_site_type_symbol
 _atom_site_label
 _atom_site_symmetry_multiplicity
 _atom_site_fract_x
 _atom_site_fract_y
 _atom_site_fract_z
 _atom_site_occupancy
  Ti  Ti0  1  0.824007  0.675064  0.000000  1
  Ti  Ti1  1  0.175064  0.324007  0.000000  1
  Ti  Ti2  1  0.500467  0.499768  0.000000  1
  Ti  Ti3  1  0.999768  0.000467  0.000000  1
  Nb  Nb4  1  0.677774  0.177774  0.000000  1
  B  B5  1  0.626497  0.875118  0.000000  1
  B  B6  1  0.375118  0.126497  0.000000  1
  B  B7  1  0.122122  0.622122  0.000000  1
  B  B8  1  0.877746  0.377746  0.000000  1
  Ru  Ru9  1  0.568397  0.716016  0.500000  1
  Ru  Ru10  1  0.426420  0.284808  0.500000  1
  Ru  Ru11  1  0.074337  0.785742  0.500000  1
  Ru  Ru12  1  0.930918  0.215793  0.500000  1
  Ru  Ru13  1  0.285742  0.574337  0.500000  1
  Ru  Ru14  1  0.715793  0.430918  0.500000  1
  Ru  Ru15  1  0.216016  0.068397  0.500000  1
  Ru  Ru16  1  0.784808  0.926420  0.500000  1
  Ru  Ru17  1  0.496616  0.996616  0.500000  1
  Ru  Ru18  1  0.000840  0.500840  0.500000  1
  W  W19  1  0.321550  0.821550  0.000000  1
