# generated using pymatgen
data_Tb8Dy2(IrPt)3
_symmetry_space_group_name_H-M   'P 1'
_cell_length_a   11.07312656
_cell_length_b   11.07255300
_cell_length_c   6.34691931
_cell_angle_alpha   90.00000000
_cell_angle_beta   90.03614428
_cell_angle_gamma   90.00000000
_symmetry_Int_Tables_number   1
_chemical_formula_structural   Tb8Dy2(IrPt)3
_chemical_formula_sum   'Tb16 Dy4 Ir6 Pt6'
_cell_volume   778.18153617
_cell_formula_units_Z   2
loop_
 _symmetry_equiv_pos_site_id
 _symmetry_equiv_pos_as_xyz
  1  'x, y, z'
loop_
 _atom_site_type_symbol
 _atom_site_label
 _atom_site_symmetry_multiplicity
 _atom_site_fract_x
 _atom_site_fract_y
 _atom_site_fract_z
 _atom_site_occupancy
  Tb  Tb0  1  0.295076  0.090745  0.374881  1
  Tb  Tb1  1  0.295076  0.909255  0.874881  1
  Tb  Tb2  1  0.705120  0.087730  0.874830  1
  Tb  Tb3  1  0.705120  0.912270  0.374830  1
  Tb  Tb4  1  0.584915  0.792614  0.875396  1
  Tb  Tb5  1  0.584915  0.207386  0.375396  1
  Tb  Tb6  1  0.410810  0.792690  0.380136  1
  Tb  Tb7  1  0.410810  0.207310  0.880136  1
  Tb  Tb8  1  0.209171  0.413565  0.621105  1
  Tb  Tb9  1  0.209171  0.586435  0.121105  1
  Tb  Tb10  1  0.794662  0.412153  0.123323  1
  Tb  Tb11  1  0.794662  0.587847  0.623323  1
  Tb  Tb12  1  0.912851  0.705244  0.124832  1
  Tb  Tb13  1  0.912851  0.294756  0.624832  1
  Tb  Tb14  1  0.091234  0.704871  0.625458  1
  Tb  Tb15  1  0.091234  0.295129  0.125458  1
  Dy  Dy16  1  0.999957  0.999714  0.499996  1
  Dy  Dy17  1  0.999957  0.000286  0.999996  1
  Dy  Dy18  1  0.497193  0.499621  0.000059  1
  Dy  Dy19  1  0.497193  0.500379  0.500059  1
  Ir  Ir20  1  0.346677  0.346168  0.249924  1
  Ir  Ir21  1  0.346677  0.653832  0.749924  1
  Ir  Ir22  1  0.500486  0.999759  0.122559  1
  Ir  Ir23  1  0.500486  0.000241  0.622559  1
  Ir  Ir24  1  0.998968  0.500088  0.877453  1
  Ir  Ir25  1  0.998968  0.499912  0.377453  1
  Pt  Pt26  1  0.846491  0.153063  0.250334  1
  Pt  Pt27  1  0.846491  0.846937  0.750334  1
  Pt  Pt28  1  0.152551  0.153014  0.749646  1
  Pt  Pt29  1  0.152551  0.846986  0.249646  1
  Pt  Pt30  1  0.653838  0.346528  0.750068  1
  Pt  Pt31  1  0.653838  0.653472  0.250068  1
