# generated using pymatgen
data_Pa4Zn4CoIr3
_symmetry_space_group_name_H-M   'P 1'
_cell_length_a   4.12605800
_cell_length_b   6.72266089
_cell_length_c   8.11236810
_cell_angle_alpha   89.77777083
_cell_angle_beta   90.00000000
_cell_angle_gamma   90.00000000
_symmetry_Int_Tables_number   1
_chemical_formula_structural   Pa4Zn4CoIr3
_chemical_formula_sum   'Pa4 Zn4 Co1 Ir3'
_cell_volume   225.01989394
_cell_formula_units_Z   1
loop_
 _symmetry_equiv_pos_site_id
 _symmetry_equiv_pos_as_xyz
  1  'x, y, z'
loop_
 _atom_site_type_symbol
 _atom_site_label
 _atom_site_symmetry_multiplicity
 _atom_site_fract_x
 _atom_site_fract_y
 _atom_site_fract_z
 _atom_site_occupancy
  Pa  Pa0  1  0.750000  0.452313  0.819760  1
  Pa  Pa1  1  0.250000  0.046202  0.307916  1
  Pa  Pa2  1  0.750000  0.956798  0.687637  1
  Pa  Pa3  1  0.250000  0.531831  0.186664  1
  Zn  Zn4  1  0.250000  0.136795  0.948099  1
  Zn  Zn5  1  0.250000  0.631247  0.559465  1
  Zn  Zn6  1  0.750000  0.877282  0.059130  1
  Zn  Zn7  1  0.750000  0.363605  0.436425  1
  Co  Co8  1  0.750000  0.269894  0.118137  1
  Ir  Ir9  1  0.250000  0.735114  0.878550  1
  Ir  Ir10  1  0.250000  0.234906  0.623941  1
  Ir  Ir11  1  0.750000  0.764016  0.374275  1
