# generated using pymatgen
data_La5NdAl2SiSe14
_symmetry_space_group_name_H-M   'P 1'
_cell_length_a   10.65570021
_cell_length_b   10.60653643
_cell_length_c   6.29615708
_cell_angle_alpha   90.11704450
_cell_angle_beta   90.01593583
_cell_angle_gamma   120.13708697
_symmetry_Int_Tables_number   1
_chemical_formula_structural   La5NdAl2SiSe14
_chemical_formula_sum   'La5 Nd1 Al2 Si1 Se14'
_cell_volume   615.40183020
_cell_formula_units_Z   1
loop_
 _symmetry_equiv_pos_site_id
 _symmetry_equiv_pos_as_xyz
  1  'x, y, z'
loop_
 _atom_site_type_symbol
 _atom_site_label
 _atom_site_symmetry_multiplicity
 _atom_site_fract_x
 _atom_site_fract_y
 _atom_site_fract_z
 _atom_site_occupancy
  La  La0  1  0.891580  0.193784  0.520625  1
  La  La1  1  0.302172  0.108813  0.520863  1
  La  La2  1  0.518665  0.964828  0.039980  1
  La  La3  1  0.447833  0.482337  0.038939  1
  La  La4  1  0.034149  0.553429  0.039577  1
  Nd  Nd5  1  0.807084  0.699427  0.518206  1
  Al  Al6  1  0.667173  0.334608  0.328442  1
  Al  Al7  1  0.334350  0.667015  0.445451  1
  Si  Si8  1  0.999056  0.998666  0.939619  1
  Se  Se9  1  0.998199  0.996937  0.302736  1
  Se  Se10  1  0.332907  0.666389  0.821545  1
  Se  Se11  1  0.082366  0.854094  0.797312  1
  Se  Se12  1  0.770614  0.910603  0.798157  1
  Se  Se13  1  0.142570  0.228979  0.802491  1
  Se  Se14  1  0.238056  0.812117  0.302032  1
  Se  Se15  1  0.575715  0.763385  0.303011  1
  Se  Se16  1  0.188072  0.424865  0.301584  1
  Se  Se17  1  0.907278  0.484041  0.551454  1
  Se  Se18  1  0.573854  0.092618  0.551015  1
  Se  Se19  1  0.521251  0.429521  0.553098  1
  Se  Se20  1  0.433255  0.195417  0.087061  1
  Se  Se21  1  0.762850  0.567603  0.092008  1
  Se  Se22  1  0.804283  0.237194  0.086802  1
