# generated using pymatgen
data_Dy5TmLuP12Ir17
_symmetry_space_group_name_H-M   'P 1'
_cell_length_a   12.70553101
_cell_length_b   12.99081198
_cell_length_c   3.98019000
_cell_angle_alpha   90.00000000
_cell_angle_beta   90.00000000
_cell_angle_gamma   119.27268071
_symmetry_Int_Tables_number   1
_chemical_formula_structural   Dy5TmLuP12Ir17
_chemical_formula_sum   'Dy5 Tm1 Lu1 P12 Ir17'
_cell_volume   573.05993634
_cell_formula_units_Z   1
loop_
 _symmetry_equiv_pos_site_id
 _symmetry_equiv_pos_as_xyz
  1  'x, y, z'
loop_
 _atom_site_type_symbol
 _atom_site_label
 _atom_site_symmetry_multiplicity
 _atom_site_fract_x
 _atom_site_fract_y
 _atom_site_fract_z
 _atom_site_occupancy
  Dy  Dy0  1  0.329780  0.661966  0.500000  1
  Dy  Dy1  1  0.667889  0.338044  0.500000  1
  Dy  Dy2  1  0.002554  0.816517  0.000000  1
  Dy  Dy3  1  0.186014  0.183449  0.000000  1
  Dy  Dy4  1  0.810815  0.999990  0.000000  1
  Tm  Tm5  1  0.552216  0.556217  0.500000  1
  Lu  Lu6  1  0.995892  0.443819  0.500000  1
  P  P7  1  0.009637  0.657468  0.500000  1
  P  P8  1  0.351747  0.342145  0.500000  1
  P  P9  1  0.644187  0.000074  0.500000  1
  P  P10  1  0.516367  0.690518  0.000000  1
  P  P11  1  0.309108  0.824348  0.000000  1
  P  P12  1  0.166285  0.480426  0.000000  1
  P  P13  1  0.484745  0.175578  0.000000  1
  P  P14  1  0.686300  0.519493  0.000000  1
  P  P15  1  0.826225  0.309715  0.000000  1
  P  P16  1  0.999405  0.174674  0.500000  1
  P  P17  1  0.824738  0.825313  0.500000  1
  P  P18  1  0.181603  0.999998  0.500000  1
  Ir  Ir19  1  0.504343  0.866011  0.000000  1
  Ir  Ir20  1  0.121554  0.644776  0.000000  1
  Ir  Ir21  1  0.357629  0.501374  0.000000  1
  Ir  Ir22  1  0.476551  0.354740  0.000000  1
  Ir  Ir23  1  0.856742  0.498453  0.000000  1
  Ir  Ir24  1  0.638459  0.134082  0.000000  1
  Ir  Ir25  1  0.464944  0.000016  0.500000  1
  Ir  Ir26  1  0.996509  0.272898  0.000000  1
  Ir  Ir27  1  0.724136  0.727645  0.000000  1
  Ir  Ir28  1  0.287190  0.999999  0.000000  1
  Ir  Ir29  1  0.623931  0.810592  0.500000  1
  Ir  Ir30  1  0.208701  0.828439  0.500000  1
  Ir  Ir31  1  0.180295  0.364507  0.500000  1
  Ir  Ir32  1  0.380182  0.171460  0.500000  1
  Ir  Ir33  1  0.816198  0.635490  0.500000  1
  Ir  Ir34  1  0.813613  0.189763  0.500000  1
  Ir  Ir35  1  0.003514  0.000002  0.500000  1
