# generated using pymatgen
data_Yb3YAs6Rh7
_symmetry_space_group_name_H-M   'P 1'
_cell_length_a   7.24304271
_cell_length_b   7.25106916
_cell_length_c   7.25106955
_cell_angle_alpha   109.49362641
_cell_angle_beta   109.44880713
_cell_angle_gamma   109.44879958
_symmetry_Int_Tables_number   1
_chemical_formula_structural   Yb3YAs6Rh7
_chemical_formula_sum   'Yb3 Y1 As6 Rh7'
_cell_volume   293.24010226
_cell_formula_units_Z   1
loop_
 _symmetry_equiv_pos_site_id
 _symmetry_equiv_pos_as_xyz
  1  'x, y, z'
loop_
 _atom_site_type_symbol
 _atom_site_label
 _atom_site_symmetry_multiplicity
 _atom_site_fract_x
 _atom_site_fract_y
 _atom_site_fract_z
 _atom_site_occupancy
  Yb  Yb0  1  0.500000  0.500000  0.500000  1
  Yb  Yb1  1  0.000000  0.500000  0.000000  1
  Yb  Yb2  1  0.000000  0.000000  0.500000  1
  Y  Y3  1  0.500000  0.000000  0.000000  1
  As  As4  1  0.681265  0.000000  0.678511  1
  As  As5  1  0.681265  0.678511  0.000000  1
  As  As6  1  0.318735  0.321489  0.000000  1
  As  As7  1  0.997247  0.678511  0.678511  1
  As  As8  1  0.002753  0.321489  0.321489  1
  As  As9  1  0.318735  0.000000  0.321489  1
  Rh  Rh10  1  0.500000  0.749891  0.250109  1
  Rh  Rh11  1  0.750109  0.250109  0.500217  1
  Rh  Rh12  1  0.249891  0.749891  0.499783  1
  Rh  Rh13  1  0.249891  0.499783  0.749891  1
  Rh  Rh14  1  0.000000  0.000000  0.000000  1
  Rh  Rh15  1  0.500000  0.250109  0.749891  1
  Rh  Rh16  1  0.750109  0.500217  0.250109  1
