# generated using pymatgen
data_Zr4Ti3Nb3Si8
_symmetry_space_group_name_H-M   'P 1'
_cell_length_a   6.87948609
_cell_length_b   6.87752966
_cell_length_c   12.67912021
_cell_angle_alpha   89.98836080
_cell_angle_beta   90.03425031
_cell_angle_gamma   90.00453490
_symmetry_Int_Tables_number   1
_chemical_formula_structural   Zr4Ti3Nb3Si8
_chemical_formula_sum   'Zr8 Ti6 Nb6 Si16'
_cell_volume   599.89811915
_cell_formula_units_Z   2
loop_
 _symmetry_equiv_pos_site_id
 _symmetry_equiv_pos_as_xyz
  1  'x, y, z'
loop_
 _atom_site_type_symbol
 _atom_site_label
 _atom_site_symmetry_multiplicity
 _atom_site_fract_x
 _atom_site_fract_y
 _atom_site_fract_z
 _atom_site_occupancy
  Zr  Zr0  1  0.342018  0.997842  0.469759  1
  Zr  Zr1  1  0.499943  0.842602  0.719325  1
  Zr  Zr2  1  0.497843  0.156545  0.220102  1
  Zr  Zr3  1  0.842297  0.501089  0.280322  1
  Zr  Zr4  1  0.158875  0.499462  0.780877  1
  Zr  Zr5  1  0.656685  0.999455  0.969420  1
  Zr  Zr6  1  0.999456  0.342640  0.530823  1
  Zr  Zr7  1  0.000714  0.659109  0.030650  1
  Ti  Ti8  1  0.504822  0.347001  0.622798  1
  Ti  Ti9  1  0.653326  0.494995  0.876508  1
  Ti  Ti10  1  0.348417  0.504547  0.376820  1
  Ti  Ti11  1  0.847620  0.995088  0.373419  1
  Ti  Ti12  1  0.005122  0.151780  0.127432  1
  Ti  Ti13  1  0.995775  0.846774  0.626382  1
  Nb  Nb14  1  0.329258  0.330177  0.999501  1
  Nb  Nb15  1  0.169347  0.830573  0.250419  1
  Nb  Nb16  1  0.829661  0.171520  0.749067  1
  Nb  Nb17  1  0.670439  0.670119  0.500064  1
  Nb  Nb18  1  0.152735  0.003920  0.873131  1
  Nb  Nb19  1  0.495348  0.651426  0.124082  1
  Si  Si20  1  0.208851  0.134452  0.675047  1
  Si  Si21  1  0.367712  0.706418  0.925990  1
  Si  Si22  1  0.634464  0.292135  0.426839  1
  Si  Si23  1  0.708909  0.361852  0.072718  1
  Si  Si24  1  0.293150  0.633906  0.572903  1
  Si  Si25  1  0.794078  0.867675  0.178042  1
  Si  Si26  1  0.134034  0.207538  0.324070  1
  Si  Si27  1  0.861945  0.791707  0.821686  1
  Si  Si28  1  0.295035  0.955946  0.064172  1
  Si  Si29  1  0.546020  0.797310  0.315189  1
  Si  Si30  1  0.456051  0.207284  0.811664  1
  Si  Si31  1  0.795040  0.546436  0.686144  1
  Si  Si32  1  0.201080  0.452187  0.187938  1
  Si  Si33  1  0.705234  0.045534  0.562757  1
  Si  Si34  1  0.952234  0.298331  0.936949  1
  Si  Si35  1  0.046467  0.704623  0.436992  1
