# generated using pymatgen
data_Sc4ReB8Ru9
_symmetry_space_group_name_H-M   'P 1'
_cell_length_a   3.02688200
_cell_length_b   8.51376667
_cell_length_c   10.07018391
_cell_angle_alpha   90.27123735
_cell_angle_beta   90.00000000
_cell_angle_gamma   90.00000000
_symmetry_Int_Tables_number   1
_chemical_formula_structural   Sc4ReB8Ru9
_chemical_formula_sum   'Sc4 Re1 B8 Ru9'
_cell_volume   259.50741406
_cell_formula_units_Z   1
loop_
 _symmetry_equiv_pos_site_id
 _symmetry_equiv_pos_as_xyz
  1  'x, y, z'
loop_
 _atom_site_type_symbol
 _atom_site_label
 _atom_site_symmetry_multiplicity
 _atom_site_fract_x
 _atom_site_fract_y
 _atom_site_fract_z
 _atom_site_occupancy
  Sc  Sc0  1  0.500000  0.841560  0.178312  1
  Sc  Sc1  1  0.500000  0.156627  0.819986  1
  Sc  Sc2  1  0.500000  0.656310  0.684791  1
  Sc  Sc3  1  0.500000  0.343421  0.316958  1
  Re  Re4  1  0.000000  0.658291  0.953957  1
  B  B5  1  0.500000  0.964517  0.589363  1
  B  B6  1  0.500000  0.035070  0.410047  1
  B  B7  1  0.500000  0.848859  0.900515  1
  B  B8  1  0.500000  0.150445  0.099763  1
  B  B9  1  0.500000  0.646546  0.399063  1
  B  B10  1  0.500000  0.351268  0.601738  1
  B  B11  1  0.500000  0.469338  0.909611  1
  B  B12  1  0.500000  0.541169  0.087495  1
  Ru  Ru13  1  0.000000  0.338728  0.047966  1
  Ru  Ru14  1  0.000000  0.841417  0.453000  1
  Ru  Ru15  1  0.000000  0.158265  0.546415  1
  Ru  Ru16  1  0.000000  0.000482  0.000173  1
  Ru  Ru17  1  0.000000  0.401747  0.760777  1
  Ru  Ru18  1  0.000000  0.596513  0.240148  1
  Ru  Ru19  1  0.000000  0.499412  0.500890  1
  Ru  Ru20  1  0.000000  0.904564  0.737910  1
  Ru  Ru21  1  0.000000  0.095453  0.261120  1
