# generated using pymatgen
data_Dy3Tm2VMoO12
_symmetry_space_group_name_H-M   'P 1'
_cell_length_a   6.78471985
_cell_length_b   6.78472065
_cell_length_c   7.28626031
_cell_angle_alpha   74.10384684
_cell_angle_beta   74.10384447
_cell_angle_gamma   51.66640435
_symmetry_Int_Tables_number   1
_chemical_formula_structural   Dy3Tm2VMoO12
_chemical_formula_sum   'Dy3 Tm2 V1 Mo1 O12'
_cell_volume   250.61801555
_cell_formula_units_Z   1
loop_
 _symmetry_equiv_pos_site_id
 _symmetry_equiv_pos_as_xyz
  1  'x, y, z'
loop_
 _atom_site_type_symbol
 _atom_site_label
 _atom_site_symmetry_multiplicity
 _atom_site_fract_x
 _atom_site_fract_y
 _atom_site_fract_z
 _atom_site_occupancy
  Dy  Dy0  1  0.312297  0.307472  0.824755  1
  Dy  Dy1  1  0.692528  0.687703  0.175245  1
  Dy  Dy2  1  0.001959  0.998041  0.500000  1
  Tm  Tm3  1  0.312032  0.294913  0.361904  1
  Tm  Tm4  1  0.705087  0.687968  0.638096  1
  V  V5  1  0.745272  0.254728  0.000000  1
  Mo  Mo6  1  0.233217  0.766783  0.000000  1
  O  O7  1  0.895684  0.427359  0.916427  1
  O  O8  1  0.432644  0.896318  0.915792  1
  O  O9  1  0.103682  0.567356  0.084208  1
  O  O10  1  0.572641  0.104316  0.083573  1
  O  O11  1  0.100332  0.591235  0.572303  1
  O  O12  1  0.598195  0.089873  0.573627  1
  O  O13  1  0.910127  0.401805  0.426373  1
  O  O14  1  0.408765  0.899668  0.427697  1
  O  O15  1  0.990110  0.008886  0.814834  1
  O  O16  1  0.991114  0.009890  0.185166  1
  O  O17  1  0.497796  0.503481  0.808471  1
  O  O18  1  0.496519  0.502204  0.191529  1
