# generated using pymatgen
data_Th2Al4Ga8Pd
_symmetry_space_group_name_H-M   'P 1'
_cell_length_a   6.07777000
_cell_length_b   6.07777000
_cell_length_c   15.70549400
_cell_angle_alpha   90.00000000
_cell_angle_beta   90.00000000
_cell_angle_gamma   90.00000000
_symmetry_Int_Tables_number   1
_chemical_formula_structural   Th2Al4Ga8Pd
_chemical_formula_sum   'Th4 Al8 Ga16 Pd2'
_cell_volume   580.14976876
_cell_formula_units_Z   2
loop_
 _symmetry_equiv_pos_site_id
 _symmetry_equiv_pos_as_xyz
  1  'x, y, z'
loop_
 _atom_site_type_symbol
 _atom_site_label
 _atom_site_symmetry_multiplicity
 _atom_site_fract_x
 _atom_site_fract_y
 _atom_site_fract_z
 _atom_site_occupancy
  Th  Th0  1  0.750000  0.250000  0.252128  1
  Th  Th1  1  0.250000  0.750000  0.252128  1
  Th  Th2  1  0.250000  0.750000  0.747872  1
  Th  Th3  1  0.750000  0.250000  0.747872  1
  Al  Al4  1  0.500288  0.000288  0.911038  1
  Al  Al5  1  0.000288  0.999712  0.911038  1
  Al  Al6  1  0.499712  0.500288  0.911038  1
  Al  Al7  1  0.999712  0.499712  0.911038  1
  Al  Al8  1  0.499712  0.999712  0.088962  1
  Al  Al9  1  0.999712  0.000288  0.088962  1
  Al  Al10  1  0.500288  0.499712  0.088962  1
  Al  Al11  1  0.000288  0.500288  0.088962  1
  Ga  Ga12  1  0.250000  0.250000  0.186288  1
  Ga  Ga13  1  0.750000  0.750000  0.186288  1
  Ga  Ga14  1  0.750000  0.750000  0.813712  1
  Ga  Ga15  1  0.250000  0.250000  0.813712  1
  Ga  Ga16  1  0.250000  0.250000  0.343921  1
  Ga  Ga17  1  0.750000  0.750000  0.343921  1
  Ga  Ga18  1  0.750000  0.750000  0.656079  1
  Ga  Ga19  1  0.250000  0.250000  0.656079  1
  Ga  Ga20  1  0.578565  0.078565  0.430193  1
  Ga  Ga21  1  0.078565  0.921435  0.430193  1
  Ga  Ga22  1  0.421435  0.578565  0.430193  1
  Ga  Ga23  1  0.921435  0.421435  0.430193  1
  Ga  Ga24  1  0.421435  0.921435  0.569807  1
  Ga  Ga25  1  0.921435  0.078565  0.569807  1
  Ga  Ga26  1  0.578565  0.421435  0.569807  1
  Ga  Ga27  1  0.078565  0.578565  0.569807  1
  Pd  Pd28  1  0.750000  0.250000  0.000000  1
  Pd  Pd29  1  0.250000  0.750000  0.000000  1
