# generated using pymatgen
data_Tb5Y3CdHgIr2
_symmetry_space_group_name_H-M   'P 1'
_cell_length_a   9.66376460
_cell_length_b   9.66376362
_cell_length_c   9.66097500
_cell_angle_alpha   60.00954174
_cell_angle_beta   60.00954511
_cell_angle_gamma   60.05521191
_symmetry_Int_Tables_number   1
_chemical_formula_structural   Tb5Y3CdHgIr2
_chemical_formula_sum   'Tb10 Y6 Cd2 Hg2 Ir4'
_cell_volume   638.32546832
_cell_formula_units_Z   2
loop_
 _symmetry_equiv_pos_site_id
 _symmetry_equiv_pos_as_xyz
  1  'x, y, z'
loop_
 _atom_site_type_symbol
 _atom_site_label
 _atom_site_symmetry_multiplicity
 _atom_site_fract_x
 _atom_site_fract_y
 _atom_site_fract_z
 _atom_site_occupancy
  Tb  Tb0  1  0.349499  0.349499  0.347920  1
  Tb  Tb1  1  0.349499  0.349499  0.953082  1
  Tb  Tb2  1  0.351233  0.949679  0.349544  1
  Tb  Tb3  1  0.949679  0.351233  0.349544  1
  Tb  Tb4  1  0.809115  0.189043  0.191636  1
  Tb  Tb5  1  0.189043  0.809115  0.810206  1
  Tb  Tb6  1  0.189043  0.809115  0.191636  1
  Tb  Tb7  1  0.809115  0.189043  0.810206  1
  Tb  Tb8  1  0.189511  0.189511  0.810489  1
  Tb  Tb9  1  0.808605  0.808605  0.191395  1
  Y  Y10  1  0.937850  0.561223  0.562463  1
  Y  Y11  1  0.561223  0.937850  0.938464  1
  Y  Y12  1  0.561223  0.937850  0.562463  1
  Y  Y13  1  0.937850  0.561223  0.938464  1
  Y  Y14  1  0.561622  0.561622  0.938378  1
  Y  Y15  1  0.938035  0.938035  0.561965  1
  Cd  Cd16  1  0.580152  0.257928  0.580960  1
  Cd  Cd17  1  0.257928  0.580152  0.580960  1
  Hg  Hg18  1  0.583932  0.583932  0.586099  1
  Hg  Hg19  1  0.583932  0.583932  0.246039  1
  Ir  Ir20  1  0.142084  0.142084  0.140935  1
  Ir  Ir21  1  0.142084  0.142084  0.574897  1
  Ir  Ir22  1  0.142328  0.575414  0.141129  1
  Ir  Ir23  1  0.575414  0.142328  0.141129  1
