# generated using pymatgen
data_ErBiCO5
_symmetry_space_group_name_H-M   'P 1'
_cell_length_a   5.38555800
_cell_length_b   5.37257400
_cell_length_c   13.73402400
_cell_angle_alpha   90.00000000
_cell_angle_beta   90.00000000
_cell_angle_gamma   90.00000000
_symmetry_Int_Tables_number   1
_chemical_formula_structural   ErBiCO5
_chemical_formula_sum   'Er4 Bi4 C4 O20'
_cell_volume   397.38449267
_cell_formula_units_Z   4
loop_
 _symmetry_equiv_pos_site_id
 _symmetry_equiv_pos_as_xyz
  1  'x, y, z'
loop_
 _atom_site_type_symbol
 _atom_site_label
 _atom_site_symmetry_multiplicity
 _atom_site_fract_x
 _atom_site_fract_y
 _atom_site_fract_z
 _atom_site_occupancy
  Er  Er0  1  0.250000  0.000000  0.417043  1
  Er  Er1  1  0.749999  0.500000  0.417043  1
  Er  Er2  1  0.749999  0.000000  0.582957  1
  Er  Er3  1  0.250000  0.500000  0.582957  1
  Bi  Bi4  1  0.250000  0.000000  0.095028  1
  Bi  Bi5  1  0.749999  0.500000  0.095028  1
  Bi  Bi6  1  0.749999  0.000000  0.904972  1
  Bi  Bi7  1  0.250000  0.500000  0.904972  1
  C  C8  1  0.749999  0.000000  0.257623  1
  C  C9  1  0.250000  0.500000  0.257623  1
  C  C10  1  0.250000  0.000000  0.742378  1
  C  C11  1  0.749999  0.500000  0.742378  1
  O  O12  1  0.008408  0.250000  0.500000  1
  O  O13  1  0.508409  0.250000  0.500000  1
  O  O14  1  0.491592  0.749999  0.500000  1
  O  O15  1  0.991591  0.749999  0.500000  1
  O  O16  1  0.002295  0.250000  0.000000  1
  O  O17  1  0.502295  0.250000  0.000000  1
  O  O18  1  0.497704  0.749999  0.000000  1
  O  O19  1  0.997704  0.749999  0.000000  1
  O  O20  1  0.749999  0.000000  0.160981  1
  O  O21  1  0.250000  0.500000  0.160981  1
  O  O22  1  0.897250  0.150449  0.302158  1
  O  O23  1  0.397249  0.349551  0.302158  1
  O  O24  1  0.102751  0.650448  0.302158  1
  O  O25  1  0.602751  0.849552  0.302158  1
  O  O26  1  0.397249  0.150449  0.697842  1
  O  O27  1  0.897250  0.349551  0.697842  1
  O  O28  1  0.602751  0.650448  0.697842  1
  O  O29  1  0.102751  0.849552  0.697842  1
  O  O30  1  0.250000  0.000000  0.839019  1
  O  O31  1  0.749999  0.500000  0.839019  1
