# generated using pymatgen
data_Tb6Zn23P
_symmetry_space_group_name_H-M   'P 1'
_cell_length_a   9.05167928
_cell_length_b   9.05167910
_cell_length_c   9.05168000
_cell_angle_alpha   59.99999670
_cell_angle_beta   59.99999738
_cell_angle_gamma   60.00000180
_symmetry_Int_Tables_number   1
_chemical_formula_structural   Tb6Zn23P
_chemical_formula_sum   'Tb6 Zn23 P1'
_cell_volume   524.41183871
_cell_formula_units_Z   1
loop_
 _symmetry_equiv_pos_site_id
 _symmetry_equiv_pos_as_xyz
  1  'x, y, z'
loop_
 _atom_site_type_symbol
 _atom_site_label
 _atom_site_symmetry_multiplicity
 _atom_site_fract_x
 _atom_site_fract_y
 _atom_site_fract_z
 _atom_site_occupancy
  Tb  Tb0  1  0.712958  0.287042  0.287042  1
  Tb  Tb1  1  0.712958  0.287042  0.712958  1
  Tb  Tb2  1  0.712958  0.712958  0.287042  1
  Tb  Tb3  1  0.287042  0.712958  0.712958  1
  Tb  Tb4  1  0.287042  0.712958  0.287042  1
  Tb  Tb5  1  0.287042  0.287042  0.712958  1
  Zn  Zn6  1  0.622593  0.125803  0.125803  1
  Zn  Zn7  1  0.125803  0.622593  0.125803  1
  Zn  Zn8  1  0.125803  0.125803  0.622593  1
  Zn  Zn9  1  0.125803  0.125803  0.125803  1
  Zn  Zn10  1  0.377407  0.874197  0.874197  1
  Zn  Zn11  1  0.874197  0.377407  0.874197  1
  Zn  Zn12  1  0.874197  0.874197  0.377407  1
  Zn  Zn13  1  0.874197  0.874197  0.874197  1
  Zn  Zn14  1  0.500000  0.000000  0.000000  1
  Zn  Zn15  1  0.500000  0.000000  0.500000  1
  Zn  Zn16  1  0.500000  0.500000  0.000000  1
  Zn  Zn17  1  0.000000  0.500000  0.500000  1
  Zn  Zn18  1  0.000000  0.500000  0.000000  1
  Zn  Zn19  1  0.000000  0.000000  0.500000  1
  Zn  Zn20  1  0.000000  0.000000  0.000000  1
  Zn  Zn21  1  0.012494  0.329168  0.329168  1
  Zn  Zn22  1  0.329168  0.012494  0.329168  1
  Zn  Zn23  1  0.329168  0.329168  0.012494  1
  Zn  Zn24  1  0.329168  0.329168  0.329168  1
  Zn  Zn25  1  0.987506  0.670832  0.670832  1
  Zn  Zn26  1  0.670832  0.987506  0.670832  1
  Zn  Zn27  1  0.670832  0.670832  0.987506  1
  Zn  Zn28  1  0.670832  0.670832  0.670832  1
  P  P29  1  0.500000  0.500000  0.500000  1
