# generated using pymatgen
data_LiPr8Si12PdAu2
_symmetry_space_group_name_H-M   'P 1'
_cell_length_a   8.31966800
_cell_length_b   8.31966814
_cell_length_c   8.65134900
_cell_angle_alpha   90.00000000
_cell_angle_beta   90.00000000
_cell_angle_gamma   119.99999945
_symmetry_Int_Tables_number   1
_chemical_formula_structural   LiPr8Si12PdAu2
_chemical_formula_sum   'Li1 Pr8 Si12 Pd1 Au2'
_cell_volume   518.59277903
_cell_formula_units_Z   1
loop_
 _symmetry_equiv_pos_site_id
 _symmetry_equiv_pos_as_xyz
  1  'x, y, z'
loop_
 _atom_site_type_symbol
 _atom_site_label
 _atom_site_symmetry_multiplicity
 _atom_site_fract_x
 _atom_site_fract_y
 _atom_site_fract_z
 _atom_site_occupancy
  Li  Li0  1  0.666667  0.333333  0.997768  1
  Pr  Pr1  1  0.499964  0.500036  0.750293  1
  Pr  Pr2  1  0.500502  0.499498  0.249726  1
  Pr  Pr3  1  0.000072  0.500036  0.750293  1
  Pr  Pr4  1  0.998994  0.499498  0.249726  1
  Pr  Pr5  1  0.499964  0.999928  0.750293  1
  Pr  Pr6  1  0.500502  0.001006  0.249726  1
  Pr  Pr7  1  0.000000  0.000000  0.751011  1
  Pr  Pr8  1  0.000000  0.000000  0.249024  1
  Si  Si9  1  0.832765  0.167235  0.000512  1
  Si  Si10  1  0.162841  0.837159  0.999565  1
  Si  Si11  1  0.334468  0.167235  0.000512  1
  Si  Si12  1  0.162486  0.837514  0.499699  1
  Si  Si13  1  0.674319  0.837159  0.999565  1
  Si  Si14  1  0.832857  0.167143  0.500449  1
  Si  Si15  1  0.832765  0.665532  0.000512  1
  Si  Si16  1  0.675031  0.837514  0.499699  1
  Si  Si17  1  0.162841  0.325681  0.999565  1
  Si  Si18  1  0.334287  0.167143  0.500449  1
  Si  Si19  1  0.162486  0.324969  0.499699  1
  Si  Si20  1  0.832857  0.665713  0.500449  1
  Pd  Pd21  1  0.666667  0.333333  0.500469  1
  Au  Au22  1  0.333333  0.666667  0.001444  1
  Au  Au23  1  0.333333  0.666667  0.499551  1
