# generated using pymatgen
data_Y12Co4PdPb
_symmetry_space_group_name_H-M   'P 1'
_cell_length_a   8.39859310
_cell_length_b   8.39859345
_cell_length_c   8.39859312
_cell_angle_alpha   110.48444361
_cell_angle_beta   110.90733633
_cell_angle_gamma   107.04899336
_symmetry_Int_Tables_number   1
_chemical_formula_structural   Y12Co4PdPb
_chemical_formula_sum   'Y12 Co4 Pd1 Pb1'
_cell_volume   455.42001761
_cell_formula_units_Z   1
loop_
 _symmetry_equiv_pos_site_id
 _symmetry_equiv_pos_as_xyz
  1  'x, y, z'
loop_
 _atom_site_type_symbol
 _atom_site_label
 _atom_site_symmetry_multiplicity
 _atom_site_fract_x
 _atom_site_fract_y
 _atom_site_fract_z
 _atom_site_occupancy
  Y  Y0  1  0.294736  0.186606  0.481342  1
  Y  Y1  1  0.705264  0.813394  0.518658  1
  Y  Y2  1  0.294736  0.813394  0.108132  1
  Y  Y3  1  0.705264  0.186606  0.891868  1
  Y  Y4  1  0.619134  0.313142  0.305992  1
  Y  Y5  1  0.380866  0.686858  0.694008  1
  Y  Y6  1  0.007150  0.313142  0.694008  1
  Y  Y7  1  0.992850  0.686858  0.305992  1
  Y  Y8  1  0.210982  0.411577  0.200595  1
  Y  Y9  1  0.789018  0.588423  0.799405  1
  Y  Y10  1  0.210982  0.010387  0.799405  1
  Y  Y11  1  0.789018  0.989613  0.200595  1
  Co  Co12  1  0.000000  0.381111  0.381111  1
  Co  Co13  1  0.000000  0.618889  0.618889  1
  Co  Co14  1  0.389380  0.889380  0.500000  1
  Co  Co15  1  0.610620  0.110620  0.500000  1
  Pd  Pd16  1  0.000000  0.000000  0.000000  1
  Pb  Pb17  1  0.500000  0.500000  0.000000  1
