# generated using pymatgen
data_Ce2SmHo4Tm(Si3Rh)4
_symmetry_space_group_name_H-M   'P 1'
_cell_length_a   8.16357135
_cell_length_b   8.16357156
_cell_length_c   7.98169600
_cell_angle_alpha   90.00000000
_cell_angle_beta   90.00000000
_cell_angle_gamma   119.95848851
_symmetry_Int_Tables_number   1
_chemical_formula_structural   Ce2SmHo4Tm(Si3Rh)4
_chemical_formula_sum   'Ce2 Sm1 Ho4 Tm1 Si12 Rh4'
_cell_volume   460.85862899
_cell_formula_units_Z   1
loop_
 _symmetry_equiv_pos_site_id
 _symmetry_equiv_pos_as_xyz
  1  'x, y, z'
loop_
 _atom_site_type_symbol
 _atom_site_label
 _atom_site_symmetry_multiplicity
 _atom_site_fract_x
 _atom_site_fract_y
 _atom_site_fract_z
 _atom_site_occupancy
  Ce  Ce0  1  0.000205  0.999795  0.250000  1
  Ce  Ce1  1  0.000149  0.999851  0.750000  1
  Sm  Sm2  1  0.491943  0.508057  0.750000  1
  Ho  Ho3  1  0.508323  0.016789  0.250000  1
  Ho  Ho4  1  0.983211  0.491677  0.250000  1
  Ho  Ho5  1  0.492780  0.986064  0.750000  1
  Ho  Ho6  1  0.013936  0.507220  0.750000  1
  Tm  Tm7  1  0.508170  0.491830  0.250000  1
  Si  Si8  1  0.167796  0.832204  0.501905  1
  Si  Si9  1  0.166743  0.334797  0.499058  1
  Si  Si10  1  0.665203  0.833257  0.499058  1
  Si  Si11  1  0.833037  0.166963  0.497990  1
  Si  Si12  1  0.833298  0.665957  0.496338  1
  Si  Si13  1  0.334043  0.166702  0.496338  1
  Si  Si14  1  0.833037  0.166963  0.002010  1
  Si  Si15  1  0.833298  0.665957  0.003662  1
  Si  Si16  1  0.334043  0.166702  0.003662  1
  Si  Si17  1  0.167796  0.832204  0.998095  1
  Si  Si18  1  0.166743  0.334797  0.000942  1
  Si  Si19  1  0.665203  0.833257  0.000942  1
  Rh  Rh20  1  0.333319  0.666681  0.462800  1
  Rh  Rh21  1  0.667203  0.332797  0.526897  1
  Rh  Rh22  1  0.667203  0.332797  0.973103  1
  Rh  Rh23  1  0.333319  0.666681  0.037200  1
