# generated using pymatgen
data_Ba2CaCe(Ge4N7)2
_symmetry_space_group_name_H-M   'P 1'
_cell_length_a   6.36641800
_cell_length_b   6.36641824
_cell_length_c   10.42961700
_cell_angle_alpha   90.00000000
_cell_angle_beta   90.00000000
_cell_angle_gamma   119.99999874
_symmetry_Int_Tables_number   1
_chemical_formula_structural   Ba2CaCe(Ge4N7)2
_chemical_formula_sum   'Ba2 Ca1 Ce1 Ge8 N14'
_cell_volume   366.09122029
_cell_formula_units_Z   1
loop_
 _symmetry_equiv_pos_site_id
 _symmetry_equiv_pos_as_xyz
  1  'x, y, z'
loop_
 _atom_site_type_symbol
 _atom_site_label
 _atom_site_symmetry_multiplicity
 _atom_site_fract_x
 _atom_site_fract_y
 _atom_site_fract_z
 _atom_site_occupancy
  Ba  Ba0  1  0.333333  0.666667  0.353824  1
  Ba  Ba1  1  0.666667  0.333333  0.876602  1
  Ca  Ca2  1  0.666667  0.333333  0.237628  1
  Ce  Ce3  1  0.333333  0.666667  0.734791  1
  Ge  Ge4  1  0.827550  0.655098  0.544353  1
  Ge  Ge5  1  0.174751  0.825249  0.048677  1
  Ge  Ge6  1  0.650497  0.825249  0.048677  1
  Ge  Ge7  1  0.344902  0.172450  0.544353  1
  Ge  Ge8  1  0.827550  0.172450  0.544353  1
  Ge  Ge9  1  0.174751  0.349503  0.048677  1
  Ge  Ge10  1  0.000000  0.000000  0.811090  1
  Ge  Ge11  1  0.000000  0.000000  0.314854  1
  N  N12  1  0.000000  0.000000  0.622411  1
  N  N13  1  0.000000  0.000000  0.120230  1
  N  N14  1  0.158411  0.316821  0.868364  1
  N  N15  1  0.842418  0.157582  0.370925  1
  N  N16  1  0.315164  0.157582  0.370925  1
  N  N17  1  0.683179  0.841589  0.868364  1
  N  N18  1  0.158411  0.841589  0.868364  1
  N  N19  1  0.842418  0.684836  0.370925  1
  N  N20  1  0.984941  0.492471  0.606073  1
  N  N21  1  0.494023  0.988046  0.100397  1
  N  N22  1  0.494023  0.505977  0.100397  1
  N  N23  1  0.507529  0.492471  0.606073  1
  N  N24  1  0.011954  0.505977  0.100397  1
  N  N25  1  0.507529  0.015059  0.606073  1
