# generated using pymatgen
data_Ce7(ScTc2)3
_symmetry_space_group_name_H-M   'P 1'
_cell_length_a   7.87686700
_cell_length_b   7.87686682
_cell_length_c   6.44461100
_cell_angle_alpha   90.00000000
_cell_angle_beta   90.00000000
_cell_angle_gamma   119.99999657
_symmetry_Int_Tables_number   1
_chemical_formula_structural   Ce7(ScTc2)3
_chemical_formula_sum   'Ce7 Sc3 Tc6'
_cell_volume   346.28555029
_cell_formula_units_Z   1
loop_
 _symmetry_equiv_pos_site_id
 _symmetry_equiv_pos_as_xyz
  1  'x, y, z'
loop_
 _atom_site_type_symbol
 _atom_site_label
 _atom_site_symmetry_multiplicity
 _atom_site_fract_x
 _atom_site_fract_y
 _atom_site_fract_z
 _atom_site_occupancy
  Ce  Ce0  1  0.666667  0.333333  0.500000  1
  Ce  Ce1  1  0.754687  0.761261  0.752317  1
  Ce  Ce2  1  0.238739  0.993426  0.752317  1
  Ce  Ce3  1  0.006574  0.245313  0.752317  1
  Ce  Ce4  1  0.238739  0.245313  0.247683  1
  Ce  Ce5  1  0.754687  0.993426  0.247683  1
  Ce  Ce6  1  0.006574  0.761261  0.247683  1
  Sc  Sc7  1  0.666667  0.333333  0.000000  1
  Sc  Sc8  1  0.333333  0.666667  0.000000  1
  Sc  Sc9  1  0.333333  0.666667  0.500000  1
  Tc  Tc10  1  0.376835  0.378199  0.750744  1
  Tc  Tc11  1  0.621801  0.998636  0.750744  1
  Tc  Tc12  1  0.001364  0.623165  0.750744  1
  Tc  Tc13  1  0.621801  0.623165  0.249256  1
  Tc  Tc14  1  0.376835  0.998636  0.249256  1
  Tc  Tc15  1  0.001364  0.378199  0.249256  1
