# generated using pymatgen
data_Er12ZnInNi4
_symmetry_space_group_name_H-M   'P 1'
_cell_length_a   8.28002344
_cell_length_b   8.28173325
_cell_length_c   8.27998300
_cell_angle_alpha   106.29971301
_cell_angle_beta   109.42464479
_cell_angle_gamma   112.76816664
_symmetry_Int_Tables_number   1
_chemical_formula_structural   Er12ZnInNi4
_chemical_formula_sum   'Er12 Zn1 In1 Ni4'
_cell_volume   435.60886668
_cell_formula_units_Z   1
loop_
 _symmetry_equiv_pos_site_id
 _symmetry_equiv_pos_as_xyz
  1  'x, y, z'
loop_
 _atom_site_type_symbol
 _atom_site_label
 _atom_site_symmetry_multiplicity
 _atom_site_fract_x
 _atom_site_fract_y
 _atom_site_fract_z
 _atom_site_occupancy
  Er  Er0  1  0.697285  0.271121  0.968369  1
  Er  Er1  1  0.302794  0.728865  0.031560  1
  Er  Er2  1  0.697317  0.729009  0.426219  1
  Er  Er3  1  0.302801  0.271130  0.573865  1
  Er  Er4  1  0.807066  0.131926  0.324901  1
  Er  Er5  1  0.807038  0.482135  0.674982  1
  Er  Er6  1  0.192960  0.868023  0.674981  1
  Er  Er7  1  0.193077  0.517943  0.324962  1
  Er  Er8  1  0.609854  0.789994  0.819792  1
  Er  Er9  1  0.970343  0.789943  0.180350  1
  Er  Er10  1  0.029786  0.210099  0.819650  1
  Er  Er11  1  0.390344  0.210095  0.180221  1
  Zn  Zn12  1  0.500032  0.500034  0.000208  1
  In  In13  1  0.499887  0.000120  0.500183  1
  Ni  Ni14  1  0.852281  0.500089  0.352502  1
  Ni  Ni15  1  0.146838  0.499459  0.646799  1
  Ni  Ni16  1  0.000340  0.124825  0.125039  1
  Ni  Ni17  1  0.999955  0.875190  0.875417  1
