# generated using pymatgen
data_CaTbSm5CoI12
_symmetry_space_group_name_H-M   'P 1'
_cell_length_a   9.90644645
_cell_length_b   9.82260759
_cell_length_c   9.90448654
_cell_angle_alpha   106.51006004
_cell_angle_beta   106.86419020
_cell_angle_gamma   107.07298666
_symmetry_Int_Tables_number   1
_chemical_formula_structural   CaTbSm5CoI12
_chemical_formula_sum   'Ca1 Tb1 Sm5 Co1 I12'
_cell_volume   806.62775089
_cell_formula_units_Z   1
loop_
 _symmetry_equiv_pos_site_id
 _symmetry_equiv_pos_as_xyz
  1  'x, y, z'
loop_
 _atom_site_type_symbol
 _atom_site_label
 _atom_site_symmetry_multiplicity
 _atom_site_fract_x
 _atom_site_fract_y
 _atom_site_fract_z
 _atom_site_occupancy
  Ca  Ca0  1  0.499753  0.500364  0.500054  1
  Tb  Tb1  1  0.703869  0.976078  0.903280  1
  Sm  Sm2  1  0.024293  0.096799  0.299551  1
  Sm  Sm3  1  0.091743  0.285017  0.022830  1
  Sm  Sm4  1  0.301369  0.023837  0.097783  1
  Sm  Sm5  1  0.976297  0.903138  0.700387  1
  Sm  Sm6  1  0.906664  0.714607  0.976742  1
  Co  Co7  1  0.000228  0.999658  0.999883  1
  I  I8  1  0.154016  0.458965  0.378242  1
  I  I9  1  0.457466  0.381508  0.153941  1
  I  I10  1  0.379646  0.152769  0.459129  1
  I  I11  1  0.845294  0.540832  0.621743  1
  I  I12  1  0.542304  0.623723  0.846710  1
  I  I13  1  0.620365  0.850149  0.545994  1
  I  I14  1  0.678684  0.071612  0.220526  1
  I  I15  1  0.074179  0.228581  0.680862  1
  I  I16  1  0.222981  0.678237  0.072076  1
  I  I17  1  0.323115  0.927390  0.774885  1
  I  I18  1  0.925215  0.771212  0.319026  1
  I  I19  1  0.772518  0.315523  0.926356  1
