# generated using pymatgen
data_Pr6Al24Ir3Ru4Au
_symmetry_space_group_name_H-M   'P 1'
_cell_length_a   8.95402209
_cell_length_b   8.94151294
_cell_length_c   9.71477075
_cell_angle_alpha   89.95668975
_cell_angle_beta   89.98657446
_cell_angle_gamma   119.74477038
_symmetry_Int_Tables_number   1
_chemical_formula_structural   Pr6Al24Ir3Ru4Au
_chemical_formula_sum   'Pr6 Al24 Ir3 Ru4 Au1'
_cell_volume   675.31024501
_cell_formula_units_Z   1
loop_
 _symmetry_equiv_pos_site_id
 _symmetry_equiv_pos_as_xyz
  1  'x, y, z'
loop_
 _atom_site_type_symbol
 _atom_site_label
 _atom_site_symmetry_multiplicity
 _atom_site_fract_x
 _atom_site_fract_y
 _atom_site_fract_z
 _atom_site_occupancy
  Pr  Pr0  1  0.191033  0.382503  0.253232  1
  Pr  Pr1  1  0.808967  0.617497  0.746768  1
  Pr  Pr2  1  0.620088  0.810546  0.247933  1
  Pr  Pr3  1  0.379912  0.189454  0.752067  1
  Pr  Pr4  1  0.190391  0.811465  0.248569  1
  Pr  Pr5  1  0.809609  0.188535  0.751431  1
  Al  Al6  1  0.326299  0.657413  0.022992  1
  Al  Al7  1  0.673701  0.342587  0.977008  1
  Al  Al8  1  0.665786  0.330710  0.523444  1
  Al  Al9  1  0.334214  0.669290  0.476556  1
  Al  Al10  1  0.164511  0.327647  0.574233  1
  Al  Al11  1  0.835489  0.672353  0.425767  1
  Al  Al12  1  0.672749  0.837424  0.571389  1
  Al  Al13  1  0.838369  0.673250  0.075183  1
  Al  Al14  1  0.327251  0.162576  0.428611  1
  Al  Al15  1  0.161631  0.326750  0.924817  1
  Al  Al16  1  0.165224  0.837883  0.574473  1
  Al  Al17  1  0.323913  0.172119  0.077267  1
  Al  Al18  1  0.834776  0.162117  0.425527  1
  Al  Al19  1  0.676087  0.827881  0.922733  1
  Al  Al20  1  0.849330  0.173590  0.080054  1
  Al  Al21  1  0.150670  0.826410  0.919946  1
  Al  Al22  1  0.565600  0.131539  0.258260  1
  Al  Al23  1  0.434400  0.868461  0.741740  1
  Al  Al24  1  0.875343  0.439568  0.249150  1
  Al  Al25  1  0.124657  0.560432  0.750850  1
  Al  Al26  1  0.564195  0.438479  0.250269  1
  Al  Al27  1  0.435805  0.561521  0.749731  1
  Al  Al28  1  0.998715  0.000950  0.250494  1
  Al  Al29  1  0.001285  0.999050  0.749506  1
  Ir  Ir30  1  0.500000  0.500000  0.000000  1
  Ir  Ir31  1  0.000000  0.500000  0.500000  1
  Ir  Ir32  1  0.500000  0.500000  0.500000  1
  Ru  Ru33  1  0.000000  0.500000  0.000000  1
  Ru  Ru34  1  0.500000  0.000000  0.500000  1
  Ru  Ru35  1  0.000000  0.000000  0.000000  1
  Ru  Ru36  1  0.000000  0.000000  0.500000  1
  Au  Au37  1  0.500000  0.000000  0.000000  1
