# generated using pymatgen
data_Rb4Ho9Lu3S20
_symmetry_space_group_name_H-M   'P 1'
_cell_length_a   3.91681100
_cell_length_b   11.67214541
_cell_length_c   20.91672900
_cell_angle_alpha   90.07273805
_cell_angle_beta   90.00000000
_cell_angle_gamma   90.00000000
_symmetry_Int_Tables_number   1
_chemical_formula_structural   Rb4Ho9Lu3S20
_chemical_formula_sum   'Rb4 Ho9 Lu3 S20'
_cell_volume   956.26161808
_cell_formula_units_Z   1
loop_
 _symmetry_equiv_pos_site_id
 _symmetry_equiv_pos_as_xyz
  1  'x, y, z'
loop_
 _atom_site_type_symbol
 _atom_site_label
 _atom_site_symmetry_multiplicity
 _atom_site_fract_x
 _atom_site_fract_y
 _atom_site_fract_z
 _atom_site_occupancy
  Rb  Rb0  1  0.250000  0.850193  0.094133  1
  Rb  Rb1  1  0.750000  0.149715  0.905474  1
  Rb  Rb2  1  0.750000  0.349941  0.405871  1
  Rb  Rb3  1  0.250000  0.650076  0.594101  1
  Ho  Ho4  1  0.750000  0.800339  0.827541  1
  Ho  Ho5  1  0.250000  0.199264  0.172851  1
  Ho  Ho6  1  0.250000  0.300145  0.672285  1
  Ho  Ho7  1  0.750000  0.699784  0.327696  1
  Ho  Ho8  1  0.250000  0.957083  0.697746  1
  Ho  Ho9  1  0.750000  0.042753  0.302331  1
  Ho  Ho10  1  0.750000  0.457289  0.801762  1
  Ho  Ho11  1  0.250000  0.543254  0.197918  1
  Ho  Ho12  1  0.750000  0.390077  0.052535  1
  Lu  Lu13  1  0.250000  0.609885  0.947070  1
  Lu  Lu14  1  0.250000  0.890891  0.447328  1
  Lu  Lu15  1  0.750000  0.109088  0.552664  1
  S  S16  1  0.250000  0.949973  0.568230  1
  S  S17  1  0.750000  0.050038  0.431825  1
  S  S18  1  0.750000  0.450886  0.930715  1
  S  S19  1  0.250000  0.552967  0.068344  1
  S  S20  1  0.750000  0.763769  0.955077  1
  S  S21  1  0.250000  0.232239  0.044947  1
  S  S22  1  0.250000  0.263276  0.544809  1
  S  S23  1  0.750000  0.736742  0.455210  1
  S  S24  1  0.250000  0.954689  0.826873  1
  S  S25  1  0.750000  0.045194  0.173318  1
  S  S26  1  0.750000  0.454544  0.672826  1
  S  S27  1  0.250000  0.545523  0.326967  1
  S  S28  1  0.750000  0.127392  0.682411  1
  S  S29  1  0.250000  0.872616  0.317654  1
  S  S30  1  0.250000  0.627688  0.817404  1
  S  S31  1  0.750000  0.372462  0.183860  1
  S  S32  1  0.750000  0.696038  0.198514  1
  S  S33  1  0.250000  0.304349  0.801534  1
  S  S34  1  0.250000  0.195628  0.301876  1
  S  S35  1  0.750000  0.804211  0.698299  1
