# generated using pymatgen
data_Tb16Cd4RuPt2Rh
_symmetry_space_group_name_H-M   'P 1'
_cell_length_a   9.73050788
_cell_length_b   9.73050754
_cell_length_c   9.74268009
_cell_angle_alpha   59.61546414
_cell_angle_beta   59.61546561
_cell_angle_gamma   59.61705779
_symmetry_Int_Tables_number   1
_chemical_formula_structural   Tb16Cd4RuPt2Rh
_chemical_formula_sum   'Tb16 Cd4 Ru1 Pt2 Rh1'
_cell_volume   646.58804976
_cell_formula_units_Z   1
loop_
 _symmetry_equiv_pos_site_id
 _symmetry_equiv_pos_as_xyz
  1  'x, y, z'
loop_
 _atom_site_type_symbol
 _atom_site_label
 _atom_site_symmetry_multiplicity
 _atom_site_fract_x
 _atom_site_fract_y
 _atom_site_fract_z
 _atom_site_occupancy
  Tb  Tb0  1  0.349006  0.349006  0.353164  1
  Tb  Tb1  1  0.349584  0.349584  0.948282  1
  Tb  Tb2  1  0.347860  0.951256  0.350362  1
  Tb  Tb3  1  0.951256  0.347860  0.350362  1
  Tb  Tb4  1  0.814874  0.189273  0.188665  1
  Tb  Tb5  1  0.188336  0.813784  0.807625  1
  Tb  Tb6  1  0.189273  0.814874  0.188665  1
  Tb  Tb7  1  0.813784  0.188336  0.807625  1
  Tb  Tb8  1  0.188290  0.188290  0.812590  1
  Tb  Tb9  1  0.809654  0.809654  0.189523  1
  Tb  Tb10  1  0.935748  0.563906  0.565795  1
  Tb  Tb11  1  0.560292  0.936494  0.937048  1
  Tb  Tb12  1  0.563906  0.935748  0.565795  1
  Tb  Tb13  1  0.936494  0.560292  0.937048  1
  Tb  Tb14  1  0.564081  0.564081  0.936729  1
  Tb  Tb15  1  0.936649  0.936649  0.561722  1
  Cd  Cd16  1  0.580435  0.580435  0.580501  1
  Cd  Cd17  1  0.580798  0.580798  0.256123  1
  Cd  Cd18  1  0.581326  0.254982  0.580993  1
  Cd  Cd19  1  0.254982  0.581326  0.580993  1
  Ru  Ru20  1  0.143326  0.143326  0.141668  1
  Pt  Pt21  1  0.144048  0.572327  0.143068  1
  Pt  Pt22  1  0.572327  0.144048  0.143068  1
  Rh  Rh23  1  0.143670  0.143670  0.572586  1
