# generated using pymatgen
data_Pa2HgPdPt
_symmetry_space_group_name_H-M   'P 1'
_cell_length_a   7.86174900
_cell_length_b   7.85991300
_cell_length_c   3.63492000
_cell_angle_alpha   90.00000000
_cell_angle_beta   90.00000000
_cell_angle_gamma   90.00000000
_symmetry_Int_Tables_number   1
_chemical_formula_structural   Pa2HgPdPt
_chemical_formula_sum   'Pa4 Hg2 Pd2 Pt2'
_cell_volume   224.61138720
_cell_formula_units_Z   2
loop_
 _symmetry_equiv_pos_site_id
 _symmetry_equiv_pos_as_xyz
  1  'x, y, z'
loop_
 _atom_site_type_symbol
 _atom_site_label
 _atom_site_symmetry_multiplicity
 _atom_site_fract_x
 _atom_site_fract_y
 _atom_site_fract_z
 _atom_site_occupancy
  Pa  Pa0  1  0.325932  0.169257  0.500000  1
  Pa  Pa1  1  0.825932  0.330743  0.500000  1
  Pa  Pa2  1  0.173863  0.678164  0.500000  1
  Pa  Pa3  1  0.673863  0.821836  0.500000  1
  Hg  Hg4  1  0.994961  0.006134  0.000000  1
  Hg  Hg5  1  0.494961  0.493866  0.000000  1
  Pd  Pd6  1  0.631128  0.131046  0.000000  1
  Pd  Pd7  1  0.131128  0.368954  0.000000  1
  Pt  Pt8  1  0.874116  0.625854  0.000000  1
  Pt  Pt9  1  0.374116  0.874146  0.000000  1
