# generated using pymatgen
data_HoTm3Al24IrPt8
_symmetry_space_group_name_H-M   'P 1'
_cell_length_a   7.51370718
_cell_length_b   7.53827469
_cell_length_c   13.14674204
_cell_angle_alpha   84.64992977
_cell_angle_beta   79.11826823
_cell_angle_gamma   59.90488422
_symmetry_Int_Tables_number   1
_chemical_formula_structural   HoTm3Al24IrPt8
_chemical_formula_sum   'Ho1 Tm3 Al24 Ir1 Pt8'
_cell_volume   632.66995793
_cell_formula_units_Z   1
loop_
 _symmetry_equiv_pos_site_id
 _symmetry_equiv_pos_as_xyz
  1  'x, y, z'
loop_
 _atom_site_type_symbol
 _atom_site_label
 _atom_site_symmetry_multiplicity
 _atom_site_fract_x
 _atom_site_fract_y
 _atom_site_fract_z
 _atom_site_occupancy
  Ho  Ho0  1  0.393593  0.168742  0.808538  1
  Tm  Tm1  1  0.606432  0.831149  0.191633  1
  Tm  Tm2  1  0.734148  0.498652  0.808340  1
  Tm  Tm3  1  0.265802  0.501392  0.191653  1
  Al  Al4  1  0.686637  0.830679  0.945087  1
  Al  Al5  1  0.313492  0.169124  0.055109  1
  Al  Al6  1  0.146617  0.832047  0.561756  1
  Al  Al7  1  0.853386  0.167949  0.438260  1
  Al  Al8  1  0.479939  0.166648  0.558978  1
  Al  Al9  1  0.520062  0.833346  0.440975  1
  Al  Al10  1  0.217820  0.165086  0.327523  1
  Al  Al11  1  0.782407  0.834711  0.672382  1
  Al  Al12  1  0.436584  0.507043  0.672305  1
  Al  Al13  1  0.563449  0.493155  0.327598  1
  Al  Al14  1  0.109033  0.160319  0.670402  1
  Al  Al15  1  0.890816  0.839673  0.329489  1
  Al  Al16  1  0.350342  0.499014  0.945214  1
  Al  Al17  1  0.649625  0.501196  0.054880  1
  Al  Al18  1  0.015288  0.171707  0.953570  1
  Al  Al19  1  0.984496  0.828319  0.046524  1
  Al  Al20  1  0.186502  0.499419  0.441142  1
  Al  Al21  1  0.813486  0.500590  0.558874  1
  Al  Al22  1  0.733851  0.163705  0.182956  1
  Al  Al23  1  0.266113  0.836082  0.817036  1
  Al  Al24  1  0.060873  0.629498  0.817553  1
  Al  Al25  1  0.938927  0.370753  0.182441  1
  Al  Al26  1  0.855176  0.042243  0.816568  1
  Al  Al27  1  0.145064  0.957695  0.183424  1
  Ir  Ir28  1  0.999887  0.500124  0.000089  1
  Pt  Pt29  1  0.119675  0.491798  0.639167  1
  Pt  Pt30  1  0.880162  0.508428  0.360686  1
  Pt  Pt31  1  0.656921  0.171582  0.999907  1
  Pt  Pt32  1  0.343136  0.828357  0.000179  1
  Pt  Pt33  1  0.537035  0.166807  0.361178  1
  Pt  Pt34  1  0.462991  0.832978  0.638708  1
  Pt  Pt35  1  0.778418  0.175595  0.637366  1
  Pt  Pt36  1  0.221813  0.824394  0.362511  1
