# generated using pymatgen
data_YbScRe2B4Ru3
_symmetry_space_group_name_H-M   'P 1'
_cell_length_a   3.02318700
_cell_length_b   8.63600298
_cell_length_c   10.12892366
_cell_angle_alpha   90.08608757
_cell_angle_beta   90.00000000
_cell_angle_gamma   90.00000000
_symmetry_Int_Tables_number   1
_chemical_formula_structural   YbScRe2B4Ru3
_chemical_formula_sum   'Yb2 Sc2 Re4 B8 Ru6'
_cell_volume   264.44819227
_cell_formula_units_Z   2
loop_
 _symmetry_equiv_pos_site_id
 _symmetry_equiv_pos_as_xyz
  1  'x, y, z'
loop_
 _atom_site_type_symbol
 _atom_site_label
 _atom_site_symmetry_multiplicity
 _atom_site_fract_x
 _atom_site_fract_y
 _atom_site_fract_z
 _atom_site_occupancy
  Yb  Yb0  1  0.500000  0.842174  0.181797  1
  Yb  Yb1  1  0.500000  0.157826  0.818203  1
  Sc  Sc2  1  0.500000  0.656877  0.681948  1
  Sc  Sc3  1  0.500000  0.343123  0.318052  1
  Re  Re4  1  0.000000  0.657826  0.951137  1
  Re  Re5  1  0.000000  0.342174  0.048863  1
  Re  Re6  1  0.000000  0.840015  0.455411  1
  Re  Re7  1  0.000000  0.159985  0.544589  1
  B  B8  1  0.500000  0.965716  0.589216  1
  B  B9  1  0.500000  0.034284  0.410784  1
  B  B10  1  0.500000  0.848539  0.900994  1
  B  B11  1  0.500000  0.151461  0.099006  1
  B  B12  1  0.500000  0.650765  0.402108  1
  B  B13  1  0.500000  0.349235  0.597892  1
  B  B14  1  0.500000  0.463798  0.911237  1
  B  B15  1  0.500000  0.536202  0.088763  1
  Ru  Ru16  1  0.000000  0.000000  0.000000  1
  Ru  Ru17  1  0.000000  0.409963  0.758459  1
  Ru  Ru18  1  0.000000  0.590037  0.241541  1
  Ru  Ru19  1  0.000000  0.500000  0.500000  1
  Ru  Ru20  1  0.000000  0.898607  0.738454  1
  Ru  Ru21  1  0.000000  0.101393  0.261546  1
