# generated using pymatgen
data_Nd2Eu2IrPd3O14
_symmetry_space_group_name_H-M   'P 1'
_cell_length_a   7.38801905
_cell_length_b   7.38801874
_cell_length_c   7.44073728
_cell_angle_alpha   59.98636756
_cell_angle_beta   59.98636959
_cell_angle_gamma   59.72023074
_symmetry_Int_Tables_number   1
_chemical_formula_structural   Nd2Eu2IrPd3O14
_chemical_formula_sum   'Nd2 Eu2 Ir1 Pd3 O14'
_cell_volume   286.51090603
_cell_formula_units_Z   1
loop_
 _symmetry_equiv_pos_site_id
 _symmetry_equiv_pos_as_xyz
  1  'x, y, z'
loop_
 _atom_site_type_symbol
 _atom_site_label
 _atom_site_symmetry_multiplicity
 _atom_site_fract_x
 _atom_site_fract_y
 _atom_site_fract_z
 _atom_site_occupancy
  Nd  Nd0  1  0.125000  0.125000  0.625000  1
  Nd  Nd1  1  0.125000  0.125000  0.125000  1
  Eu  Eu2  1  0.625000  0.125000  0.125000  1
  Eu  Eu3  1  0.125000  0.625000  0.125000  1
  Ir  Ir4  1  0.625000  0.625000  0.125000  1
  Pd  Pd5  1  0.125000  0.625000  0.625000  1
  Pd  Pd6  1  0.625000  0.125000  0.625000  1
  Pd  Pd7  1  0.625000  0.625000  0.625000  1
  O  O8  1  0.704641  0.704641  0.289876  1
  O  O9  1  0.288043  0.288043  0.715098  1
  O  O10  1  0.708903  0.288176  0.714096  1
  O  O11  1  0.298960  0.706150  0.289841  1
  O  O12  1  0.288176  0.708903  0.714096  1
  O  O13  1  0.706150  0.298960  0.289841  1
  O  O14  1  0.545359  0.545359  0.960124  1
  O  O15  1  0.961957  0.961957  0.534902  1
  O  O16  1  0.541097  0.961824  0.535904  1
  O  O17  1  0.951040  0.543850  0.960159  1
  O  O18  1  0.961824  0.541097  0.535904  1
  O  O19  1  0.543850  0.951040  0.960159  1
  O  O20  1  0.252806  0.252806  0.246310  1
  O  O21  1  0.997194  0.997194  0.003690  1
