# generated using pymatgen
data_Dy2Ho3Hf2P12Ir17
_symmetry_space_group_name_H-M   'P 1'
_cell_length_a   12.65154401
_cell_length_b   12.88299196
_cell_length_c   3.97572300
_cell_angle_alpha   90.00000000
_cell_angle_beta   90.00000000
_cell_angle_gamma   119.40267295
_symmetry_Int_Tables_number   1
_chemical_formula_structural   Dy2Ho3Hf2P12Ir17
_chemical_formula_sum   'Dy2 Ho3 Hf2 P12 Ir17'
_cell_volume   564.53350095
_cell_formula_units_Z   1
loop_
 _symmetry_equiv_pos_site_id
 _symmetry_equiv_pos_as_xyz
  1  'x, y, z'
loop_
 _atom_site_type_symbol
 _atom_site_label
 _atom_site_symmetry_multiplicity
 _atom_site_fract_x
 _atom_site_fract_y
 _atom_site_fract_z
 _atom_site_occupancy
  Dy  Dy0  1  0.184646  0.184568  0.000000  1
  Dy  Dy1  1  0.813014  0.999993  0.000000  1
  Ho  Ho2  1  0.330285  0.661565  0.500000  1
  Ho  Ho3  1  0.668713  0.338421  0.500000  1
  Ho  Ho4  1  0.999950  0.815376  0.000000  1
  Hf  Hf5  1  0.997571  0.447035  0.500000  1
  Hf  Hf6  1  0.550624  0.553033  0.500000  1
  P  P7  1  0.005430  0.651314  0.500000  1
  P  P8  1  0.354337  0.348924  0.500000  1
  P  P9  1  0.645390  0.999998  0.500000  1
  P  P10  1  0.514751  0.685930  0.000000  1
  P  P11  1  0.309800  0.825045  0.000000  1
  P  P12  1  0.164918  0.481268  0.000000  1
  P  P13  1  0.484716  0.174948  0.000000  1
  P  P14  1  0.683637  0.518717  0.000000  1
  P  P15  1  0.828802  0.314084  0.000000  1
  P  P16  1  0.999441  0.173840  0.500000  1
  P  P17  1  0.825636  0.826057  0.500000  1
  P  P18  1  0.181340  0.999882  0.500000  1
  Ir  Ir19  1  0.504873  0.864339  0.000000  1
  Ir  Ir20  1  0.127543  0.642707  0.000000  1
  Ir  Ir21  1  0.356019  0.495996  0.000000  1
  Ir  Ir22  1  0.484853  0.357323  0.000000  1
  Ir  Ir23  1  0.860000  0.503994  0.000000  1
  Ir  Ir24  1  0.640512  0.135659  0.000000  1
  Ir  Ir25  1  0.464920  0.999999  0.500000  1
  Ir  Ir26  1  0.997066  0.279635  0.000000  1
  Ir  Ir27  1  0.717561  0.720420  0.000000  1
  Ir  Ir28  1  0.289610  0.999919  0.000000  1
  Ir  Ir29  1  0.623759  0.807352  0.500000  1
  Ir  Ir30  1  0.203613  0.825270  0.500000  1
  Ir  Ir31  1  0.177474  0.367137  0.500000  1
  Ir  Ir32  1  0.378567  0.174683  0.500000  1
  Ir  Ir33  1  0.810683  0.633163  0.500000  1
  Ir  Ir34  1  0.816384  0.192626  0.500000  1
  Ir  Ir35  1  0.003563  0.999780  0.500000  1
