# generated using pymatgen
data_Tb3Dy(B10Ir)2
_symmetry_space_group_name_H-M   'P 1'
_cell_length_a   4.17771800
_cell_length_b   5.68591502
_cell_length_c   11.35560305
_cell_angle_alpha   90.00960059
_cell_angle_beta   90.00002885
_cell_angle_gamma   90.00001008
_symmetry_Int_Tables_number   1
_chemical_formula_structural   Tb3Dy(B10Ir)2
_chemical_formula_sum   'Tb3 Dy1 B20 Ir2'
_cell_volume   269.74268879
_cell_formula_units_Z   1
loop_
 _symmetry_equiv_pos_site_id
 _symmetry_equiv_pos_as_xyz
  1  'x, y, z'
loop_
 _atom_site_type_symbol
 _atom_site_label
 _atom_site_symmetry_multiplicity
 _atom_site_fract_x
 _atom_site_fract_y
 _atom_site_fract_z
 _atom_site_occupancy
  Tb  Tb0  1  0.500000  0.795106  0.634461  1
  Tb  Tb1  1  0.500000  0.295156  0.865372  1
  Tb  Tb2  1  0.500000  0.705015  0.134655  1
  Dy  Dy3  1  0.500000  0.204817  0.365672  1
  B  B4  1  0.000000  0.381189  0.042658  1
  B  B5  1  0.000000  0.618696  0.957389  1
  B  B6  1  0.000000  0.118561  0.542484  1
  B  B7  1  0.000000  0.881095  0.457400  1
  B  B8  1  0.000000  0.363403  0.197276  1
  B  B9  1  0.999999  0.636702  0.802730  1
  B  B10  1  0.000000  0.136667  0.697109  1
  B  B11  1  0.000000  0.863346  0.302799  1
  B  B12  1  0.000000  0.055478  0.193260  1
  B  B13  1  0.000000  0.944652  0.806898  1
  B  B14  1  0.000000  0.444644  0.692979  1
  B  B15  1  0.000000  0.555459  0.306862  1
  B  B16  1  0.301636  0.219490  0.119476  1
  B  B17  1  0.698542  0.780560  0.880775  1
  B  B18  1  0.301458  0.780560  0.880775  1
  B  B19  1  0.698406  0.280468  0.619108  1
  B  B20  1  0.698364  0.219490  0.119476  1
  B  B21  1  0.301588  0.719819  0.380795  1
  B  B22  1  0.698412  0.719820  0.380795  1
  B  B23  1  0.301594  0.280469  0.619108  1
  Ir  Ir24  1  0.000001  0.999927  0.000045  1
  Ir  Ir25  1  0.000000  0.499408  0.499642  1
