# generated using pymatgen
data_TbTh2Co11B4
_symmetry_space_group_name_H-M   'P 1'
_cell_length_a   5.03705700
_cell_length_b   5.04119627
_cell_length_c   9.90527100
_cell_angle_alpha   89.99979001
_cell_angle_beta   90.00043170
_cell_angle_gamma   119.97284886
_symmetry_Int_Tables_number   1
_chemical_formula_structural   TbTh2Co11B4
_chemical_formula_sum   'Tb1 Th2 Co11 B4'
_cell_volume   217.88444189
_cell_formula_units_Z   1
loop_
 _symmetry_equiv_pos_site_id
 _symmetry_equiv_pos_as_xyz
  1  'x, y, z'
loop_
 _atom_site_type_symbol
 _atom_site_label
 _atom_site_symmetry_multiplicity
 _atom_site_fract_x
 _atom_site_fract_y
 _atom_site_fract_z
 _atom_site_occupancy
  Tb  Tb0  1  0.999998  0.000000  0.658783  1
  Th  Th1  1  0.999989  0.000000  0.997671  1
  Th  Th2  1  0.999994  0.000000  0.340538  1
  Co  Co3  1  0.333263  0.666547  0.998259  1
  Co  Co4  1  0.666716  0.333453  0.998259  1
  Co  Co5  1  0.499996  0.000000  0.501869  1
  Co  Co6  1  0.499996  0.500000  0.501856  1
  Co  Co7  1  0.999996  0.500000  0.501856  1
  Co  Co8  1  0.499992  0.000000  0.203929  1
  Co  Co9  1  0.499993  0.500000  0.203971  1
  Co  Co10  1  0.999993  0.500000  0.203971  1
  Co  Co11  1  0.499998  0.000000  0.795281  1
  Co  Co12  1  0.499997  0.500000  0.795264  1
  Co  Co13  1  0.999997  0.500000  0.795264  1
  B  B14  1  0.333349  0.666710  0.350363  1
  B  B15  1  0.666639  0.333290  0.350363  1
  B  B16  1  0.666660  0.333326  0.651253  1
  B  B17  1  0.333334  0.666674  0.651253  1
