# generated using pymatgen
data_Cs6GaTe4Br
_symmetry_space_group_name_H-M   'P 1'
_cell_length_a   12.07637600
_cell_length_b   12.07637429
_cell_length_c   9.04122400
_cell_angle_alpha   90.00000000
_cell_angle_beta   90.00000000
_cell_angle_gamma   119.99999922
_symmetry_Int_Tables_number   1
_chemical_formula_structural   Cs6GaTe4Br
_chemical_formula_sum   'Cs12 Ga2 Te8 Br2'
_cell_volume   1141.90784204
_cell_formula_units_Z   2
loop_
 _symmetry_equiv_pos_site_id
 _symmetry_equiv_pos_as_xyz
  1  'x, y, z'
loop_
 _atom_site_type_symbol
 _atom_site_label
 _atom_site_symmetry_multiplicity
 _atom_site_fract_x
 _atom_site_fract_y
 _atom_site_fract_z
 _atom_site_occupancy
  Cs  Cs0  1  0.133431  0.866569  0.517202  1
  Cs  Cs1  1  0.733138  0.866569  0.517202  1
  Cs  Cs2  1  0.955892  0.477947  0.318159  1
  Cs  Cs3  1  0.522053  0.477947  0.318159  1
  Cs  Cs4  1  0.866569  0.733138  0.017202  1
  Cs  Cs5  1  0.266862  0.133431  0.017202  1
  Cs  Cs6  1  0.522053  0.044108  0.318159  1
  Cs  Cs7  1  0.133431  0.266862  0.517202  1
  Cs  Cs8  1  0.866569  0.133431  0.017202  1
  Cs  Cs9  1  0.044108  0.522053  0.818159  1
  Cs  Cs10  1  0.477947  0.955892  0.818159  1
  Cs  Cs11  1  0.477947  0.522053  0.818159  1
  Ga  Ga12  1  0.666667  0.333333  0.708598  1
  Ga  Ga13  1  0.333333  0.666667  0.208598  1
  Te  Te14  1  0.421347  0.210674  0.614118  1
  Te  Te15  1  0.578653  0.789326  0.114118  1
  Te  Te16  1  0.666667  0.333333  0.009529  1
  Te  Te17  1  0.789326  0.578653  0.614118  1
  Te  Te18  1  0.210674  0.421347  0.114118  1
  Te  Te19  1  0.333333  0.666667  0.509529  1
  Te  Te20  1  0.210674  0.789326  0.114118  1
  Te  Te21  1  0.789326  0.210674  0.614118  1
  Br  Br22  1  0.000000  0.000000  0.274039  1
  Br  Br23  1  0.000000  0.000000  0.774039  1
