# generated using pymatgen
data_Hf8Co3Tc4Os
_symmetry_space_group_name_H-M   'P 1'
_cell_length_a   6.43419700
_cell_length_b   4.56876600
_cell_length_c   9.13037800
_cell_angle_alpha   89.99986827
_cell_angle_beta   90.00031717
_cell_angle_gamma   90.00009469
_symmetry_Int_Tables_number   1
_chemical_formula_structural   Hf8Co3Tc4Os
_chemical_formula_sum   'Hf8 Co3 Tc4 Os1'
_cell_volume   268.39970050
_cell_formula_units_Z   1
loop_
 _symmetry_equiv_pos_site_id
 _symmetry_equiv_pos_as_xyz
  1  'x, y, z'
loop_
 _atom_site_type_symbol
 _atom_site_label
 _atom_site_symmetry_multiplicity
 _atom_site_fract_x
 _atom_site_fract_y
 _atom_site_fract_z
 _atom_site_occupancy
  Hf  Hf0  1  0.001144  0.750001  0.125000  1
  Hf  Hf1  1  0.498906  0.750000  0.125008  1
  Hf  Hf2  1  0.000898  0.250000  0.375829  1
  Hf  Hf3  1  0.499158  0.250000  0.375832  1
  Hf  Hf4  1  0.500042  0.749998  0.624991  1
  Hf  Hf5  1  0.999899  0.750002  0.625000  1
  Hf  Hf6  1  0.499109  0.250001  0.874157  1
  Hf  Hf7  1  0.000844  0.250000  0.874161  1
  Co  Co8  1  0.250035  0.749999  0.376071  1
  Co  Co9  1  0.749970  0.250000  0.624998  1
  Co  Co10  1  0.249971  0.750001  0.873942  1
  Tc  Tc11  1  0.250017  0.250001  0.124998  1
  Tc  Tc12  1  0.750022  0.750000  0.377879  1
  Tc  Tc13  1  0.249983  0.249999  0.624997  1
  Tc  Tc14  1  0.749979  0.749999  0.872143  1
  Os  Os15  1  0.750020  0.249999  0.124997  1
