# generated using pymatgen
data_Yb8Si12HgPd3
_symmetry_space_group_name_H-M   'P 1'
_cell_length_a   8.27469000
_cell_length_b   8.27469195
_cell_length_c   8.40266000
_cell_angle_alpha   90.00000000
_cell_angle_beta   90.00000000
_cell_angle_gamma   119.99998528
_symmetry_Int_Tables_number   1
_chemical_formula_structural   Yb8Si12HgPd3
_chemical_formula_sum   'Yb8 Si12 Hg1 Pd3'
_cell_volume   498.25429876
_cell_formula_units_Z   1
loop_
 _symmetry_equiv_pos_site_id
 _symmetry_equiv_pos_as_xyz
  1  'x, y, z'
loop_
 _atom_site_type_symbol
 _atom_site_label
 _atom_site_symmetry_multiplicity
 _atom_site_fract_x
 _atom_site_fract_y
 _atom_site_fract_z
 _atom_site_occupancy
  Yb  Yb0  1  0.496476  0.503523  0.741746  1
  Yb  Yb1  1  0.497493  0.502507  0.257859  1
  Yb  Yb2  1  0.007047  0.503523  0.741746  1
  Yb  Yb3  1  0.005015  0.502507  0.257859  1
  Yb  Yb4  1  0.496477  0.992953  0.741746  1
  Yb  Yb5  1  0.497493  0.994985  0.257859  1
  Yb  Yb6  1  0.000000  0.000000  0.745516  1
  Yb  Yb7  1  0.000000  0.000000  0.255438  1
  Si  Si8  1  0.844077  0.155923  0.001698  1
  Si  Si9  1  0.167343  0.832657  0.999294  1
  Si  Si10  1  0.311847  0.155923  0.001698  1
  Si  Si11  1  0.164031  0.835969  0.499884  1
  Si  Si12  1  0.665313  0.832657  0.999294  1
  Si  Si13  1  0.835209  0.164791  0.500067  1
  Si  Si14  1  0.844077  0.688153  0.001698  1
  Si  Si15  1  0.671938  0.835969  0.499884  1
  Si  Si16  1  0.167343  0.334687  0.999294  1
  Si  Si17  1  0.329581  0.164791  0.500067  1
  Si  Si18  1  0.164031  0.328062  0.499884  1
  Si  Si19  1  0.835209  0.670419  0.500067  1
  Hg  Hg20  1  0.666667  0.333333  0.995909  1
  Pd  Pd21  1  0.333333  0.666667  0.001174  1
  Pd  Pd22  1  0.333333  0.666667  0.498828  1
  Pd  Pd23  1  0.666667  0.333333  0.501490  1
