# generated using pymatgen
data_Hf3Sc9(Si3Os)4
_symmetry_space_group_name_H-M   'P 1'
_cell_length_a   4.01673200
_cell_length_b   10.29663502
_cell_length_c   11.59563571
_cell_angle_alpha   90.11344027
_cell_angle_beta   90.00000000
_cell_angle_gamma   90.00000000
_symmetry_Int_Tables_number   1
_chemical_formula_structural   Hf3Sc9(Si3Os)4
_chemical_formula_sum   'Hf3 Sc9 Si12 Os4'
_cell_volume   479.58090931
_cell_formula_units_Z   1
loop_
 _symmetry_equiv_pos_site_id
 _symmetry_equiv_pos_as_xyz
  1  'x, y, z'
loop_
 _atom_site_type_symbol
 _atom_site_label
 _atom_site_symmetry_multiplicity
 _atom_site_fract_x
 _atom_site_fract_y
 _atom_site_fract_z
 _atom_site_occupancy
  Hf  Hf0  1  0.250000  0.874740  0.018262  1
  Hf  Hf1  1  0.250000  0.623622  0.519283  1
  Hf  Hf2  1  0.750000  0.125288  0.981714  1
  Sc  Sc3  1  0.750000  0.374846  0.481033  1
  Sc  Sc4  1  0.250000  0.920490  0.605117  1
  Sc  Sc5  1  0.250000  0.579453  0.104031  1
  Sc  Sc6  1  0.750000  0.078807  0.394884  1
  Sc  Sc7  1  0.750000  0.420696  0.894936  1
  Sc  Sc8  1  0.250000  0.659784  0.799998  1
  Sc  Sc9  1  0.250000  0.840709  0.300081  1
  Sc  Sc10  1  0.750000  0.341232  0.201047  1
  Sc  Sc11  1  0.750000  0.159481  0.700263  1
  Si  Si12  1  0.250000  0.017406  0.823436  1
  Si  Si13  1  0.250000  0.483961  0.322170  1
  Si  Si14  1  0.750000  0.982649  0.176826  1
  Si  Si15  1  0.750000  0.516169  0.676592  1
  Si  Si16  1  0.250000  0.252511  0.839739  1
  Si  Si17  1  0.250000  0.246377  0.339284  1
  Si  Si18  1  0.750000  0.747713  0.160043  1
  Si  Si19  1  0.750000  0.752283  0.660561  1
  Si  Si20  1  0.250000  0.193171  0.545007  1
  Si  Si21  1  0.250000  0.307951  0.044692  1
  Si  Si22  1  0.750000  0.806427  0.456119  1
  Si  Si23  1  0.750000  0.692353  0.955385  1
  Os  Os24  1  0.250000  0.392300  0.672893  1
  Os  Os25  1  0.250000  0.108228  0.170268  1
  Os  Os26  1  0.750000  0.610021  0.327305  1
  Os  Os27  1  0.750000  0.891336  0.829033  1
