# generated using pymatgen
data_Dy20Ir8Os3Au
_symmetry_space_group_name_H-M   'P 1'
_cell_length_a   10.89523267
_cell_length_b   10.89373990
_cell_length_c   6.43424017
_cell_angle_alpha   90.02428851
_cell_angle_beta   90.00930284
_cell_angle_gamma   89.61765783
_symmetry_Int_Tables_number   1
_chemical_formula_structural   Dy20Ir8Os3Au
_chemical_formula_sum   'Dy20 Ir8 Os3 Au1'
_cell_volume   763.66179466
_cell_formula_units_Z   1
loop_
 _symmetry_equiv_pos_site_id
 _symmetry_equiv_pos_as_xyz
  1  'x, y, z'
loop_
 _atom_site_type_symbol
 _atom_site_label
 _atom_site_symmetry_multiplicity
 _atom_site_fract_x
 _atom_site_fract_y
 _atom_site_fract_z
 _atom_site_occupancy
  Dy  Dy0  1  0.292079  0.085430  0.378413  1
  Dy  Dy1  1  0.295500  0.913157  0.878878  1
  Dy  Dy2  1  0.701192  0.082493  0.865538  1
  Dy  Dy3  1  0.702970  0.906275  0.381608  1
  Dy  Dy4  1  0.585965  0.793149  0.880523  1
  Dy  Dy5  1  0.577524  0.206713  0.378493  1
  Dy  Dy6  1  0.411746  0.793338  0.379505  1
  Dy  Dy7  1  0.412752  0.205229  0.880454  1
  Dy  Dy8  1  0.208898  0.412563  0.621858  1
  Dy  Dy9  1  0.207795  0.589482  0.119099  1
  Dy  Dy10  1  0.791876  0.421964  0.119502  1
  Dy  Dy11  1  0.792567  0.588749  0.622000  1
  Dy  Dy12  1  0.913504  0.708986  0.119775  1
  Dy  Dy13  1  0.916100  0.296964  0.638058  1
  Dy  Dy14  1  0.088232  0.706366  0.623738  1
  Dy  Dy15  1  0.095506  0.296214  0.116134  1
  Dy  Dy16  1  0.002803  0.995829  0.500504  1
  Dy  Dy17  1  0.003966  0.996929  0.995650  1
  Dy  Dy18  1  0.499045  0.499999  0.996867  1
  Dy  Dy19  1  0.500182  0.500919  0.499026  1
  Ir  Ir20  1  0.849874  0.848665  0.749591  1
  Ir  Ir21  1  0.150019  0.151439  0.749775  1
  Ir  Ir22  1  0.152512  0.845579  0.249887  1
  Ir  Ir23  1  0.653958  0.347498  0.749976  1
  Ir  Ir24  1  0.652977  0.650377  0.249132  1
  Ir  Ir25  1  0.347936  0.349110  0.250488  1
  Ir  Ir26  1  0.346821  0.652062  0.749422  1
  Ir  Ir27  1  0.000606  0.499220  0.376293  1
  Os  Os28  1  0.500334  0.999371  0.128070  1
  Os  Os29  1  0.499212  0.999199  0.624236  1
  Os  Os30  1  0.000659  0.500672  0.877484  1
  Au  Au31  1  0.844887  0.156061  0.250022  1
