# generated using pymatgen
data_LaSmY4CoI10
_symmetry_space_group_name_H-M   'P 1'
_cell_length_a   7.77431345
_cell_length_b   9.80397213
_cell_length_c   9.80307076
_cell_angle_alpha   106.87342628
_cell_angle_beta   96.13395691
_cell_angle_gamma   105.04502722
_symmetry_Int_Tables_number   1
_chemical_formula_structural   LaSmY4CoI10
_chemical_formula_sum   'La1 Sm1 Y4 Co1 I10'
_cell_volume   676.95242695
_cell_formula_units_Z   1
loop_
 _symmetry_equiv_pos_site_id
 _symmetry_equiv_pos_as_xyz
  1  'x, y, z'
loop_
 _atom_site_type_symbol
 _atom_site_label
 _atom_site_symmetry_multiplicity
 _atom_site_fract_x
 _atom_site_fract_y
 _atom_site_fract_z
 _atom_site_occupancy
  La  La0  1  0.886429  0.957731  0.231759  1
  Sm  Sm1  1  0.111930  0.041470  0.775026  1
  Y  Y2  1  0.030222  0.717431  0.913553  1
  Y  Y3  1  0.969489  0.282149  0.083006  1
  Y  Y4  1  0.656162  0.877877  0.837919  1
  Y  Y5  1  0.344421  0.123269  0.162548  1
  Co  Co6  1  0.998063  0.998923  0.004425  1
  I  I7  1  0.651702  0.553653  0.730543  1
  I  I8  1  0.346662  0.446637  0.269117  1
  I  I9  1  0.742828  0.914489  0.546191  1
  I  I10  1  0.269295  0.089661  0.459926  1
  I  I11  1  0.084360  0.371593  0.819714  1
  I  I12  1  0.918078  0.619497  0.173722  1
  I  I13  1  0.445362  0.815840  0.087995  1
  I  I14  1  0.547314  0.181216  0.906814  1
  I  I15  1  0.226508  0.745580  0.658038  1
  I  I16  1  0.771175  0.262984  0.339706  1
