# generated using pymatgen
data_Tb3Ho(ScRu)4
_symmetry_space_group_name_H-M   'P 1'
_cell_length_a   4.23430200
_cell_length_b   7.41306905
_cell_length_c   8.50417600
_cell_angle_alpha   89.94806096
_cell_angle_beta   90.00000000
_cell_angle_gamma   90.00000000
_symmetry_Int_Tables_number   1
_chemical_formula_structural   Tb3Ho(ScRu)4
_chemical_formula_sum   'Tb3 Ho1 Sc4 Ru4'
_cell_volume   266.93894275
_cell_formula_units_Z   1
loop_
 _symmetry_equiv_pos_site_id
 _symmetry_equiv_pos_as_xyz
  1  'x, y, z'
loop_
 _atom_site_type_symbol
 _atom_site_label
 _atom_site_symmetry_multiplicity
 _atom_site_fract_x
 _atom_site_fract_y
 _atom_site_fract_z
 _atom_site_occupancy
  Tb  Tb0  1  0.250000  0.528363  0.173002  1
  Tb  Tb1  1  0.750000  0.471853  0.827044  1
  Tb  Tb2  1  0.750000  0.972013  0.672232  1
  Ho  Ho3  1  0.250000  0.028607  0.327378  1
  Sc  Sc4  1  0.250000  0.642275  0.559341  1
  Sc  Sc5  1  0.750000  0.357497  0.439464  1
  Sc  Sc6  1  0.750000  0.858519  0.060832  1
  Sc  Sc7  1  0.250000  0.141279  0.940656  1
  Ru  Ru8  1  0.250000  0.770600  0.877976  1
  Ru  Ru9  1  0.750000  0.227084  0.123068  1
  Ru  Ru10  1  0.750000  0.730951  0.377423  1
  Ru  Ru11  1  0.250000  0.270960  0.621582  1
