# generated using pymatgen
data_Dy16Cd4Os3Au
_symmetry_space_group_name_H-M   'P 1'
_cell_length_a   9.58674878
_cell_length_b   9.76305832
_cell_length_c   9.76305800
_cell_angle_alpha   59.99999430
_cell_angle_beta   59.38973815
_cell_angle_gamma   59.38973115
_symmetry_Int_Tables_number   1
_chemical_formula_structural   Dy16Cd4Os3Au
_chemical_formula_sum   'Dy16 Cd4 Os3 Au1'
_cell_volume   640.11776525
_cell_formula_units_Z   1
loop_
 _symmetry_equiv_pos_site_id
 _symmetry_equiv_pos_as_xyz
  1  'x, y, z'
loop_
 _atom_site_type_symbol
 _atom_site_label
 _atom_site_symmetry_multiplicity
 _atom_site_fract_x
 _atom_site_fract_y
 _atom_site_fract_z
 _atom_site_occupancy
  Dy  Dy0  1  0.344581  0.355067  0.355067  1
  Dy  Dy1  1  0.344581  0.355067  0.945285  1
  Dy  Dy2  1  0.344581  0.945285  0.355067  1
  Dy  Dy3  1  0.974649  0.341784  0.341784  1
  Dy  Dy4  1  0.819048  0.191137  0.191137  1
  Dy  Dy5  1  0.184544  0.811251  0.811251  1
  Dy  Dy6  1  0.184544  0.811251  0.192955  1
  Dy  Dy7  1  0.819048  0.191137  0.798677  1
  Dy  Dy8  1  0.184544  0.192955  0.811251  1
  Dy  Dy9  1  0.819048  0.798677  0.191137  1
  Dy  Dy10  1  0.932081  0.564824  0.564824  1
  Dy  Dy11  1  0.550815  0.940429  0.940429  1
  Dy  Dy12  1  0.550815  0.940429  0.568328  1
  Dy  Dy13  1  0.932081  0.564823  0.938271  1
  Dy  Dy14  1  0.550815  0.568328  0.940429  1
  Dy  Dy15  1  0.932081  0.938271  0.564823  1
  Cd  Cd16  1  0.581609  0.578702  0.578702  1
  Cd  Cd17  1  0.581609  0.578702  0.260987  1
  Cd  Cd18  1  0.581609  0.260987  0.578702  1
  Cd  Cd19  1  0.253836  0.582055  0.582055  1
  Os  Os20  1  0.153513  0.135091  0.135091  1
  Os  Os21  1  0.153513  0.135091  0.576305  1
  Os  Os22  1  0.153513  0.576305  0.135091  1
  Au  Au23  1  0.572946  0.142351  0.142351  1
