# generated using pymatgen
data_Ti7V5Sn9Pd
_symmetry_space_group_name_H-M   'P 1'
_cell_length_a   9.14444983
_cell_length_b   9.14444938
_cell_length_c   5.52293710
_cell_angle_alpha   90.06245428
_cell_angle_beta   89.93755212
_cell_angle_gamma   119.96311003
_symmetry_Int_Tables_number   1
_chemical_formula_structural   Ti7V5Sn9Pd
_chemical_formula_sum   'Ti7 V5 Sn9 Pd1'
_cell_volume   400.10764119
_cell_formula_units_Z   1
loop_
 _symmetry_equiv_pos_site_id
 _symmetry_equiv_pos_as_xyz
  1  'x, y, z'
loop_
 _atom_site_type_symbol
 _atom_site_label
 _atom_site_symmetry_multiplicity
 _atom_site_fract_x
 _atom_site_fract_y
 _atom_site_fract_z
 _atom_site_occupancy
  Ti  Ti0  1  0.845359  0.686757  0.748817  1
  Ti  Ti1  1  0.157032  0.842968  0.251777  1
  Ti  Ti2  1  0.686757  0.845359  0.251183  1
  Ti  Ti3  1  0.313243  0.154641  0.748817  1
  Ti  Ti4  1  0.842968  0.157032  0.748223  1
  Ti  Ti5  1  0.154641  0.313243  0.251183  1
  Ti  Ti6  1  0.500000  0.500000  0.000000  1
  V  V7  1  0.500000  0.000000  0.500000  1
  V  V8  1  0.000000  0.500000  0.000000  1
  V  V9  1  0.000000  0.500000  0.500000  1
  V  V10  1  0.500000  0.000000  0.000000  1
  V  V11  1  0.500000  0.500000  0.500000  1
  Sn  Sn12  1  0.201287  0.405987  0.748024  1
  Sn  Sn13  1  0.795979  0.204021  0.249498  1
  Sn  Sn14  1  0.405987  0.201287  0.251976  1
  Sn  Sn15  1  0.594013  0.798713  0.748024  1
  Sn  Sn16  1  0.204021  0.795979  0.750502  1
  Sn  Sn17  1  0.798713  0.594013  0.251976  1
  Sn  Sn18  1  0.667431  0.332569  0.747475  1
  Sn  Sn19  1  0.332569  0.667431  0.252525  1
  Sn  Sn20  1  0.000000  0.000000  0.000000  1
  Pd  Pd21  1  0.000000  0.000000  0.500000  1
