# generated using pymatgen
data_Sm11Er(SiBr3)4
_symmetry_space_group_name_H-M   'P 1'
_cell_length_a   10.28813096
_cell_length_b   10.28106285
_cell_length_c   10.25374696
_cell_angle_alpha   109.48648826
_cell_angle_beta   109.51852155
_cell_angle_gamma   109.52923075
_symmetry_Int_Tables_number   1
_chemical_formula_structural   Sm11Er(SiBr3)4
_chemical_formula_sum   'Sm11 Er1 Si4 Br12'
_cell_volume   833.65659940
_cell_formula_units_Z   1
loop_
 _symmetry_equiv_pos_site_id
 _symmetry_equiv_pos_as_xyz
  1  'x, y, z'
loop_
 _atom_site_type_symbol
 _atom_site_label
 _atom_site_symmetry_multiplicity
 _atom_site_fract_x
 _atom_site_fract_y
 _atom_site_fract_z
 _atom_site_occupancy
  Sm  Sm0  1  0.262532  0.012552  0.025073  1
  Sm  Sm1  1  0.025388  0.263518  0.012717  1
  Sm  Sm2  1  0.487334  0.749212  0.012710  1
  Sm  Sm3  1  0.750981  0.237787  0.263551  1
  Sm  Sm4  1  0.012584  0.025779  0.263551  1
  Sm  Sm5  1  0.013005  0.488442  0.751224  1
  Sm  Sm6  1  0.238227  0.262785  0.751228  1
  Sm  Sm7  1  0.261606  0.747918  0.236456  1
  Sm  Sm8  1  0.237947  0.476181  0.489189  1
  Sm  Sm9  1  0.474846  0.488545  0.236451  1
  Sm  Sm10  1  0.751259  0.013031  0.489199  1
  Er  Er11  1  0.483963  0.233901  0.467981  1
  Si  Si12  1  0.000349  0.250354  0.500693  1
  Si  Si13  1  0.250007  0.500013  0.000010  1
  Si  Si14  1  0.500242  0.001768  0.252361  1
  Si  Si15  1  0.252133  0.250601  0.252378  1
  Br  Br16  1  0.755817  0.745470  0.250605  1
  Br  Br17  1  0.505307  0.249719  0.995839  1
  Br  Br18  1  0.258387  0.002942  0.505871  1
  Br  Br19  1  0.509682  0.498332  0.749389  1
  Br  Br20  1  0.995396  0.990192  0.745733  1
  Br  Br21  1  0.745360  0.995362  0.990712  1
  Br  Br22  1  0.504853  0.754838  0.509694  1
  Br  Br23  1  0.747449  0.502892  0.505856  1
  Br  Br24  1  0.994778  0.505136  0.250588  1
  Br  Br25  1  0.990543  0.746140  0.995821  1
  Br  Br26  1  0.250308  0.755526  0.745721  1
  Br  Br27  1  0.739713  0.251064  0.749401  1
