# generated using pymatgen
data_Nd2Zn2Ru2C
_symmetry_space_group_name_H-M   'P 1'
_cell_length_a   5.78979724
_cell_length_b   5.78979753
_cell_length_c   7.38803284
_cell_angle_alpha   122.53448029
_cell_angle_beta   122.53447932
_cell_angle_gamma   40.13983890
_symmetry_Int_Tables_number   1
_chemical_formula_structural   Nd2Zn2Ru2C
_chemical_formula_sum   'Nd2 Zn2 Ru2 C1'
_cell_volume   130.89348054
_cell_formula_units_Z   1
loop_
 _symmetry_equiv_pos_site_id
 _symmetry_equiv_pos_as_xyz
  1  'x, y, z'
loop_
 _atom_site_type_symbol
 _atom_site_label
 _atom_site_symmetry_multiplicity
 _atom_site_fract_x
 _atom_site_fract_y
 _atom_site_fract_z
 _atom_site_occupancy
  Nd  Nd0  1  0.567644  0.567644  0.289178  1
  Nd  Nd1  1  0.432356  0.432356  0.710821  1
  Zn  Zn2  1  0.862377  0.862377  0.326857  1
  Zn  Zn3  1  0.137623  0.137623  0.673144  1
  Ru  Ru4  1  0.195971  0.195971  0.067656  1
  Ru  Ru5  1  0.804028  0.804028  0.932344  1
  C  C6  1  0.000000  0.000000  0.000000  1
