# generated using pymatgen
data_Pa4Tc3AgSn2
_symmetry_space_group_name_H-M   'P 1'
_cell_length_a   7.65625700
_cell_length_b   7.65625643
_cell_length_c   3.66669200
_cell_angle_alpha   90.00000000
_cell_angle_beta   90.00000000
_cell_angle_gamma   91.80891860
_symmetry_Int_Tables_number   1
_chemical_formula_structural   Pa4Tc3AgSn2
_chemical_formula_sum   'Pa4 Tc3 Ag1 Sn2'
_cell_volume   214.82801916
_cell_formula_units_Z   1
loop_
 _symmetry_equiv_pos_site_id
 _symmetry_equiv_pos_as_xyz
  1  'x, y, z'
loop_
 _atom_site_type_symbol
 _atom_site_label
 _atom_site_symmetry_multiplicity
 _atom_site_fract_x
 _atom_site_fract_y
 _atom_site_fract_z
 _atom_site_occupancy
  Pa  Pa0  1  0.694710  0.156130  0.500000  1
  Pa  Pa1  1  0.343870  0.805290  0.500000  1
  Pa  Pa2  1  0.142943  0.357057  0.500000  1
  Pa  Pa3  1  0.826421  0.673579  0.500000  1
  Tc  Tc4  1  0.139124  0.644659  0.000000  1
  Tc  Tc5  1  0.855341  0.360876  0.000000  1
  Tc  Tc6  1  0.623799  0.876201  0.000000  1
  Ag  Ag7  1  0.362891  0.137109  0.000000  1
  Sn  Sn8  1  0.007445  0.996542  0.000000  1
  Sn  Sn9  1  0.503458  0.492555  0.000000  1
