# generated using pymatgen
data_Li3Tm2Co6P6Rh
_symmetry_space_group_name_H-M   'P 1'
_cell_length_a   3.67643600
_cell_length_b   10.23336300
_cell_length_c   12.34020600
_cell_angle_alpha   90.00000000
_cell_angle_beta   90.00000000
_cell_angle_gamma   90.00000000
_symmetry_Int_Tables_number   1
_chemical_formula_structural   Li3Tm2Co6P6Rh
_chemical_formula_sum   'Li6 Tm4 Co12 P12 Rh2'
_cell_volume   464.26698321
_cell_formula_units_Z   2
loop_
 _symmetry_equiv_pos_site_id
 _symmetry_equiv_pos_as_xyz
  1  'x, y, z'
loop_
 _atom_site_type_symbol
 _atom_site_label
 _atom_site_symmetry_multiplicity
 _atom_site_fract_x
 _atom_site_fract_y
 _atom_site_fract_z
 _atom_site_occupancy
  Li  Li0  1  0.250000  0.706030  0.992985  1
  Li  Li1  1  0.250000  0.793970  0.492985  1
  Li  Li2  1  0.750000  0.295086  0.010085  1
  Li  Li3  1  0.750000  0.204914  0.510085  1
  Li  Li4  1  0.250000  0.407365  0.492698  1
  Li  Li5  1  0.250000  0.092635  0.992698  1
  Tm  Tm6  1  0.250000  0.582196  0.713715  1
  Tm  Tm7  1  0.250000  0.917804  0.213715  1
  Tm  Tm8  1  0.750000  0.419814  0.288324  1
  Tm  Tm9  1  0.750000  0.080186  0.788324  1
  Co  Co10  1  0.250000  0.214471  0.175418  1
  Co  Co11  1  0.250000  0.285529  0.675418  1
  Co  Co12  1  0.750000  0.776938  0.819254  1
  Co  Co13  1  0.750000  0.723062  0.319254  1
  Co  Co14  1  0.250000  0.881392  0.694390  1
  Co  Co15  1  0.250000  0.618608  0.194390  1
  Co  Co16  1  0.750000  0.119080  0.305082  1
  Co  Co17  1  0.750000  0.380920  0.805082  1
  Co  Co18  1  0.250000  0.464728  0.935178  1
  Co  Co19  1  0.250000  0.035272  0.435178  1
  Co  Co20  1  0.750000  0.531289  0.066618  1
  Co  Co21  1  0.750000  0.968711  0.566618  1
  P  P22  1  0.250000  0.418113  0.113146  1
  P  P23  1  0.250000  0.081887  0.613146  1
  P  P24  1  0.750000  0.577352  0.888188  1
  P  P25  1  0.750000  0.922648  0.388188  1
  P  P26  1  0.250000  0.273435  0.853392  1
  P  P27  1  0.250000  0.226565  0.353392  1
  P  P28  1  0.750000  0.726648  0.139469  1
  P  P29  1  0.750000  0.773352  0.639469  1
  P  P30  1  0.250000  0.608802  0.375272  1
  P  P31  1  0.250000  0.891198  0.875272  1
  P  P32  1  0.750000  0.396929  0.624747  1
  P  P33  1  0.750000  0.103071  0.124747  1
  Rh  Rh34  1  0.750000  0.589364  0.512039  1
  Rh  Rh35  1  0.750000  0.910636  0.012039  1
