# generated using pymatgen
data_ErTh3(Ni2Sn)2
_symmetry_space_group_name_H-M   'P 1'
_cell_length_a   7.51905340
_cell_length_b   7.51905340
_cell_length_c   3.71295900
_cell_angle_alpha   90.00000000
_cell_angle_beta   90.00000000
_cell_angle_gamma   90.86537486
_symmetry_Int_Tables_number   1
_chemical_formula_structural   ErTh3(Ni2Sn)2
_chemical_formula_sum   'Er1 Th3 Ni4 Sn2'
_cell_volume   209.89251672
_cell_formula_units_Z   1
loop_
 _symmetry_equiv_pos_site_id
 _symmetry_equiv_pos_as_xyz
  1  'x, y, z'
loop_
 _atom_site_type_symbol
 _atom_site_label
 _atom_site_symmetry_multiplicity
 _atom_site_fract_x
 _atom_site_fract_y
 _atom_site_fract_z
 _atom_site_occupancy
  Er  Er0  1  0.825847  0.674153  0.500000  1
  Th  Th1  1  0.675373  0.175831  0.500000  1
  Th  Th2  1  0.324169  0.824627  0.500000  1
  Th  Th3  1  0.172625  0.327375  0.500000  1
  Ni  Ni4  1  0.879045  0.374260  0.000000  1
  Ni  Ni5  1  0.125740  0.620955  0.000000  1
  Ni  Ni6  1  0.375252  0.124748  0.000000  1
  Ni  Ni7  1  0.619315  0.880685  0.000000  1
  Sn  Sn8  1  0.509971  0.507337  0.000000  1
  Sn  Sn9  1  0.992663  0.990029  0.000000  1
