# generated using pymatgen
data_YbY5Al14(Si5Os4)2
_symmetry_space_group_name_H-M   'P 1'
_cell_length_a   8.71589134
_cell_length_b   8.70620552
_cell_length_c   9.34368100
_cell_angle_alpha   90.00000000
_cell_angle_beta   90.00000000
_cell_angle_gamma   120.12617644
_symmetry_Int_Tables_number   1
_chemical_formula_structural   YbY5Al14(Si5Os4)2
_chemical_formula_sum   'Yb1 Y5 Al14 Si10 Os8'
_cell_volume   613.24748169
_cell_formula_units_Z   1
loop_
 _symmetry_equiv_pos_site_id
 _symmetry_equiv_pos_as_xyz
  1  'x, y, z'
loop_
 _atom_site_type_symbol
 _atom_site_label
 _atom_site_symmetry_multiplicity
 _atom_site_fract_x
 _atom_site_fract_y
 _atom_site_fract_z
 _atom_site_occupancy
  Yb  Yb0  1  0.190392  0.382358  0.250000  1
  Y  Y1  1  0.808224  0.614473  0.750000  1
  Y  Y2  1  0.614638  0.808717  0.250000  1
  Y  Y3  1  0.385711  0.192086  0.750000  1
  Y  Y4  1  0.193886  0.806397  0.250000  1
  Y  Y5  1  0.806790  0.194086  0.750000  1
  Al  Al6  1  0.166169  0.330168  0.575564  1
  Al  Al7  1  0.834296  0.667429  0.419791  1
  Al  Al8  1  0.670219  0.834600  0.578015  1
  Al  Al9  1  0.834296  0.667429  0.080209  1
  Al  Al10  1  0.332060  0.166053  0.420140  1
  Al  Al11  1  0.166169  0.330168  0.924436  1
  Al  Al12  1  0.165066  0.835974  0.578098  1
  Al  Al13  1  0.332060  0.166053  0.079860  1
  Al  Al14  1  0.834173  0.167014  0.421205  1
  Al  Al15  1  0.670219  0.834600  0.921985  1
  Al  Al16  1  0.834173  0.167014  0.078795  1
  Al  Al17  1  0.165066  0.835974  0.921902  1
  Al  Al18  1  0.434989  0.564509  0.750000  1
  Al  Al19  1  0.000071  0.000994  0.750000  1
  Si  Si20  1  0.333612  0.663646  0.043383  1
  Si  Si21  1  0.665949  0.333835  0.958137  1
  Si  Si22  1  0.665949  0.333835  0.541863  1
  Si  Si23  1  0.333612  0.663646  0.456617  1
  Si  Si24  1  0.562271  0.125328  0.250000  1
  Si  Si25  1  0.435138  0.874987  0.750000  1
  Si  Si26  1  0.876968  0.437318  0.250000  1
  Si  Si27  1  0.125258  0.564845  0.750000  1
  Si  Si28  1  0.560254  0.436863  0.250000  1
  Si  Si29  1  0.000294  0.996942  0.250000  1
  Os  Os30  1  0.500407  0.001301  0.000192  1
  Os  Os31  1  0.998866  0.500510  0.999671  1
  Os  Os32  1  0.500407  0.001301  0.499808  1
  Os  Os33  1  0.502087  0.499564  0.005683  1
  Os  Os34  1  0.998866  0.500510  0.500329  1
  Os  Os35  1  0.502087  0.499564  0.494317  1
  Os  Os36  1  0.999656  0.999957  0.007524  1
  Os  Os37  1  0.999656  0.999957  0.492476  1
