# generated using pymatgen
data_DyLu3(Zn4Ru)2
_symmetry_space_group_name_H-M   'P 1'
_cell_length_a   6.90760500
_cell_length_b   6.90760500
_cell_length_c   5.22025200
_cell_angle_alpha   90.00000000
_cell_angle_beta   90.00000000
_cell_angle_gamma   90.00000000
_symmetry_Int_Tables_number   1
_chemical_formula_structural   DyLu3(Zn4Ru)2
_chemical_formula_sum   'Dy1 Lu3 Zn8 Ru2'
_cell_volume   249.08435987
_cell_formula_units_Z   1
loop_
 _symmetry_equiv_pos_site_id
 _symmetry_equiv_pos_as_xyz
  1  'x, y, z'
loop_
 _atom_site_type_symbol
 _atom_site_label
 _atom_site_symmetry_multiplicity
 _atom_site_fract_x
 _atom_site_fract_y
 _atom_site_fract_z
 _atom_site_occupancy
  Dy  Dy0  1  0.000000  0.500000  0.769018  1
  Lu  Lu1  1  0.000000  0.000000  0.000161  1
  Lu  Lu2  1  0.500000  0.000000  0.234332  1
  Lu  Lu3  1  0.500000  0.500000  0.000161  1
  Zn  Zn4  1  0.189099  0.689099  0.285063  1
  Zn  Zn5  1  0.810901  0.689099  0.285063  1
  Zn  Zn6  1  0.810901  0.310901  0.285063  1
  Zn  Zn7  1  0.312599  0.187401  0.713948  1
  Zn  Zn8  1  0.189099  0.310901  0.285063  1
  Zn  Zn9  1  0.687401  0.187401  0.713948  1
  Zn  Zn10  1  0.687401  0.812599  0.713948  1
  Zn  Zn11  1  0.312599  0.812599  0.713948  1
  Ru  Ru12  1  0.500000  0.500000  0.500141  1
  Ru  Ru13  1  0.000000  0.000000  0.500141  1
