# generated using pymatgen
data_Tb5HoPa2(NiB14)2
_symmetry_space_group_name_H-M   'P 1'
_cell_length_a   7.24116253
_cell_length_b   7.24175618
_cell_length_c   7.53691800
_cell_angle_alpha   90.00000000
_cell_angle_beta   90.00000000
_cell_angle_gamma   90.06650101
_symmetry_Int_Tables_number   1
_chemical_formula_structural   Tb5HoPa2(NiB14)2
_chemical_formula_sum   'Tb5 Ho1 Pa2 Ni2 B28'
_cell_volume   395.22616865
_cell_formula_units_Z   1
loop_
 _symmetry_equiv_pos_site_id
 _symmetry_equiv_pos_as_xyz
  1  'x, y, z'
loop_
 _atom_site_type_symbol
 _atom_site_label
 _atom_site_symmetry_multiplicity
 _atom_site_fract_x
 _atom_site_fract_y
 _atom_site_fract_z
 _atom_site_occupancy
  Tb  Tb0  1  0.333742  0.807365  0.000000  1
  Tb  Tb1  1  0.693737  0.168147  0.500000  1
  Tb  Tb2  1  0.307034  0.833648  0.500000  1
  Tb  Tb3  1  0.833252  0.693291  0.500000  1
  Tb  Tb4  1  0.166992  0.306974  0.500000  1
  Ho  Ho5  1  0.808241  0.665265  0.000000  1
  Pa  Pa6  1  0.194078  0.328764  0.000000  1
  Pa  Pa7  1  0.670947  0.193728  0.000000  1
  Ni  Ni8  1  0.998354  0.996768  0.000000  1
  Ni  Ni9  1  0.500197  0.500873  0.500000  1
  B  B10  1  0.173145  0.039723  0.231551  1
  B  B11  1  0.960597  0.172469  0.232276  1
  B  B12  1  0.039598  0.824430  0.230803  1
  B  B13  1  0.674757  0.461617  0.267013  1
  B  B14  1  0.325746  0.540911  0.267692  1
  B  B15  1  0.824831  0.959977  0.231878  1
  B  B16  1  0.540333  0.675250  0.269721  1
  B  B17  1  0.460201  0.326945  0.266267  1
  B  B18  1  0.824831  0.959977  0.768122  1
  B  B19  1  0.039598  0.824430  0.769197  1
  B  B20  1  0.960597  0.172469  0.767724  1
  B  B21  1  0.325746  0.540911  0.732308  1
  B  B22  1  0.674757  0.461617  0.732987  1
  B  B23  1  0.173145  0.039723  0.768449  1
  B  B24  1  0.460201  0.326945  0.733733  1
  B  B25  1  0.540333  0.675250  0.730279  1
  B  B26  1  0.089068  0.588864  0.244175  1
  B  B27  1  0.409812  0.091055  0.241900  1
  B  B28  1  0.588497  0.912155  0.246422  1
  B  B29  1  0.909924  0.409857  0.242291  1
  B  B30  1  0.909924  0.409857  0.757709  1
  B  B31  1  0.588497  0.912155  0.753578  1
  B  B32  1  0.409812  0.091055  0.758100  1
  B  B33  1  0.089068  0.588864  0.755825  1
  B  B34  1  0.000047  0.997446  0.390315  1
  B  B35  1  0.500158  0.501891  0.110253  1
  B  B36  1  0.000047  0.997446  0.609685  1
  B  B37  1  0.500158  0.501891  0.889747  1
