# generated using pymatgen
data_Dy6Al24Ru5Pt2Rh
_symmetry_space_group_name_H-M   'P 1'
_cell_length_a   8.84703671
_cell_length_b   8.84986094
_cell_length_c   9.52744153
_cell_angle_alpha   90.01093728
_cell_angle_beta   89.54456909
_cell_angle_gamma   119.98145104
_symmetry_Int_Tables_number   1
_chemical_formula_structural   Dy6Al24Ru5Pt2Rh
_chemical_formula_sum   'Dy6 Al24 Ru5 Pt2 Rh1'
_cell_volume   646.10705776
_cell_formula_units_Z   1
loop_
 _symmetry_equiv_pos_site_id
 _symmetry_equiv_pos_as_xyz
  1  'x, y, z'
loop_
 _atom_site_type_symbol
 _atom_site_label
 _atom_site_symmetry_multiplicity
 _atom_site_fract_x
 _atom_site_fract_y
 _atom_site_fract_z
 _atom_site_occupancy
  Dy  Dy0  1  0.193418  0.806950  0.248849  1
  Dy  Dy1  1  0.193406  0.386378  0.249742  1
  Dy  Dy2  1  0.613317  0.806625  0.249376  1
  Dy  Dy3  1  0.806582  0.193050  0.751151  1
  Dy  Dy4  1  0.806594  0.613622  0.750258  1
  Dy  Dy5  1  0.386683  0.193375  0.750624  1
  Al  Al6  1  0.562126  0.437078  0.246613  1
  Al  Al7  1  0.560907  0.122189  0.249232  1
  Al  Al8  1  0.874653  0.437230  0.254617  1
  Al  Al9  1  0.437874  0.562922  0.753387  1
  Al  Al10  1  0.439093  0.877811  0.750768  1
  Al  Al11  1  0.125347  0.562770  0.745383  1
  Al  Al12  1  0.323980  0.158958  0.422692  1
  Al  Al13  1  0.838747  0.164000  0.423066  1
  Al  Al14  1  0.841960  0.675383  0.423133  1
  Al  Al15  1  0.676020  0.841042  0.577308  1
  Al  Al16  1  0.161253  0.836000  0.576934  1
  Al  Al17  1  0.158040  0.324617  0.576867  1
  Al  Al18  1  0.674384  0.837411  0.922780  1
  Al  Al19  1  0.166746  0.842092  0.922562  1
  Al  Al20  1  0.166378  0.324368  0.922786  1
  Al  Al21  1  0.325616  0.162589  0.077220  1
  Al  Al22  1  0.833254  0.157908  0.077438  1
  Al  Al23  1  0.833622  0.675632  0.077214  1
  Al  Al24  1  0.670141  0.332182  0.524097  1
  Al  Al25  1  0.329859  0.667818  0.475903  1
  Al  Al26  1  0.338603  0.669473  0.022235  1
  Al  Al27  1  0.661397  0.330527  0.977765  1
  Al  Al28  1  0.000159  0.000616  0.249952  1
  Al  Al29  1  0.999841  0.999384  0.750048  1
  Ru  Ru30  1  0.000000  0.000000  0.500000  1
  Ru  Ru31  1  0.000000  0.000000  0.000000  1
  Ru  Ru32  1  0.000000  0.500000  0.500000  1
  Ru  Ru33  1  0.500000  0.500000  0.000000  1
  Ru  Ru34  1  0.500000  0.000000  0.000000  1
  Pt  Pt35  1  0.500000  0.500000  0.500000  1
  Pt  Pt36  1  0.000000  0.500000  0.000000  1
  Rh  Rh37  1  0.500000  0.000000  0.500000  1
