# generated using pymatgen
data_Ti8Re7Os
_symmetry_space_group_name_H-M   'P 1'
_cell_length_a   4.40275100
_cell_length_b   12.52204300
_cell_length_c   4.40195000
_cell_angle_alpha   90.00000000
_cell_angle_beta   90.00000000
_cell_angle_gamma   90.00026283
_symmetry_Int_Tables_number   1
_chemical_formula_structural   Ti8Re7Os
_chemical_formula_sum   'Ti8 Re7 Os1'
_cell_volume   242.68583060
_cell_formula_units_Z   1
loop_
 _symmetry_equiv_pos_site_id
 _symmetry_equiv_pos_as_xyz
  1  'x, y, z'
loop_
 _atom_site_type_symbol
 _atom_site_label
 _atom_site_symmetry_multiplicity
 _atom_site_fract_x
 _atom_site_fract_y
 _atom_site_fract_z
 _atom_site_occupancy
  Ti  Ti0  1  0.917313  0.999050  0.000000  1
  Ti  Ti1  1  0.916032  0.249567  0.000000  1
  Ti  Ti2  1  0.916039  0.500453  0.000000  1
  Ti  Ti3  1  0.917310  0.750925  0.000000  1
  Ti  Ti4  1  0.417302  0.999052  0.500000  1
  Ti  Ti5  1  0.416020  0.249564  0.500000  1
  Ti  Ti6  1  0.416022  0.500462  0.500000  1
  Ti  Ti7  1  0.417300  0.750924  0.500000  1
  Re  Re8  1  0.416660  0.123866  0.000000  1
  Re  Re9  1  0.415827  0.374999  0.000000  1
  Re  Re10  1  0.416655  0.626134  0.000000  1
  Re  Re11  1  0.417501  0.874990  0.000000  1
  Re  Re12  1  0.916677  0.125512  0.500000  1
  Re  Re13  1  0.915780  0.374999  0.500000  1
  Re  Re14  1  0.916685  0.624491  0.500000  1
  Os  Os15  1  0.917466  0.875014  0.500000  1
