# generated using pymatgen
data_Yb9Sm(Ni2Hg)2
_symmetry_space_group_name_H-M   'P 1'
_cell_length_a   8.95454392
_cell_length_b   8.95683020
_cell_length_c   8.95532600
_cell_angle_alpha   130.08902068
_cell_angle_beta   130.08399698
_cell_angle_gamma   73.28153342
_symmetry_Int_Tables_number   1
_chemical_formula_structural   Yb9Sm(Ni2Hg)2
_chemical_formula_sum   'Yb9 Sm1 Ni4 Hg2'
_cell_volume   410.40746607
_cell_formula_units_Z   1
loop_
 _symmetry_equiv_pos_site_id
 _symmetry_equiv_pos_as_xyz
  1  'x, y, z'
loop_
 _atom_site_type_symbol
 _atom_site_label
 _atom_site_symmetry_multiplicity
 _atom_site_fract_x
 _atom_site_fract_y
 _atom_site_fract_z
 _atom_site_occupancy
  Yb  Yb0  1  0.539140  0.036131  0.839110  1
  Yb  Yb1  1  0.196954  0.700028  0.160853  1
  Yb  Yb2  1  0.036115  0.197017  0.496970  1
  Yb  Yb3  1  0.700009  0.539162  0.502987  1
  Yb  Yb4  1  0.460860  0.963869  0.160890  1
  Yb  Yb5  1  0.803046  0.299972  0.839147  1
  Yb  Yb6  1  0.963885  0.802983  0.503030  1
  Yb  Yb7  1  0.299991  0.460838  0.497013  1
  Yb  Yb8  1  0.000000  0.000000  0.000000  1
  Sm  Sm9  1  0.500000  0.500000  0.000000  1
  Ni  Ni10  1  0.876748  0.392887  0.269661  1
  Ni  Ni11  1  0.123252  0.607113  0.730339  1
  Ni  Ni12  1  0.392840  0.123524  0.516364  1
  Ni  Ni13  1  0.607160  0.876476  0.483636  1
  Hg  Hg14  1  0.251593  0.251607  0.999989  1
  Hg  Hg15  1  0.748407  0.748393  0.000011  1
