# generated using pymatgen
data_La2IrI
_symmetry_space_group_name_H-M   'P 1'
_cell_length_a   4.26256000
_cell_length_b   4.26255892
_cell_length_c   16.52574100
_cell_angle_alpha   90.00000000
_cell_angle_beta   90.00000000
_cell_angle_gamma   120.00000837
_symmetry_Int_Tables_number   1
_chemical_formula_structural   La2IrI
_chemical_formula_sum   'La4 Ir2 I2'
_cell_volume   260.03537771
_cell_formula_units_Z   2
loop_
 _symmetry_equiv_pos_site_id
 _symmetry_equiv_pos_as_xyz
  1  'x, y, z'
loop_
 _atom_site_type_symbol
 _atom_site_label
 _atom_site_symmetry_multiplicity
 _atom_site_fract_x
 _atom_site_fract_y
 _atom_site_fract_z
 _atom_site_occupancy
  La  La0  1  0.333333  0.666667  0.407607  1
  La  La1  1  0.666667  0.333333  0.907607  1
  La  La2  1  0.666667  0.333333  0.592393  1
  La  La3  1  0.333333  0.666667  0.092393  1
  Ir  Ir4  1  0.000000  0.000000  0.500000  1
  Ir  Ir5  1  0.000000  0.000000  0.000000  1
  I  I6  1  0.666667  0.333333  0.250000  1
  I  I7  1  0.333333  0.666667  0.750000  1
