# generated using pymatgen
data_Yb2Ho2Ga18(PdRh)3
_symmetry_space_group_name_H-M   'P 1'
_cell_length_a   7.62499742
_cell_length_b   7.61972393
_cell_length_c   9.49144816
_cell_angle_alpha   89.95527373
_cell_angle_beta   90.01394259
_cell_angle_gamma   119.94956707
_symmetry_Int_Tables_number   1
_chemical_formula_structural   Yb2Ho2Ga18(PdRh)3
_chemical_formula_sum   'Yb2 Ho2 Ga18 Pd3 Rh3'
_cell_volume   477.81787593
_cell_formula_units_Z   1
loop_
 _symmetry_equiv_pos_site_id
 _symmetry_equiv_pos_as_xyz
  1  'x, y, z'
loop_
 _atom_site_type_symbol
 _atom_site_label
 _atom_site_symmetry_multiplicity
 _atom_site_fract_x
 _atom_site_fract_y
 _atom_site_fract_z
 _atom_site_occupancy
  Yb  Yb0  1  0.995579  0.666924  0.250944  1
  Yb  Yb1  1  0.003154  0.332158  0.748989  1
  Ho  Ho2  1  0.670451  0.999254  0.251246  1
  Ho  Ho3  1  0.330415  0.001957  0.748806  1
  Ga  Ga4  1  0.127816  0.128082  0.250391  1
  Ga  Ga5  1  0.873264  0.870686  0.749858  1
  Ga  Ga6  1  0.002866  0.338486  0.080822  1
  Ga  Ga7  1  0.004302  0.663887  0.918901  1
  Ga  Ga8  1  0.001106  0.660844  0.579198  1
  Ga  Ga9  1  0.335578  0.997210  0.417986  1
  Ga  Ga10  1  0.999110  0.339708  0.420639  1
  Ga  Ga11  1  0.664154  0.002975  0.582907  1
  Ga  Ga12  1  0.664753  0.999325  0.916068  1
  Ga  Ga13  1  0.332819  0.993629  0.083965  1
  Ga  Ga14  1  0.333743  0.335604  0.565738  1
  Ga  Ga15  1  0.666038  0.664689  0.434349  1
  Ga  Ga16  1  0.665024  0.666996  0.069403  1
  Ga  Ga17  1  0.331458  0.335690  0.929841  1
  Ga  Ga18  1  0.336818  0.549227  0.250775  1
  Ga  Ga19  1  0.663570  0.453556  0.747362  1
  Ga  Ga20  1  0.544763  0.337825  0.252546  1
  Ga  Ga21  1  0.451732  0.661372  0.749111  1
  Pd  Pd22  1  0.669173  0.327327  0.000284  1
  Pd  Pd23  1  0.000754  0.999102  0.000193  1
  Pd  Pd24  1  0.999500  0.000656  0.500141  1
  Rh  Rh25  1  0.332210  0.672494  0.999657  1
  Rh  Rh26  1  0.331228  0.673942  0.500039  1
  Rh  Rh27  1  0.668622  0.326394  0.499842  1
