# generated using pymatgen
data_Tb10Ru3Rh
_symmetry_space_group_name_H-M   'P 1'
_cell_length_a   6.39860826
_cell_length_b   7.30881394
_cell_length_c   8.55990550
_cell_angle_alpha   96.64710342
_cell_angle_beta   111.97509653
_cell_angle_gamma   90.09201788
_symmetry_Int_Tables_number   1
_chemical_formula_structural   Tb10Ru3Rh
_chemical_formula_sum   'Tb10 Ru3 Rh1'
_cell_volume   368.29616090
_cell_formula_units_Z   1
loop_
 _symmetry_equiv_pos_site_id
 _symmetry_equiv_pos_as_xyz
  1  'x, y, z'
loop_
 _atom_site_type_symbol
 _atom_site_label
 _atom_site_symmetry_multiplicity
 _atom_site_fract_x
 _atom_site_fract_y
 _atom_site_fract_z
 _atom_site_occupancy
  Tb  Tb0  1  0.979870  0.917648  0.185696  1
  Tb  Tb1  1  0.792283  0.585379  0.811158  1
  Tb  Tb2  1  0.020812  0.084976  0.813632  1
  Tb  Tb3  1  0.208945  0.413444  0.185806  1
  Tb  Tb4  1  0.640203  0.815808  0.435800  1
  Tb  Tb5  1  0.210300  0.686275  0.568252  1
  Tb  Tb6  1  0.357927  0.185899  0.565698  1
  Tb  Tb7  1  0.793120  0.312493  0.435903  1
  Tb  Tb8  1  0.419877  0.750827  0.999261  1
  Tb  Tb9  1  0.577260  0.247678  0.998307  1
  Ru  Ru10  1  0.603877  0.923451  0.779198  1
  Ru  Ru11  1  0.174961  0.425363  0.778633  1
  Ru  Ru12  1  0.397447  0.075361  0.221102  1
  Rh  Rh13  1  0.823119  0.575399  0.221554  1
