# generated using pymatgen
data_PuPaF9
_symmetry_space_group_name_H-M   'P 1'
_cell_length_a   7.31946323
_cell_length_b   7.42991758
_cell_length_c   7.31946299
_cell_angle_alpha   109.45021777
_cell_angle_beta   108.90344972
_cell_angle_gamma   109.45022991
_symmetry_Int_Tables_number   1
_chemical_formula_structural   PuPaF9
_chemical_formula_sum   'Pu2 Pa2 F18'
_cell_volume   308.69978981
_cell_formula_units_Z   2
loop_
 _symmetry_equiv_pos_site_id
 _symmetry_equiv_pos_as_xyz
  1  'x, y, z'
loop_
 _atom_site_type_symbol
 _atom_site_label
 _atom_site_symmetry_multiplicity
 _atom_site_fract_x
 _atom_site_fract_y
 _atom_site_fract_z
 _atom_site_occupancy
  Pu  Pu0  1  0.379466  0.000000  0.003633  1
  Pu  Pu1  1  0.003633  0.000000  0.379466  1
  Pa  Pa2  1  0.627217  0.629245  0.627217  1
  Pa  Pa3  1  0.997971  0.370755  0.997971  1
  F  F4  1  0.992162  0.767453  0.768584  1
  F  F5  1  0.001132  0.232547  0.224710  1
  F  F6  1  0.226527  0.000000  0.226527  1
  F  F7  1  0.769786  0.000000  0.769786  1
  F  F8  1  0.757312  0.758730  0.411983  1
  F  F9  1  0.653253  0.241270  0.998582  1
  F  F10  1  0.231979  0.643276  0.000598  1
  F  F11  1  0.354470  0.590005  0.354470  1
  F  F12  1  0.653755  0.000000  0.236389  1
  F  F13  1  0.000598  0.643276  0.231979  1
  F  F14  1  0.588702  0.356724  0.357322  1
  F  F15  1  0.411983  0.758730  0.757312  1
  F  F16  1  0.764466  0.409995  0.764466  1
  F  F17  1  0.236389  0.000000  0.653755  1
  F  F18  1  0.998582  0.241270  0.653253  1
  F  F19  1  0.357322  0.356724  0.588702  1
  F  F20  1  0.768584  0.767453  0.992162  1
  F  F21  1  0.224710  0.232547  0.001132  1
