# generated using pymatgen
data_Pm2(TcO4)3
_symmetry_space_group_name_H-M   'P 1'
_cell_length_a   7.10479812
_cell_length_b   7.10479768
_cell_length_c   11.41587438
_cell_angle_alpha   79.28614732
_cell_angle_beta   79.28614536
_cell_angle_gamma   113.04942009
_symmetry_Int_Tables_number   1
_chemical_formula_structural   Pm2(TcO4)3
_chemical_formula_sum   'Pm4 Tc6 O24'
_cell_volume   499.22371944
_cell_formula_units_Z   2
loop_
 _symmetry_equiv_pos_site_id
 _symmetry_equiv_pos_as_xyz
  1  'x, y, z'
loop_
 _atom_site_type_symbol
 _atom_site_label
 _atom_site_symmetry_multiplicity
 _atom_site_fract_x
 _atom_site_fract_y
 _atom_site_fract_z
 _atom_site_occupancy
  Pm  Pm0  1  0.190480  0.452618  0.597027  1
  Pm  Pm1  1  0.809520  0.547382  0.402973  1
  Pm  Pm2  1  0.547382  0.809520  0.902973  1
  Pm  Pm3  1  0.452618  0.190480  0.097027  1
  Tc  Tc4  1  0.001698  0.295384  0.964162  1
  Tc  Tc5  1  0.998302  0.704616  0.035838  1
  Tc  Tc6  1  0.704616  0.998302  0.535838  1
  Tc  Tc7  1  0.295384  0.001698  0.464162  1
  Tc  Tc8  1  0.616805  0.383195  0.750000  1
  Tc  Tc9  1  0.383195  0.616805  0.250000  1
  O  O10  1  0.549644  0.467236  0.609187  1
  O  O11  1  0.450356  0.532764  0.390813  1
  O  O12  1  0.532764  0.450356  0.890813  1
  O  O13  1  0.467236  0.549644  0.109187  1
  O  O14  1  0.485969  0.102109  0.789197  1
  O  O15  1  0.514031  0.897891  0.210803  1
  O  O16  1  0.897891  0.514031  0.710803  1
  O  O17  1  0.102109  0.485969  0.289197  1
  O  O18  1  0.725866  0.126232  0.960582  1
  O  O19  1  0.274134  0.873768  0.039418  1
  O  O20  1  0.873768  0.274134  0.539418  1
  O  O21  1  0.126232  0.725866  0.460582  1
  O  O22  1  0.399984  0.830045  0.576760  1
  O  O23  1  0.600016  0.169955  0.423240  1
  O  O24  1  0.169955  0.600016  0.923240  1
  O  O25  1  0.830045  0.399984  0.076760  1
  O  O26  1  0.129076  0.305783  0.807578  1
  O  O27  1  0.870924  0.694217  0.192422  1
  O  O28  1  0.694217  0.870924  0.692422  1
  O  O29  1  0.305783  0.129076  0.307578  1
  O  O30  1  0.898399  0.829572  0.936788  1
  O  O31  1  0.101601  0.170428  0.063212  1
  O  O32  1  0.170428  0.101601  0.563212  1
  O  O33  1  0.829572  0.898399  0.436788  1
