# generated using pymatgen
data_Rb2(IrO3)3
_symmetry_space_group_name_H-M   'P 1'
_cell_length_a   8.29935083
_cell_length_b   8.29938201
_cell_length_c   8.29959510
_cell_angle_alpha   109.47156613
_cell_angle_beta   109.48726959
_cell_angle_gamma   109.45697436
_symmetry_Int_Tables_number   1
_chemical_formula_structural   Rb2(IrO3)3
_chemical_formula_sum   'Rb4 Ir6 O18'
_cell_volume   440.06148155
_cell_formula_units_Z   2
loop_
 _symmetry_equiv_pos_site_id
 _symmetry_equiv_pos_as_xyz
  1  'x, y, z'
loop_
 _atom_site_type_symbol
 _atom_site_label
 _atom_site_symmetry_multiplicity
 _atom_site_fract_x
 _atom_site_fract_y
 _atom_site_fract_z
 _atom_site_occupancy
  Rb  Rb0  1  0.999931  0.999878  0.321861  1
  Rb  Rb1  1  0.000052  0.321912  0.999947  1
  Rb  Rb2  1  0.678025  0.678084  0.678101  1
  Rb  Rb3  1  0.322000  0.000116  0.000100  1
  Ir  Ir4  1  0.340151  0.500013  0.840152  1
  Ir  Ir5  1  0.840225  0.340242  0.499981  1
  Ir  Ir6  1  0.499996  0.159746  0.659756  1
  Ir  Ir7  1  0.159772  0.659769  0.499996  1
  Ir  Ir8  1  0.499980  0.840206  0.340227  1
  Ir  Ir9  1  0.659818  0.500018  0.159805  1
  O  O10  1  0.366870  0.999961  0.366909  1
  O  O11  1  0.367079  0.367076  0.000038  1
  O  O12  1  0.000106  0.632950  0.632992  1
  O  O13  1  0.632944  0.633028  0.000072  1
  O  O14  1  0.000120  0.367014  0.367041  1
  O  O15  1  0.632971  0.000001  0.632959  1
  O  O16  1  0.357464  0.304800  0.647673  1
  O  O17  1  0.052428  0.342791  0.695009  1
  O  O18  1  0.709762  0.352318  0.657165  1
  O  O19  1  0.352148  0.657195  0.709598  1
  O  O20  1  0.290259  0.947366  0.642539  1
  O  O21  1  0.647850  0.357529  0.304962  1
  O  O22  1  0.304854  0.647689  0.357486  1
  O  O23  1  0.695129  0.052574  0.342830  1
  O  O24  1  0.947494  0.642492  0.290420  1
  O  O25  1  0.657186  0.709782  0.352348  1
  O  O26  1  0.642563  0.290255  0.947392  1
  O  O27  1  0.342823  0.695194  0.052640  1
