# generated using pymatgen
data_CaV4(Bi3O10)2
_symmetry_space_group_name_H-M   'P 1'
_cell_length_a   7.19393569
_cell_length_b   8.04880222
_cell_length_c   9.46648087
_cell_angle_alpha   106.05828979
_cell_angle_beta   94.81015060
_cell_angle_gamma   112.55603498
_symmetry_Int_Tables_number   1
_chemical_formula_structural   CaV4(Bi3O10)2
_chemical_formula_sum   'Ca1 V4 Bi6 O20'
_cell_volume   475.17795729
_cell_formula_units_Z   1
loop_
 _symmetry_equiv_pos_site_id
 _symmetry_equiv_pos_as_xyz
  1  'x, y, z'
loop_
 _atom_site_type_symbol
 _atom_site_label
 _atom_site_symmetry_multiplicity
 _atom_site_fract_x
 _atom_site_fract_y
 _atom_site_fract_z
 _atom_site_occupancy
  Ca  Ca0  1  0.000000  0.500000  0.000000  1
  V  V1  1  0.054055  0.772026  0.760954  1
  V  V2  1  0.661864  0.116546  0.747864  1
  V  V3  1  0.945945  0.227974  0.239046  1
  V  V4  1  0.338136  0.883454  0.252136  1
  Bi  Bi5  1  0.650779  0.368281  0.480443  1
  Bi  Bi6  1  0.426327  0.298207  0.079044  1
  Bi  Bi7  1  0.349221  0.631719  0.519557  1
  Bi  Bi8  1  0.198138  0.213933  0.673727  1
  Bi  Bi9  1  0.801862  0.786067  0.326273  1
  Bi  Bi10  1  0.573673  0.701793  0.920956  1
  O  O11  1  0.834026  0.976777  0.169263  1
  O  O12  1  0.529872  0.870239  0.368284  1
  O  O13  1  0.756226  0.312718  0.245441  1
  O  O14  1  0.365743  0.119559  0.301932  1
  O  O15  1  0.931011  0.693341  0.573530  1
  O  O16  1  0.068989  0.306659  0.426470  1
  O  O17  1  0.343226  0.785507  0.065566  1
  O  O18  1  0.656774  0.214493  0.934434  1
  O  O19  1  0.904234  0.270699  0.735367  1
  O  O20  1  0.544716  0.527138  0.364189  1
  O  O21  1  0.095766  0.729301  0.264633  1
  O  O22  1  0.455284  0.472862  0.635811  1
  O  O23  1  0.243774  0.687282  0.754559  1
  O  O24  1  0.667601  0.588366  0.102715  1
  O  O25  1  0.470128  0.129761  0.631716  1
  O  O26  1  0.332399  0.411634  0.897285  1
  O  O27  1  0.883869  0.666621  0.866101  1
  O  O28  1  0.634257  0.880441  0.698068  1
  O  O29  1  0.165974  0.023223  0.830737  1
  O  O30  1  0.116131  0.333379  0.133899  1
