# generated using pymatgen
data_Ca2Al20Fe3Ir
_symmetry_space_group_name_H-M   'P 1'
_cell_length_a   6.82481296
_cell_length_b   6.81196415
_cell_length_c   9.04388672
_cell_angle_alpha   90.06034892
_cell_angle_beta   89.85929272
_cell_angle_gamma   96.87324808
_symmetry_Int_Tables_number   1
_chemical_formula_structural   Ca2Al20Fe3Ir
_chemical_formula_sum   'Ca2 Al20 Fe3 Ir1'
_cell_volume   417.43069704
_cell_formula_units_Z   1
loop_
 _symmetry_equiv_pos_site_id
 _symmetry_equiv_pos_as_xyz
  1  'x, y, z'
loop_
 _atom_site_type_symbol
 _atom_site_label
 _atom_site_symmetry_multiplicity
 _atom_site_fract_x
 _atom_site_fract_y
 _atom_site_fract_z
 _atom_site_occupancy
  Ca  Ca0  1  0.876341  0.123972  0.749552  1
  Ca  Ca1  1  0.123659  0.876028  0.250448  1
  Al  Al2  1  0.414022  0.138547  0.744019  1
  Al  Al3  1  0.135879  0.417625  0.250742  1
  Al  Al4  1  0.585978  0.861453  0.255981  1
  Al  Al5  1  0.864121  0.582375  0.749258  1
  Al  Al6  1  0.521632  0.778334  0.744579  1
  Al  Al7  1  0.781132  0.521492  0.251149  1
  Al  Al8  1  0.478368  0.221666  0.255421  1
  Al  Al9  1  0.218868  0.478508  0.748851  1
  Al  Al10  1  0.840860  0.158234  0.403312  1
  Al  Al11  1  0.159140  0.841766  0.596688  1
  Al  Al12  1  0.847313  0.162504  0.099079  1
  Al  Al13  1  0.152687  0.837496  0.900921  1
  Al  Al14  1  0.628808  0.380319  0.951970  1
  Al  Al15  1  0.371192  0.619681  0.048030  1
  Al  Al16  1  0.626843  0.375261  0.546968  1
  Al  Al17  1  0.373157  0.624739  0.453032  1
  Al  Al18  1  0.778533  0.768756  0.003759  1
  Al  Al19  1  0.773691  0.771393  0.501554  1
  Al  Al20  1  0.221467  0.231243  0.996241  1
  Al  Al21  1  0.226309  0.228606  0.498446  1
  Fe  Fe22  1  0.000000  0.500000  0.000000  1
  Fe  Fe23  1  0.500000  0.000000  0.500000  1
  Fe  Fe24  1  0.000000  0.500000  0.500000  1
  Ir  Ir25  1  0.500000  0.000000  0.000000  1
