# generated using pymatgen
data_Tb18Dy2IrRu11
_symmetry_space_group_name_H-M   'P 1'
_cell_length_a   10.85000186
_cell_length_b   10.85000095
_cell_length_c   6.39507004
_cell_angle_alpha   89.97302160
_cell_angle_beta   89.97302042
_cell_angle_gamma   90.00382520
_symmetry_Int_Tables_number   1
_chemical_formula_structural   Tb18Dy2IrRu11
_chemical_formula_sum   'Tb18 Dy2 Ir1 Ru11'
_cell_volume   752.84365935
_cell_formula_units_Z   1
loop_
 _symmetry_equiv_pos_site_id
 _symmetry_equiv_pos_as_xyz
  1  'x, y, z'
loop_
 _atom_site_type_symbol
 _atom_site_label
 _atom_site_symmetry_multiplicity
 _atom_site_fract_x
 _atom_site_fract_y
 _atom_site_fract_z
 _atom_site_occupancy
  Tb  Tb0  1  0.292187  0.086998  0.377707  1
  Tb  Tb1  1  0.292171  0.913932  0.877901  1
  Tb  Tb2  1  0.708042  0.087092  0.877712  1
  Tb  Tb3  1  0.708020  0.913039  0.377759  1
  Tb  Tb4  1  0.587226  0.792288  0.877720  1
  Tb  Tb5  1  0.586956  0.207619  0.377449  1
  Tb  Tb6  1  0.413428  0.792660  0.377464  1
  Tb  Tb7  1  0.413041  0.208436  0.877744  1
  Tb  Tb8  1  0.207712  0.412774  0.622280  1
  Tb  Tb9  1  0.207340  0.586572  0.122536  1
  Tb  Tb10  1  0.792381  0.413044  0.122551  1
  Tb  Tb11  1  0.791564  0.586959  0.622256  1
  Tb  Tb12  1  0.913002  0.707813  0.122293  1
  Tb  Tb13  1  0.912908  0.291958  0.622288  1
  Tb  Tb14  1  0.086068  0.707829  0.622099  1
  Tb  Tb15  1  0.086961  0.291980  0.122241  1
  Tb  Tb16  1  0.000066  0.000203  0.500036  1
  Tb  Tb17  1  0.999797  0.999934  0.999964  1
  Dy  Dy18  1  0.501195  0.499474  0.000883  1
  Dy  Dy19  1  0.500526  0.498805  0.499117  1
  Ir  Ir20  1  0.346838  0.653162  0.750000  1
  Ru  Ru21  1  0.847185  0.152815  0.250000  1
  Ru  Ru22  1  0.847160  0.846934  0.749700  1
  Ru  Ru23  1  0.153066  0.152840  0.750300  1
  Ru  Ru24  1  0.153664  0.846336  0.250000  1
  Ru  Ru25  1  0.652329  0.347671  0.750000  1
  Ru  Ru26  1  0.651668  0.652795  0.250276  1
  Ru  Ru27  1  0.347205  0.348332  0.249724  1
  Ru  Ru28  1  0.500065  0.999627  0.123652  1
  Ru  Ru29  1  0.499994  0.000140  0.624304  1
  Ru  Ru30  1  0.999860  0.500006  0.875696  1
  Ru  Ru31  1  0.000373  0.499935  0.376348  1
