# generated using pymatgen
data_Er4Ti2Ga2Ir3Au
_symmetry_space_group_name_H-M   'P 1'
_cell_length_a   4.38027800
_cell_length_b   6.93154620
_cell_length_c   7.87925098
_cell_angle_alpha   91.87743413
_cell_angle_beta   90.00000000
_cell_angle_gamma   90.00000000
_symmetry_Int_Tables_number   1
_chemical_formula_structural   Er4Ti2Ga2Ir3Au
_chemical_formula_sum   'Er4 Ti2 Ga2 Ir3 Au1'
_cell_volume   239.10218114
_cell_formula_units_Z   1
loop_
 _symmetry_equiv_pos_site_id
 _symmetry_equiv_pos_as_xyz
  1  'x, y, z'
loop_
 _atom_site_type_symbol
 _atom_site_label
 _atom_site_symmetry_multiplicity
 _atom_site_fract_x
 _atom_site_fract_y
 _atom_site_fract_z
 _atom_site_occupancy
  Er  Er0  1  0.250000  0.977102  0.302373  1
  Er  Er1  1  0.250000  0.489963  0.179078  1
  Er  Er2  1  0.750000  0.016494  0.691067  1
  Er  Er3  1  0.750000  0.528527  0.823174  1
  Ti  Ti4  1  0.250000  0.365697  0.562339  1
  Ti  Ti5  1  0.750000  0.639429  0.425483  1
  Ga  Ga6  1  0.250000  0.827613  0.925172  1
  Ga  Ga7  1  0.750000  0.158858  0.084412  1
  Ir  Ir8  1  0.250000  0.723890  0.596312  1
  Ir  Ir9  1  0.750000  0.773169  0.118346  1
  Ir  Ir10  1  0.750000  0.277928  0.406773  1
  Au  Au11  1  0.250000  0.221328  0.885473  1
