# generated using pymatgen
data_TbSmSiPd14
_symmetry_space_group_name_H-M   'P 1'
_cell_length_a   8.93678700
_cell_length_b   8.93678700
_cell_length_c   7.11695800
_cell_angle_alpha   90.00000000
_cell_angle_beta   90.00000000
_cell_angle_gamma   90.00000000
_symmetry_Int_Tables_number   1
_chemical_formula_structural   TbSmSiPd14
_chemical_formula_sum   'Tb2 Sm2 Si2 Pd28'
_cell_volume   568.40411975
_cell_formula_units_Z   2
loop_
 _symmetry_equiv_pos_site_id
 _symmetry_equiv_pos_as_xyz
  1  'x, y, z'
loop_
 _atom_site_type_symbol
 _atom_site_label
 _atom_site_symmetry_multiplicity
 _atom_site_fract_x
 _atom_site_fract_y
 _atom_site_fract_z
 _atom_site_occupancy
  Tb  Tb0  1  0.000000  0.000000  0.500000  1
  Tb  Tb1  1  0.500000  0.500000  0.500000  1
  Sm  Sm2  1  0.500000  0.000000  0.935982  1
  Sm  Sm3  1  0.000000  0.500000  0.064018  1
  Si  Si4  1  0.500000  0.000000  0.448682  1
  Si  Si5  1  0.000000  0.500000  0.551318  1
  Pd  Pd6  1  0.334421  0.834421  0.615657  1
  Pd  Pd7  1  0.334421  0.165579  0.615657  1
  Pd  Pd8  1  0.665579  0.834421  0.615657  1
  Pd  Pd9  1  0.665579  0.165579  0.615657  1
  Pd  Pd10  1  0.165579  0.665579  0.384343  1
  Pd  Pd11  1  0.165579  0.334421  0.384343  1
  Pd  Pd12  1  0.834421  0.665579  0.384343  1
  Pd  Pd13  1  0.834421  0.334421  0.384343  1
  Pd  Pd14  1  0.500000  0.769833  0.257340  1
  Pd  Pd15  1  0.500000  0.230167  0.257340  1
  Pd  Pd16  1  0.269833  0.000000  0.257340  1
  Pd  Pd17  1  0.730167  0.000000  0.257340  1
  Pd  Pd18  1  0.000000  0.730167  0.742660  1
  Pd  Pd19  1  0.000000  0.269833  0.742660  1
  Pd  Pd20  1  0.230167  0.500000  0.742660  1
  Pd  Pd21  1  0.769833  0.500000  0.742660  1
  Pd  Pd22  1  0.500000  0.349263  0.853443  1
  Pd  Pd23  1  0.500000  0.650737  0.853443  1
  Pd  Pd24  1  0.849263  0.000000  0.853443  1
  Pd  Pd25  1  0.150737  0.000000  0.853443  1
  Pd  Pd26  1  0.000000  0.150737  0.146557  1
  Pd  Pd27  1  0.000000  0.849263  0.146557  1
  Pd  Pd28  1  0.650737  0.500000  0.146557  1
  Pd  Pd29  1  0.349263  0.500000  0.146557  1
  Pd  Pd30  1  0.250000  0.750000  0.000000  1
  Pd  Pd31  1  0.250000  0.250000  0.000000  1
  Pd  Pd32  1  0.750000  0.750000  0.000000  1
  Pd  Pd33  1  0.750000  0.250000  0.000000  1
