# generated using pymatgen
data_Nd12AlTlSi4
_symmetry_space_group_name_H-M   'P 1'
_cell_length_a   8.79478533
_cell_length_b   8.79496154
_cell_length_c   8.79478400
_cell_angle_alpha   112.68770061
_cell_angle_beta   110.16715852
_cell_angle_gamma   105.63561836
_symmetry_Int_Tables_number   1
_chemical_formula_structural   Nd12AlTlSi4
_chemical_formula_sum   'Nd12 Al1 Tl1 Si4'
_cell_volume   521.66479653
_cell_formula_units_Z   1
loop_
 _symmetry_equiv_pos_site_id
 _symmetry_equiv_pos_as_xyz
  1  'x, y, z'
loop_
 _atom_site_type_symbol
 _atom_site_label
 _atom_site_symmetry_multiplicity
 _atom_site_fract_x
 _atom_site_fract_y
 _atom_site_fract_z
 _atom_site_occupancy
  Nd  Nd0  1  0.437540  0.234751  0.202802  1
  Nd  Nd1  1  0.562460  0.765249  0.797198  1
  Nd  Nd2  1  0.031949  0.234751  0.797211  1
  Nd  Nd3  1  0.968051  0.765249  0.202789  1
  Nd  Nd4  1  0.183921  0.274307  0.458231  1
  Nd  Nd5  1  0.816079  0.725693  0.541769  1
  Nd  Nd6  1  0.183922  0.725693  0.909614  1
  Nd  Nd7  1  0.816078  0.274307  0.090386  1
  Nd  Nd8  1  0.319019  0.613494  0.294474  1
  Nd  Nd9  1  0.680981  0.386506  0.705526  1
  Nd  Nd10  1  0.319000  0.024524  0.705524  1
  Nd  Nd11  1  0.681000  0.975476  0.294476  1
  Al  Al12  1  0.000000  0.000000  0.000000  1
  Tl  Tl13  1  0.500000  0.500000  0.000000  1
  Si  Si14  1  0.374878  0.000000  0.374878  1
  Si  Si15  1  0.625122  0.000000  0.625122  1
  Si  Si16  1  0.112447  0.612440  0.499994  1
  Si  Si17  1  0.887553  0.387560  0.500006  1
