# generated using pymatgen
data_Nd(Zr3Bi2)2
_symmetry_space_group_name_H-M   'P 1'
_cell_length_a   8.97222637
_cell_length_b   8.97222661
_cell_length_c   8.97222620
_cell_angle_alpha   40.52920047
_cell_angle_beta   40.52920812
_cell_angle_gamma   40.52919731
_symmetry_Int_Tables_number   1
_chemical_formula_structural   Nd(Zr3Bi2)2
_chemical_formula_sum   'Nd1 Zr6 Bi4'
_cell_volume   275.09936937
_cell_formula_units_Z   1
loop_
 _symmetry_equiv_pos_site_id
 _symmetry_equiv_pos_as_xyz
  1  'x, y, z'
loop_
 _atom_site_type_symbol
 _atom_site_label
 _atom_site_symmetry_multiplicity
 _atom_site_fract_x
 _atom_site_fract_y
 _atom_site_fract_z
 _atom_site_occupancy
  Nd  Nd0  1  0.000000  0.000000  0.000000  1
  Zr  Zr1  1  0.600643  0.600643  0.112305  1
  Zr  Zr2  1  0.887695  0.399359  0.399357  1
  Zr  Zr3  1  0.399359  0.887695  0.399357  1
  Zr  Zr4  1  0.600642  0.112305  0.600644  1
  Zr  Zr5  1  0.112305  0.600642  0.600644  1
  Zr  Zr6  1  0.399358  0.399358  0.887695  1
  Bi  Bi7  1  0.128229  0.128229  0.128229  1
  Bi  Bi8  1  0.332255  0.332255  0.332255  1
  Bi  Bi9  1  0.667745  0.667745  0.667745  1
  Bi  Bi10  1  0.871771  0.871771  0.871771  1
