# generated using pymatgen
data_Ta5Nb7Al8(CoN)4
_symmetry_space_group_name_H-M   'P 1'
_cell_length_a   8.18689440
_cell_length_b   8.18770037
_cell_length_c   8.19244600
_cell_angle_alpha   59.97926632
_cell_angle_beta   59.97797033
_cell_angle_gamma   59.94870037
_symmetry_Int_Tables_number   1
_chemical_formula_structural   Ta5Nb7Al8(CoN)4
_chemical_formula_sum   'Ta5 Nb7 Al8 Co4 N4'
_cell_volume   388.03485555
_cell_formula_units_Z   1
loop_
 _symmetry_equiv_pos_site_id
 _symmetry_equiv_pos_as_xyz
  1  'x, y, z'
loop_
 _atom_site_type_symbol
 _atom_site_label
 _atom_site_symmetry_multiplicity
 _atom_site_fract_x
 _atom_site_fract_y
 _atom_site_fract_z
 _atom_site_occupancy
  Ta  Ta0  1  0.940064  0.560268  0.560362  1
  Ta  Ta1  1  0.560562  0.939256  0.940178  1
  Ta  Ta2  1  0.939728  0.938858  0.560816  1
  Ta  Ta3  1  0.690044  0.310391  0.690093  1
  Ta  Ta4  1  0.939079  0.560941  0.939154  1
  Nb  Nb5  1  0.561976  0.938052  0.561707  1
  Nb  Nb6  1  0.312221  0.688470  0.688671  1
  Nb  Nb7  1  0.688502  0.311621  0.311434  1
  Nb  Nb8  1  0.311623  0.688756  0.310790  1
  Nb  Nb9  1  0.689986  0.689971  0.310440  1
  Nb  Nb10  1  0.311743  0.311087  0.688661  1
  Nb  Nb11  1  0.560448  0.560243  0.940086  1
  Al  Al12  1  0.919093  0.917040  0.917906  1
  Al  Al13  1  0.003395  0.332211  0.330951  1
  Al  Al14  1  0.331805  0.003770  0.332990  1
  Al  Al15  1  0.330687  0.332981  0.003910  1
  Al  Al16  1  0.917840  0.246174  0.918966  1
  Al  Al17  1  0.917052  0.919166  0.245764  1
  Al  Al18  1  0.245982  0.918112  0.916978  1
  Al  Al19  1  0.332633  0.330999  0.332057  1
  Co  Co20  1  0.125530  0.124812  0.125161  1
  Co  Co21  1  0.625351  0.124870  0.118872  1
  Co  Co22  1  0.121677  0.624783  0.127159  1
  Co  Co23  1  0.117203  0.129047  0.625078  1
  N  N24  1  0.629252  0.621392  0.625356  1
  N  N25  1  0.120546  0.626549  0.626598  1
  N  N26  1  0.628359  0.122832  0.628273  1
  N  N27  1  0.627617  0.627347  0.121588  1
