# generated using pymatgen
data_Dy2Sc3Tl4
_symmetry_space_group_name_H-M   'P 1'
_cell_length_a   7.71257700
_cell_length_b   7.99155800
_cell_length_c   15.19325500
_cell_angle_alpha   90.00000000
_cell_angle_beta   90.00000000
_cell_angle_gamma   90.00000000
_symmetry_Int_Tables_number   1
_chemical_formula_structural   Dy2Sc3Tl4
_chemical_formula_sum   'Dy8 Sc12 Tl16'
_cell_volume   936.44396617
_cell_formula_units_Z   4
loop_
 _symmetry_equiv_pos_site_id
 _symmetry_equiv_pos_as_xyz
  1  'x, y, z'
loop_
 _atom_site_type_symbol
 _atom_site_label
 _atom_site_symmetry_multiplicity
 _atom_site_fract_x
 _atom_site_fract_y
 _atom_site_fract_z
 _atom_site_occupancy
  Dy  Dy0  1  0.999659  0.182655  0.093702  1
  Dy  Dy1  1  0.000341  0.817345  0.906298  1
  Dy  Dy2  1  0.500341  0.682655  0.906298  1
  Dy  Dy3  1  0.000341  0.817345  0.593702  1
  Dy  Dy4  1  0.499659  0.317345  0.093702  1
  Dy  Dy5  1  0.999659  0.182655  0.406298  1
  Dy  Dy6  1  0.499659  0.317345  0.406298  1
  Dy  Dy7  1  0.500341  0.682655  0.593702  1
  Sc  Sc8  1  0.164616  0.495766  0.750000  1
  Sc  Sc9  1  0.835384  0.504234  0.250000  1
  Sc  Sc10  1  0.335384  0.995766  0.250000  1
  Sc  Sc11  1  0.664616  0.004234  0.750000  1
  Sc  Sc12  1  0.333714  0.159205  0.625507  1
  Sc  Sc13  1  0.666286  0.840795  0.374493  1
  Sc  Sc14  1  0.166286  0.659205  0.374493  1
  Sc  Sc15  1  0.666286  0.840795  0.125507  1
  Sc  Sc16  1  0.833714  0.340795  0.625507  1
  Sc  Sc17  1  0.333714  0.159205  0.874493  1
  Sc  Sc18  1  0.833714  0.340795  0.874493  1
  Sc  Sc19  1  0.166286  0.659205  0.125507  1
  Tl  Tl20  1  0.025404  0.124110  0.750000  1
  Tl  Tl21  1  0.974596  0.875890  0.250000  1
  Tl  Tl22  1  0.474596  0.624110  0.250000  1
  Tl  Tl23  1  0.525404  0.375890  0.750000  1
  Tl  Tl24  1  0.299069  0.854322  0.750000  1
  Tl  Tl25  1  0.700931  0.145678  0.250000  1
  Tl  Tl26  1  0.200931  0.354322  0.250000  1
  Tl  Tl27  1  0.799069  0.645678  0.750000  1
  Tl  Tl28  1  0.181188  0.457548  0.541925  1
  Tl  Tl29  1  0.818812  0.542452  0.458075  1
  Tl  Tl30  1  0.318812  0.957548  0.458075  1
  Tl  Tl31  1  0.818812  0.542452  0.041925  1
  Tl  Tl32  1  0.681188  0.042452  0.541925  1
  Tl  Tl33  1  0.181188  0.457548  0.958075  1
  Tl  Tl34  1  0.681188  0.042452  0.958075  1
  Tl  Tl35  1  0.318812  0.957548  0.041925  1
