# generated using pymatgen
data_Er3Tm2LuCo2
_symmetry_space_group_name_H-M   'P 1'
_cell_length_a   6.14855240
_cell_length_b   6.89576400
_cell_length_c   9.23258805
_cell_angle_alpha   90.00000000
_cell_angle_beta   90.18208831
_cell_angle_gamma   90.00000000
_symmetry_Int_Tables_number   1
_chemical_formula_structural   Er3Tm2LuCo2
_chemical_formula_sum   'Er6 Tm4 Lu2 Co4'
_cell_volume   391.45021242
_cell_formula_units_Z   2
loop_
 _symmetry_equiv_pos_site_id
 _symmetry_equiv_pos_as_xyz
  1  'x, y, z'
loop_
 _atom_site_type_symbol
 _atom_site_label
 _atom_site_symmetry_multiplicity
 _atom_site_fract_x
 _atom_site_fract_y
 _atom_site_fract_z
 _atom_site_occupancy
  Er  Er0  1  0.676572  0.323809  0.933825  1
  Er  Er1  1  0.823428  0.823809  0.566175  1
  Er  Er2  1  0.863921  0.541022  0.250585  1
  Er  Er3  1  0.636079  0.041022  0.249415  1
  Er  Er4  1  0.138797  0.459287  0.749818  1
  Er  Er5  1  0.361203  0.959287  0.750182  1
  Tm  Tm6  1  0.323214  0.676321  0.068000  1
  Tm  Tm7  1  0.176786  0.176321  0.432000  1
  Tm  Tm8  1  0.676398  0.323978  0.566395  1
  Tm  Tm9  1  0.823602  0.823978  0.933605  1
  Lu  Lu10  1  0.324654  0.675729  0.433105  1
  Lu  Lu11  1  0.175346  0.175729  0.066895  1
  Co  Co12  1  0.047662  0.887081  0.249693  1
  Co  Co13  1  0.452338  0.387081  0.250307  1
  Co  Co14  1  0.952938  0.112773  0.751625  1
  Co  Co15  1  0.547062  0.612773  0.748375  1
