# generated using pymatgen
data_BaLiCaMn2H17
_symmetry_space_group_name_H-M   'P 1'
_cell_length_a   4.85267459
_cell_length_b   4.85267600
_cell_length_c   8.92878975
_cell_angle_alpha   91.12640779
_cell_angle_beta   88.87358808
_cell_angle_gamma   119.94529829
_symmetry_Int_Tables_number   1
_chemical_formula_structural   BaLiCaMn2H17
_chemical_formula_sum   'Ba1 Li1 Ca1 Mn2 H17'
_cell_volume   182.14314794
_cell_formula_units_Z   1
loop_
 _symmetry_equiv_pos_site_id
 _symmetry_equiv_pos_as_xyz
  1  'x, y, z'
loop_
 _atom_site_type_symbol
 _atom_site_label
 _atom_site_symmetry_multiplicity
 _atom_site_fract_x
 _atom_site_fract_y
 _atom_site_fract_z
 _atom_site_occupancy
  Ba  Ba0  1  0.989997  0.010003  0.491816  1
  Li  Li1  1  0.660431  0.339569  0.218207  1
  Ca  Ca2  1  0.993537  0.006463  0.988018  1
  Mn  Mn3  1  0.322711  0.677289  0.236253  1
  Mn  Mn4  1  0.645935  0.354065  0.767542  1
  H  H5  1  0.518396  0.481604  0.897494  1
  H  H6  1  0.435995  0.564005  0.373830  1
  H  H7  1  0.520702  0.479298  0.643048  1
  H  H8  1  0.485684  0.975755  0.348196  1
  H  H9  1  0.920686  0.487128  0.649872  1
  H  H10  1  0.480499  0.913791  0.101779  1
  H  H11  1  0.918744  0.490289  0.884109  1
  H  H12  1  0.512872  0.079314  0.649872  1
  H  H13  1  0.024245  0.514316  0.348196  1
  H  H14  1  0.509711  0.081256  0.884109  1
  H  H15  1  0.086209  0.519501  0.101779  1
  H  H16  1  0.670964  0.751601  0.201495  1
  H  H17  1  0.804734  0.716393  0.763751  1
  H  H18  1  0.283607  0.195266  0.763751  1
  H  H19  1  0.248399  0.329036  0.201495  1
  H  H20  1  0.139457  0.860543  0.220731  1
  H  H21  1  0.826489  0.173511  0.764658  1
