# generated using pymatgen
data_Tb7Dy9In3AgIr4
_symmetry_space_group_name_H-M   'P 1'
_cell_length_a   9.65646284
_cell_length_b   9.65872690
_cell_length_c   9.66023150
_cell_angle_alpha   59.99468555
_cell_angle_beta   60.02064612
_cell_angle_gamma   59.99917026
_symmetry_Int_Tables_number   1
_chemical_formula_structural   Tb7Dy9In3AgIr4
_chemical_formula_sum   'Tb7 Dy9 In3 Ag1 Ir4'
_cell_volume   637.17399002
_cell_formula_units_Z   1
loop_
 _symmetry_equiv_pos_site_id
 _symmetry_equiv_pos_as_xyz
  1  'x, y, z'
loop_
 _atom_site_type_symbol
 _atom_site_label
 _atom_site_symmetry_multiplicity
 _atom_site_fract_x
 _atom_site_fract_y
 _atom_site_fract_z
 _atom_site_occupancy
  Tb  Tb0  1  0.689142  0.310284  0.689363  1
  Tb  Tb1  1  0.689191  0.689301  0.310192  1
  Tb  Tb2  1  0.685769  0.311519  0.311310  1
  Tb  Tb3  1  0.309773  0.689466  0.689618  1
  Tb  Tb4  1  0.559552  0.939557  0.559310  1
  Tb  Tb5  1  0.702732  0.099376  0.099061  1
  Tb  Tb6  1  0.558861  0.941137  0.941379  1
  Dy  Dy7  1  0.099439  0.701448  0.100165  1
  Dy  Dy8  1  0.942399  0.940686  0.558253  1
  Dy  Dy9  1  0.942233  0.558214  0.940698  1
  Dy  Dy10  1  0.310420  0.686645  0.310950  1
  Dy  Dy11  1  0.940509  0.559382  0.559577  1
  Dy  Dy12  1  0.310365  0.311093  0.686651  1
  Dy  Dy13  1  0.098817  0.099386  0.099387  1
  Dy  Dy14  1  0.559639  0.559196  0.939608  1
  Dy  Dy15  1  0.099215  0.100208  0.701546  1
  In  In16  1  0.004946  0.332035  0.332017  1
  In  In17  1  0.332050  0.004733  0.332215  1
  In  In18  1  0.332077  0.332349  0.004651  1
  Ag  Ag19  1  0.332486  0.333054  0.332973  1
  Ir  Ir20  1  0.892151  0.891792  0.891738  1
  Ir  Ir21  1  0.891979  0.891295  0.325903  1
  Ir  Ir22  1  0.324662  0.891694  0.892117  1
  Ir  Ir23  1  0.891590  0.326147  0.891315  1
