# generated using pymatgen
data_Pr10AlZn3IrRu5
_symmetry_space_group_name_H-M   'P 1'
_cell_length_a   8.54401529
_cell_length_b   8.64084217
_cell_length_c   8.57565561
_cell_angle_alpha   109.80148958
_cell_angle_beta   109.49261100
_cell_angle_gamma   109.44413694
_symmetry_Int_Tables_number   1
_chemical_formula_structural   Pr10AlZn3IrRu5
_chemical_formula_sum   'Pr10 Al1 Zn3 Ir1 Ru5'
_cell_volume   485.40905942
_cell_formula_units_Z   1
loop_
 _symmetry_equiv_pos_site_id
 _symmetry_equiv_pos_as_xyz
  1  'x, y, z'
loop_
 _atom_site_type_symbol
 _atom_site_label
 _atom_site_symmetry_multiplicity
 _atom_site_fract_x
 _atom_site_fract_y
 _atom_site_fract_z
 _atom_site_occupancy
  Pr  Pr0  1  0.250703  0.684307  0.436759  1
  Pr  Pr1  1  0.748783  0.813677  0.061730  1
  Pr  Pr2  1  0.440288  0.253845  0.685286  1
  Pr  Pr3  1  0.684661  0.432810  0.248363  1
  Pr  Pr4  1  0.061191  0.743789  0.813339  1
  Pr  Pr5  1  0.815047  0.066181  0.751701  1
  Pr  Pr6  1  0.219833  0.222598  0.222834  1
  Pr  Pr7  1  0.500823  0.000976  0.279795  1
  Pr  Pr8  1  0.280301  0.503341  0.002127  1
  Pr  Pr9  1  0.999470  0.279839  0.499216  1
  Al  Al10  1  0.000798  0.908340  0.499266  1
  Zn  Zn11  1  0.496545  0.997073  0.908759  1
  Zn  Zn12  1  0.589995  0.590064  0.587635  1
  Zn  Zn13  1  0.912671  0.501810  0.003100  1
  Ir  Ir14  1  0.240317  0.119964  0.865072  1
  Ru  Ru15  1  0.748617  0.372153  0.621444  1
  Ru  Ru16  1  0.876508  0.250634  0.124949  1
  Ru  Ru17  1  0.125835  0.881127  0.259846  1
  Ru  Ru18  1  0.635482  0.754347  0.376920  1
  Ru  Ru19  1  0.372133  0.623125  0.751862  1
