# generated using pymatgen
data_Ac7Nd13Si15Ag
_symmetry_space_group_name_H-M   'P 1'
_cell_length_a   8.09356553
_cell_length_b   8.08316063
_cell_length_c   15.61919700
_cell_angle_alpha   90.08335122
_cell_angle_beta   89.57896218
_cell_angle_gamma   89.99255333
_symmetry_Int_Tables_number   1
_chemical_formula_structural   Ac7Nd13Si15Ag
_chemical_formula_sum   'Ac7 Nd13 Si15 Ag1'
_cell_volume   1021.80402526
_cell_formula_units_Z   1
loop_
 _symmetry_equiv_pos_site_id
 _symmetry_equiv_pos_as_xyz
  1  'x, y, z'
loop_
 _atom_site_type_symbol
 _atom_site_label
 _atom_site_symmetry_multiplicity
 _atom_site_fract_x
 _atom_site_fract_y
 _atom_site_fract_z
 _atom_site_occupancy
  Ac  Ac0  1  0.368300  0.015447  0.448774  1
  Ac  Ac1  1  0.483890  0.867833  0.700983  1
  Ac  Ac2  1  0.513402  0.127712  0.199315  1
  Ac  Ac3  1  0.870954  0.484510  0.296872  1
  Ac  Ac4  1  0.126409  0.519946  0.801212  1
  Ac  Ac5  1  0.632689  0.983298  0.953786  1
  Ac  Ac6  1  0.007692  0.374645  0.547316  1
  Nd  Nd7  1  0.309965  0.309755  0.999812  1
  Nd  Nd8  1  0.188170  0.809098  0.248715  1
  Nd  Nd9  1  0.799940  0.184647  0.753277  1
  Nd  Nd10  1  0.689857  0.687235  0.498903  1
  Nd  Nd11  1  0.992956  0.622961  0.053945  1
  Nd  Nd12  1  0.130215  0.983708  0.881564  1
  Nd  Nd13  1  0.516596  0.631219  0.126535  1
  Nd  Nd14  1  0.488705  0.372353  0.626776  1
  Nd  Nd15  1  0.632763  0.521447  0.876291  1
  Nd  Nd16  1  0.371504  0.484646  0.370923  1
  Nd  Nd17  1  0.869962  0.015359  0.375147  1
  Nd  Nd18  1  0.984788  0.128381  0.122662  1
  Nd  Nd19  1  0.009525  0.864720  0.620286  1
  Si  Si20  1  0.330808  0.692985  0.956118  1
  Si  Si21  1  0.660716  0.302188  0.452801  1
  Si  Si22  1  0.706132  0.345017  0.048724  1
  Si  Si23  1  0.303308  0.662969  0.544426  1
  Si  Si24  1  0.806639  0.833591  0.200566  1
  Si  Si25  1  0.163058  0.197850  0.295156  1
  Si  Si26  1  0.835896  0.806643  0.795239  1
  Si  Si27  1  0.279012  0.917309  0.061902  1
  Si  Si28  1  0.581108  0.783133  0.309621  1
  Si  Si29  1  0.433774  0.220499  0.817321  1
  Si  Si30  1  0.783647  0.578891  0.689245  1
  Si  Si31  1  0.214705  0.424526  0.187418  1
  Si  Si32  1  0.712836  0.077665  0.559400  1
  Si  Si33  1  0.925603  0.291768  0.941381  1
  Si  Si34  1  0.078377  0.716136  0.437736  1
  Ag  Ag35  1  0.196096  0.159912  0.699854  1
