# generated using pymatgen
data_La2Si4Tc3
_symmetry_space_group_name_H-M   'P 1'
_cell_length_a   8.23429100
_cell_length_b   5.80761434
_cell_length_c   7.05129605
_cell_angle_alpha   76.74549645
_cell_angle_beta   90.00000000
_cell_angle_gamma   90.00000000
_symmetry_Int_Tables_number   1
_chemical_formula_structural   La2Si4Tc3
_chemical_formula_sum   'La4 Si8 Tc6'
_cell_volume   328.22146327
_cell_formula_units_Z   2
loop_
 _symmetry_equiv_pos_site_id
 _symmetry_equiv_pos_as_xyz
  1  'x, y, z'
loop_
 _atom_site_type_symbol
 _atom_site_label
 _atom_site_symmetry_multiplicity
 _atom_site_fract_x
 _atom_site_fract_y
 _atom_site_fract_z
 _atom_site_occupancy
  La  La0  1  0.931809  0.564232  0.252526  1
  La  La1  1  0.431809  0.935768  0.747474  1
  La  La2  1  0.068191  0.435768  0.747474  1
  La  La3  1  0.568191  0.064232  0.252526  1
  Si  Si4  1  0.587272  0.608380  0.114350  1
  Si  Si5  1  0.087272  0.891620  0.885650  1
  Si  Si6  1  0.412728  0.391620  0.885650  1
  Si  Si7  1  0.912728  0.108380  0.114350  1
  Si  Si8  1  0.750946  0.716339  0.593455  1
  Si  Si9  1  0.250946  0.783661  0.406545  1
  Si  Si10  1  0.249054  0.283661  0.406545  1
  Si  Si11  1  0.749054  0.216339  0.593455  1
  Tc  Tc12  1  0.291839  0.609708  0.118419  1
  Tc  Tc13  1  0.791839  0.890292  0.881581  1
  Tc  Tc14  1  0.708161  0.390292  0.881581  1
  Tc  Tc15  1  0.208161  0.109708  0.118419  1
  Tc  Tc16  1  0.500000  0.500000  0.500000  1
  Tc  Tc17  1  0.000000  0.000000  0.500000  1
