# generated using pymatgen
data_Ho5Er(Tm3Ga10)2
_symmetry_space_group_name_H-M   'P 1'
_cell_length_a   6.05460202
_cell_length_b   9.59441685
_cell_length_c   11.43291204
_cell_angle_alpha   89.99718944
_cell_angle_beta   90.00951591
_cell_angle_gamma   89.97765365
_symmetry_Int_Tables_number   1
_chemical_formula_structural   Ho5Er(Tm3Ga10)2
_chemical_formula_sum   'Ho5 Er1 Tm6 Ga20'
_cell_volume   664.14209517
_cell_formula_units_Z   1
loop_
 _symmetry_equiv_pos_site_id
 _symmetry_equiv_pos_as_xyz
  1  'x, y, z'
loop_
 _atom_site_type_symbol
 _atom_site_label
 _atom_site_symmetry_multiplicity
 _atom_site_fract_x
 _atom_site_fract_y
 _atom_site_fract_z
 _atom_site_occupancy
  Ho  Ho0  1  0.609481  0.990199  0.851726  1
  Ho  Ho1  1  0.109223  0.009720  0.647930  1
  Ho  Ho2  1  0.390785  0.490294  0.148022  1
  Ho  Ho3  1  0.109148  0.490272  0.648316  1
  Ho  Ho4  1  0.390813  0.009728  0.148427  1
  Er  Er5  1  0.890551  0.509823  0.351673  1
  Tm  Tm6  1  0.848759  0.749862  0.073930  1
  Tm  Tm7  1  0.651300  0.750071  0.573832  1
  Tm  Tm8  1  0.151747  0.249921  0.926099  1
  Tm  Tm9  1  0.348137  0.250088  0.426056  1
  Tm  Tm10  1  0.890721  0.990318  0.351705  1
  Tm  Tm11  1  0.609282  0.509698  0.851704  1
  Ga  Ga12  1  0.875240  0.052412  0.090826  1
  Ga  Ga13  1  0.624809  0.447618  0.590789  1
  Ga  Ga14  1  0.125484  0.552364  0.909543  1
  Ga  Ga15  1  0.374518  0.947626  0.409547  1
  Ga  Ga16  1  0.124801  0.947314  0.909620  1
  Ga  Ga17  1  0.375025  0.552635  0.409577  1
  Ga  Ga18  1  0.875274  0.447527  0.090261  1
  Ga  Ga19  1  0.624740  0.052515  0.590124  1
  Ga  Ga20  1  0.171917  0.750246  0.251617  1
  Ga  Ga21  1  0.327997  0.749643  0.751572  1
  Ga  Ga22  1  0.827256  0.250440  0.748984  1
  Ga  Ga23  1  0.672854  0.249700  0.249087  1
  Ga  Ga24  1  0.373763  0.749864  0.005089  1
  Ga  Ga25  1  0.126145  0.750080  0.505072  1
  Ga  Ga26  1  0.626741  0.250465  0.994267  1
  Ga  Ga27  1  0.873293  0.249717  0.494102  1
  Ga  Ga28  1  0.605058  0.750485  0.299101  1
  Ga  Ga29  1  0.895166  0.749338  0.799064  1
  Ga  Ga30  1  0.395903  0.250016  0.701162  1
  Ga  Ga31  1  0.104070  0.250001  0.201180  1
