# generated using pymatgen
data_Tm3Zr3GaTe2
_symmetry_space_group_name_H-M   'P 1'
_cell_length_a   4.05713800
_cell_length_b   7.82602299
_cell_length_c   7.82602200
_cell_angle_alpha   119.99999584
_cell_angle_beta   90.00000000
_cell_angle_gamma   90.00000000
_symmetry_Int_Tables_number   1
_chemical_formula_structural   Tm3Zr3GaTe2
_chemical_formula_sum   'Tm3 Zr3 Ga1 Te2'
_cell_volume   215.19521661
_cell_formula_units_Z   1
loop_
 _symmetry_equiv_pos_site_id
 _symmetry_equiv_pos_as_xyz
  1  'x, y, z'
loop_
 _atom_site_type_symbol
 _atom_site_label
 _atom_site_symmetry_multiplicity
 _atom_site_fract_x
 _atom_site_fract_y
 _atom_site_fract_z
 _atom_site_occupancy
  Tm  Tm0  1  0.000000  0.396229  0.396229  1
  Tm  Tm1  1  0.000000  0.000000  0.603771  1
  Tm  Tm2  1  0.000000  0.603771  0.000000  1
  Zr  Zr3  1  0.500000  0.762038  0.762038  1
  Zr  Zr4  1  0.500000  0.000000  0.237962  1
  Zr  Zr5  1  0.500000  0.237962  0.000000  1
  Ga  Ga6  1  0.000000  0.000000  0.000000  1
  Te  Te7  1  0.500000  0.666667  0.333333  1
  Te  Te8  1  0.500000  0.333333  0.666667  1
