# generated using pymatgen
data_Y16MgCo3NiAg3
_symmetry_space_group_name_H-M   'P 1'
_cell_length_a   9.49865934
_cell_length_b   9.51897942
_cell_length_c   9.51897919
_cell_angle_alpha   60.21088922
_cell_angle_beta   60.23758792
_cell_angle_gamma   60.23758585
_symmetry_Int_Tables_number   1
_chemical_formula_structural   Y16MgCo3NiAg3
_chemical_formula_sum   'Y16 Mg1 Co3 Ni1 Ag3'
_cell_volume   611.74542532
_cell_formula_units_Z   1
loop_
 _symmetry_equiv_pos_site_id
 _symmetry_equiv_pos_as_xyz
  1  'x, y, z'
loop_
 _atom_site_type_symbol
 _atom_site_label
 _atom_site_symmetry_multiplicity
 _atom_site_fract_x
 _atom_site_fract_y
 _atom_site_fract_z
 _atom_site_occupancy
  Y  Y0  1  0.344775  0.344765  0.344765  1
  Y  Y1  1  0.349489  0.348326  0.959124  1
  Y  Y2  1  0.349489  0.959124  0.348326  1
  Y  Y3  1  0.947473  0.353046  0.353046  1
  Y  Y4  1  0.805336  0.189526  0.189526  1
  Y  Y5  1  0.184804  0.813433  0.813433  1
  Y  Y6  1  0.186864  0.809198  0.187089  1
  Y  Y7  1  0.809706  0.187937  0.811537  1
  Y  Y8  1  0.186864  0.187089  0.809198  1
  Y  Y9  1  0.809706  0.811537  0.187937  1
  Y  Y10  1  0.935369  0.563379  0.563379  1
  Y  Y11  1  0.564198  0.936826  0.936826  1
  Y  Y12  1  0.562495  0.937111  0.563460  1
  Y  Y13  1  0.935281  0.564364  0.939140  1
  Y  Y14  1  0.562495  0.563460  0.937111  1
  Y  Y15  1  0.935281  0.939140  0.564364  1
  Mg  Mg16  1  0.289901  0.569741  0.569741  1
  Co  Co17  1  0.138903  0.142918  0.575356  1
  Co  Co18  1  0.138903  0.575356  0.142918  1
  Co  Co19  1  0.575084  0.141864  0.141864  1
  Ni  Ni20  1  0.139308  0.143042  0.143042  1
  Ag  Ag21  1  0.582790  0.583181  0.583181  1
  Ag  Ag22  1  0.582742  0.582919  0.252715  1
  Ag  Ag23  1  0.582742  0.252715  0.582919  1
