# generated using pymatgen
data_Sc8Mn(B8Rh)3
_symmetry_space_group_name_H-M   'P 1'
_cell_length_a   3.44589200
_cell_length_b   8.88250241
_cell_length_c   11.18853366
_cell_angle_alpha   90.04517658
_cell_angle_beta   90.00000000
_cell_angle_gamma   90.00000000
_symmetry_Int_Tables_number   1
_chemical_formula_structural   Sc8Mn(B8Rh)3
_chemical_formula_sum   'Sc8 Mn1 B24 Rh3'
_cell_volume   342.46014261
_cell_formula_units_Z   1
loop_
 _symmetry_equiv_pos_site_id
 _symmetry_equiv_pos_as_xyz
  1  'x, y, z'
loop_
 _atom_site_type_symbol
 _atom_site_label
 _atom_site_symmetry_multiplicity
 _atom_site_fract_x
 _atom_site_fract_y
 _atom_site_fract_z
 _atom_site_occupancy
  Sc  Sc0  1  0.000000  0.947831  0.370833  1
  Sc  Sc1  1  0.000000  0.056209  0.625782  1
  Sc  Sc2  1  0.000000  0.555985  0.874788  1
  Sc  Sc3  1  0.000000  0.180855  0.919974  1
  Sc  Sc4  1  0.000000  0.824496  0.087467  1
  Sc  Sc5  1  0.000000  0.682475  0.585826  1
  Sc  Sc6  1  0.000000  0.312932  0.408457  1
  Sc  Sc7  1  0.000000  0.438721  0.126308  1
  Mn  Mn8  1  0.000000  0.139394  0.180498  1
  B  B9  1  0.500000  0.369223  0.819546  1
  B  B10  1  0.500000  0.982388  0.211988  1
  B  B11  1  0.500000  0.553115  0.435531  1
  B  B12  1  0.500000  0.292234  0.235107  1
  B  B13  1  0.500000  0.205295  0.737558  1
  B  B14  1  0.500000  0.102568  0.471436  1
  B  B15  1  0.500000  0.795831  0.262996  1
  B  B16  1  0.500000  0.446350  0.563209  1
  B  B17  1  0.500000  0.247291  0.577098  1
  B  B18  1  0.500000  0.477950  0.286620  1
  B  B19  1  0.500000  0.705170  0.762802  1
  B  B20  1  0.500000  0.753222  0.421300  1
  B  B21  1  0.500000  0.521171  0.713277  1
  B  B22  1  0.500000  0.897649  0.527648  1
  B  B23  1  0.500000  0.054546  0.066733  1
  B  B24  1  0.500000  0.602842  0.028212  1
  B  B25  1  0.500000  0.747990  0.923202  1
  B  B26  1  0.500000  0.021706  0.787664  1
  B  B27  1  0.500000  0.396393  0.972419  1
  B  B28  1  0.500000  0.947517  0.937194  1
  B  B29  1  0.500000  0.630348  0.181269  1
  B  B30  1  0.500000  0.249538  0.080971  1
  B  B31  1  0.500000  0.869513  0.680894  1
  B  B32  1  0.500000  0.130001  0.315404  1
  Rh  Rh33  1  0.000000  0.360769  0.679274  1
  Rh  Rh34  1  0.000000  0.861157  0.820965  1
  Rh  Rh35  1  0.000000  0.639332  0.319749  1
