# generated using pymatgen
data_Dy4OsRu6W
_symmetry_space_group_name_H-M   'P 1'
_cell_length_a   5.52544959
_cell_length_b   5.17099501
_cell_length_c   9.06552800
_cell_angle_alpha   90.00000000
_cell_angle_beta   90.00000000
_cell_angle_gamma   122.28161761
_symmetry_Int_Tables_number   1
_chemical_formula_structural   Dy4OsRu6W
_chemical_formula_sum   'Dy4 Os1 Ru6 W1'
_cell_volume   218.98489342
_cell_formula_units_Z   1
loop_
 _symmetry_equiv_pos_site_id
 _symmetry_equiv_pos_as_xyz
  1  'x, y, z'
loop_
 _atom_site_type_symbol
 _atom_site_label
 _atom_site_symmetry_multiplicity
 _atom_site_fract_x
 _atom_site_fract_y
 _atom_site_fract_z
 _atom_site_occupancy
  Dy  Dy0  1  0.672695  0.346127  0.563416  1
  Dy  Dy1  1  0.334731  0.669386  0.431965  1
  Dy  Dy2  1  0.334731  0.669386  0.068035  1
  Dy  Dy3  1  0.672695  0.346127  0.936584  1
  Os  Os4  1  0.827209  0.653645  0.250000  1
  Ru  Ru5  1  0.006782  0.012570  0.498583  1
  Ru  Ru6  1  0.006782  0.012570  0.001417  1
  Ru  Ru7  1  0.171096  0.818395  0.750000  1
  Ru  Ru8  1  0.647538  0.818828  0.750000  1
  Ru  Ru9  1  0.833489  0.169136  0.250000  1
  Ru  Ru10  1  0.335708  0.169298  0.250000  1
  W  W11  1  0.156544  0.314532  0.750000  1
