# generated using pymatgen
data_La3Pr(In2Br5)4
_symmetry_space_group_name_H-M   'P 1'
_cell_length_a   8.70007043
_cell_length_b   9.27471600
_cell_length_c   13.49412583
_cell_angle_alpha   90.00000000
_cell_angle_beta   89.98729045
_cell_angle_gamma   90.00000000
_symmetry_Int_Tables_number   1
_chemical_formula_structural   La3Pr(In2Br5)4
_chemical_formula_sum   'La3 Pr1 In8 Br20'
_cell_volume   1088.85019475
_cell_formula_units_Z   1
loop_
 _symmetry_equiv_pos_site_id
 _symmetry_equiv_pos_as_xyz
  1  'x, y, z'
loop_
 _atom_site_type_symbol
 _atom_site_label
 _atom_site_symmetry_multiplicity
 _atom_site_fract_x
 _atom_site_fract_y
 _atom_site_fract_z
 _atom_site_occupancy
  La  La0  1  0.922663  0.750000  0.506491  1
  La  La1  1  0.577598  0.750000  0.006851  1
  La  La2  1  0.078253  0.250000  0.493626  1
  Pr  Pr3  1  0.421468  0.250000  0.993708  1
  In  In4  1  0.941235  0.003876  0.827386  1
  In  In5  1  0.057512  0.995769  0.172467  1
  In  In6  1  0.557285  0.494907  0.328791  1
  In  In7  1  0.057512  0.504231  0.172467  1
  In  In8  1  0.941235  0.496124  0.827386  1
  In  In9  1  0.442458  0.505389  0.671167  1
  In  In10  1  0.557285  0.005093  0.328791  1
  In  In11  1  0.442458  0.994611  0.671167  1
  Br  Br12  1  0.573832  0.750000  0.503820  1
  Br  Br13  1  0.171607  0.953104  0.426160  1
  Br  Br14  1  0.829264  0.046707  0.573873  1
  Br  Br15  1  0.329727  0.545450  0.925449  1
  Br  Br16  1  0.171607  0.546896  0.426160  1
  Br  Br17  1  0.342967  0.250000  0.208339  1
  Br  Br18  1  0.329727  0.954550  0.925449  1
  Br  Br19  1  0.829264  0.453293  0.573873  1
  Br  Br20  1  0.391249  0.750000  0.192809  1
  Br  Br21  1  0.669194  0.048029  0.073595  1
  Br  Br22  1  0.158782  0.250000  0.709062  1
  Br  Br23  1  0.607247  0.250000  0.809909  1
  Br  Br24  1  0.427102  0.250000  0.496229  1
  Br  Br25  1  0.109989  0.750000  0.692351  1
  Br  Br26  1  0.669194  0.451971  0.073595  1
  Br  Br27  1  0.076552  0.250000  0.995933  1
  Br  Br28  1  0.925558  0.750000  0.004050  1
  Br  Br29  1  0.840844  0.750000  0.290802  1
  Br  Br30  1  0.658338  0.750000  0.790273  1
  Br  Br31  1  0.890989  0.250000  0.307972  1
