# generated using pymatgen
data_Sb12Ru2PtRh
_symmetry_space_group_name_H-M   'P 1'
_cell_length_a   8.13499225
_cell_length_b   8.13200120
_cell_length_c   9.40179559
_cell_angle_alpha   54.75845426
_cell_angle_beta   54.81171460
_cell_angle_gamma   70.60482509
_symmetry_Int_Tables_number   1
_chemical_formula_structural   Sb12Ru2PtRh
_chemical_formula_sum   'Sb12 Ru2 Pt1 Rh1'
_cell_volume   415.14875878
_cell_formula_units_Z   1
loop_
 _symmetry_equiv_pos_site_id
 _symmetry_equiv_pos_as_xyz
  1  'x, y, z'
loop_
 _atom_site_type_symbol
 _atom_site_label
 _atom_site_symmetry_multiplicity
 _atom_site_fract_x
 _atom_site_fract_y
 _atom_site_fract_z
 _atom_site_occupancy
  Sb  Sb0  1  0.156744  0.156148  0.178754  1
  Sb  Sb1  1  0.843256  0.843852  0.821246  1
  Sb  Sb2  1  0.843536  0.849485  0.497583  1
  Sb  Sb3  1  0.156464  0.150515  0.502417  1
  Sb  Sb4  1  0.811817  0.504264  0.337005  1
  Sb  Sb5  1  0.188183  0.495736  0.662995  1
  Sb  Sb6  1  0.505326  0.817299  0.337089  1
  Sb  Sb7  1  0.494674  0.182701  0.662911  1
  Sb  Sb8  1  0.654053  0.337354  0.850561  1
  Sb  Sb9  1  0.345947  0.662646  0.149439  1
  Sb  Sb10  1  0.662784  0.339844  0.154652  1
  Sb  Sb11  1  0.337216  0.660156  0.845348  1
  Ru  Ru12  1  0.000000  0.500000  0.000000  1
  Ru  Ru13  1  0.500000  0.000000  0.000000  1
  Pt  Pt14  1  0.000000  0.500000  0.500000  1
  Rh  Rh15  1  0.500000  0.000000  0.500000  1
