# generated using pymatgen
data_Y3Lu2AlSb2
_symmetry_space_group_name_H-M   'P 1'
_cell_length_a   6.37676900
_cell_length_b   8.83170987
_cell_length_c   8.84924562
_cell_angle_alpha   119.94580797
_cell_angle_beta   90.00006820
_cell_angle_gamma   89.99976020
_symmetry_Int_Tables_number   1
_chemical_formula_structural   Y3Lu2AlSb2
_chemical_formula_sum   'Y6 Lu4 Al2 Sb4'
_cell_volume   431.83641092
_cell_formula_units_Z   2
loop_
 _symmetry_equiv_pos_site_id
 _symmetry_equiv_pos_as_xyz
  1  'x, y, z'
loop_
 _atom_site_type_symbol
 _atom_site_label
 _atom_site_symmetry_multiplicity
 _atom_site_fract_x
 _atom_site_fract_y
 _atom_site_fract_z
 _atom_site_occupancy
  Y  Y0  1  0.750002  0.248333  0.010873  1
  Y  Y1  1  0.750010  0.751574  0.762177  1
  Y  Y2  1  0.750004  0.000780  0.238460  1
  Y  Y3  1  0.250006  0.758963  0.997945  1
  Y  Y4  1  0.250014  0.241771  0.239797  1
  Y  Y5  1  0.249999  0.999462  0.756721  1
  Lu  Lu6  1  0.503348  0.339233  0.668547  1
  Lu  Lu7  1  0.503299  0.660217  0.327830  1
  Lu  Lu8  1  0.996683  0.660221  0.327834  1
  Lu  Lu9  1  0.996641  0.339237  0.668557  1
  Al  Al10  1  0.749994  0.603397  0.001667  1
  Al  Al11  1  0.750002  0.395316  0.397278  1
  Sb  Sb12  1  0.750001  0.000163  0.609016  1
  Sb  Sb13  1  0.249999  0.396446  0.996745  1
  Sb  Sb14  1  0.249996  0.605326  0.602767  1
  Sb  Sb15  1  0.249997  0.999562  0.393786  1
