# generated using pymatgen
data_RbP2IrOs
_symmetry_space_group_name_H-M   'P 1'
_cell_length_a   7.38735779
_cell_length_b   7.38735762
_cell_length_c   7.38735762
_cell_angle_alpha   148.51222332
_cell_angle_beta   148.51221726
_cell_angle_gamma   45.12978717
_symmetry_Int_Tables_number   1
_chemical_formula_structural   RbP2IrOs
_chemical_formula_sum   'Rb1 P2 Ir1 Os1'
_cell_volume   109.63753863
_cell_formula_units_Z   1
loop_
 _symmetry_equiv_pos_site_id
 _symmetry_equiv_pos_as_xyz
  1  'x, y, z'
loop_
 _atom_site_type_symbol
 _atom_site_label
 _atom_site_symmetry_multiplicity
 _atom_site_fract_x
 _atom_site_fract_y
 _atom_site_fract_z
 _atom_site_occupancy
  Rb  Rb0  1  0.000000  0.000000  0.000000  1
  P  P1  1  0.340465  0.340465  0.000000  1
  P  P2  1  0.659535  0.659535  0.000000  1
  Ir  Ir3  1  0.250000  0.750000  0.500000  1
  Os  Os4  1  0.750000  0.250000  0.500000  1
