# generated using pymatgen
data_Ho5Er5Cd4(InPd)4
_symmetry_space_group_name_H-M   'P 1'
_cell_length_a   3.59425900
_cell_length_b   8.05595519
_cell_length_c   18.32376043
_cell_angle_alpha   89.97514059
_cell_angle_beta   90.00000000
_cell_angle_gamma   90.00000000
_symmetry_Int_Tables_number   1
_chemical_formula_structural   Ho5Er5Cd4(InPd)4
_chemical_formula_sum   'Ho5 Er5 Cd4 In4 Pd4'
_cell_volume   530.56790467
_cell_formula_units_Z   1
loop_
 _symmetry_equiv_pos_site_id
 _symmetry_equiv_pos_as_xyz
  1  'x, y, z'
loop_
 _atom_site_type_symbol
 _atom_site_label
 _atom_site_symmetry_multiplicity
 _atom_site_fract_x
 _atom_site_fract_y
 _atom_site_fract_z
 _atom_site_occupancy
  Ho  Ho0  1  0.000000  0.499988  0.500003  1
  Ho  Ho1  1  0.000000  0.000000  0.999989  1
  Ho  Ho2  1  0.000000  0.744965  0.280449  1
  Ho  Ho3  1  0.000000  0.255035  0.719553  1
  Ho  Ho4  1  0.000000  0.755034  0.780414  1
  Er  Er5  1  0.000000  0.245029  0.219648  1
  Er  Er6  1  0.000000  0.613989  0.083814  1
  Er  Er7  1  0.000000  0.385878  0.916298  1
  Er  Er8  1  0.000000  0.885940  0.583688  1
  Er  Er9  1  0.000000  0.114105  0.416184  1
  Cd  Cd10  1  0.500000  0.710275  0.931822  1
  Cd  Cd11  1  0.500000  0.289667  0.068333  1
  Cd  Cd12  1  0.500000  0.789784  0.431785  1
  Cd  Cd13  1  0.500000  0.210250  0.568179  1
  In  In14  1  0.500000  0.572510  0.647229  1
  In  In15  1  0.500000  0.427373  0.352647  1
  In  In16  1  0.500000  0.927775  0.147328  1
  In  In17  1  0.500000  0.072486  0.852741  1
  Pd  Pd18  1  0.500000  0.526839  0.196538  1
  Pd  Pd19  1  0.500000  0.472467  0.803550  1
  Pd  Pd20  1  0.500000  0.972499  0.696458  1
  Pd  Pd21  1  0.500000  0.028112  0.303348  1
