# generated using pymatgen
data_La4Pr12Cd4Ir3Pd
_symmetry_space_group_name_H-M   'P 1'
_cell_length_a   10.06813444
_cell_length_b   10.06813360
_cell_length_c   10.06813435
_cell_angle_alpha   60.27552325
_cell_angle_beta   60.27553199
_cell_angle_gamma   60.27552520
_symmetry_Int_Tables_number   1
_chemical_formula_structural   La4Pr12Cd4Ir3Pd
_chemical_formula_sum   'La4 Pr12 Cd4 Ir3 Pd1'
_cell_volume   726.15913459
_cell_formula_units_Z   1
loop_
 _symmetry_equiv_pos_site_id
 _symmetry_equiv_pos_as_xyz
  1  'x, y, z'
loop_
 _atom_site_type_symbol
 _atom_site_label
 _atom_site_symmetry_multiplicity
 _atom_site_fract_x
 _atom_site_fract_y
 _atom_site_fract_z
 _atom_site_occupancy
  La  La0  1  0.346414  0.346414  0.346414  1
  La  La1  1  0.351534  0.351534  0.952946  1
  La  La2  1  0.351534  0.952946  0.351534  1
  La  La3  1  0.952946  0.351534  0.351534  1
  Pr  Pr4  1  0.805315  0.190253  0.190253  1
  Pr  Pr5  1  0.188819  0.810421  0.810421  1
  Pr  Pr6  1  0.190253  0.805315  0.190253  1
  Pr  Pr7  1  0.810421  0.188819  0.810421  1
  Pr  Pr8  1  0.190253  0.190253  0.805315  1
  Pr  Pr9  1  0.810421  0.810421  0.188819  1
  Pr  Pr10  1  0.939185  0.562798  0.562798  1
  Pr  Pr11  1  0.564393  0.937361  0.937361  1
  Pr  Pr12  1  0.562798  0.939185  0.562798  1
  Pr  Pr13  1  0.937361  0.564393  0.937361  1
  Pr  Pr14  1  0.562798  0.562798  0.939185  1
  Pr  Pr15  1  0.937361  0.937361  0.564393  1
  Cd  Cd16  1  0.580060  0.580060  0.580060  1
  Cd  Cd17  1  0.579766  0.579766  0.260443  1
  Cd  Cd18  1  0.579766  0.260443  0.579766  1
  Cd  Cd19  1  0.260443  0.579766  0.579766  1
  Ir  Ir20  1  0.142090  0.142090  0.571304  1
  Ir  Ir21  1  0.142090  0.571304  0.142090  1
  Ir  Ir22  1  0.571304  0.142090  0.142090  1
  Pd  Pd23  1  0.142670  0.142670  0.142670  1
