# generated using pymatgen
data_Sm4Tc5B12Ru
_symmetry_space_group_name_H-M   'P 1'
_cell_length_a   6.26823250
_cell_length_b   6.26851827
_cell_length_c   7.56818568
_cell_angle_alpha   89.35597444
_cell_angle_beta   89.39588321
_cell_angle_gamma   114.63668978
_symmetry_Int_Tables_number   1
_chemical_formula_structural   Sm4Tc5B12Ru
_chemical_formula_sum   'Sm4 Tc5 B12 Ru1'
_cell_volume   270.24807219
_cell_formula_units_Z   1
loop_
 _symmetry_equiv_pos_site_id
 _symmetry_equiv_pos_as_xyz
  1  'x, y, z'
loop_
 _atom_site_type_symbol
 _atom_site_label
 _atom_site_symmetry_multiplicity
 _atom_site_fract_x
 _atom_site_fract_y
 _atom_site_fract_z
 _atom_site_occupancy
  Sm  Sm0  1  0.906744  0.563924  0.325235  1
  Sm  Sm1  1  0.440521  0.095552  0.175982  1
  Sm  Sm2  1  0.093118  0.432480  0.675174  1
  Sm  Sm3  1  0.554172  0.902924  0.825123  1
  Tc  Tc4  1  0.413868  0.584123  0.251771  1
  Tc  Tc5  1  0.585622  0.413879  0.750576  1
  Tc  Tc6  1  0.011325  0.197147  0.088235  1
  Tc  Tc7  1  0.800020  0.989378  0.413264  1
  Tc  Tc8  1  0.988560  0.803418  0.909434  1
  B  B9  1  0.758561  0.848251  0.129400  1
  B  B10  1  0.149014  0.242394  0.366416  1
  B  B11  1  0.244535  0.151890  0.871546  1
  B  B12  1  0.849994  0.763769  0.631591  1
  B  B13  1  0.414865  0.839087  0.480036  1
  B  B14  1  0.158019  0.584415  0.016922  1
  B  B15  1  0.587656  0.161085  0.519405  1
  B  B16  1  0.841226  0.416215  0.982730  1
  B  B17  1  0.557326  0.649150  0.534752  1
  B  B18  1  0.349687  0.442325  0.966408  1
  B  B19  1  0.444179  0.349667  0.466199  1
  B  B20  1  0.650306  0.558096  0.034173  1
  Ru  Ru21  1  0.200683  0.010832  0.585626  1
