# generated using pymatgen
data_Li4Tm4IrPt3
_symmetry_space_group_name_H-M   'P 1'
_cell_length_a   3.95168500
_cell_length_b   6.97551490
_cell_length_c   8.29218571
_cell_angle_alpha   89.70810073
_cell_angle_beta   90.00000000
_cell_angle_gamma   90.00000000
_symmetry_Int_Tables_number   1
_chemical_formula_structural   Li4Tm4IrPt3
_chemical_formula_sum   'Li4 Tm4 Ir1 Pt3'
_cell_volume   228.57144451
_cell_formula_units_Z   1
loop_
 _symmetry_equiv_pos_site_id
 _symmetry_equiv_pos_as_xyz
  1  'x, y, z'
loop_
 _atom_site_type_symbol
 _atom_site_label
 _atom_site_symmetry_multiplicity
 _atom_site_fract_x
 _atom_site_fract_y
 _atom_site_fract_z
 _atom_site_occupancy
  Li  Li0  1  0.250000  0.126068  0.058714  1
  Li  Li1  1  0.250000  0.624740  0.442999  1
  Li  Li2  1  0.750000  0.874769  0.941868  1
  Li  Li3  1  0.750000  0.373946  0.555167  1
  Tm  Tm4  1  0.250000  0.051501  0.673031  1
  Tm  Tm5  1  0.250000  0.547826  0.822999  1
  Tm  Tm6  1  0.750000  0.960286  0.322335  1
  Tm  Tm7  1  0.750000  0.446716  0.183475  1
  Ir  Ir8  1  0.250000  0.241603  0.371533  1
  Pt  Pt9  1  0.250000  0.742707  0.126035  1
  Pt  Pt10  1  0.750000  0.754628  0.629084  1
  Pt  Pt11  1  0.750000  0.255210  0.872760  1
