# generated using pymatgen
data_Y4LuZn2Sb
_symmetry_space_group_name_H-M   'P 1'
_cell_length_a   8.57465850
_cell_length_b   8.57465802
_cell_length_c   8.57465973
_cell_angle_alpha   123.94581156
_cell_angle_beta   123.94580973
_cell_angle_gamma   83.29156084
_symmetry_Int_Tables_number   1
_chemical_formula_structural   Y4LuZn2Sb
_chemical_formula_sum   'Y8 Lu2 Zn4 Sb2'
_cell_volume   416.08033256
_cell_formula_units_Z   2
loop_
 _symmetry_equiv_pos_site_id
 _symmetry_equiv_pos_as_xyz
  1  'x, y, z'
loop_
 _atom_site_type_symbol
 _atom_site_label
 _atom_site_symmetry_multiplicity
 _atom_site_fract_x
 _atom_site_fract_y
 _atom_site_fract_z
 _atom_site_occupancy
  Y  Y0  1  0.512934  0.699241  0.500000  1
  Y  Y1  1  0.012934  0.512934  0.813693  1
  Y  Y2  1  0.699241  0.199241  0.186307  1
  Y  Y3  1  0.987066  0.487066  0.186307  1
  Y  Y4  1  0.199241  0.012934  0.500000  1
  Y  Y5  1  0.487066  0.300759  0.500000  1
  Y  Y6  1  0.800759  0.987066  0.500000  1
  Y  Y7  1  0.300759  0.800759  0.813693  1
  Lu  Lu8  1  0.000000  0.000000  0.000000  1
  Lu  Lu9  1  0.500000  0.500000  0.000000  1
  Zn  Zn10  1  0.363581  0.863581  0.227162  1
  Zn  Zn11  1  0.863581  0.636419  0.500000  1
  Zn  Zn12  1  0.636419  0.136419  0.772838  1
  Zn  Zn13  1  0.136419  0.363581  0.500000  1
  Sb  Sb14  1  0.750000  0.750000  0.000000  1
  Sb  Sb15  1  0.250000  0.250000  0.000000  1
