# generated using pymatgen
data_Tm12InFe3Bi
_symmetry_space_group_name_H-M   'P 1'
_cell_length_a   8.27769595
_cell_length_b   8.27770609
_cell_length_c   8.27769483
_cell_angle_alpha   108.25747350
_cell_angle_beta   108.74811797
_cell_angle_gamma   111.42623313
_symmetry_Int_Tables_number   1
_chemical_formula_structural   Tm12InFe3Bi
_chemical_formula_sum   'Tm12 In1 Fe3 Bi1'
_cell_volume   436.23324994
_cell_formula_units_Z   1
loop_
 _symmetry_equiv_pos_site_id
 _symmetry_equiv_pos_as_xyz
  1  'x, y, z'
loop_
 _atom_site_type_symbol
 _atom_site_label
 _atom_site_symmetry_multiplicity
 _atom_site_fract_x
 _atom_site_fract_y
 _atom_site_fract_z
 _atom_site_occupancy
  Tm  Tm0  1  0.190217  0.425963  0.235747  1
  Tm  Tm1  1  0.809783  0.574037  0.764253  1
  Tm  Tm2  1  0.190217  0.954470  0.764252  1
  Tm  Tm3  1  0.962106  0.194292  0.767813  1
  Tm  Tm4  1  0.809783  0.045530  0.235748  1
  Tm  Tm5  1  0.037894  0.805708  0.232187  1
  Tm  Tm6  1  0.426478  0.194292  0.232186  1
  Tm  Tm7  1  0.573522  0.805708  0.767814  1
  Tm  Tm8  1  0.303845  0.312067  0.615911  1
  Tm  Tm9  1  0.696155  0.687933  0.384089  1
  Tm  Tm10  1  0.696156  0.312067  0.008222  1
  Tm  Tm11  1  0.303844  0.687933  0.991778  1
  In  In12  1  0.000000  0.500000  0.500000  1
  Fe  Fe13  1  0.384788  0.384789  0.000000  1
  Fe  Fe14  1  0.615212  0.615211  0.000000  1
  Fe  Fe15  1  0.000000  0.000000  0.000000  1
  Bi  Bi16  1  0.500000  0.000000  0.500000  1
