# generated using pymatgen
data_Tb3LuCu4(PbS3)4
_symmetry_space_group_name_H-M   'P 1'
_cell_length_a   3.91615300
_cell_length_b   10.23520943
_cell_length_c   13.07100131
_cell_angle_alpha   89.17451981
_cell_angle_beta   90.00000000
_cell_angle_gamma   90.00000000
_symmetry_Int_Tables_number   1
_chemical_formula_structural   Tb3LuCu4(PbS3)4
_chemical_formula_sum   'Tb3 Lu1 Cu4 Pb4 S12'
_cell_volume   523.86594567
_cell_formula_units_Z   1
loop_
 _symmetry_equiv_pos_site_id
 _symmetry_equiv_pos_as_xyz
  1  'x, y, z'
loop_
 _atom_site_type_symbol
 _atom_site_label
 _atom_site_symmetry_multiplicity
 _atom_site_fract_x
 _atom_site_fract_y
 _atom_site_fract_z
 _atom_site_occupancy
  Tb  Tb0  1  0.250000  0.991018  0.746111  1
  Tb  Tb1  1  0.750000  0.509247  0.246106  1
  Tb  Tb2  1  0.250000  0.490918  0.753863  1
  Lu  Lu3  1  0.750000  0.009078  0.253794  1
  Cu  Cu4  1  0.750000  0.742999  0.721308  1
  Cu  Cu5  1  0.250000  0.256943  0.281500  1
  Cu  Cu6  1  0.750000  0.241493  0.777078  1
  Cu  Cu7  1  0.250000  0.758352  0.220123  1
  Pb  Pb8  1  0.750000  0.770769  0.004404  1
  Pb  Pb9  1  0.250000  0.231129  0.998549  1
  Pb  Pb10  1  0.750000  0.256978  0.494012  1
  Pb  Pb11  1  0.250000  0.741107  0.503059  1
  S  S12  1  0.750000  0.254907  0.176126  1
  S  S13  1  0.250000  0.741820  0.827942  1
  S  S14  1  0.750000  0.759881  0.324457  1
  S  S15  1  0.250000  0.243884  0.671617  1
  S  S16  1  0.750000  0.057068  0.885400  1
  S  S17  1  0.250000  0.949028  0.118609  1
  S  S18  1  0.750000  0.562525  0.614773  1
  S  S19  1  0.250000  0.439292  0.386115  1
  S  S20  1  0.750000  0.415172  0.888849  1
  S  S21  1  0.250000  0.583025  0.110074  1
  S  S22  1  0.750000  0.922142  0.610243  1
  S  S23  1  0.250000  0.071224  0.385887  1
