# generated using pymatgen
data_Ho4TaFeOs6
_symmetry_space_group_name_H-M   'P 1'
_cell_length_a   5.27626431
_cell_length_b   5.27626405
_cell_length_c   8.88762900
_cell_angle_alpha   90.00000000
_cell_angle_beta   90.00000000
_cell_angle_gamma   117.66539504
_symmetry_Int_Tables_number   1
_chemical_formula_structural   Ho4TaFeOs6
_chemical_formula_sum   'Ho4 Ta1 Fe1 Os6'
_cell_volume   219.13562347
_cell_formula_units_Z   1
loop_
 _symmetry_equiv_pos_site_id
 _symmetry_equiv_pos_as_xyz
  1  'x, y, z'
loop_
 _atom_site_type_symbol
 _atom_site_label
 _atom_site_symmetry_multiplicity
 _atom_site_fract_x
 _atom_site_fract_y
 _atom_site_fract_z
 _atom_site_occupancy
  Ho  Ho0  1  0.328142  0.671858  0.441710  1
  Ho  Ho1  1  0.667180  0.332820  0.568732  1
  Ho  Ho2  1  0.667180  0.332820  0.931268  1
  Ho  Ho3  1  0.328142  0.671858  0.058290  1
  Ta  Ta4  1  0.838178  0.161822  0.250000  1
  Fe  Fe5  1  0.167908  0.832092  0.750000  1
  Os  Os6  1  0.998754  0.001246  0.506864  1
  Os  Os7  1  0.998754  0.001246  0.993136  1
  Os  Os8  1  0.823921  0.652591  0.250000  1
  Os  Os9  1  0.347409  0.176079  0.250000  1
  Os  Os10  1  0.178478  0.344048  0.750000  1
  Os  Os11  1  0.655952  0.821522  0.750000  1
