# generated using pymatgen
data_Cs11K6Rb(GaBi4)2
_symmetry_space_group_name_H-M   'P 1'
_cell_length_a   11.36531600
_cell_length_b   11.38509062
_cell_length_c   11.86275582
_cell_angle_alpha   89.94474032
_cell_angle_beta   90.00000000
_cell_angle_gamma   119.94256083
_symmetry_Int_Tables_number   1
_chemical_formula_structural   Cs11K6Rb(GaBi4)2
_chemical_formula_sum   'Cs11 K6 Rb1 Ga2 Bi8'
_cell_volume   1330.10227936
_cell_formula_units_Z   1
loop_
 _symmetry_equiv_pos_site_id
 _symmetry_equiv_pos_as_xyz
  1  'x, y, z'
loop_
 _atom_site_type_symbol
 _atom_site_label
 _atom_site_symmetry_multiplicity
 _atom_site_fract_x
 _atom_site_fract_y
 _atom_site_fract_z
 _atom_site_occupancy
  Cs  Cs0  1  0.790666  0.209204  0.041381  1
  Cs  Cs1  1  0.418536  0.209204  0.041381  1
  Cs  Cs2  1  0.581091  0.790430  0.541376  1
  Cs  Cs3  1  0.209340  0.790430  0.541376  1
  Cs  Cs4  1  0.790695  0.581391  0.458703  1
  Cs  Cs5  1  0.790864  0.209341  0.458664  1
  Cs  Cs6  1  0.790690  0.581382  0.041416  1
  Cs  Cs7  1  0.418475  0.209341  0.458664  1
  Cs  Cs8  1  0.581350  0.790713  0.958634  1
  Cs  Cs9  1  0.209277  0.418552  0.958411  1
  Cs  Cs10  1  0.209365  0.790713  0.958634  1
  K  K11  1  0.119094  0.238187  0.250444  1
  K  K12  1  0.881352  0.119219  0.749819  1
  K  K13  1  0.237866  0.119219  0.749819  1
  K  K14  1  0.762056  0.881072  0.249999  1
  K  K15  1  0.119018  0.881072  0.249999  1
  K  K16  1  0.881089  0.762179  0.749970  1
  Rb  Rb17  1  0.208860  0.417718  0.540917  1
  Ga  Ga18  1  0.333350  0.666702  0.250190  1
  Ga  Ga19  1  0.666450  0.332900  0.749657  1
  Bi  Bi20  1  0.474438  0.525076  0.250499  1
  Bi  Bi21  1  0.950087  0.475108  0.749748  1
  Bi  Bi22  1  0.525329  0.050660  0.750022  1
  Bi  Bi23  1  0.474644  0.949286  0.249950  1
  Bi  Bi24  1  0.050640  0.525076  0.250499  1
  Bi  Bi25  1  0.525019  0.475108  0.749748  1
  Bi  Bi26  1  0.999937  0.999874  0.000013  1
  Bi  Bi27  1  0.000421  0.000841  0.500065  1
