# generated using pymatgen
data_Dy7Y4(Ho3Bi4)3
_symmetry_space_group_name_H-M   'P 1'
_cell_length_a   8.25420003
_cell_length_b   9.51287800
_cell_length_c   12.06072704
_cell_angle_alpha   89.99990427
_cell_angle_beta   90.00896872
_cell_angle_gamma   90.00099969
_symmetry_Int_Tables_number   1
_chemical_formula_structural   Dy7Y4(Ho3Bi4)3
_chemical_formula_sum   'Dy7 Y4 Ho9 Bi12'
_cell_volume   947.02272194
_cell_formula_units_Z   1
loop_
 _symmetry_equiv_pos_site_id
 _symmetry_equiv_pos_as_xyz
  1  'x, y, z'
loop_
 _atom_site_type_symbol
 _atom_site_label
 _atom_site_symmetry_multiplicity
 _atom_site_fract_x
 _atom_site_fract_y
 _atom_site_fract_z
 _atom_site_occupancy
  Dy  Dy0  1  0.186336  0.749966  0.719003  1
  Dy  Dy1  1  0.686329  0.750004  0.781030  1
  Dy  Dy2  1  0.813674  0.249969  0.280998  1
  Dy  Dy3  1  0.313636  0.250038  0.218997  1
  Dy  Dy4  1  0.193773  0.936853  0.440297  1
  Dy  Dy5  1  0.306253  0.063177  0.940304  1
  Dy  Dy6  1  0.806222  0.436853  0.559697  1
  Y  Y7  1  0.353988  0.749954  0.215218  1
  Y  Y8  1  0.853868  0.749949  0.284719  1
  Y  Y9  1  0.646041  0.249976  0.784746  1
  Y  Y10  1  0.146066  0.249988  0.715235  1
  Ho  Ho11  1  0.026034  0.749968  0.988631  1
  Ho  Ho12  1  0.526123  0.749994  0.511396  1
  Ho  Ho13  1  0.973833  0.250024  0.011395  1
  Ho  Ho14  1  0.473862  0.249981  0.488587  1
  Ho  Ho15  1  0.306265  0.436830  0.940318  1
  Ho  Ho16  1  0.806302  0.063171  0.559668  1
  Ho  Ho17  1  0.693741  0.936753  0.059672  1
  Ho  Ho18  1  0.193708  0.563168  0.440335  1
  Ho  Ho19  1  0.693778  0.563247  0.059705  1
  Bi  Bi20  1  0.433548  0.003633  0.673696  1
  Bi  Bi21  1  0.933535  0.496359  0.826356  1
  Bi  Bi22  1  0.566489  0.503632  0.326269  1
  Bi  Bi23  1  0.066454  0.996352  0.173679  1
  Bi  Bi24  1  0.566557  0.996345  0.326290  1
  Bi  Bi25  1  0.066488  0.503643  0.173664  1
  Bi  Bi26  1  0.433469  0.496352  0.673710  1
  Bi  Bi27  1  0.933437  0.003634  0.826311  1
  Bi  Bi28  1  0.409431  0.749717  0.957937  1
  Bi  Bi29  1  0.909315  0.750185  0.542109  1
  Bi  Bi30  1  0.590768  0.250109  0.042142  1
  Bi  Bi31  1  0.090676  0.250179  0.457887  1
