# generated using pymatgen
data_ThAl3Cu
_symmetry_space_group_name_H-M   'P 1'
_cell_length_a   4.24482369
_cell_length_b   4.24443348
_cell_length_c   6.11611629
_cell_angle_alpha   69.69682677
_cell_angle_beta   69.69487632
_cell_angle_gamma   90.00000202
_symmetry_Int_Tables_number   1
_chemical_formula_structural   ThAl3Cu
_chemical_formula_sum   'Th1 Al3 Cu1'
_cell_volume   96.01225263
_cell_formula_units_Z   1
loop_
 _symmetry_equiv_pos_site_id
 _symmetry_equiv_pos_as_xyz
  1  'x, y, z'
loop_
 _atom_site_type_symbol
 _atom_site_label
 _atom_site_symmetry_multiplicity
 _atom_site_fract_x
 _atom_site_fract_y
 _atom_site_fract_z
 _atom_site_occupancy
  Th  Th0  1  0.997153  0.997153  0.005694  1
  Al  Al1  1  0.396557  0.396557  0.206887  1
  Al  Al2  1  0.742680  0.242680  0.514639  1
  Al  Al3  1  0.242789  0.742789  0.514422  1
  Cu  Cu4  1  0.620821  0.620821  0.758357  1
