# generated using pymatgen
data_SmPa(ReN3)2
_symmetry_space_group_name_H-M   'P 1'
_cell_length_a   5.36763800
_cell_length_b   5.63062000
_cell_length_c   7.82786000
_cell_angle_alpha   90.00000000
_cell_angle_beta   90.00000000
_cell_angle_gamma   90.00000000
_symmetry_Int_Tables_number   1
_chemical_formula_structural   SmPa(ReN3)2
_chemical_formula_sum   'Sm2 Pa2 Re4 N12'
_cell_volume   236.58242943
_cell_formula_units_Z   2
loop_
 _symmetry_equiv_pos_site_id
 _symmetry_equiv_pos_as_xyz
  1  'x, y, z'
loop_
 _atom_site_type_symbol
 _atom_site_label
 _atom_site_symmetry_multiplicity
 _atom_site_fract_x
 _atom_site_fract_y
 _atom_site_fract_z
 _atom_site_occupancy
  Sm  Sm0  1  0.511637  0.553369  0.750000  1
  Sm  Sm1  1  0.988363  0.053369  0.750000  1
  Pa  Pa2  1  0.481857  0.430808  0.250000  1
  Pa  Pa3  1  0.018143  0.930808  0.250000  1
  Re  Re4  1  0.508491  0.002163  0.508172  1
  Re  Re5  1  0.991509  0.502163  0.991828  1
  Re  Re6  1  0.991509  0.502163  0.508172  1
  Re  Re7  1  0.508491  0.002163  0.991828  1
  N  N8  1  0.703345  0.291519  0.540277  1
  N  N9  1  0.308480  0.697397  0.062370  1
  N  N10  1  0.191520  0.197397  0.062370  1
  N  N11  1  0.425465  0.992427  0.750000  1
  N  N12  1  0.888192  0.541237  0.250000  1
  N  N13  1  0.308480  0.697397  0.437630  1
  N  N14  1  0.796655  0.791519  0.959723  1
  N  N15  1  0.703345  0.291519  0.959723  1
  N  N16  1  0.796655  0.791519  0.540277  1
  N  N17  1  0.074535  0.492427  0.750000  1
  N  N18  1  0.191520  0.197397  0.437630  1
  N  N19  1  0.611808  0.041237  0.250000  1
