# generated using pymatgen
data_Ca2GaFe3Cl16
_symmetry_space_group_name_H-M   'P 1'
_cell_length_a   7.33899290
_cell_length_b   7.42590638
_cell_length_c   13.59987375
_cell_angle_alpha   87.13285544
_cell_angle_beta   90.17410572
_cell_angle_gamma   90.11911812
_symmetry_Int_Tables_number   1
_chemical_formula_structural   Ca2GaFe3Cl16
_chemical_formula_sum   'Ca2 Ga1 Fe3 Cl16'
_cell_volume   740.24249371
_cell_formula_units_Z   1
loop_
 _symmetry_equiv_pos_site_id
 _symmetry_equiv_pos_as_xyz
  1  'x, y, z'
loop_
 _atom_site_type_symbol
 _atom_site_label
 _atom_site_symmetry_multiplicity
 _atom_site_fract_x
 _atom_site_fract_y
 _atom_site_fract_z
 _atom_site_occupancy
  Ca  Ca0  1  0.743007  0.998992  0.504057  1
  Ca  Ca1  1  0.257820  0.998130  0.004207  1
  Ga  Ga2  1  0.073043  0.436897  0.041490  1
  Fe  Fe3  1  0.926137  0.437080  0.538957  1
  Fe  Fe4  1  0.436894  0.855761  0.240955  1
  Fe  Fe5  1  0.563234  0.855875  0.740834  1
  Cl  Cl6  1  0.929138  0.465069  0.176319  1
  Cl  Cl7  1  0.068867  0.463657  0.675477  1
  Cl  Cl8  1  0.638141  0.342670  0.560239  1
  Cl  Cl9  1  0.361884  0.345032  0.058711  1
  Cl  Cl10  1  0.928325  0.696580  0.446728  1
  Cl  Cl11  1  0.071382  0.691632  0.945730  1
  Cl  Cl12  1  0.435422  0.845097  0.590862  1
  Cl  Cl13  1  0.564314  0.845359  0.091145  1
  Cl  Cl14  1  0.044412  0.211759  0.455223  1
  Cl  Cl15  1  0.957680  0.214328  0.954008  1
  Cl  Cl16  1  0.153818  0.946806  0.201373  1
  Cl  Cl17  1  0.846602  0.947002  0.702304  1
  Cl  Cl18  1  0.438474  0.600681  0.321930  1
  Cl  Cl19  1  0.561646  0.600505  0.821808  1
  Cl  Cl20  1  0.580583  0.069775  0.322758  1
  Cl  Cl21  1  0.419175  0.068512  0.822888  1
