# generated using pymatgen
data_PrNd(CrN3)2
_symmetry_space_group_name_H-M   'P 1'
_cell_length_a   7.16566150
_cell_length_b   7.16566160
_cell_length_c   5.98068776
_cell_angle_alpha   77.87908698
_cell_angle_beta   77.87909868
_cell_angle_gamma   87.91993472
_symmetry_Int_Tables_number   1
_chemical_formula_structural   PrNd(CrN3)2
_chemical_formula_sum   'Pr2 Nd2 Cr4 N12'
_cell_volume   293.53942873
_cell_formula_units_Z   2
loop_
 _symmetry_equiv_pos_site_id
 _symmetry_equiv_pos_as_xyz
  1  'x, y, z'
loop_
 _atom_site_type_symbol
 _atom_site_label
 _atom_site_symmetry_multiplicity
 _atom_site_fract_x
 _atom_site_fract_y
 _atom_site_fract_z
 _atom_site_occupancy
  Pr  Pr0  1  0.335282  0.664718  0.750000  1
  Pr  Pr1  1  0.664718  0.335282  0.250000  1
  Nd  Nd2  1  0.095102  0.904898  0.250000  1
  Nd  Nd3  1  0.904898  0.095102  0.750000  1
  Cr  Cr4  1  0.374491  0.199504  0.755991  1
  Cr  Cr5  1  0.625509  0.800496  0.244009  1
  Cr  Cr6  1  0.800496  0.625509  0.744009  1
  Cr  Cr7  1  0.199504  0.374491  0.255991  1
  N  N8  1  0.996606  0.770918  0.660521  1
  N  N9  1  0.864832  0.405035  0.842219  1
  N  N10  1  0.770918  0.996606  0.160521  1
  N  N11  1  0.135168  0.594965  0.157781  1
  N  N12  1  0.003394  0.229082  0.339479  1
  N  N13  1  0.229082  0.003394  0.839479  1
  N  N14  1  0.594965  0.135168  0.657781  1
  N  N15  1  0.632807  0.679660  0.994556  1
  N  N16  1  0.367193  0.320340  0.005444  1
  N  N17  1  0.405035  0.864832  0.342219  1
  N  N18  1  0.679660  0.632807  0.494556  1
  N  N19  1  0.320340  0.367193  0.505444  1
