# generated using pymatgen
data_CaLaZnNi2
_symmetry_space_group_name_H-M   'P 1'
_cell_length_a   5.53269536
_cell_length_b   5.53269493
_cell_length_c   5.53269521
_cell_angle_alpha   134.52857372
_cell_angle_beta   120.99266929
_cell_angle_gamma   77.51446031
_symmetry_Int_Tables_number   1
_chemical_formula_structural   CaLaZnNi2
_chemical_formula_sum   'Ca1 La1 Zn1 Ni2'
_cell_volume   100.54780145
_cell_formula_units_Z   1
loop_
 _symmetry_equiv_pos_site_id
 _symmetry_equiv_pos_as_xyz
  1  'x, y, z'
loop_
 _atom_site_type_symbol
 _atom_site_label
 _atom_site_symmetry_multiplicity
 _atom_site_fract_x
 _atom_site_fract_y
 _atom_site_fract_z
 _atom_site_occupancy
  Ca  Ca0  1  0.698056  0.198056  0.500000  1
  La  La1  1  0.299879  0.799879  0.500000  1
  Zn  Zn2  1  0.003202  0.003202  0.000000  1
  Ni  Ni3  1  0.741359  0.499431  0.241928  1
  Ni  Ni4  1  0.257504  0.499431  0.758072  1
