# generated using pymatgen
data_Ca7LaYb2Si6F
_symmetry_space_group_name_H-M   'P 1'
_cell_length_a   9.10157266
_cell_length_b   9.10157285
_cell_length_c   9.08224842
_cell_angle_alpha   130.06849292
_cell_angle_beta   130.06849288
_cell_angle_gamma   73.35936612
_symmetry_Int_Tables_number   1
_chemical_formula_structural   Ca7LaYb2Si6F
_chemical_formula_sum   'Ca7 La1 Yb2 Si6 F1'
_cell_volume   429.96731061
_cell_formula_units_Z   1
loop_
 _symmetry_equiv_pos_site_id
 _symmetry_equiv_pos_as_xyz
  1  'x, y, z'
loop_
 _atom_site_type_symbol
 _atom_site_label
 _atom_site_symmetry_multiplicity
 _atom_site_fract_x
 _atom_site_fract_y
 _atom_site_fract_z
 _atom_site_occupancy
  Ca  Ca0  1  0.288812  0.288812  0.357772  1
  Ca  Ca1  1  0.712428  0.069264  0.000433  1
  Ca  Ca2  1  0.069264  0.712428  0.000433  1
  Ca  Ca3  1  0.563146  0.563146  0.335150  1
  Ca  Ca4  1  0.228530  0.228530  0.662904  1
  Ca  Ca5  1  0.253092  0.747891  0.500302  1
  Ca  Ca6  1  0.747891  0.253092  0.500302  1
  La  La7  1  0.928952  0.928952  0.639603  1
  Yb  Yb8  1  0.765651  0.433855  0.998667  1
  Yb  Yb9  1  0.433855  0.765652  0.998667  1
  Si  Si10  1  0.001471  0.502841  0.501148  1
  Si  Si11  1  0.502841  0.001471  0.501148  1
  Si  Si12  1  0.133308  0.359823  0.998591  1
  Si  Si13  1  0.359823  0.133308  0.998591  1
  Si  Si14  1  0.864142  0.864142  0.229401  1
  Si  Si15  1  0.641710  0.641710  0.776776  1
  F  F16  1  0.505086  0.505086  0.000115  1
