# generated using pymatgen
data_LaSm6MnI12
_symmetry_space_group_name_H-M   'P 1'
_cell_length_a   10.03440775
_cell_length_b   9.85987390
_cell_length_c   10.03929782
_cell_angle_alpha   106.59719591
_cell_angle_beta   106.99405811
_cell_angle_gamma   107.20428984
_symmetry_Int_Tables_number   1
_chemical_formula_structural   LaSm6MnI12
_chemical_formula_sum   'La1 Sm6 Mn1 I12'
_cell_volume   828.71758093
_cell_formula_units_Z   1
loop_
 _symmetry_equiv_pos_site_id
 _symmetry_equiv_pos_as_xyz
  1  'x, y, z'
loop_
 _atom_site_type_symbol
 _atom_site_label
 _atom_site_symmetry_multiplicity
 _atom_site_fract_x
 _atom_site_fract_y
 _atom_site_fract_z
 _atom_site_occupancy
  La  La0  1  0.912871  0.729607  0.978588  1
  Sm  Sm1  1  0.976780  0.903632  0.701970  1
  Sm  Sm2  1  0.699966  0.975419  0.903146  1
  Sm  Sm3  1  0.090333  0.277371  0.022804  1
  Sm  Sm4  1  0.023080  0.096199  0.299399  1
  Sm  Sm5  1  0.300413  0.020894  0.097039  1
  Sm  Sm6  1  0.500006  0.501373  0.498932  1
  Mn  Mn7  1  0.992712  0.977276  0.999235  1
  I  I8  1  0.781622  0.318701  0.929300  1
  I  I9  1  0.928712  0.778985  0.327213  1
  I  I10  1  0.318720  0.930505  0.776609  1
  I  I11  1  0.234122  0.683947  0.076678  1
  I  I12  1  0.075779  0.230804  0.690026  1
  I  I13  1  0.683142  0.075542  0.223998  1
  I  I14  1  0.528022  0.612217  0.831217  1
  I  I15  1  0.835140  0.534423  0.605472  1
  I  I16  1  0.616869  0.845304  0.539082  1
  I  I17  1  0.457564  0.385974  0.159434  1
  I  I18  1  0.160993  0.463130  0.378439  1
  I  I19  1  0.383152  0.158696  0.461423  1
