# generated using pymatgen
data_Y5In4NiRu
_symmetry_space_group_name_H-M   'P 1'
_cell_length_a   3.61743100
_cell_length_b   8.08605223
_cell_length_c   18.32289600
_cell_angle_alpha   89.88521070
_cell_angle_beta   90.00000000
_cell_angle_gamma   90.00000000
_symmetry_Int_Tables_number   1
_chemical_formula_structural   Y5In4NiRu
_chemical_formula_sum   'Y10 In8 Ni2 Ru2'
_cell_volume   535.95711798
_cell_formula_units_Z   2
loop_
 _symmetry_equiv_pos_site_id
 _symmetry_equiv_pos_as_xyz
  1  'x, y, z'
loop_
 _atom_site_type_symbol
 _atom_site_label
 _atom_site_symmetry_multiplicity
 _atom_site_fract_x
 _atom_site_fract_y
 _atom_site_fract_z
 _atom_site_occupancy
  Y  Y0  1  0.000000  0.881341  0.087809  1
  Y  Y1  1  0.000000  0.757997  0.279997  1
  Y  Y2  1  0.000000  0.747781  0.778547  1
  Y  Y3  1  0.000000  0.383287  0.410719  1
  Y  Y4  1  0.000000  0.118659  0.912191  1
  Y  Y5  1  0.000000  0.242003  0.720003  1
  Y  Y6  1  0.000000  0.500000  0.000000  1
  Y  Y7  1  0.000000  0.252219  0.221453  1
  Y  Y8  1  0.000000  0.616713  0.589281  1
  Y  Y9  1  0.000000  0.000000  0.500000  1
  In  In10  1  0.500000  0.205117  0.069548  1
  In  In11  1  0.500000  0.426442  0.847471  1
  In  In12  1  0.500000  0.573558  0.152529  1
  In  In13  1  0.500000  0.071347  0.349155  1
  In  In14  1  0.500000  0.928653  0.650845  1
  In  In15  1  0.500000  0.794883  0.930452  1
  In  In16  1  0.500000  0.704916  0.432769  1
  In  In17  1  0.500000  0.295084  0.567231  1
  Ni  Ni18  1  0.500000  0.521998  0.696022  1
  Ni  Ni19  1  0.500000  0.478002  0.303978  1
  Ru  Ru20  1  0.500000  0.979441  0.196376  1
  Ru  Ru21  1  0.500000  0.020559  0.803624  1
