# generated using pymatgen
data_HoLu5Al24Ru5Pt3
_symmetry_space_group_name_H-M   'P 1'
_cell_length_a   8.79721528
_cell_length_b   8.78551841
_cell_length_c   9.49465515
_cell_angle_alpha   90.11732281
_cell_angle_beta   89.80380071
_cell_angle_gamma   119.89638974
_symmetry_Int_Tables_number   1
_chemical_formula_structural   HoLu5Al24Ru5Pt3
_chemical_formula_sum   'Ho1 Lu5 Al24 Ru5 Pt3'
_cell_volume   636.16875856
_cell_formula_units_Z   1
loop_
 _symmetry_equiv_pos_site_id
 _symmetry_equiv_pos_as_xyz
  1  'x, y, z'
loop_
 _atom_site_type_symbol
 _atom_site_label
 _atom_site_symmetry_multiplicity
 _atom_site_fract_x
 _atom_site_fract_y
 _atom_site_fract_z
 _atom_site_occupancy
  Ho  Ho0  1  0.809044  0.192737  0.750045  1
  Lu  Lu1  1  0.195185  0.390556  0.250969  1
  Lu  Lu2  1  0.804094  0.609347  0.749321  1
  Lu  Lu3  1  0.611495  0.803427  0.251620  1
  Lu  Lu4  1  0.388877  0.196974  0.748510  1
  Lu  Lu5  1  0.192211  0.804762  0.250558  1
  Al  Al6  1  0.335983  0.664434  0.032580  1
  Al  Al7  1  0.663720  0.336007  0.969108  1
  Al  Al8  1  0.669471  0.338464  0.528871  1
  Al  Al9  1  0.330854  0.662056  0.470178  1
  Al  Al10  1  0.164595  0.327575  0.576860  1
  Al  Al11  1  0.836354  0.673215  0.422054  1
  Al  Al12  1  0.674559  0.831521  0.577446  1
  Al  Al13  1  0.831724  0.674905  0.079985  1
  Al  Al14  1  0.325058  0.167894  0.421620  1
  Al  Al15  1  0.168795  0.325895  0.920931  1
  Al  Al16  1  0.157343  0.832903  0.577873  1
  Al  Al17  1  0.324206  0.167739  0.078950  1
  Al  Al18  1  0.842516  0.167190  0.420950  1
  Al  Al19  1  0.674850  0.831589  0.922009  1
  Al  Al20  1  0.837335  0.160970  0.081141  1
  Al  Al21  1  0.162184  0.838997  0.919884  1
  Al  Al22  1  0.562501  0.127360  0.249804  1
  Al  Al23  1  0.436405  0.871942  0.750120  1
  Al  Al24  1  0.874691  0.438376  0.252905  1
  Al  Al25  1  0.125462  0.562216  0.746613  1
  Al  Al26  1  0.559877  0.439651  0.249470  1
  Al  Al27  1  0.439773  0.560473  0.750421  1
  Al  Al28  1  0.999889  0.998318  0.250070  1
  Al  Al29  1  0.002047  0.999977  0.749802  1
  Ru  Ru30  1  0.499788  0.500344  0.000116  1
  Ru  Ru31  1  0.000441  0.500533  0.499196  1
  Ru  Ru32  1  0.500073  0.500237  0.499889  1
  Ru  Ru33  1  0.999610  0.000334  0.999819  1
  Ru  Ru34  1  0.999981  0.000425  0.500024  1
  Pt  Pt35  1  0.498987  0.999874  0.000439  1
  Pt  Pt36  1  0.000455  0.500939  0.000254  1
  Pt  Pt37  1  0.499568  0.999845  0.499595  1
