# generated using pymatgen
data_Eu8Si12Pt3Rh
_symmetry_space_group_name_H-M   'P 1'
_cell_length_a   8.28458600
_cell_length_b   8.28458606
_cell_length_c   8.68073300
_cell_angle_alpha   90.00000000
_cell_angle_beta   90.00000000
_cell_angle_gamma   119.99999978
_symmetry_Int_Tables_number   1
_chemical_formula_structural   Eu8Si12Pt3Rh
_chemical_formula_sum   'Eu8 Si12 Pt3 Rh1'
_cell_volume   515.97499471
_cell_formula_units_Z   1
loop_
 _symmetry_equiv_pos_site_id
 _symmetry_equiv_pos_as_xyz
  1  'x, y, z'
loop_
 _atom_site_type_symbol
 _atom_site_label
 _atom_site_symmetry_multiplicity
 _atom_site_fract_x
 _atom_site_fract_y
 _atom_site_fract_z
 _atom_site_occupancy
  Eu  Eu0  1  0.000000  0.000000  0.750402  1
  Eu  Eu1  1  0.000000  0.000000  0.249651  1
  Eu  Eu2  1  0.498562  0.501438  0.752182  1
  Eu  Eu3  1  0.498562  0.997123  0.752182  1
  Eu  Eu4  1  0.002877  0.501438  0.752182  1
  Eu  Eu5  1  0.499621  0.500379  0.247828  1
  Eu  Eu6  1  0.000759  0.500379  0.247828  1
  Eu  Eu7  1  0.499621  0.999241  0.247828  1
  Si  Si8  1  0.835596  0.164404  0.999459  1
  Si  Si9  1  0.835596  0.671191  0.999459  1
  Si  Si10  1  0.328809  0.164404  0.999459  1
  Si  Si11  1  0.834483  0.165517  0.500606  1
  Si  Si12  1  0.834483  0.668967  0.500606  1
  Si  Si13  1  0.331033  0.165517  0.500606  1
  Si  Si14  1  0.165187  0.834813  0.499438  1
  Si  Si15  1  0.669627  0.834813  0.499438  1
  Si  Si16  1  0.165187  0.330373  0.499438  1
  Si  Si17  1  0.167351  0.832649  0.000514  1
  Si  Si18  1  0.665298  0.832649  0.000514  1
  Si  Si19  1  0.167351  0.334702  0.000514  1
  Pt  Pt20  1  0.666667  0.333333  0.998833  1
  Pt  Pt21  1  0.666667  0.333333  0.500998  1
  Pt  Pt22  1  0.333333  0.666667  0.498818  1
  Rh  Rh23  1  0.333333  0.666667  0.001215  1
