# generated using pymatgen
data_TiI2Br
_symmetry_space_group_name_H-M   'P 1'
_cell_length_a   6.32443100
_cell_length_b   7.62592600
_cell_length_c   13.43459100
_cell_angle_alpha   90.00000000
_cell_angle_beta   90.00000000
_cell_angle_gamma   90.00000000
_symmetry_Int_Tables_number   1
_chemical_formula_structural   TiI2Br
_chemical_formula_sum   'Ti4 I8 Br4'
_cell_volume   647.94552507
_cell_formula_units_Z   4
loop_
 _symmetry_equiv_pos_site_id
 _symmetry_equiv_pos_as_xyz
  1  'x, y, z'
loop_
 _atom_site_type_symbol
 _atom_site_label
 _atom_site_symmetry_multiplicity
 _atom_site_fract_x
 _atom_site_fract_y
 _atom_site_fract_z
 _atom_site_occupancy
  Ti  Ti0  1  0.276531  0.249347  0.500065  1
  Ti  Ti1  1  0.723469  0.249347  0.500065  1
  Ti  Ti2  1  0.776531  0.750653  0.000065  1
  Ti  Ti3  1  0.223469  0.750653  0.000065  1
  I  I4  1  0.000000  0.595685  0.151964  1
  I  I5  1  0.500000  0.404315  0.651964  1
  I  I6  1  0.500000  0.897302  0.854632  1
  I  I7  1  0.000000  0.102698  0.354632  1
  I  I8  1  0.000000  0.094234  0.641301  1
  I  I9  1  0.500000  0.905766  0.141301  1
  I  I10  1  0.500000  0.457598  0.993940  1
  I  I11  1  0.000000  0.542402  0.493940  1
  Br  Br12  1  0.500000  0.383483  0.361565  1
  Br  Br13  1  0.000000  0.616517  0.861565  1
  Br  Br14  1  0.500000  0.972749  0.496469  1
  Br  Br15  1  0.000000  0.027251  0.996469  1
