# generated using pymatgen
data_Cd6Pd9Au
_symmetry_space_group_name_H-M   'P 1'
_cell_length_a   7.12706534
_cell_length_b   7.12706518
_cell_length_c   7.12706497
_cell_angle_alpha   106.06024060
_cell_angle_beta   105.97803033
_cell_angle_gamma   116.62077817
_symmetry_Int_Tables_number   1
_chemical_formula_structural   Cd6Pd9Au
_chemical_formula_sum   'Cd6 Pd9 Au1'
_cell_volume   275.38946526
_cell_formula_units_Z   1
loop_
 _symmetry_equiv_pos_site_id
 _symmetry_equiv_pos_as_xyz
  1  'x, y, z'
loop_
 _atom_site_type_symbol
 _atom_site_label
 _atom_site_symmetry_multiplicity
 _atom_site_fract_x
 _atom_site_fract_y
 _atom_site_fract_z
 _atom_site_occupancy
  Cd  Cd0  1  0.500000  0.000000  0.500000  1
  Cd  Cd1  1  0.500000  0.500000  0.000000  1
  Cd  Cd2  1  0.237704  0.243919  0.481624  1
  Cd  Cd3  1  0.762296  0.756081  0.518376  1
  Cd  Cd4  1  0.237704  0.756081  0.993785  1
  Cd  Cd5  1  0.762296  0.243919  0.006215  1
  Pd  Pd6  1  0.503342  0.254151  0.249190  1
  Pd  Pd7  1  0.496658  0.745849  0.750810  1
  Pd  Pd8  1  0.004960  0.254151  0.750810  1
  Pd  Pd9  1  0.258707  0.009355  0.750649  1
  Pd  Pd10  1  0.995040  0.745849  0.249190  1
  Pd  Pd11  1  0.741293  0.990645  0.249351  1
  Pd  Pd12  1  0.258707  0.508059  0.249351  1
  Pd  Pd13  1  0.741293  0.491941  0.750649  1
  Pd  Pd14  1  0.000000  0.000000  0.000000  1
  Au  Au15  1  0.000000  0.500000  0.500000  1
