# generated using pymatgen
data_Tb3Ce2Er5(Al2Ru3)2
_symmetry_space_group_name_H-M   'P 1'
_cell_length_a   8.43430774
_cell_length_b   8.34943064
_cell_length_c   8.31557007
_cell_angle_alpha   109.98044230
_cell_angle_beta   109.32784173
_cell_angle_gamma   110.25889145
_symmetry_Int_Tables_number   1
_chemical_formula_structural   Tb3Ce2Er5(Al2Ru3)2
_chemical_formula_sum   'Tb3 Ce2 Er5 Al4 Ru6'
_cell_volume   444.23595383
_cell_formula_units_Z   1
loop_
 _symmetry_equiv_pos_site_id
 _symmetry_equiv_pos_as_xyz
  1  'x, y, z'
loop_
 _atom_site_type_symbol
 _atom_site_label
 _atom_site_symmetry_multiplicity
 _atom_site_fract_x
 _atom_site_fract_y
 _atom_site_fract_z
 _atom_site_occupancy
  Tb  Tb0  1  0.780532  0.785511  0.777710  1
  Tb  Tb1  1  0.317443  0.566074  0.755061  1
  Tb  Tb2  1  0.751027  0.316443  0.568201  1
  Ce  Ce3  1  0.943230  0.251178  0.194729  1
  Ce  Ce4  1  0.196912  0.940974  0.251315  1
  Er  Er5  1  0.568167  0.747597  0.313539  1
  Er  Er6  1  0.719758  0.503139  0.000066  1
  Er  Er7  1  0.999552  0.719143  0.505804  1
  Er  Er8  1  0.500050  0.992732  0.714771  1
  Er  Er9  1  0.254404  0.187511  0.931495  1
  Al  Al10  1  0.414107  0.409968  0.406688  1
  Al  Al11  1  0.092438  0.492140  0.997841  1
  Al  Al12  1  0.998149  0.088794  0.502295  1
  Al  Al13  1  0.502485  0.011033  0.093438  1
  Ru  Ru14  1  0.868440  0.117146  0.741140  1
  Ru  Ru15  1  0.754144  0.902560  0.123788  1
  Ru  Ru16  1  0.127480  0.764043  0.907744  1
  Ru  Ru17  1  0.225264  0.594261  0.365357  1
  Ru  Ru18  1  0.359871  0.222702  0.597627  1
  Ru  Ru19  1  0.626547  0.387050  0.251388  1
