# generated using pymatgen
data_NaMo(SO4)2
_symmetry_space_group_name_H-M   'P 1'
_cell_length_a   4.95604118
_cell_length_b   8.87938213
_cell_length_c   8.86116650
_cell_angle_alpha   67.92064795
_cell_angle_beta   103.34333436
_cell_angle_gamma   76.48446658
_symmetry_Int_Tables_number   1
_chemical_formula_structural   NaMo(SO4)2
_chemical_formula_sum   'Na2 Mo2 S4 O16'
_cell_volume   328.64127561
_cell_formula_units_Z   2
loop_
 _symmetry_equiv_pos_site_id
 _symmetry_equiv_pos_as_xyz
  1  'x, y, z'
loop_
 _atom_site_type_symbol
 _atom_site_label
 _atom_site_symmetry_multiplicity
 _atom_site_fract_x
 _atom_site_fract_y
 _atom_site_fract_z
 _atom_site_occupancy
  Na  Na0  1  0.000000  0.250000  0.250000  1
  Na  Na1  1  0.000000  0.750000  0.750000  1
  Mo  Mo2  1  0.999999  0.500000  0.499999  1
  Mo  Mo3  1  0.000001  0.000000  0.000000  1
  S  S4  1  0.356611  0.564960  0.208358  1
  S  S5  1  0.356611  0.064961  0.708358  1
  S  S6  1  0.643389  0.435038  0.791641  1
  S  S7  1  0.643389  0.935038  0.291641  1
  O  O8  1  0.273225  0.437225  0.163786  1
  O  O9  1  0.273225  0.937225  0.663787  1
  O  O10  1  0.726775  0.562775  0.836215  1
  O  O11  1  0.726775  0.062776  0.336214  1
  O  O12  1  0.749456  0.406348  0.656746  1
  O  O13  1  0.749456  0.906349  0.156744  1
  O  O14  1  0.250545  0.593652  0.343255  1
  O  O15  1  0.250544  0.093651  0.843257  1
  O  O16  1  0.764560  0.261473  0.952714  1
  O  O17  1  0.764558  0.761475  0.452713  1
  O  O18  1  0.235440  0.738527  0.047286  1
  O  O19  1  0.235442  0.238525  0.547287  1
  O  O20  1  0.308809  0.489479  0.724798  1
  O  O21  1  0.308808  0.989480  0.224795  1
  O  O22  1  0.691192  0.510522  0.275202  1
  O  O23  1  0.691193  0.010521  0.775205  1
