# generated using pymatgen
data_Tb4Dy4Lu4Co5Sn
_symmetry_space_group_name_H-M   'P 1'
_cell_length_a   8.22789014
_cell_length_b   8.22788859
_cell_length_c   8.22788935
_cell_angle_alpha   107.07292877
_cell_angle_beta   110.54462242
_cell_angle_gamma   110.82253422
_symmetry_Int_Tables_number   1
_chemical_formula_structural   Tb4Dy4Lu4Co5Sn
_chemical_formula_sum   'Tb4 Dy4 Lu4 Co5 Sn1'
_cell_volume   428.22564506
_cell_formula_units_Z   1
loop_
 _symmetry_equiv_pos_site_id
 _symmetry_equiv_pos_as_xyz
  1  'x, y, z'
loop_
 _atom_site_type_symbol
 _atom_site_label
 _atom_site_symmetry_multiplicity
 _atom_site_fract_x
 _atom_site_fract_y
 _atom_site_fract_z
 _atom_site_occupancy
  Tb  Tb0  1  0.479152  0.292077  0.187075  1
  Tb  Tb1  1  0.105003  0.292077  0.812925  1
  Tb  Tb2  1  0.894997  0.707923  0.187075  1
  Tb  Tb3  1  0.520848  0.707923  0.812925  1
  Dy  Dy4  1  0.192918  0.208985  0.401903  1
  Dy  Dy5  1  0.807082  0.791015  0.598097  1
  Dy  Dy6  1  0.192918  0.791015  0.983932  1
  Dy  Dy7  1  0.807082  0.208985  0.016068  1
  Lu  Lu8  1  0.308768  0.623874  0.315107  1
  Lu  Lu9  1  0.308768  0.993662  0.684893  1
  Lu  Lu10  1  0.691232  0.376126  0.684893  1
  Lu  Lu11  1  0.691232  0.006338  0.315107  1
  Co  Co12  1  0.500000  0.613626  0.113626  1
  Co  Co13  1  0.500000  0.386374  0.886374  1
  Co  Co14  1  0.378406  0.000000  0.378406  1
  Co  Co15  1  0.621594  0.000000  0.621594  1
  Co  Co16  1  0.000000  0.000000  0.000000  1
  Sn  Sn17  1  0.000000  0.500000  0.500000  1
