# generated using pymatgen
data_Tb13Yb2Y5(Tl3Ru)2
_symmetry_space_group_name_H-M   'P 1'
_cell_length_a   9.82108008
_cell_length_b   9.82107986
_cell_length_c   9.81958600
_cell_angle_alpha   90.00000000
_cell_angle_beta   90.00000000
_cell_angle_gamma   120.01641141
_symmetry_Int_Tables_number   1
_chemical_formula_structural   Tb13Yb2Y5(Tl3Ru)2
_chemical_formula_sum   'Tb13 Yb2 Y5 Tl6 Ru2'
_cell_volume   820.10688960
_cell_formula_units_Z   1
loop_
 _symmetry_equiv_pos_site_id
 _symmetry_equiv_pos_as_xyz
  1  'x, y, z'
loop_
 _atom_site_type_symbol
 _atom_site_label
 _atom_site_symmetry_multiplicity
 _atom_site_fract_x
 _atom_site_fract_y
 _atom_site_fract_z
 _atom_site_occupancy
  Tb  Tb0  1  0.210129  0.789871  0.435626  1
  Tb  Tb1  1  0.210048  0.420153  0.435573  1
  Tb  Tb2  1  0.579847  0.789952  0.435573  1
  Tb  Tb3  1  0.789968  0.210032  0.564462  1
  Tb  Tb4  1  0.789831  0.579761  0.564466  1
  Tb  Tb5  1  0.420239  0.210169  0.564466  1
  Tb  Tb6  1  0.789968  0.210032  0.935538  1
  Tb  Tb7  1  0.789831  0.579761  0.935534  1
  Tb  Tb8  1  0.420239  0.210169  0.935534  1
  Tb  Tb9  1  0.210129  0.789871  0.064374  1
  Tb  Tb10  1  0.210048  0.420153  0.064427  1
  Tb  Tb11  1  0.579847  0.789952  0.064427  1
  Tb  Tb12  1  0.539359  0.460641  0.250000  1
  Yb  Yb13  1  0.000025  0.999975  0.500052  1
  Yb  Yb14  1  0.000025  0.999975  0.999948  1
  Y  Y15  1  0.539652  0.078919  0.250000  1
  Y  Y16  1  0.921081  0.460348  0.250000  1
  Y  Y17  1  0.460577  0.539423  0.750000  1
  Y  Y18  1  0.460637  0.921335  0.750000  1
  Y  Y19  1  0.078665  0.539363  0.750000  1
  Tl  Tl20  1  0.882376  0.117624  0.250000  1
  Tl  Tl21  1  0.882710  0.765135  0.250000  1
  Tl  Tl22  1  0.234865  0.117290  0.250000  1
  Tl  Tl23  1  0.117646  0.882354  0.750000  1
  Tl  Tl24  1  0.117507  0.235219  0.750000  1
  Tl  Tl25  1  0.764781  0.882493  0.750000  1
  Ru  Ru26  1  0.333403  0.666597  0.250000  1
  Ru  Ru27  1  0.666568  0.333432  0.750000  1
