# generated using pymatgen
data_CaAs12IrOs3
_symmetry_space_group_name_H-M   'P 1'
_cell_length_a   7.47122824
_cell_length_b   7.49279349
_cell_length_c   7.47122887
_cell_angle_alpha   109.52969293
_cell_angle_beta   109.41268030
_cell_angle_gamma   109.52970347
_symmetry_Int_Tables_number   1
_chemical_formula_structural   CaAs12IrOs3
_chemical_formula_sum   'Ca1 As12 Ir1 Os3'
_cell_volume   321.73031083
_cell_formula_units_Z   1
loop_
 _symmetry_equiv_pos_site_id
 _symmetry_equiv_pos_as_xyz
  1  'x, y, z'
loop_
 _atom_site_type_symbol
 _atom_site_label
 _atom_site_symmetry_multiplicity
 _atom_site_fract_x
 _atom_site_fract_y
 _atom_site_fract_z
 _atom_site_occupancy
  Ca  Ca0  1  0.000000  0.000000  0.000000  1
  As  As1  1  0.347882  0.199075  0.851232  1
  As  As2  1  0.652118  0.800925  0.148768  1
  As  As3  1  0.649294  0.503352  0.851029  1
  As  As4  1  0.350706  0.496648  0.148971  1
  As  As5  1  0.201734  0.854057  0.350706  1
  As  As6  1  0.798266  0.145943  0.649294  1
  As  As7  1  0.503350  0.851193  0.652118  1
  As  As8  1  0.496650  0.148807  0.347882  1
  As  As9  1  0.851029  0.347676  0.201734  1
  As  As10  1  0.148971  0.652324  0.798266  1
  As  As11  1  0.851232  0.652156  0.503350  1
  As  As12  1  0.148768  0.347844  0.496650  1
  Ir  Ir13  1  0.000000  0.500000  0.000000  1
  Os  Os14  1  0.000000  0.000000  0.500000  1
  Os  Os15  1  0.500000  0.000000  0.000000  1
  Os  Os16  1  0.500000  0.500000  0.500000  1
