# generated using pymatgen
data_YLu5Co17P12Os
_symmetry_space_group_name_H-M   'P 1'
_cell_length_a   3.67033700
_cell_length_b   10.45259100
_cell_length_c   12.13977100
_cell_angle_alpha   90.00000000
_cell_angle_beta   90.00000000
_cell_angle_gamma   90.00000000
_symmetry_Int_Tables_number   1
_chemical_formula_structural   YLu5Co17P12Os
_chemical_formula_sum   'Y1 Lu5 Co17 P12 Os1'
_cell_volume   465.73662685
_cell_formula_units_Z   1
loop_
 _symmetry_equiv_pos_site_id
 _symmetry_equiv_pos_as_xyz
  1  'x, y, z'
loop_
 _atom_site_type_symbol
 _atom_site_label
 _atom_site_symmetry_multiplicity
 _atom_site_fract_x
 _atom_site_fract_y
 _atom_site_fract_z
 _atom_site_occupancy
  Y  Y0  1  0.500000  0.000000  0.477783  1
  Lu  Lu1  1  0.000000  0.500000  0.525122  1
  Lu  Lu2  1  0.500000  0.817767  0.206979  1
  Lu  Lu3  1  0.500000  0.182233  0.206979  1
  Lu  Lu4  1  0.000000  0.682536  0.793865  1
  Lu  Lu5  1  0.000000  0.317464  0.793865  1
  Co  Co6  1  0.000000  0.000000  0.840595  1
  Co  Co7  1  0.500000  0.500000  0.703057  1
  Co  Co8  1  0.000000  0.000000  0.294470  1
  Co  Co9  1  0.000000  0.500000  0.987496  1
  Co  Co10  1  0.500000  0.000000  0.015048  1
  Co  Co11  1  0.500000  0.332606  0.990615  1
  Co  Co12  1  0.500000  0.667394  0.990615  1
  Co  Co13  1  0.000000  0.166980  0.006264  1
  Co  Co14  1  0.000000  0.833020  0.006264  1
  Co  Co15  1  0.500000  0.298435  0.430232  1
  Co  Co16  1  0.500000  0.701565  0.430232  1
  Co  Co17  1  0.000000  0.204089  0.568945  1
  Co  Co18  1  0.000000  0.795911  0.568945  1
  Co  Co19  1  0.500000  0.877849  0.709926  1
  Co  Co20  1  0.500000  0.122151  0.709926  1
  Co  Co21  1  0.000000  0.621197  0.290812  1
  Co  Co22  1  0.000000  0.378803  0.290812  1
  P  P23  1  0.500000  0.500000  0.879461  1
  P  P24  1  0.000000  0.000000  0.118106  1
  P  P25  1  0.500000  0.500000  0.352457  1
  P  P26  1  0.000000  0.000000  0.655929  1
  P  P27  1  0.500000  0.312729  0.617162  1
  P  P28  1  0.500000  0.687271  0.617162  1
  P  P29  1  0.000000  0.187899  0.382549  1
  P  P30  1  0.000000  0.812101  0.382549  1
  P  P31  1  0.500000  0.848477  0.891495  1
  P  P32  1  0.500000  0.151523  0.891495  1
  P  P33  1  0.000000  0.656373  0.106947  1
  P  P34  1  0.000000  0.343627  0.106947  1
  Os  Os35  1  0.500000  0.500000  0.158892  1
