# generated using pymatgen
data_Yb4Si12Ni3Pd8Pt9
_symmetry_space_group_name_H-M   'P 1'
_cell_length_a   3.93368100
_cell_length_b   19.43066547
_cell_length_c   7.33428628
_cell_angle_alpha   89.79279956
_cell_angle_beta   90.00000000
_cell_angle_gamma   90.00000000
_symmetry_Int_Tables_number   1
_chemical_formula_structural   Yb4Si12Ni3Pd8Pt9
_chemical_formula_sum   'Yb4 Si12 Ni3 Pd8 Pt9'
_cell_volume   560.58546232
_cell_formula_units_Z   1
loop_
 _symmetry_equiv_pos_site_id
 _symmetry_equiv_pos_as_xyz
  1  'x, y, z'
loop_
 _atom_site_type_symbol
 _atom_site_label
 _atom_site_symmetry_multiplicity
 _atom_site_fract_x
 _atom_site_fract_y
 _atom_site_fract_z
 _atom_site_occupancy
  Yb  Yb0  1  0.750000  0.642019  0.122042  1
  Yb  Yb1  1  0.250000  0.357733  0.874023  1
  Yb  Yb2  1  0.250000  0.861501  0.627058  1
  Yb  Yb3  1  0.750000  0.139113  0.372699  1
  Si  Si4  1  0.750000  0.742584  0.633683  1
  Si  Si5  1  0.250000  0.258577  0.366484  1
  Si  Si6  1  0.250000  0.761548  0.135095  1
  Si  Si7  1  0.750000  0.238377  0.866869  1
  Si  Si8  1  0.750000  0.925586  0.350951  1
  Si  Si9  1  0.250000  0.074407  0.649238  1
  Si  Si10  1  0.250000  0.576467  0.844908  1
  Si  Si11  1  0.750000  0.422377  0.141434  1
  Si  Si12  1  0.750000  0.922730  0.905509  1
  Si  Si13  1  0.250000  0.077320  0.093314  1
  Si  Si14  1  0.250000  0.581092  0.406262  1
  Si  Si15  1  0.750000  0.417796  0.601361  1
  Ni  Ni16  1  0.250000  0.491294  0.623089  1
  Ni  Ni17  1  0.250000  0.993062  0.880274  1
  Ni  Ni18  1  0.750000  0.006748  0.119415  1
  Pd  Pd19  1  0.750000  0.801022  0.933455  1
  Pd  Pd20  1  0.250000  0.199273  0.066817  1
  Pd  Pd21  1  0.250000  0.701901  0.434962  1
  Pd  Pd22  1  0.750000  0.297359  0.566902  1
  Pd  Pd23  1  0.750000  0.616438  0.640931  1
  Pd  Pd24  1  0.250000  0.385205  0.376212  1
  Pd  Pd25  1  0.250000  0.888673  0.122665  1
  Pd  Pd26  1  0.750000  0.111559  0.877626  1
  Pt  Pt27  1  0.750000  0.802446  0.334305  1
  Pt  Pt28  1  0.250000  0.197409  0.665714  1
  Pt  Pt29  1  0.250000  0.701275  0.837230  1
  Pt  Pt30  1  0.750000  0.299629  0.164505  1
  Pt  Pt31  1  0.750000  0.992968  0.633562  1
  Pt  Pt32  1  0.250000  0.007485  0.365755  1
  Pt  Pt33  1  0.250000  0.507852  0.121543  1
  Pt  Pt34  1  0.750000  0.490984  0.862997  1
  Pt  Pt35  1  0.750000  0.508188  0.381109  1
