# generated using pymatgen
data_AgOs(OF2)2
_symmetry_space_group_name_H-M   'P 1'
_cell_length_a   5.27154400
_cell_length_b   5.27154400
_cell_length_c   9.85693600
_cell_angle_alpha   90.00000000
_cell_angle_beta   90.00000000
_cell_angle_gamma   90.00000000
_symmetry_Int_Tables_number   1
_chemical_formula_structural   AgOs(OF2)2
_chemical_formula_sum   'Ag2 Os2 O4 F8'
_cell_volume   273.91613074
_cell_formula_units_Z   2
loop_
 _symmetry_equiv_pos_site_id
 _symmetry_equiv_pos_as_xyz
  1  'x, y, z'
loop_
 _atom_site_type_symbol
 _atom_site_label
 _atom_site_symmetry_multiplicity
 _atom_site_fract_x
 _atom_site_fract_y
 _atom_site_fract_z
 _atom_site_occupancy
  Ag  Ag0  1  0.000000  0.500000  0.400310  1
  Ag  Ag1  1  0.500000  0.000000  0.599690  1
  Os  Os2  1  0.000000  0.500000  0.783316  1
  Os  Os3  1  0.500000  0.000000  0.216684  1
  O  O4  1  0.188441  0.311559  0.883399  1
  O  O5  1  0.311559  0.811559  0.116601  1
  O  O6  1  0.811559  0.688441  0.883399  1
  O  O7  1  0.688441  0.188441  0.116601  1
  F  F8  1  0.666588  0.166588  0.381226  1
  F  F9  1  0.833412  0.666588  0.618774  1
  F  F10  1  0.333412  0.833412  0.381226  1
  F  F11  1  0.258855  0.758855  0.767874  1
  F  F12  1  0.741145  0.241145  0.767874  1
  F  F13  1  0.241145  0.258855  0.232126  1
  F  F14  1  0.758855  0.741145  0.232126  1
  F  F15  1  0.166588  0.333412  0.618774  1
