# generated using pymatgen
data_Y4ErBi2Te
_symmetry_space_group_name_H-M   'P 1'
_cell_length_a   8.19167900
_cell_length_b   9.47082800
_cell_length_c   12.03232700
_cell_angle_alpha   90.00000000
_cell_angle_beta   90.00000000
_cell_angle_gamma   90.00000000
_symmetry_Int_Tables_number   1
_chemical_formula_structural   Y4ErBi2Te
_chemical_formula_sum   'Y16 Er4 Bi8 Te4'
_cell_volume   933.49178684
_cell_formula_units_Z   4
loop_
 _symmetry_equiv_pos_site_id
 _symmetry_equiv_pos_as_xyz
  1  'x, y, z'
loop_
 _atom_site_type_symbol
 _atom_site_label
 _atom_site_symmetry_multiplicity
 _atom_site_fract_x
 _atom_site_fract_y
 _atom_site_fract_z
 _atom_site_occupancy
  Y  Y0  1  0.180168  0.750000  0.717297  1
  Y  Y1  1  0.680168  0.750000  0.782703  1
  Y  Y2  1  0.819832  0.250000  0.282703  1
  Y  Y3  1  0.319832  0.250000  0.217297  1
  Y  Y4  1  0.309685  0.438765  0.941766  1
  Y  Y5  1  0.809685  0.061235  0.558234  1
  Y  Y6  1  0.690315  0.938765  0.058234  1
  Y  Y7  1  0.190315  0.561235  0.441766  1
  Y  Y8  1  0.690315  0.561235  0.058234  1
  Y  Y9  1  0.190315  0.938765  0.441766  1
  Y  Y10  1  0.309685  0.061235  0.941766  1
  Y  Y11  1  0.809685  0.438765  0.558234  1
  Y  Y12  1  0.355106  0.750000  0.212769  1
  Y  Y13  1  0.855106  0.750000  0.287231  1
  Y  Y14  1  0.644894  0.250000  0.787231  1
  Y  Y15  1  0.144894  0.250000  0.712769  1
  Er  Er16  1  0.024971  0.750000  0.989093  1
  Er  Er17  1  0.524971  0.750000  0.510907  1
  Er  Er18  1  0.975029  0.250000  0.010907  1
  Er  Er19  1  0.475029  0.250000  0.489093  1
  Bi  Bi20  1  0.431172  0.003903  0.672860  1
  Bi  Bi21  1  0.931172  0.496097  0.827140  1
  Bi  Bi22  1  0.568828  0.503903  0.327140  1
  Bi  Bi23  1  0.068828  0.996097  0.172860  1
  Bi  Bi24  1  0.568828  0.996097  0.327140  1
  Bi  Bi25  1  0.068828  0.503903  0.172860  1
  Bi  Bi26  1  0.431172  0.496097  0.672860  1
  Bi  Bi27  1  0.931172  0.003903  0.827140  1
  Te  Te28  1  0.407167  0.750000  0.958348  1
  Te  Te29  1  0.907167  0.750000  0.541652  1
  Te  Te30  1  0.592833  0.250000  0.041652  1
  Te  Te31  1  0.092833  0.250000  0.458348  1
