# generated using pymatgen
data_AcAgP7Ru12
_symmetry_space_group_name_H-M   'P 1'
_cell_length_a   9.52766700
_cell_length_b   9.52766604
_cell_length_c   3.92635600
_cell_angle_alpha   90.00000000
_cell_angle_beta   90.00000000
_cell_angle_gamma   119.99999197
_symmetry_Int_Tables_number   1
_chemical_formula_structural   AcAgP7Ru12
_chemical_formula_sum   'Ac1 Ag1 P7 Ru12'
_cell_volume   308.66929998
_cell_formula_units_Z   1
loop_
 _symmetry_equiv_pos_site_id
 _symmetry_equiv_pos_as_xyz
  1  'x, y, z'
loop_
 _atom_site_type_symbol
 _atom_site_label
 _atom_site_symmetry_multiplicity
 _atom_site_fract_x
 _atom_site_fract_y
 _atom_site_fract_z
 _atom_site_occupancy
  Ac  Ac0  1  0.333333  0.666667  0.000000  1
  Ag  Ag1  1  0.666667  0.333333  0.500000  1
  P  P2  1  0.610881  0.708099  0.500000  1
  P  P3  1  0.000000  0.000000  0.000000  1
  P  P4  1  0.291901  0.902782  0.500000  1
  P  P5  1  0.097218  0.389119  0.500000  1
  P  P6  1  0.902697  0.591872  0.000000  1
  P  P7  1  0.408128  0.310825  0.000000  1
  P  P8  1  0.689175  0.097303  0.000000  1
  Ru  Ru9  1  0.563314  0.958324  0.500000  1
  Ru  Ru10  1  0.395012  0.436686  0.500000  1
  Ru  Ru11  1  0.909752  0.113355  0.500000  1
  Ru  Ru12  1  0.203604  0.090248  0.500000  1
  Ru  Ru13  1  0.886645  0.796396  0.500000  1
  Ru  Ru14  1  0.726453  0.874608  0.000000  1
  Ru  Ru15  1  0.125392  0.851845  0.000000  1
  Ru  Ru16  1  0.148155  0.273547  0.000000  1
  Ru  Ru17  1  0.438597  0.088408  0.000000  1
  Ru  Ru18  1  0.911592  0.350189  0.000000  1
  Ru  Ru19  1  0.649811  0.561403  0.000000  1
  Ru  Ru20  1  0.041676  0.604988  0.500000  1
