# generated using pymatgen
data_TbLu(ZrPt)2
_symmetry_space_group_name_H-M   'P 1'
_cell_length_a   4.68283300
_cell_length_b   7.12004088
_cell_length_c   8.23934832
_cell_angle_alpha   89.35847330
_cell_angle_beta   90.00000000
_cell_angle_gamma   90.00000000
_symmetry_Int_Tables_number   1
_chemical_formula_structural   TbLu(ZrPt)2
_chemical_formula_sum   'Tb2 Lu2 Zr4 Pt4'
_cell_volume   274.69882183
_cell_formula_units_Z   2
loop_
 _symmetry_equiv_pos_site_id
 _symmetry_equiv_pos_as_xyz
  1  'x, y, z'
loop_
 _atom_site_type_symbol
 _atom_site_label
 _atom_site_symmetry_multiplicity
 _atom_site_fract_x
 _atom_site_fract_y
 _atom_site_fract_z
 _atom_site_occupancy
  Tb  Tb0  1  0.250000  0.517666  0.176409  1
  Tb  Tb1  1  0.750000  0.482334  0.823591  1
  Lu  Lu2  1  0.750000  0.980093  0.676850  1
  Lu  Lu3  1  0.250000  0.019907  0.323150  1
  Zr  Zr4  1  0.250000  0.648052  0.577104  1
  Zr  Zr5  1  0.750000  0.351948  0.422896  1
  Zr  Zr6  1  0.750000  0.852978  0.079578  1
  Zr  Zr7  1  0.250000  0.147022  0.920422  1
  Pt  Pt8  1  0.250000  0.773573  0.898465  1
  Pt  Pt9  1  0.750000  0.226427  0.101535  1
  Pt  Pt10  1  0.750000  0.735112  0.407299  1
  Pt  Pt11  1  0.250000  0.264888  0.592701  1
