# generated using pymatgen
data_YTm11(SiPd)12
_symmetry_space_group_name_H-M   'P 1'
_cell_length_a   4.34680500
_cell_length_b   7.41511401
_cell_length_c   20.90504500
_cell_angle_alpha   89.99757376
_cell_angle_beta   90.00000000
_cell_angle_gamma   90.00006954
_symmetry_Int_Tables_number   1
_chemical_formula_structural   YTm11(SiPd)12
_chemical_formula_sum   'Y1 Tm11 Si12 Pd12'
_cell_volume   673.81255208
_cell_formula_units_Z   1
loop_
 _symmetry_equiv_pos_site_id
 _symmetry_equiv_pos_as_xyz
  1  'x, y, z'
loop_
 _atom_site_type_symbol
 _atom_site_label
 _atom_site_symmetry_multiplicity
 _atom_site_fract_x
 _atom_site_fract_y
 _atom_site_fract_z
 _atom_site_occupancy
  Y  Y0  1  0.250025  0.790366  0.500940  1
  Tm  Tm1  1  0.250003  0.705315  0.332618  1
  Tm  Tm2  1  0.749997  0.294179  0.667296  1
  Tm  Tm3  1  0.750003  0.205708  0.167082  1
  Tm  Tm4  1  0.249995  0.794363  0.832953  1
  Tm  Tm5  1  0.250011  0.792126  0.166507  1
  Tm  Tm6  1  0.749991  0.207896  0.833435  1
  Tm  Tm7  1  0.750003  0.291953  0.333144  1
  Tm  Tm8  1  0.249992  0.707727  0.666915  1
  Tm  Tm9  1  0.249998  0.711028  0.000917  1
  Tm  Tm10  1  0.749999  0.288918  0.999038  1
  Tm  Tm11  1  0.749994  0.211924  0.498987  1
  Si  Si12  1  0.249996  0.089270  0.071582  1
  Si  Si13  1  0.750002  0.910735  0.928361  1
  Si  Si14  1  0.749999  0.588554  0.427951  1
  Si  Si15  1  0.250002  0.410500  0.571664  1
  Si  Si16  1  0.249994  0.085049  0.271323  1
  Si  Si17  1  0.750004  0.914894  0.728746  1
  Si  Si18  1  0.749994  0.585206  0.228547  1
  Si  Si19  1  0.250006  0.414945  0.771510  1
  Si  Si20  1  0.249989  0.087353  0.395131  1
  Si  Si21  1  0.750009  0.913146  0.604832  1
  Si  Si22  1  0.749991  0.587073  0.104345  1
  Si  Si23  1  0.250008  0.412990  0.895618  1
  Pd  Pd24  1  0.249992  0.416624  0.237158  1
  Pd  Pd25  1  0.750003  0.583332  0.762772  1
  Pd  Pd26  1  0.749995  0.916616  0.262668  1
  Pd  Pd27  1  0.250004  0.083368  0.737349  1
  Pd  Pd28  1  0.250003  0.415277  0.437182  1
  Pd  Pd29  1  0.749998  0.580793  0.563509  1
  Pd  Pd30  1  0.750005  0.916864  0.062468  1
  Pd  Pd31  1  0.249995  0.083173  0.937533  1
  Pd  Pd32  1  0.249987  0.419609  0.093375  1
  Pd  Pd33  1  0.750013  0.580402  0.906606  1
  Pd  Pd34  1  0.749987  0.920427  0.405718  1
  Pd  Pd35  1  0.250012  0.082297  0.594219  1
