# generated using pymatgen
data_Y6Zn20AsRu3
_symmetry_space_group_name_H-M   'P 1'
_cell_length_a   9.04596838
_cell_length_b   8.96589757
_cell_length_c   8.94133700
_cell_angle_alpha   60.65625008
_cell_angle_beta   59.80229769
_cell_angle_gamma   59.73605966
_symmetry_Int_Tables_number   1
_chemical_formula_structural   Y6Zn20AsRu3
_chemical_formula_sum   'Y6 Zn20 As1 Ru3'
_cell_volume   513.45730776
_cell_formula_units_Z   1
loop_
 _symmetry_equiv_pos_site_id
 _symmetry_equiv_pos_as_xyz
  1  'x, y, z'
loop_
 _atom_site_type_symbol
 _atom_site_label
 _atom_site_symmetry_multiplicity
 _atom_site_fract_x
 _atom_site_fract_y
 _atom_site_fract_z
 _atom_site_occupancy
  Y  Y0  1  0.727403  0.272607  0.287197  1
  Y  Y1  1  0.729335  0.270693  0.717694  1
  Y  Y2  1  0.718804  0.718825  0.281219  1
  Y  Y3  1  0.272597  0.727393  0.712803  1
  Y  Y4  1  0.270665  0.729307  0.282306  1
  Y  Y5  1  0.281196  0.281175  0.718781  1
  Zn  Zn6  1  0.623111  0.122250  0.130116  1
  Zn  Zn7  1  0.122236  0.623155  0.124614  1
  Zn  Zn8  1  0.130340  0.126950  0.618301  1
  Zn  Zn9  1  0.126952  0.130254  0.124490  1
  Zn  Zn10  1  0.376889  0.877750  0.869884  1
  Zn  Zn11  1  0.877764  0.376845  0.875386  1
  Zn  Zn12  1  0.869660  0.873050  0.381699  1
  Zn  Zn13  1  0.873048  0.869746  0.875510  1
  Zn  Zn14  1  0.500000  0.000000  0.000000  1
  Zn  Zn15  1  0.500000  0.500000  0.000000  1
  Zn  Zn16  1  0.000000  0.500000  0.500000  1
  Zn  Zn17  1  0.000000  0.000000  0.000000  1
  Zn  Zn18  1  0.011273  0.329620  0.327534  1
  Zn  Zn19  1  0.329658  0.011242  0.331679  1
  Zn  Zn20  1  0.330806  0.338272  0.999380  1
  Zn  Zn21  1  0.338297  0.330727  0.331596  1
  Zn  Zn22  1  0.988727  0.670380  0.672466  1
  Zn  Zn23  1  0.670342  0.988758  0.668321  1
  Zn  Zn24  1  0.669194  0.661728  0.000620  1
  Zn  Zn25  1  0.661703  0.669273  0.668404  1
  As  As26  1  0.500000  0.500000  0.500000  1
  Ru  Ru27  1  0.500000  0.000000  0.500000  1
  Ru  Ru28  1  0.000000  0.500000  0.000000  1
  Ru  Ru29  1  0.000000  0.000000  0.500000  1
