# generated using pymatgen
data_La15Ho5(Ir2Rh)4
_symmetry_space_group_name_H-M   'P 1'
_cell_length_a   11.31735175
_cell_length_b   11.30946501
_cell_length_c   6.59435213
_cell_angle_alpha   89.99363273
_cell_angle_beta   90.17922627
_cell_angle_gamma   90.19861700
_symmetry_Int_Tables_number   1
_chemical_formula_structural   La15Ho5(Ir2Rh)4
_chemical_formula_sum   'La15 Ho5 Ir8 Rh4'
_cell_volume   844.02298349
_cell_formula_units_Z   1
loop_
 _symmetry_equiv_pos_site_id
 _symmetry_equiv_pos_as_xyz
  1  'x, y, z'
loop_
 _atom_site_type_symbol
 _atom_site_label
 _atom_site_symmetry_multiplicity
 _atom_site_fract_x
 _atom_site_fract_y
 _atom_site_fract_z
 _atom_site_occupancy
  La  La0  1  0.287041  0.913473  0.891800  1
  La  La1  1  0.712640  0.089668  0.891921  1
  La  La2  1  0.713403  0.910855  0.390903  1
  La  La3  1  0.589192  0.787372  0.891384  1
  La  La4  1  0.585670  0.211450  0.392061  1
  La  La5  1  0.409515  0.790263  0.391481  1
  La  La6  1  0.408194  0.210857  0.891260  1
  La  La7  1  0.212936  0.408145  0.607331  1
  La  La8  1  0.212178  0.589740  0.108434  1
  La  La9  1  0.787375  0.409595  0.109001  1
  La  La10  1  0.787236  0.590208  0.609821  1
  La  La11  1  0.909979  0.712643  0.108830  1
  La  La12  1  0.910480  0.287362  0.609361  1
  La  La13  1  0.089734  0.712772  0.607855  1
  La  La14  1  0.092214  0.284825  0.111912  1
  Ho  Ho15  1  0.289460  0.088352  0.394778  1
  Ho  Ho16  1  0.003682  0.002079  0.497734  1
  Ho  Ho17  1  0.000354  0.999616  0.999246  1
  Ho  Ho18  1  0.499328  0.499178  0.999137  1
  Ho  Ho19  1  0.499105  0.500232  0.498553  1
  Ir  Ir20  1  0.851916  0.149254  0.249172  1
  Ir  Ir21  1  0.851339  0.851539  0.749506  1
  Ir  Ir22  1  0.150054  0.148103  0.746167  1
  Ir  Ir23  1  0.151693  0.855691  0.253379  1
  Ir  Ir24  1  0.648567  0.351216  0.749574  1
  Ir  Ir25  1  0.649262  0.648149  0.249058  1
  Ir  Ir26  1  0.350117  0.347157  0.251353  1
  Ir  Ir27  1  0.351209  0.648205  0.750081  1
  Rh  Rh28  1  0.499109  0.000377  0.122095  1
  Rh  Rh29  1  0.496330  0.001654  0.617342  1
  Rh  Rh30  1  0.999982  0.500310  0.880198  1
  Rh  Rh31  1  0.000706  0.499658  0.379273  1
