# generated using pymatgen
data_Ti3ZnCo4
_symmetry_space_group_name_H-M   'P 1'
_cell_length_a   7.23700503
_cell_length_b   7.23700552
_cell_length_c   7.23700517
_cell_angle_alpha   33.42023632
_cell_angle_beta   33.42022965
_cell_angle_gamma   33.42023880
_symmetry_Int_Tables_number   1
_chemical_formula_structural   Ti3ZnCo4
_chemical_formula_sum   'Ti3 Zn1 Co4'
_cell_volume   102.39321420
_cell_formula_units_Z   1
loop_
 _symmetry_equiv_pos_site_id
 _symmetry_equiv_pos_as_xyz
  1  'x, y, z'
loop_
 _atom_site_type_symbol
 _atom_site_label
 _atom_site_symmetry_multiplicity
 _atom_site_fract_x
 _atom_site_fract_y
 _atom_site_fract_z
 _atom_site_occupancy
  Ti  Ti0  1  0.255208  0.255208  0.255208  1
  Ti  Ti1  1  0.744792  0.744792  0.744792  1
  Ti  Ti2  1  0.500000  0.500000  0.500000  1
  Zn  Zn3  1  0.000000  0.000000  0.000000  1
  Co  Co4  1  0.620760  0.620760  0.620760  1
  Co  Co5  1  0.128129  0.128129  0.128129  1
  Co  Co6  1  0.871871  0.871871  0.871871  1
  Co  Co7  1  0.379240  0.379240  0.379240  1
