# generated using pymatgen
data_DyYBe2(Re2C)2
_symmetry_space_group_name_H-M   'P 1'
_cell_length_a   5.64644252
_cell_length_b   5.64644186
_cell_length_c   7.30011400
_cell_angle_alpha   90.00000000
_cell_angle_beta   90.00000000
_cell_angle_gamma   140.79842942
_symmetry_Int_Tables_number   1
_chemical_formula_structural   DyYBe2(Re2C)2
_chemical_formula_sum   'Dy1 Y1 Be2 Re4 C2'
_cell_volume   147.10628358
_cell_formula_units_Z   1
loop_
 _symmetry_equiv_pos_site_id
 _symmetry_equiv_pos_as_xyz
  1  'x, y, z'
loop_
 _atom_site_type_symbol
 _atom_site_label
 _atom_site_symmetry_multiplicity
 _atom_site_fract_x
 _atom_site_fract_y
 _atom_site_fract_z
 _atom_site_occupancy
  Dy  Dy0  1  0.535196  0.464804  0.250000  1
  Y  Y1  1  0.464718  0.535282  0.750000  1
  Be  Be2  1  0.257592  0.742408  0.250000  1
  Be  Be3  1  0.742311  0.257689  0.750000  1
  Re  Re4  1  0.820172  0.179828  0.062726  1
  Re  Re5  1  0.179840  0.820160  0.937511  1
  Re  Re6  1  0.179840  0.820160  0.562489  1
  Re  Re7  1  0.820172  0.179828  0.437274  1
  C  C8  1  0.000079  0.999921  0.000386  1
  C  C9  1  0.000079  0.999921  0.499614  1
