# generated using pymatgen
data_Ce3Th2Al2Tc3
_symmetry_space_group_name_H-M   'P 1'
_cell_length_a   8.52603179
_cell_length_b   8.52603249
_cell_length_c   8.52603343
_cell_angle_alpha   110.09916784
_cell_angle_beta   110.09917027
_cell_angle_gamma   110.09917121
_symmetry_Int_Tables_number   1
_chemical_formula_structural   Ce3Th2Al2Tc3
_chemical_formula_sum   'Ce6 Th4 Al4 Tc6'
_cell_volume   465.68819484
_cell_formula_units_Z   2
loop_
 _symmetry_equiv_pos_site_id
 _symmetry_equiv_pos_as_xyz
  1  'x, y, z'
loop_
 _atom_site_type_symbol
 _atom_site_label
 _atom_site_symmetry_multiplicity
 _atom_site_fract_x
 _atom_site_fract_y
 _atom_site_fract_z
 _atom_site_occupancy
  Ce  Ce0  1  0.713104  0.499298  0.998867  1
  Ce  Ce1  1  0.998867  0.713104  0.499298  1
  Ce  Ce2  1  0.499298  0.998867  0.713104  1
  Ce  Ce3  1  0.251070  0.196744  0.942532  1
  Ce  Ce4  1  0.942532  0.251070  0.196744  1
  Ce  Ce5  1  0.196744  0.942532  0.251070  1
  Th  Th6  1  0.783316  0.783316  0.783316  1
  Th  Th7  1  0.309875  0.558536  0.758300  1
  Th  Th8  1  0.758300  0.309875  0.558536  1
  Th  Th9  1  0.558536  0.758300  0.309875  1
  Al  Al10  1  0.399543  0.399543  0.399543  1
  Al  Al11  1  0.089075  0.495748  0.007121  1
  Al  Al12  1  0.007121  0.089075  0.495748  1
  Al  Al13  1  0.495748  0.007121  0.089075  1
  Tc  Tc14  1  0.887652  0.113997  0.745707  1
  Tc  Tc15  1  0.745707  0.887652  0.113997  1
  Tc  Tc16  1  0.113997  0.745707  0.887652  1
  Tc  Tc17  1  0.243441  0.619209  0.386864  1
  Tc  Tc18  1  0.386864  0.243441  0.619209  1
  Tc  Tc19  1  0.619209  0.386864  0.243441  1
