# generated using pymatgen
data_NaP3(PbO3)4
_symmetry_space_group_name_H-M   'P 1'
_cell_length_a   9.95804600
_cell_length_b   9.95804617
_cell_length_c   7.41161300
_cell_angle_alpha   90.00000000
_cell_angle_beta   90.00000000
_cell_angle_gamma   119.99999945
_symmetry_Int_Tables_number   1
_chemical_formula_structural   NaP3(PbO3)4
_chemical_formula_sum   'Na2 P6 Pb8 O24'
_cell_volume   636.49006921
_cell_formula_units_Z   2
loop_
 _symmetry_equiv_pos_site_id
 _symmetry_equiv_pos_as_xyz
  1  'x, y, z'
loop_
 _atom_site_type_symbol
 _atom_site_label
 _atom_site_symmetry_multiplicity
 _atom_site_fract_x
 _atom_site_fract_y
 _atom_site_fract_z
 _atom_site_occupancy
  Na  Na0  1  0.333333  0.666667  0.505353  1
  Na  Na1  1  0.666667  0.333333  0.494647  1
  P  P2  1  0.395434  0.021427  0.746999  1
  P  P3  1  0.604566  0.978573  0.253001  1
  P  P4  1  0.978573  0.374007  0.746999  1
  P  P5  1  0.021427  0.625993  0.253001  1
  P  P6  1  0.625993  0.604566  0.746999  1
  P  P7  1  0.374007  0.395434  0.253001  1
  Pb  Pb8  1  0.265366  0.263492  0.741299  1
  Pb  Pb9  1  0.734634  0.736508  0.258701  1
  Pb  Pb10  1  0.736508  0.001874  0.741299  1
  Pb  Pb11  1  0.263492  0.998126  0.258701  1
  Pb  Pb12  1  0.998126  0.734634  0.741299  1
  Pb  Pb13  1  0.001874  0.265366  0.258701  1
  Pb  Pb14  1  0.666667  0.333333  0.014222  1
  Pb  Pb15  1  0.333333  0.666667  0.985778  1
  O  O16  1  0.333188  0.074561  0.584191  1
  O  O17  1  0.666812  0.925439  0.415809  1
  O  O18  1  0.925439  0.258627  0.584191  1
  O  O19  1  0.646622  0.918425  0.079472  1
  O  O20  1  0.074561  0.741373  0.415809  1
  O  O21  1  0.353378  0.081575  0.920528  1
  O  O22  1  0.741373  0.666812  0.584191  1
  O  O23  1  0.081575  0.728197  0.079472  1
  O  O24  1  0.258627  0.333188  0.415809  1
  O  O25  1  0.918425  0.271803  0.920528  1
  O  O26  1  0.271803  0.353378  0.079472  1
  O  O27  1  0.728197  0.646622  0.920528  1
  O  O28  1  0.156960  0.482516  0.745836  1
  O  O29  1  0.843040  0.517484  0.254164  1
  O  O30  1  0.517484  0.674445  0.745836  1
  O  O31  1  0.482516  0.325555  0.254164  1
  O  O32  1  0.325555  0.843040  0.745836  1
  O  O33  1  0.674445  0.156960  0.254164  1
  O  O34  1  0.577624  0.106763  0.733866  1
  O  O35  1  0.422376  0.893237  0.266134  1
  O  O36  1  0.893237  0.470860  0.733866  1
  O  O37  1  0.106763  0.529140  0.266134  1
  O  O38  1  0.529140  0.422376  0.733866  1
  O  O39  1  0.470860  0.577624  0.266134  1
