# generated using pymatgen
data_LiCoAs3Rh4
_symmetry_space_group_name_H-M   'P 1'
_cell_length_a   3.82113000
_cell_length_b   11.12923500
_cell_length_c   12.88206400
_cell_angle_alpha   90.00000000
_cell_angle_beta   90.00000000
_cell_angle_gamma   90.00000000
_symmetry_Int_Tables_number   1
_chemical_formula_structural   LiCoAs3Rh4
_chemical_formula_sum   'Li4 Co4 As12 Rh16'
_cell_volume   547.82592230
_cell_formula_units_Z   4
loop_
 _symmetry_equiv_pos_site_id
 _symmetry_equiv_pos_as_xyz
  1  'x, y, z'
loop_
 _atom_site_type_symbol
 _atom_site_label
 _atom_site_symmetry_multiplicity
 _atom_site_fract_x
 _atom_site_fract_y
 _atom_site_fract_z
 _atom_site_occupancy
  Li  Li0  1  0.250000  0.584628  0.708175  1
  Li  Li1  1  0.250000  0.915372  0.208175  1
  Li  Li2  1  0.750000  0.415372  0.291825  1
  Li  Li3  1  0.750000  0.084628  0.791825  1
  Co  Co4  1  0.250000  0.465752  0.934369  1
  Co  Co5  1  0.250000  0.034248  0.434369  1
  Co  Co6  1  0.750000  0.534248  0.065631  1
  Co  Co7  1  0.750000  0.965752  0.565631  1
  As  As8  1  0.250000  0.421336  0.108439  1
  As  As9  1  0.250000  0.078664  0.608439  1
  As  As10  1  0.750000  0.578664  0.891561  1
  As  As11  1  0.750000  0.921336  0.391561  1
  As  As12  1  0.250000  0.268522  0.871651  1
  As  As13  1  0.250000  0.231478  0.371651  1
  As  As14  1  0.750000  0.731478  0.128349  1
  As  As15  1  0.750000  0.768522  0.628349  1
  As  As16  1  0.250000  0.597757  0.387987  1
  As  As17  1  0.250000  0.902243  0.887987  1
  As  As18  1  0.750000  0.402243  0.612013  1
  As  As19  1  0.750000  0.097757  0.112013  1
  Rh  Rh20  1  0.250000  0.712088  0.988407  1
  Rh  Rh21  1  0.250000  0.787912  0.488407  1
  Rh  Rh22  1  0.750000  0.287912  0.011593  1
  Rh  Rh23  1  0.750000  0.212088  0.511593  1
  Rh  Rh24  1  0.250000  0.407653  0.483525  1
  Rh  Rh25  1  0.250000  0.092347  0.983525  1
  Rh  Rh26  1  0.750000  0.592347  0.516475  1
  Rh  Rh27  1  0.750000  0.907653  0.016475  1
  Rh  Rh28  1  0.250000  0.225106  0.179699  1
  Rh  Rh29  1  0.250000  0.274894  0.679699  1
  Rh  Rh30  1  0.750000  0.774894  0.820301  1
  Rh  Rh31  1  0.750000  0.725106  0.320301  1
  Rh  Rh32  1  0.250000  0.888565  0.698902  1
  Rh  Rh33  1  0.250000  0.611435  0.198902  1
  Rh  Rh34  1  0.750000  0.111435  0.301098  1
  Rh  Rh35  1  0.750000  0.388565  0.801098  1
