# generated using pymatgen
data_Yb5Sc2ZnPt4
_symmetry_space_group_name_H-M   'P 1'
_cell_length_a   4.33800800
_cell_length_b   7.41261822
_cell_length_c   8.68469100
_cell_angle_alpha   87.44877223
_cell_angle_beta   90.00000000
_cell_angle_gamma   90.00000000
_symmetry_Int_Tables_number   1
_chemical_formula_structural   Yb5Sc2ZnPt4
_chemical_formula_sum   'Yb5 Sc2 Zn1 Pt4'
_cell_volume   278.98809788
_cell_formula_units_Z   1
loop_
 _symmetry_equiv_pos_site_id
 _symmetry_equiv_pos_as_xyz
  1  'x, y, z'
loop_
 _atom_site_type_symbol
 _atom_site_label
 _atom_site_symmetry_multiplicity
 _atom_site_fract_x
 _atom_site_fract_y
 _atom_site_fract_z
 _atom_site_occupancy
  Yb  Yb0  1  0.750000  0.631461  0.440808  1
  Yb  Yb1  1  0.250000  0.988488  0.335791  1
  Yb  Yb2  1  0.250000  0.459229  0.176395  1
  Yb  Yb3  1  0.750000  0.045420  0.666205  1
  Yb  Yb4  1  0.750000  0.526531  0.821866  1
  Sc  Sc5  1  0.250000  0.860259  0.933578  1
  Sc  Sc6  1  0.750000  0.137105  0.062911  1
  Zn  Zn7  1  0.250000  0.360817  0.572357  1
  Pt  Pt8  1  0.250000  0.226357  0.883712  1
  Pt  Pt9  1  0.250000  0.733692  0.640014  1
  Pt  Pt10  1  0.750000  0.772276  0.105883  1
  Pt  Pt11  1  0.750000  0.258364  0.360478  1
