# generated using pymatgen
data_Nd19Tm(SnSb)8
_symmetry_space_group_name_H-M   'P 1'
_cell_length_a   8.33658836
_cell_length_b   8.40045742
_cell_length_c   15.89131700
_cell_angle_alpha   90.00000000
_cell_angle_beta   90.00000000
_cell_angle_gamma   90.08661479
_symmetry_Int_Tables_number   1
_chemical_formula_structural   Nd19Tm(SnSb)8
_chemical_formula_sum   'Nd19 Tm1 Sn8 Sb8'
_cell_volume   1112.88602121
_cell_formula_units_Z   1
loop_
 _symmetry_equiv_pos_site_id
 _symmetry_equiv_pos_as_xyz
  1  'x, y, z'
loop_
 _atom_site_type_symbol
 _atom_site_label
 _atom_site_symmetry_multiplicity
 _atom_site_fract_x
 _atom_site_fract_y
 _atom_site_fract_z
 _atom_site_occupancy
  Nd  Nd0  1  0.040058  0.175159  0.395325  1
  Nd  Nd1  1  0.381444  0.837219  0.119987  1
  Nd  Nd2  1  0.117958  0.337921  0.618077  1
  Nd  Nd3  1  0.460807  0.677225  0.896582  1
  Nd  Nd4  1  0.882006  0.661932  0.119686  1
  Nd  Nd5  1  0.117958  0.337921  0.881923  1
  Nd  Nd6  1  0.709360  0.003440  0.250000  1
  Nd  Nd7  1  0.460807  0.677225  0.603418  1
  Nd  Nd8  1  0.290760  0.996895  0.750000  1
  Nd  Nd9  1  0.617405  0.163465  0.619424  1
  Nd  Nd10  1  0.790949  0.503653  0.750000  1
  Nd  Nd11  1  0.882006  0.661932  0.380314  1
  Nd  Nd12  1  0.040058  0.175159  0.104675  1
  Nd  Nd13  1  0.960266  0.823824  0.895464  1
  Nd  Nd14  1  0.617405  0.163465  0.880576  1
  Nd  Nd15  1  0.540300  0.323851  0.104736  1
  Nd  Nd16  1  0.381444  0.837219  0.380013  1
  Nd  Nd17  1  0.960266  0.823824  0.604536  1
  Nd  Nd18  1  0.540300  0.323851  0.395264  1
  Tm  Tm19  1  0.210843  0.497011  0.250000  1
  Sn  Sn20  1  0.658963  0.860112  0.750000  1
  Sn  Sn21  1  0.846023  0.360698  0.250000  1
  Sn  Sn22  1  0.575660  0.619354  0.250000  1
  Sn  Sn23  1  0.419746  0.379988  0.750000  1
  Sn  Sn24  1  0.159925  0.639601  0.750000  1
  Sn  Sn25  1  0.921050  0.121935  0.750000  1
  Sn  Sn26  1  0.339544  0.145354  0.250000  1
  Sn  Sn27  1  0.080030  0.876200  0.250000  1
  Sb  Sb28  1  0.774026  0.475635  0.545714  1
  Sb  Sb29  1  0.725225  0.974448  0.454418  1
  Sb  Sb30  1  0.224748  0.522415  0.449950  1
  Sb  Sb31  1  0.274329  0.024783  0.954496  1
  Sb  Sb32  1  0.774026  0.475635  0.954286  1
  Sb  Sb33  1  0.224748  0.522415  0.050050  1
  Sb  Sb34  1  0.274329  0.024783  0.545504  1
  Sb  Sb35  1  0.725225  0.974448  0.045582  1
