# generated using pymatgen
data_Ho4TcRu6W
_symmetry_space_group_name_H-M   'P 1'
_cell_length_a   5.54496982
_cell_length_b   5.16328176
_cell_length_c   9.05976000
_cell_angle_alpha   90.00000000
_cell_angle_beta   90.00000000
_cell_angle_gamma   122.68770213
_symmetry_Int_Tables_number   1
_chemical_formula_structural   Ho4TcRu6W
_chemical_formula_sum   'Ho4 Tc1 Ru6 W1'
_cell_volume   218.30376172
_cell_formula_units_Z   1
loop_
 _symmetry_equiv_pos_site_id
 _symmetry_equiv_pos_as_xyz
  1  'x, y, z'
loop_
 _atom_site_type_symbol
 _atom_site_label
 _atom_site_symmetry_multiplicity
 _atom_site_fract_x
 _atom_site_fract_y
 _atom_site_fract_z
 _atom_site_occupancy
  Ho  Ho0  1  0.672603  0.345891  0.564048  1
  Ho  Ho1  1  0.333453  0.666821  0.432503  1
  Ho  Ho2  1  0.333453  0.666821  0.067497  1
  Ho  Ho3  1  0.672603  0.345891  0.935952  1
  Tc  Tc4  1  0.826157  0.652528  0.250000  1
  Ru  Ru5  1  0.005496  0.010386  0.499347  1
  Ru  Ru6  1  0.005496  0.010386  0.000653  1
  Ru  Ru7  1  0.170297  0.819289  0.750000  1
  Ru  Ru8  1  0.650153  0.819268  0.750000  1
  Ru  Ru9  1  0.834053  0.170837  0.250000  1
  Ru  Ru10  1  0.335932  0.170449  0.250000  1
  W  W11  1  0.160304  0.321432  0.750000  1
