# generated using pymatgen
data_Cs12Rb6AlGaSb8
_symmetry_space_group_name_H-M   'P 1'
_cell_length_a   11.31598500
_cell_length_b   11.31598607
_cell_length_c   11.93482900
_cell_angle_alpha   90.00000000
_cell_angle_beta   90.00000000
_cell_angle_gamma   119.99999396
_symmetry_Int_Tables_number   1
_chemical_formula_structural   Cs12Rb6AlGaSb8
_chemical_formula_sum   'Cs12 Rb6 Al1 Ga1 Sb8'
_cell_volume   1323.52340653
_cell_formula_units_Z   1
loop_
 _symmetry_equiv_pos_site_id
 _symmetry_equiv_pos_as_xyz
  1  'x, y, z'
loop_
 _atom_site_type_symbol
 _atom_site_label
 _atom_site_symmetry_multiplicity
 _atom_site_fract_x
 _atom_site_fract_y
 _atom_site_fract_z
 _atom_site_occupancy
  Cs  Cs0  1  0.209122  0.418242  0.541949  1
  Cs  Cs1  1  0.790910  0.209090  0.041971  1
  Cs  Cs2  1  0.418178  0.209090  0.041971  1
  Cs  Cs3  1  0.581758  0.790878  0.541949  1
  Cs  Cs4  1  0.209122  0.790878  0.541949  1
  Cs  Cs5  1  0.790910  0.581822  0.458029  1
  Cs  Cs6  1  0.790910  0.209090  0.458029  1
  Cs  Cs7  1  0.790910  0.581822  0.041971  1
  Cs  Cs8  1  0.418178  0.209090  0.458029  1
  Cs  Cs9  1  0.581758  0.790878  0.958051  1
  Cs  Cs10  1  0.209122  0.418242  0.958051  1
  Cs  Cs11  1  0.209122  0.790878  0.958051  1
  Rb  Rb12  1  0.118905  0.237807  0.250000  1
  Rb  Rb13  1  0.881112  0.118888  0.750000  1
  Rb  Rb14  1  0.237774  0.118888  0.750000  1
  Rb  Rb15  1  0.762193  0.881095  0.250000  1
  Rb  Rb16  1  0.118905  0.881095  0.250000  1
  Rb  Rb17  1  0.881112  0.762226  0.750000  1
  Al  Al18  1  0.666667  0.333333  0.750000  1
  Ga  Ga19  1  0.333333  0.666667  0.250000  1
  Sb  Sb20  1  0.471726  0.528274  0.250000  1
  Sb  Sb21  1  0.943074  0.471537  0.750000  1
  Sb  Sb22  1  0.528463  0.056926  0.750000  1
  Sb  Sb23  1  0.471726  0.943451  0.250000  1
  Sb  Sb24  1  0.056549  0.528274  0.250000  1
  Sb  Sb25  1  0.528463  0.471537  0.750000  1
  Sb  Sb26  1  0.000000  0.000000  0.999986  1
  Sb  Sb27  1  0.000000  0.000000  0.500014  1
