# generated using pymatgen
data_Dy5Tm(LuAu2)2
_symmetry_space_group_name_H-M   'P 1'
_cell_length_a   4.89779500
_cell_length_b   7.11513028
_cell_length_c   8.88696408
_cell_angle_alpha   90.14822946
_cell_angle_beta   90.00000000
_cell_angle_gamma   90.00000000
_symmetry_Int_Tables_number   1
_chemical_formula_structural   Dy5Tm(LuAu2)2
_chemical_formula_sum   'Dy5 Tm1 Lu2 Au4'
_cell_volume   309.69588233
_cell_formula_units_Z   1
loop_
 _symmetry_equiv_pos_site_id
 _symmetry_equiv_pos_as_xyz
  1  'x, y, z'
loop_
 _atom_site_type_symbol
 _atom_site_label
 _atom_site_symmetry_multiplicity
 _atom_site_fract_x
 _atom_site_fract_y
 _atom_site_fract_z
 _atom_site_occupancy
  Dy  Dy0  1  0.750000  0.648093  0.420502  1
  Dy  Dy1  1  0.250000  0.484896  0.176791  1
  Dy  Dy2  1  0.250000  0.986856  0.322978  1
  Dy  Dy3  1  0.750000  0.515235  0.822984  1
  Dy  Dy4  1  0.750000  0.015893  0.677824  1
  Tm  Tm5  1  0.750000  0.148115  0.078155  1
  Lu  Lu6  1  0.250000  0.852136  0.921232  1
  Lu  Lu7  1  0.250000  0.352240  0.580012  1
  Au  Au8  1  0.250000  0.253009  0.898530  1
  Au  Au9  1  0.250000  0.754214  0.603375  1
  Au  Au10  1  0.750000  0.746250  0.097408  1
  Au  Au11  1  0.750000  0.243060  0.400210  1
