# generated using pymatgen
data_Tb3AlFe2Os3
_symmetry_space_group_name_H-M   'P 1'
_cell_length_a   5.31569983
_cell_length_b   5.30745361
_cell_length_c   13.03872527
_cell_angle_alpha   89.70757699
_cell_angle_beta   90.08584402
_cell_angle_gamma   120.10454288
_symmetry_Int_Tables_number   1
_chemical_formula_structural   Tb3AlFe2Os3
_chemical_formula_sum   'Tb6 Al2 Fe4 Os6'
_cell_volume   318.23502023
_cell_formula_units_Z   2
loop_
 _symmetry_equiv_pos_site_id
 _symmetry_equiv_pos_as_xyz
  1  'x, y, z'
loop_
 _atom_site_type_symbol
 _atom_site_label
 _atom_site_symmetry_multiplicity
 _atom_site_fract_x
 _atom_site_fract_y
 _atom_site_fract_z
 _atom_site_occupancy
  Tb  Tb0  1  0.336679  0.671663  0.921837  1
  Tb  Tb1  1  0.999999  0.999617  0.248009  1
  Tb  Tb2  1  0.675326  0.339346  0.584215  1
  Tb  Tb3  1  0.324674  0.660654  0.665785  1
  Tb  Tb4  1  0.000002  0.000383  0.001991  1
  Tb  Tb5  1  0.663321  0.328337  0.328163  1
  Al  Al6  1  0.670563  0.835984  0.457478  1
  Al  Al7  1  0.329437  0.164016  0.792522  1
  Fe  Fe8  1  0.500000  0.500000  0.125000  1
  Fe  Fe9  1  0.169774  0.838705  0.458481  1
  Fe  Fe10  1  0.830226  0.161295  0.791519  1
  Fe  Fe11  1  0.500000  0.000000  0.125000  1
  Os  Os12  1  0.170337  0.336773  0.456559  1
  Os  Os13  1  0.829663  0.663227  0.793441  1
  Os  Os14  1  0.331842  0.664851  0.291494  1
  Os  Os15  1  0.000000  0.000000  0.625000  1
  Os  Os16  1  0.668158  0.335149  0.958506  1
  Os  Os17  1  0.000000  0.500000  0.125000  1
