# generated using pymatgen
data_Th4SiNi2P3
_symmetry_space_group_name_H-M   'P 1'
_cell_length_a   4.09368500
_cell_length_b   4.09368557
_cell_length_c   14.74168700
_cell_angle_alpha   90.00000000
_cell_angle_beta   90.00000000
_cell_angle_gamma   120.00001962
_symmetry_Int_Tables_number   1
_chemical_formula_structural   Th4SiNi2P3
_chemical_formula_sum   'Th4 Si1 Ni2 P3'
_cell_volume   213.94721408
_cell_formula_units_Z   1
loop_
 _symmetry_equiv_pos_site_id
 _symmetry_equiv_pos_as_xyz
  1  'x, y, z'
loop_
 _atom_site_type_symbol
 _atom_site_label
 _atom_site_symmetry_multiplicity
 _atom_site_fract_x
 _atom_site_fract_y
 _atom_site_fract_z
 _atom_site_occupancy
  Th  Th0  1  0.333333  0.666667  0.383149  1
  Th  Th1  1  0.666667  0.333333  0.615035  1
  Th  Th2  1  0.666667  0.333333  0.884965  1
  Th  Th3  1  0.333333  0.666667  0.116851  1
  Si  Si4  1  0.333333  0.666667  0.750000  1
  Ni  Ni5  1  0.000000  0.000000  0.250000  1
  Ni  Ni6  1  0.000000  0.000000  0.750000  1
  P  P7  1  0.000000  0.000000  0.497873  1
  P  P8  1  0.000000  0.000000  0.002127  1
  P  P9  1  0.666667  0.333333  0.250000  1
