# generated using pymatgen
data_Y3Zn2Pt3Au
_symmetry_space_group_name_H-M   'P 1'
_cell_length_a   3.89548200
_cell_length_b   7.42553867
_cell_length_c   7.31585981
_cell_angle_alpha   120.49718671
_cell_angle_beta   90.00000000
_cell_angle_gamma   90.00000000
_symmetry_Int_Tables_number   1
_chemical_formula_structural   Y3Zn2Pt3Au
_chemical_formula_sum   'Y3 Zn2 Pt3 Au1'
_cell_volume   182.34232587
_cell_formula_units_Z   1
loop_
 _symmetry_equiv_pos_site_id
 _symmetry_equiv_pos_as_xyz
  1  'x, y, z'
loop_
 _atom_site_type_symbol
 _atom_site_label
 _atom_site_symmetry_multiplicity
 _atom_site_fract_x
 _atom_site_fract_y
 _atom_site_fract_z
 _atom_site_occupancy
  Y  Y0  1  0.000000  0.410328  0.000000  1
  Y  Y1  1  0.000000  0.600063  0.609449  1
  Y  Y2  1  0.000000  0.990615  0.390551  1
  Zn  Zn3  1  0.500000  0.255304  0.252933  1
  Zn  Zn4  1  0.500000  0.002371  0.747067  1
  Pt  Pt5  1  0.500000  0.661307  0.349758  1
  Pt  Pt6  1  0.500000  0.311549  0.650242  1
  Pt  Pt7  1  0.000000  0.027547  0.000000  1
  Au  Au8  1  0.500000  0.741016  0.000000  1
