# generated using pymatgen
data_Dy2Pa(GaPt)3
_symmetry_space_group_name_H-M   'P 1'
_cell_length_a   7.32239200
_cell_length_b   7.33191262
_cell_length_c   3.86194500
_cell_angle_alpha   90.00000000
_cell_angle_beta   90.00000000
_cell_angle_gamma   119.95706368
_symmetry_Int_Tables_number   1
_chemical_formula_structural   Dy2Pa(GaPt)3
_chemical_formula_sum   'Dy2 Pa1 Ga3 Pt3'
_cell_volume   179.63655125
_cell_formula_units_Z   1
loop_
 _symmetry_equiv_pos_site_id
 _symmetry_equiv_pos_as_xyz
  1  'x, y, z'
loop_
 _atom_site_type_symbol
 _atom_site_label
 _atom_site_symmetry_multiplicity
 _atom_site_fract_x
 _atom_site_fract_y
 _atom_site_fract_z
 _atom_site_occupancy
  Dy  Dy0  1  0.405735  0.404094  0.500000  1
  Dy  Dy1  1  0.001640  0.595906  0.500000  1
  Pa  Pa2  1  0.587962  0.000000  0.500000  1
  Ga  Ga3  1  0.747398  0.736222  0.000000  1
  Ga  Ga4  1  0.011177  0.263778  0.000000  1
  Ga  Ga5  1  0.242588  0.000000  0.000000  1
  Pt  Pt6  1  0.349639  0.683264  0.000000  1
  Pt  Pt7  1  0.666376  0.316736  0.000000  1
  Pt  Pt8  1  0.987486  0.000000  0.500000  1
