# generated using pymatgen
data_LiGd3OsC6
_symmetry_space_group_name_H-M   'P 1'
_cell_length_a   8.49269500
_cell_length_b   8.49269472
_cell_length_c   5.09936200
_cell_angle_alpha   90.00000000
_cell_angle_beta   90.00000000
_cell_angle_gamma   119.99999825
_symmetry_Int_Tables_number   1
_chemical_formula_structural   LiGd3OsC6
_chemical_formula_sum   'Li2 Gd6 Os2 C12'
_cell_volume   318.52059845
_cell_formula_units_Z   2
loop_
 _symmetry_equiv_pos_site_id
 _symmetry_equiv_pos_as_xyz
  1  'x, y, z'
loop_
 _atom_site_type_symbol
 _atom_site_label
 _atom_site_symmetry_multiplicity
 _atom_site_fract_x
 _atom_site_fract_y
 _atom_site_fract_z
 _atom_site_occupancy
  Li  Li0  1  0.000000  0.000000  0.500000  1
  Li  Li1  1  0.000000  0.000000  0.000000  1
  Gd  Gd2  1  0.622831  0.686989  0.750000  1
  Gd  Gd3  1  0.935843  0.622831  0.250000  1
  Gd  Gd4  1  0.686989  0.064157  0.250000  1
  Gd  Gd5  1  0.313011  0.935843  0.750000  1
  Gd  Gd6  1  0.064157  0.377169  0.750000  1
  Gd  Gd7  1  0.377169  0.313011  0.250000  1
  Os  Os8  1  0.666667  0.333333  0.750000  1
  Os  Os9  1  0.333333  0.666667  0.250000  1
  C  C10  1  0.982027  0.755167  0.750000  1
  C  C11  1  0.226860  0.982027  0.250000  1
  C  C12  1  0.755167  0.773140  0.250000  1
  C  C13  1  0.244833  0.226860  0.750000  1
  C  C14  1  0.773140  0.017973  0.750000  1
  C  C15  1  0.017973  0.244833  0.250000  1
  C  C16  1  0.864591  0.579105  0.750000  1
  C  C17  1  0.285486  0.864591  0.250000  1
  C  C18  1  0.579105  0.714514  0.250000  1
  C  C19  1  0.420895  0.285486  0.750000  1
  C  C20  1  0.135409  0.420895  0.250000  1
  C  C21  1  0.714514  0.135409  0.750000  1
