# generated using pymatgen
data_LaPr15Cd4Pd3Ru
_symmetry_space_group_name_H-M   'P 1'
_cell_length_a   10.12892563
_cell_length_b   10.12892721
_cell_length_c   10.12892602
_cell_angle_alpha   59.48405446
_cell_angle_beta   59.48404901
_cell_angle_gamma   59.48405307
_symmetry_Int_Tables_number   1
_chemical_formula_structural   LaPr15Cd4Pd3Ru
_chemical_formula_sum   'La1 Pr15 Cd4 Pd3 Ru1'
_cell_volume   726.18717251
_cell_formula_units_Z   1
loop_
 _symmetry_equiv_pos_site_id
 _symmetry_equiv_pos_as_xyz
  1  'x, y, z'
loop_
 _atom_site_type_symbol
 _atom_site_label
 _atom_site_symmetry_multiplicity
 _atom_site_fract_x
 _atom_site_fract_y
 _atom_site_fract_z
 _atom_site_occupancy
  La  La0  1  0.351736  0.351736  0.351736  1
  Pr  Pr1  1  0.346983  0.346983  0.950947  1
  Pr  Pr2  1  0.346983  0.950947  0.346983  1
  Pr  Pr3  1  0.950947  0.346983  0.346983  1
  Pr  Pr4  1  0.817940  0.188801  0.188801  1
  Pr  Pr5  1  0.190227  0.807708  0.807708  1
  Pr  Pr6  1  0.188801  0.817940  0.188801  1
  Pr  Pr7  1  0.807708  0.190227  0.807708  1
  Pr  Pr8  1  0.188801  0.188801  0.817940  1
  Pr  Pr9  1  0.807708  0.807708  0.190227  1
  Pr  Pr10  1  0.934683  0.564980  0.564980  1
  Pr  Pr11  1  0.558971  0.936609  0.936609  1
  Pr  Pr12  1  0.564980  0.934683  0.564980  1
  Pr  Pr13  1  0.936609  0.558971  0.936609  1
  Pr  Pr14  1  0.564980  0.564980  0.934683  1
  Pr  Pr15  1  0.936609  0.936609  0.558971  1
  Cd  Cd16  1  0.579478  0.579478  0.579478  1
  Cd  Cd17  1  0.580860  0.580860  0.259098  1
  Cd  Cd18  1  0.580860  0.259098  0.580860  1
  Cd  Cd19  1  0.259098  0.580860  0.580860  1
  Pd  Pd20  1  0.145656  0.145656  0.570796  1
  Pd  Pd21  1  0.145656  0.570796  0.145656  1
  Pd  Pd22  1  0.570796  0.145656  0.145656  1
  Ru  Ru23  1  0.142935  0.142935  0.142935  1
