# generated using pymatgen
data_Tb4Ga18Pd2Ru3Pt
_symmetry_space_group_name_H-M   'P 1'
_cell_length_a   7.62094796
_cell_length_b   7.62094741
_cell_length_c   9.59026300
_cell_angle_alpha   89.92562423
_cell_angle_beta   89.92562305
_cell_angle_gamma   119.80558257
_symmetry_Int_Tables_number   1
_chemical_formula_structural   Tb4Ga18Pd2Ru3Pt
_chemical_formula_sum   'Tb4 Ga18 Pd2 Ru3 Pt1'
_cell_volume   483.30928952
_cell_formula_units_Z   1
loop_
 _symmetry_equiv_pos_site_id
 _symmetry_equiv_pos_as_xyz
  1  'x, y, z'
loop_
 _atom_site_type_symbol
 _atom_site_label
 _atom_site_symmetry_multiplicity
 _atom_site_fract_x
 _atom_site_fract_y
 _atom_site_fract_z
 _atom_site_occupancy
  Tb  Tb0  1  0.996328  0.669425  0.251008  1
  Tb  Tb1  1  0.002286  0.329605  0.748653  1
  Tb  Tb2  1  0.670395  0.997714  0.251347  1
  Tb  Tb3  1  0.330575  0.003672  0.748992  1
  Ga  Ga4  1  0.131594  0.129257  0.250043  1
  Ga  Ga5  1  0.870743  0.868406  0.749957  1
  Ga  Ga6  1  0.006556  0.339017  0.080613  1
  Ga  Ga7  1  0.002914  0.665024  0.919459  1
  Ga  Ga8  1  0.999163  0.660915  0.578324  1
  Ga  Ga9  1  0.339085  0.000837  0.421676  1
  Ga  Ga10  1  0.002248  0.339448  0.420371  1
  Ga  Ga11  1  0.660552  0.997752  0.579629  1
  Ga  Ga12  1  0.660983  0.993444  0.919387  1
  Ga  Ga13  1  0.334976  0.997086  0.080541  1
  Ga  Ga14  1  0.340437  0.340083  0.563147  1
  Ga  Ga15  1  0.659917  0.659563  0.436853  1
  Ga  Ga16  1  0.659915  0.665620  0.066857  1
  Ga  Ga17  1  0.334380  0.340085  0.933143  1
  Ga  Ga18  1  0.337058  0.551600  0.250549  1
  Ga  Ga19  1  0.664730  0.453776  0.746217  1
  Ga  Ga20  1  0.546224  0.335270  0.253783  1
  Ga  Ga21  1  0.448400  0.662942  0.749451  1
  Pd  Pd22  1  0.000541  0.999459  0.000000  1
  Pd  Pd23  1  0.999666  0.000334  0.500000  1
  Ru  Ru24  1  0.327471  0.672529  0.000000  1
  Ru  Ru25  1  0.327270  0.672730  0.500000  1
  Ru  Ru26  1  0.673418  0.326582  0.500000  1
  Pt  Pt27  1  0.672180  0.327820  0.000000  1
