# generated using pymatgen
data_Cs5K7(VTe4)4
_symmetry_space_group_name_H-M   'P 1'
_cell_length_a   10.74462345
_cell_length_b   10.75974457
_cell_length_c   11.73837484
_cell_angle_alpha   89.63965506
_cell_angle_beta   90.21674165
_cell_angle_gamma   90.19278470
_symmetry_Int_Tables_number   1
_chemical_formula_structural   Cs5K7(VTe4)4
_chemical_formula_sum   'Cs5 K7 V4 Te16'
_cell_volume   1357.02239420
_cell_formula_units_Z   1
loop_
 _symmetry_equiv_pos_site_id
 _symmetry_equiv_pos_as_xyz
  1  'x, y, z'
loop_
 _atom_site_type_symbol
 _atom_site_label
 _atom_site_symmetry_multiplicity
 _atom_site_fract_x
 _atom_site_fract_y
 _atom_site_fract_z
 _atom_site_occupancy
  Cs  Cs0  1  0.048013  0.204696  0.044088  1
  Cs  Cs1  1  0.139536  0.407364  0.748457  1
  Cs  Cs2  1  0.357239  0.907436  0.248816  1
  Cs  Cs3  1  0.643548  0.094109  0.748629  1
  Cs  Cs4  1  0.859559  0.591869  0.250880  1
  K  K5  1  0.949229  0.797499  0.550127  1
  K  K6  1  0.549685  0.301536  0.454134  1
  K  K7  1  0.450692  0.701621  0.948971  1
  K  K8  1  0.550046  0.298887  0.051405  1
  K  K9  1  0.051471  0.200868  0.448878  1
  K  K10  1  0.448571  0.701048  0.549939  1
  K  K11  1  0.949438  0.797196  0.947893  1
  V  V12  1  0.781059  0.013173  0.254442  1
  V  V13  1  0.713090  0.517642  0.748741  1
  V  V14  1  0.287521  0.487283  0.252149  1
  V  V15  1  0.218661  0.981068  0.745138  1
  Te  Te16  1  0.334707  0.047874  0.920468  1
  Te  Te17  1  0.200995  0.748338  0.748245  1
  Te  Te18  1  0.305398  0.254597  0.255195  1
  Te  Te19  1  0.698745  0.750438  0.747706  1
  Te  Te20  1  0.791107  0.246880  0.258805  1
  Te  Te21  1  0.000942  0.069340  0.741966  1
  Te  Te22  1  0.504629  0.576488  0.251144  1
  Te  Te23  1  0.495972  0.427272  0.749317  1
  Te  Te24  1  0.999480  0.926336  0.257165  1
  Te  Te25  1  0.667098  0.939689  0.428102  1
  Te  Te26  1  0.828087  0.448002  0.574662  1
  Te  Te27  1  0.173307  0.556592  0.075681  1
  Te  Te28  1  0.672184  0.946633  0.074765  1
  Te  Te29  1  0.332142  0.050949  0.569681  1
  Te  Te30  1  0.172943  0.554261  0.427165  1
  Te  Te31  1  0.824906  0.453018  0.927248  1
