# generated using pymatgen
data_Hf8TaTi(GaSn3)2
_symmetry_space_group_name_H-M   'P 1'
_cell_length_a   8.59607400
_cell_length_b   8.59607224
_cell_length_c   5.75476600
_cell_angle_alpha   90.00000000
_cell_angle_beta   90.00000000
_cell_angle_gamma   119.99999908
_symmetry_Int_Tables_number   1
_chemical_formula_structural   Hf8TaTi(GaSn3)2
_chemical_formula_sum   'Hf8 Ta1 Ti1 Ga2 Sn6'
_cell_volume   368.26335615
_cell_formula_units_Z   1
loop_
 _symmetry_equiv_pos_site_id
 _symmetry_equiv_pos_as_xyz
  1  'x, y, z'
loop_
 _atom_site_type_symbol
 _atom_site_label
 _atom_site_symmetry_multiplicity
 _atom_site_fract_x
 _atom_site_fract_y
 _atom_site_fract_z
 _atom_site_occupancy
  Hf  Hf0  1  0.732433  0.731944  0.746639  1
  Hf  Hf1  1  0.268056  0.000489  0.746639  1
  Hf  Hf2  1  0.999511  0.267567  0.746639  1
  Hf  Hf3  1  0.268056  0.267567  0.253361  1
  Hf  Hf4  1  0.732433  0.000489  0.253361  1
  Hf  Hf5  1  0.999511  0.731944  0.253361  1
  Hf  Hf6  1  0.333333  0.666667  0.500000  1
  Hf  Hf7  1  0.666667  0.333333  0.500000  1
  Ta  Ta8  1  0.666667  0.333333  0.000000  1
  Ti  Ti9  1  0.333333  0.666667  0.000000  1
  Ga  Ga10  1  0.000000  0.000000  0.000000  1
  Ga  Ga11  1  0.000000  0.000000  0.500000  1
  Sn  Sn12  1  0.389947  0.391098  0.757188  1
  Sn  Sn13  1  0.608902  0.998849  0.757188  1
  Sn  Sn14  1  0.001151  0.610053  0.757188  1
  Sn  Sn15  1  0.608902  0.610053  0.242812  1
  Sn  Sn16  1  0.389947  0.998849  0.242812  1
  Sn  Sn17  1  0.001151  0.391098  0.242812  1
