# generated using pymatgen
data_Zr10GaSn5S
_symmetry_space_group_name_H-M   'P 1'
_cell_length_a   8.52628646
_cell_length_b   8.52628617
_cell_length_c   5.80042400
_cell_angle_alpha   90.05160883
_cell_angle_beta   90.05160883
_cell_angle_gamma   120.31305653
_symmetry_Int_Tables_number   1
_chemical_formula_structural   Zr10GaSn5S
_chemical_formula_sum   'Zr10 Ga1 Sn5 S1'
_cell_volume   364.02466720
_cell_formula_units_Z   1
loop_
 _symmetry_equiv_pos_site_id
 _symmetry_equiv_pos_as_xyz
  1  'x, y, z'
loop_
 _atom_site_type_symbol
 _atom_site_label
 _atom_site_symmetry_multiplicity
 _atom_site_fract_x
 _atom_site_fract_y
 _atom_site_fract_z
 _atom_site_occupancy
  Zr  Zr0  1  0.661717  0.335525  0.497300  1
  Zr  Zr1  1  0.335525  0.661717  0.497300  1
  Zr  Zr2  1  0.334644  0.661491  0.002431  1
  Zr  Zr3  1  0.661491  0.334644  0.002431  1
  Zr  Zr4  1  0.742307  0.742307  0.245718  1
  Zr  Zr5  1  0.253838  0.010184  0.240395  1
  Zr  Zr6  1  0.010184  0.253838  0.240395  1
  Zr  Zr7  1  0.249063  0.249063  0.764863  1
  Zr  Zr8  1  0.750319  0.999379  0.757343  1
  Zr  Zr9  1  0.999379  0.750319  0.757343  1
  Ga  Ga10  1  0.394439  0.394439  0.248791  1
  Sn  Sn11  1  0.609432  0.002312  0.251047  1
  Sn  Sn12  1  0.002312  0.609432  0.251047  1
  Sn  Sn13  1  0.604661  0.604661  0.750294  1
  Sn  Sn14  1  0.393423  0.997402  0.747394  1
  Sn  Sn15  1  0.997402  0.393423  0.747394  1
  S  S16  1  0.999867  0.999867  0.498508  1
