# generated using pymatgen
data_La3Yb2Pb3Cl
_symmetry_space_group_name_H-M   'P 1'
_cell_length_a   9.59515100
_cell_length_b   9.59515167
_cell_length_c   6.84434800
_cell_angle_alpha   90.00000000
_cell_angle_beta   90.00000000
_cell_angle_gamma   120.00000115
_symmetry_Int_Tables_number   1
_chemical_formula_structural   La3Yb2Pb3Cl
_chemical_formula_sum   'La6 Yb4 Pb6 Cl2'
_cell_volume   545.71559799
_cell_formula_units_Z   2
loop_
 _symmetry_equiv_pos_site_id
 _symmetry_equiv_pos_as_xyz
  1  'x, y, z'
loop_
 _atom_site_type_symbol
 _atom_site_label
 _atom_site_symmetry_multiplicity
 _atom_site_fract_x
 _atom_site_fract_y
 _atom_site_fract_z
 _atom_site_occupancy
  La  La0  1  0.737850  0.000000  0.750000  1
  La  La1  1  0.000000  0.262150  0.250000  1
  La  La2  1  0.737850  0.737850  0.250000  1
  La  La3  1  0.262150  0.000000  0.250000  1
  La  La4  1  0.262150  0.262150  0.750000  1
  La  La5  1  0.000000  0.737850  0.750000  1
  Yb  Yb6  1  0.333333  0.666667  0.500000  1
  Yb  Yb7  1  0.333333  0.666667  0.000000  1
  Yb  Yb8  1  0.666667  0.333333  0.500000  1
  Yb  Yb9  1  0.666667  0.333333  0.000000  1
  Pb  Pb10  1  0.390659  0.000000  0.750000  1
  Pb  Pb11  1  0.609341  0.000000  0.250000  1
  Pb  Pb12  1  0.000000  0.609341  0.250000  1
  Pb  Pb13  1  0.609341  0.609341  0.750000  1
  Pb  Pb14  1  0.000000  0.390659  0.750000  1
  Pb  Pb15  1  0.390659  0.390659  0.250000  1
  Cl  Cl16  1  0.000000  0.000000  0.500000  1
  Cl  Cl17  1  0.000000  0.000000  0.000000  1
