# generated using pymatgen
data_SnIr2S5
_symmetry_space_group_name_H-M   'P 1'
_cell_length_a   3.62544600
_cell_length_b   7.33417922
_cell_length_c   12.58508331
_cell_angle_alpha   77.51715581
_cell_angle_beta   90.00000000
_cell_angle_gamma   90.00000000
_symmetry_Int_Tables_number   1
_chemical_formula_structural   SnIr2S5
_chemical_formula_sum   'Sn2 Ir4 S10'
_cell_volume   326.72274973
_cell_formula_units_Z   2
loop_
 _symmetry_equiv_pos_site_id
 _symmetry_equiv_pos_as_xyz
  1  'x, y, z'
loop_
 _atom_site_type_symbol
 _atom_site_label
 _atom_site_symmetry_multiplicity
 _atom_site_fract_x
 _atom_site_fract_y
 _atom_site_fract_z
 _atom_site_occupancy
  Sn  Sn0  1  0.500000  0.165142  0.664426  1
  Sn  Sn1  1  0.500000  0.834858  0.335574  1
  Ir  Ir2  1  0.000000  0.257176  0.143754  1
  Ir  Ir3  1  0.000000  0.742824  0.856246  1
  Ir  Ir4  1  0.500000  0.750916  0.140469  1
  Ir  Ir5  1  0.500000  0.249084  0.859531  1
  S  S6  1  0.000000  0.957370  0.097600  1
  S  S7  1  0.000000  0.042630  0.902400  1
  S  S8  1  0.000000  0.459335  0.790289  1
  S  S9  1  0.000000  0.540665  0.209711  1
  S  S10  1  0.500000  0.658508  0.974103  1
  S  S11  1  0.500000  0.341492  0.025897  1
  S  S12  1  0.500000  0.188913  0.272918  1
  S  S13  1  0.500000  0.811087  0.727082  1
  S  S14  1  0.000000  0.238937  0.536042  1
  S  S15  1  0.000000  0.761063  0.463958  1
