# generated using pymatgen
data_Tb6Fe5Co2P12Ru11
_symmetry_space_group_name_H-M   'P 1'
_cell_length_a   3.83739400
_cell_length_b   10.87527371
_cell_length_c   12.59938588
_cell_angle_alpha   89.63215164
_cell_angle_beta   90.00000000
_cell_angle_gamma   90.00000000
_symmetry_Int_Tables_number   1
_chemical_formula_structural   Tb6Fe5Co2P12Ru11
_chemical_formula_sum   'Tb6 Fe5 Co2 P12 Ru11'
_cell_volume   525.79568184
_cell_formula_units_Z   1
loop_
 _symmetry_equiv_pos_site_id
 _symmetry_equiv_pos_as_xyz
  1  'x, y, z'
loop_
 _atom_site_type_symbol
 _atom_site_label
 _atom_site_symmetry_multiplicity
 _atom_site_fract_x
 _atom_site_fract_y
 _atom_site_fract_z
 _atom_site_occupancy
  Tb  Tb0  1  0.000000  0.496079  0.523178  1
  Tb  Tb1  1  0.500000  0.001122  0.473658  1
  Tb  Tb2  1  0.500000  0.820336  0.199694  1
  Tb  Tb3  1  0.500000  0.179151  0.200712  1
  Tb  Tb4  1  0.000000  0.679594  0.801053  1
  Tb  Tb5  1  0.000000  0.321438  0.799626  1
  Fe  Fe6  1  0.500000  0.332412  0.993314  1
  Fe  Fe7  1  0.500000  0.667050  0.994572  1
  Fe  Fe8  1  0.000000  0.167928  0.006798  1
  Fe  Fe9  1  0.000000  0.832613  0.006544  1
  Fe  Fe10  1  0.500000  0.298742  0.427384  1
  Co  Co11  1  0.000000  0.500189  0.987840  1
  Co  Co12  1  0.500000  0.000216  0.012888  1
  P  P13  1  0.500000  0.500758  0.891730  1
  P  P14  1  0.000000  0.999802  0.109109  1
  P  P15  1  0.500000  0.495470  0.335736  1
  P  P16  1  0.000000  0.001053  0.667197  1
  P  P17  1  0.500000  0.308730  0.609601  1
  P  P18  1  0.500000  0.694490  0.617954  1
  P  P19  1  0.000000  0.196599  0.384352  1
  P  P20  1  0.000000  0.804755  0.381883  1
  P  P21  1  0.500000  0.843398  0.904639  1
  P  P22  1  0.500000  0.157585  0.903608  1
  P  P23  1  0.000000  0.656343  0.096717  1
  P  P24  1  0.000000  0.342912  0.097068  1
  Ru  Ru25  1  0.500000  0.497471  0.148014  1
  Ru  Ru26  1  0.000000  0.002096  0.853485  1
  Ru  Ru27  1  0.500000  0.499498  0.700492  1
  Ru  Ru28  1  0.000000  0.000316  0.299381  1
  Ru  Ru29  1  0.500000  0.698663  0.429226  1
  Ru  Ru30  1  0.000000  0.202115  0.568565  1
  Ru  Ru31  1  0.000000  0.800636  0.571499  1
  Ru  Ru32  1  0.500000  0.878426  0.720150  1
  Ru  Ru33  1  0.500000  0.125913  0.717920  1
  Ru  Ru34  1  0.000000  0.621028  0.280990  1
  Ru  Ru35  1  0.000000  0.375077  0.283421  1
