# generated using pymatgen
data_Tm4LuBiPd2
_symmetry_space_group_name_H-M   'P 1'
_cell_length_a   8.76780524
_cell_length_b   8.76780407
_cell_length_c   8.76780455
_cell_angle_alpha   128.16394976
_cell_angle_beta   128.16394911
_cell_angle_gamma   76.35958834
_symmetry_Int_Tables_number   1
_chemical_formula_structural   Tm4LuBiPd2
_chemical_formula_sum   'Tm8 Lu2 Bi2 Pd4'
_cell_volume   404.88144332
_cell_formula_units_Z   2
loop_
 _symmetry_equiv_pos_site_id
 _symmetry_equiv_pos_as_xyz
  1  'x, y, z'
loop_
 _atom_site_type_symbol
 _atom_site_label
 _atom_site_symmetry_multiplicity
 _atom_site_fract_x
 _atom_site_fract_y
 _atom_site_fract_z
 _atom_site_occupancy
  Tm  Tm0  1  0.795938  0.295938  0.811448  1
  Tm  Tm1  1  0.204062  0.704062  0.188552  1
  Tm  Tm2  1  0.484491  0.984491  0.188552  1
  Tm  Tm3  1  0.295938  0.484491  0.500000  1
  Tm  Tm4  1  0.015509  0.204062  0.500000  1
  Tm  Tm5  1  0.515509  0.015509  0.811448  1
  Tm  Tm6  1  0.704062  0.515509  0.500000  1
  Tm  Tm7  1  0.984491  0.795938  0.500000  1
  Lu  Lu8  1  0.000000  0.000000  0.000000  1
  Lu  Lu9  1  0.500000  0.500000  0.000000  1
  Bi  Bi10  1  0.250000  0.250000  0.000000  1
  Bi  Bi11  1  0.750000  0.750000  0.000000  1
  Pd  Pd12  1  0.137954  0.637954  0.775908  1
  Pd  Pd13  1  0.862046  0.362046  0.224092  1
  Pd  Pd14  1  0.637954  0.862046  0.500000  1
  Pd  Pd15  1  0.362046  0.137954  0.500000  1
