# generated using pymatgen
data_Tm12Fe2TcBi2
_symmetry_space_group_name_H-M   'P 1'
_cell_length_a   8.34910090
_cell_length_b   8.34910038
_cell_length_c   8.34910169
_cell_angle_alpha   108.39981458
_cell_angle_beta   108.39981953
_cell_angle_gamma   111.63596556
_symmetry_Int_Tables_number   1
_chemical_formula_structural   Tm12Fe2TcBi2
_chemical_formula_sum   'Tm12 Fe2 Tc1 Bi2'
_cell_volume   447.53813576
_cell_formula_units_Z   1
loop_
 _symmetry_equiv_pos_site_id
 _symmetry_equiv_pos_as_xyz
  1  'x, y, z'
loop_
 _atom_site_type_symbol
 _atom_site_label
 _atom_site_symmetry_multiplicity
 _atom_site_fract_x
 _atom_site_fract_y
 _atom_site_fract_z
 _atom_site_occupancy
  Tm  Tm0  1  0.195207  0.427910  0.232703  1
  Tm  Tm1  1  0.804793  0.572090  0.767297  1
  Tm  Tm2  1  0.195207  0.962504  0.767297  1
  Tm  Tm3  1  0.962504  0.195207  0.767297  1
  Tm  Tm4  1  0.804793  0.037496  0.232703  1
  Tm  Tm5  1  0.037496  0.804793  0.232703  1
  Tm  Tm6  1  0.427910  0.195207  0.232703  1
  Tm  Tm7  1  0.572090  0.804793  0.767297  1
  Tm  Tm8  1  0.308713  0.308713  0.617425  1
  Tm  Tm9  1  0.691287  0.691287  0.382575  1
  Tm  Tm10  1  0.691287  0.308713  0.000000  1
  Tm  Tm11  1  0.308713  0.691287  0.000000  1
  Fe  Fe12  1  0.384019  0.384019  0.000000  1
  Fe  Fe13  1  0.615981  0.615981  0.000000  1
  Tc  Tc14  1  0.000000  0.000000  0.000000  1
  Bi  Bi15  1  0.000000  0.500000  0.500000  1
  Bi  Bi16  1  0.500000  0.000000  0.500000  1
