# generated using pymatgen
data_AcHoFe3Tc14C3
_symmetry_space_group_name_H-M   'P 1'
_cell_length_a   6.93540744
_cell_length_b   6.93540830
_cell_length_c   6.93540666
_cell_angle_alpha   82.81332105
_cell_angle_beta   82.81331709
_cell_angle_gamma   82.81331898
_symmetry_Int_Tables_number   1
_chemical_formula_structural   AcHoFe3Tc14C3
_chemical_formula_sum   'Ac1 Ho1 Fe3 Tc14 C3'
_cell_volume   326.33504947
_cell_formula_units_Z   1
loop_
 _symmetry_equiv_pos_site_id
 _symmetry_equiv_pos_as_xyz
  1  'x, y, z'
loop_
 _atom_site_type_symbol
 _atom_site_label
 _atom_site_symmetry_multiplicity
 _atom_site_fract_x
 _atom_site_fract_y
 _atom_site_fract_z
 _atom_site_occupancy
  Ac  Ac0  1  0.648322  0.648322  0.648322  1
  Ho  Ho1  1  0.346380  0.346380  0.346380  1
  Fe  Fe2  1  0.997839  0.997839  0.501288  1
  Fe  Fe3  1  0.501288  0.997839  0.997839  1
  Fe  Fe4  1  0.997839  0.501288  0.997839  1
  Tc  Tc5  1  0.723446  0.274596  0.002133  1
  Tc  Tc6  1  0.002133  0.723446  0.274596  1
  Tc  Tc7  1  0.274596  0.002133  0.723446  1
  Tc  Tc8  1  0.002133  0.274596  0.723446  1
  Tc  Tc9  1  0.723446  0.002133  0.274596  1
  Tc  Tc10  1  0.274596  0.723446  0.002133  1
  Tc  Tc11  1  0.344689  0.870593  0.344689  1
  Tc  Tc12  1  0.344689  0.344689  0.870593  1
  Tc  Tc13  1  0.870593  0.344689  0.344689  1
  Tc  Tc14  1  0.651817  0.140158  0.651817  1
  Tc  Tc15  1  0.651817  0.651817  0.140158  1
  Tc  Tc16  1  0.140158  0.651817  0.651817  1
  Tc  Tc17  1  0.901207  0.901207  0.901207  1
  Tc  Tc18  1  0.100071  0.100071  0.100071  1
  C  C19  1  0.492537  0.492537  0.017862  1
  C  C20  1  0.017862  0.492537  0.492537  1
  C  C21  1  0.492537  0.017862  0.492537  1
