# generated using pymatgen
data_La2Nd6Zn8CuRh7
_symmetry_space_group_name_H-M   'P 1'
_cell_length_a   4.01419400
_cell_length_b   7.40517998
_cell_length_c   16.63484114
_cell_angle_alpha   90.38282308
_cell_angle_beta   90.00000000
_cell_angle_gamma   90.00000000
_symmetry_Int_Tables_number   1
_chemical_formula_structural   La2Nd6Zn8CuRh7
_chemical_formula_sum   'La2 Nd6 Zn8 Cu1 Rh7'
_cell_volume   494.47340656
_cell_formula_units_Z   1
loop_
 _symmetry_equiv_pos_site_id
 _symmetry_equiv_pos_as_xyz
  1  'x, y, z'
loop_
 _atom_site_type_symbol
 _atom_site_label
 _atom_site_symmetry_multiplicity
 _atom_site_fract_x
 _atom_site_fract_y
 _atom_site_fract_z
 _atom_site_occupancy
  La  La0  1  0.250000  0.169766  0.939557  1
  La  La1  1  0.750000  0.326387  0.439796  1
  Nd  Nd2  1  0.250000  0.668378  0.565311  1
  Nd  Nd3  1  0.750000  0.953022  0.281021  1
  Nd  Nd4  1  0.750000  0.829827  0.061263  1
  Nd  Nd5  1  0.750000  0.451188  0.215746  1
  Nd  Nd6  1  0.250000  0.049827  0.714968  1
  Nd  Nd7  1  0.250000  0.548008  0.784712  1
  Zn  Zn8  1  0.750000  0.000165  0.561737  1
  Zn  Zn9  1  0.250000  0.630489  0.348120  1
  Zn  Zn10  1  0.750000  0.378022  0.651652  1
  Zn  Zn11  1  0.250000  0.500689  0.060881  1
  Zn  Zn12  1  0.750000  0.504502  0.939911  1
  Zn  Zn13  1  0.250000  0.992980  0.438506  1
  Zn  Zn14  1  0.250000  0.123532  0.150730  1
  Zn  Zn15  1  0.750000  0.874251  0.847653  1
  Cu  Cu16  1  0.750000  0.761613  0.434211  1
  Rh  Rh17  1  0.250000  0.248139  0.315575  1
  Rh  Rh18  1  0.750000  0.250955  0.813845  1
  Rh  Rh19  1  0.750000  0.753434  0.684689  1
  Rh  Rh20  1  0.250000  0.242412  0.563222  1
  Rh  Rh21  1  0.250000  0.746148  0.188122  1
  Rh  Rh22  1  0.750000  0.253459  0.064339  1
  Rh  Rh23  1  0.250000  0.742808  0.934437  1
