# generated using pymatgen
data_Tb3Sm2ErTa2O14
_symmetry_space_group_name_H-M   'P 1'
_cell_length_a   6.50396919
_cell_length_b   6.50249416
_cell_length_c   7.56937700
_cell_angle_alpha   90.00000000
_cell_angle_beta   90.00000000
_cell_angle_gamma   109.25728796
_symmetry_Int_Tables_number   1
_chemical_formula_structural   Tb3Sm2ErTa2O14
_chemical_formula_sum   'Tb3 Sm2 Er1 Ta2 O14'
_cell_volume   302.21236805
_cell_formula_units_Z   1
loop_
 _symmetry_equiv_pos_site_id
 _symmetry_equiv_pos_as_xyz
  1  'x, y, z'
loop_
 _atom_site_type_symbol
 _atom_site_label
 _atom_site_symmetry_multiplicity
 _atom_site_fract_x
 _atom_site_fract_y
 _atom_site_fract_z
 _atom_site_occupancy
  Tb  Tb0  1  0.534833  0.999822  0.750000  1
  Tb  Tb1  1  0.999500  0.534386  0.250000  1
  Tb  Tb2  1  0.466013  0.998807  0.250000  1
  Sm  Sm3  1  0.488777  0.490359  0.500521  1
  Sm  Sm4  1  0.488777  0.490359  0.999479  1
  Er  Er5  1  0.998143  0.466598  0.750000  1
  Ta  Ta6  1  0.998997  0.998690  0.500870  1
  Ta  Ta7  1  0.998997  0.998690  0.999130  1
  O  O8  1  0.681430  0.929941  0.467505  1
  O  O9  1  0.939030  0.683736  0.536848  1
  O  O10  1  0.681430  0.929941  0.032495  1
  O  O11  1  0.939030  0.683736  0.963152  1
  O  O12  1  0.322733  0.075376  0.531058  1
  O  O13  1  0.071828  0.322341  0.470039  1
  O  O14  1  0.322733  0.075376  0.968942  1
  O  O15  1  0.071828  0.322341  0.029961  1
  O  O16  1  0.935113  0.067060  0.750000  1
  O  O17  1  0.063194  0.935178  0.250000  1
  O  O18  1  0.362345  0.629825  0.750000  1
  O  O19  1  0.632510  0.367869  0.250000  1
  O  O20  1  0.643123  0.361283  0.750000  1
  O  O21  1  0.359635  0.638282  0.250000  1
