# generated using pymatgen
data_Li6TbDy5(WO6)4
_symmetry_space_group_name_H-M   'P 1'
_cell_length_a   10.69344084
_cell_length_b   10.68843473
_cell_length_c   10.69098816
_cell_angle_alpha   109.46751590
_cell_angle_beta   109.48634118
_cell_angle_gamma   109.46000012
_symmetry_Int_Tables_number   1
_chemical_formula_structural   Li6TbDy5(WO6)4
_chemical_formula_sum   'Li12 Tb2 Dy10 W8 O48'
_cell_volume   940.64656407
_cell_formula_units_Z   2
loop_
 _symmetry_equiv_pos_site_id
 _symmetry_equiv_pos_as_xyz
  1  'x, y, z'
loop_
 _atom_site_type_symbol
 _atom_site_label
 _atom_site_symmetry_multiplicity
 _atom_site_fract_x
 _atom_site_fract_y
 _atom_site_fract_z
 _atom_site_occupancy
  Li  Li0  1  0.875185  0.750018  0.125179  1
  Li  Li1  1  0.249994  0.875160  0.125178  1
  Li  Li2  1  0.875134  0.125115  0.250130  1
  Li  Li3  1  0.374995  0.625015  0.250131  1
  Li  Li4  1  0.624973  0.249995  0.374988  1
  Li  Li5  1  0.750015  0.624992  0.374987  1
  Li  Li6  1  0.249875  0.374732  0.624728  1
  Li  Li7  1  0.374852  0.749995  0.624728  1
  Li  Li8  1  0.124995  0.875115  0.749989  1
  Li  Li9  1  0.624994  0.374875  0.749988  1
  Li  Li10  1  0.124991  0.249876  0.874985  1
  Li  Li11  1  0.749994  0.125110  0.874985  1
  Tb  Tb12  1  0.249836  0.624940  0.875047  1
  Tb  Tb13  1  0.625211  0.750107  0.875046  1
  Dy  Dy14  1  0.749971  0.374985  0.124994  1
  Dy  Dy15  1  0.375023  0.250009  0.124994  1
  Dy  Dy16  1  0.625161  0.875161  0.250322  1
  Dy  Dy17  1  0.124997  0.374997  0.249995  1
  Dy  Dy18  1  0.124984  0.749975  0.374989  1
  Dy  Dy19  1  0.250006  0.125015  0.374989  1
  Dy  Dy20  1  0.750101  0.875058  0.624895  1
  Dy  Dy21  1  0.874794  0.249837  0.624894  1
  Dy  Dy22  1  0.375027  0.125026  0.750053  1
  Dy  Dy23  1  0.874898  0.624898  0.749795  1
  W  W24  1  0.000407  0.000188  0.000037  1
  W  W25  1  0.500126  0.000520  0.000359  1
  W  W26  1  0.500233  0.499839  0.000360  1
  W  W27  1  0.999630  0.499850  0.000037  1
  W  W28  1  0.000045  0.999998  0.500015  1
  W  W29  1  0.999608  0.499747  0.499582  1
  W  W30  1  0.499970  0.000017  0.500015  1
  W  W31  1  0.499974  0.499836  0.499583  1
  O  O32  1  0.119383  0.201295  0.027716  1
  O  O33  1  0.908333  0.326421  0.027714  1
  O  O34  1  0.408927  0.881782  0.082753  1
  O  O35  1  0.673826  0.700972  0.082753  1
  O  O36  1  0.673549  0.972905  0.092087  1
  O  O37  1  0.418538  0.619182  0.092086  1
  O  O38  1  0.201413  0.027827  0.119280  1
  O  O39  1  0.917866  0.591452  0.119280  1
  O  O40  1  0.582111  0.201614  0.173684  1
  O  O41  1  0.591575  0.472072  0.173685  1
  O  O42  1  0.027600  0.119139  0.201055  1
  O  O43  1  0.173454  0.581916  0.201055  1
  O  O44  1  0.917827  0.326376  0.298536  1
  O  O45  1  0.380708  0.472161  0.298536  1
  O  O46  1  0.298893  0.918066  0.326496  1
  O  O47  1  0.027600  0.908429  0.326495  1
  O  O48  1  0.472297  0.298690  0.380606  1
  O  O49  1  0.908310  0.581917  0.380606  1
  O  O50  1  0.527584  0.826513  0.408416  1
  O  O51  1  0.880832  0.081903  0.408417  1
  O  O52  1  0.619184  0.091649  0.418160  1
  O  O53  1  0.798975  0.826511  0.418159  1
  O  O54  1  0.299021  0.380890  0.472402  1
  O  O55  1  0.173382  0.591513  0.472404  1
  O  O56  1  0.701139  0.619165  0.527493  1
  O  O57  1  0.826355  0.408328  0.527492  1
  O  O58  1  0.201085  0.173471  0.581929  1
  O  O59  1  0.380845  0.908458  0.581928  1
  O  O60  1  0.119183  0.918022  0.591569  1
  O  O61  1  0.472388  0.173547  0.591569  1
  O  O62  1  0.527198  0.700892  0.618171  1
  O  O63  1  0.090973  0.417279  0.618171  1
  O  O64  1  0.701062  0.081942  0.673514  1
  O  O65  1  0.972454  0.091574  0.673515  1
  O  O66  1  0.081328  0.673390  0.700525  1
  O  O67  1  0.619197  0.527135  0.700524  1
  O  O68  1  0.972459  0.880853  0.798816  1
  O  O69  1  0.826357  0.417962  0.798815  1
  O  O70  1  0.408547  0.526743  0.826401  1
  O  O71  1  0.417853  0.799656  0.826402  1
  O  O72  1  0.081359  0.407945  0.880849  1
  O  O73  1  0.799488  0.972904  0.880848  1
  O  O74  1  0.582112  0.380756  0.908579  1
  O  O75  1  0.326466  0.027821  0.908578  1
  O  O76  1  0.326517  0.298818  0.918151  1
  O  O77  1  0.591634  0.119332  0.918152  1
  O  O78  1  0.091045  0.673665  0.972818  1
  O  O79  1  0.881772  0.799153  0.972816  1
