# generated using pymatgen
data_Sr9MgNp4N14
_symmetry_space_group_name_H-M   'P 1'
_cell_length_a   6.24303620
_cell_length_b   9.51059406
_cell_length_c   9.40915700
_cell_angle_alpha   119.80458490
_cell_angle_beta   95.04336097
_cell_angle_gamma   103.96733482
_symmetry_Int_Tables_number   1
_chemical_formula_structural   Sr9MgNp4N14
_chemical_formula_sum   'Sr9 Mg1 Np4 N14'
_cell_volume   455.87755079
_cell_formula_units_Z   1
loop_
 _symmetry_equiv_pos_site_id
 _symmetry_equiv_pos_as_xyz
  1  'x, y, z'
loop_
 _atom_site_type_symbol
 _atom_site_label
 _atom_site_symmetry_multiplicity
 _atom_site_fract_x
 _atom_site_fract_y
 _atom_site_fract_z
 _atom_site_occupancy
  Sr  Sr0  1  0.210816  0.933700  0.563879  1
  Sr  Sr1  1  0.745459  0.308817  0.861237  1
  Sr  Sr2  1  0.218300  0.657500  0.144241  1
  Sr  Sr3  1  0.233764  0.803060  0.857394  1
  Sr  Sr4  1  0.736149  0.162749  0.144815  1
  Sr  Sr5  1  0.245194  0.380471  0.718467  1
  Sr  Sr6  1  0.739605  0.877394  0.719975  1
  Sr  Sr7  1  0.227456  0.092473  0.284005  1
  Sr  Sr8  1  0.728342  0.013416  0.430619  1
  Mg  Mg9  1  0.673743  0.598376  0.282338  1
  Np  Np10  1  0.734130  0.453703  0.563448  1
  Np  Np11  1  0.242045  0.520404  0.429130  1
  Np  Np12  1  0.259117  0.245744  0.005170  1
  Np  Np13  1  0.733656  0.729930  0.008976  1
  N  N14  1  0.495472  0.600270  0.676759  1
  N  N15  1  0.466787  0.359870  0.281628  1
  N  N16  1  0.958231  0.648314  0.546871  1
  N  N17  1  0.004111  0.324423  0.444742  1
  N  N18  1  0.537898  0.242472  0.559502  1
  N  N19  1  0.451264  0.735479  0.432962  1
  N  N20  1  0.035581  0.145377  0.764861  1
  N  N21  1  0.935350  0.818130  0.262123  1
  N  N22  1  0.439915  0.091285  0.884562  1
  N  N23  1  0.945644  0.941105  0.003696  1
  N  N24  1  0.495847  0.487134  0.016339  1
  N  N25  1  0.065975  0.379386  0.135790  1
  N  N26  1  0.914154  0.578330  0.858566  1
  N  N27  1  0.525994  0.870686  0.117903  1
