# generated using pymatgen
data_Tb6ScRhO12
_symmetry_space_group_name_H-M   'P 1'
_cell_length_a   6.60730009
_cell_length_b   6.60729898
_cell_length_c   6.60730045
_cell_angle_alpha   93.91771817
_cell_angle_beta   93.91771533
_cell_angle_gamma   93.91771227
_symmetry_Int_Tables_number   1
_chemical_formula_structural   Tb6ScRhO12
_chemical_formula_sum   'Tb6 Sc1 Rh1 O12'
_cell_volume   286.33141854
_cell_formula_units_Z   1
loop_
 _symmetry_equiv_pos_site_id
 _symmetry_equiv_pos_as_xyz
  1  'x, y, z'
loop_
 _atom_site_type_symbol
 _atom_site_label
 _atom_site_symmetry_multiplicity
 _atom_site_fract_x
 _atom_site_fract_y
 _atom_site_fract_z
 _atom_site_occupancy
  Tb  Tb0  1  0.739996  0.919099  0.430495  1
  Tb  Tb1  1  0.919099  0.430495  0.739996  1
  Tb  Tb2  1  0.430495  0.739996  0.919099  1
  Tb  Tb3  1  0.260004  0.080901  0.569505  1
  Tb  Tb4  1  0.080901  0.569505  0.260004  1
  Tb  Tb5  1  0.569505  0.260004  0.080901  1
  Sc  Sc6  1  0.000000  0.000000  0.000000  1
  Rh  Rh7  1  0.500000  0.500000  0.500000  1
  O  O8  1  0.587129  0.456447  0.804237  1
  O  O9  1  0.456447  0.804237  0.587129  1
  O  O10  1  0.804237  0.587129  0.456447  1
  O  O11  1  0.412871  0.543553  0.195763  1
  O  O12  1  0.543553  0.195763  0.412871  1
  O  O13  1  0.195763  0.412871  0.543553  1
  O  O14  1  0.066502  0.919035  0.308279  1
  O  O15  1  0.919035  0.308279  0.066502  1
  O  O16  1  0.691721  0.933498  0.080965  1
  O  O17  1  0.080965  0.691721  0.933498  1
  O  O18  1  0.933498  0.080965  0.691721  1
  O  O19  1  0.308279  0.066502  0.919035  1
