# generated using pymatgen
data_Pm7Sn4
_symmetry_space_group_name_H-M   'P 1'
_cell_length_a   7.37807559
_cell_length_b   7.41290746
_cell_length_c   8.86491803
_cell_angle_alpha   87.94625942
_cell_angle_beta   111.08197332
_cell_angle_gamma   127.48757379
_symmetry_Int_Tables_number   1
_chemical_formula_structural   Pm7Sn4
_chemical_formula_sum   'Pm7 Sn4'
_cell_volume   347.82239073
_cell_formula_units_Z   1
loop_
 _symmetry_equiv_pos_site_id
 _symmetry_equiv_pos_as_xyz
  1  'x, y, z'
loop_
 _atom_site_type_symbol
 _atom_site_label
 _atom_site_symmetry_multiplicity
 _atom_site_fract_x
 _atom_site_fract_y
 _atom_site_fract_z
 _atom_site_occupancy
  Pm  Pm0  1  0.476056  0.468776  0.986843  1
  Pm  Pm1  1  0.573349  0.238357  0.367350  1
  Pm  Pm2  1  0.037460  0.486836  0.088741  1
  Pm  Pm3  1  0.649948  0.774768  0.473112  1
  Pm  Pm4  1  0.961265  0.950391  0.983354  1
  Pm  Pm5  1  0.306864  0.860660  0.727869  1
  Pm  Pm6  1  0.135240  0.256961  0.469613  1
  Sn  Sn7  1  0.590806  0.963233  0.118139  1
  Sn  Sn8  1  0.914242  0.251364  0.725217  1
  Sn  Sn9  1  0.019942  0.762299  0.338050  1
  Sn  Sn10  1  0.696708  0.474522  0.731110  1
