# generated using pymatgen
data_CsSb(IO3)6
_symmetry_space_group_name_H-M   'P 1'
_cell_length_a   7.89061254
_cell_length_b   7.89061223
_cell_length_c   7.89061283
_cell_angle_alpha   97.80519879
_cell_angle_beta   97.80519786
_cell_angle_gamma   97.80519260
_symmetry_Int_Tables_number   1
_chemical_formula_structural   CsSb(IO3)6
_chemical_formula_sum   'Cs1 Sb1 I6 O18'
_cell_volume   476.23117993
_cell_formula_units_Z   1
loop_
 _symmetry_equiv_pos_site_id
 _symmetry_equiv_pos_as_xyz
  1  'x, y, z'
loop_
 _atom_site_type_symbol
 _atom_site_label
 _atom_site_symmetry_multiplicity
 _atom_site_fract_x
 _atom_site_fract_y
 _atom_site_fract_z
 _atom_site_occupancy
  Cs  Cs0  1  0.635343  0.635343  0.635343  1
  Sb  Sb1  1  0.001063  0.001063  0.001063  1
  I  I2  1  0.632453  0.836454  0.199476  1
  I  I3  1  0.199476  0.632453  0.836454  1
  I  I4  1  0.836454  0.199476  0.632453  1
  I  I5  1  0.360989  0.165154  0.796997  1
  I  I6  1  0.796997  0.360989  0.165154  1
  I  I7  1  0.165154  0.796997  0.360989  1
  O  O8  1  0.801234  0.831018  0.042459  1
  O  O9  1  0.042459  0.801234  0.831018  1
  O  O10  1  0.831018  0.042459  0.801234  1
  O  O11  1  0.195159  0.171612  0.954851  1
  O  O12  1  0.954851  0.195159  0.171612  1
  O  O13  1  0.171612  0.954851  0.195159  1
  O  O14  1  0.603307  0.603338  0.186742  1
  O  O15  1  0.186742  0.603307  0.603338  1
  O  O16  1  0.603338  0.186742  0.603307  1
  O  O17  1  0.395266  0.399474  0.815548  1
  O  O18  1  0.815548  0.395266  0.399474  1
  O  O19  1  0.399474  0.815548  0.395266  1
  O  O20  1  0.789898  0.902862  0.397473  1
  O  O21  1  0.397473  0.789898  0.902862  1
  O  O22  1  0.902862  0.397473  0.789898  1
  O  O23  1  0.202731  0.097000  0.601657  1
  O  O24  1  0.601657  0.202731  0.097000  1
  O  O25  1  0.097000  0.601657  0.202731  1
