# generated using pymatgen
data_Nd4TiMn4Al3O20
_symmetry_space_group_name_H-M   'P 1'
_cell_length_a   5.75778217
_cell_length_b   7.53929523
_cell_length_c   8.63686541
_cell_angle_alpha   90.24949424
_cell_angle_beta   89.95863457
_cell_angle_gamma   90.01322854
_symmetry_Int_Tables_number   1
_chemical_formula_structural   Nd4TiMn4Al3O20
_chemical_formula_sum   'Nd4 Ti1 Mn4 Al3 O20'
_cell_volume   374.91938036
_cell_formula_units_Z   1
loop_
 _symmetry_equiv_pos_site_id
 _symmetry_equiv_pos_as_xyz
  1  'x, y, z'
loop_
 _atom_site_type_symbol
 _atom_site_label
 _atom_site_symmetry_multiplicity
 _atom_site_fract_x
 _atom_site_fract_y
 _atom_site_fract_z
 _atom_site_occupancy
  Nd  Nd0  1  0.999730  0.366846  0.671509  1
  Nd  Nd1  1  0.999191  0.637257  0.327390  1
  Nd  Nd2  1  0.003086  0.855370  0.828259  1
  Nd  Nd3  1  0.003366  0.140116  0.169797  1
  Ti  Ti4  1  0.502055  0.114768  0.861100  1
  Mn  Mn5  1  0.495494  0.411763  0.351345  1
  Mn  Mn6  1  0.743701  0.995166  0.497264  1
  Mn  Mn7  1  0.748423  0.505531  0.999711  1
  Mn  Mn8  1  0.257204  0.995181  0.497308  1
  Al  Al9  1  0.502442  0.883317  0.142349  1
  Al  Al10  1  0.495045  0.610962  0.644224  1
  Al  Al11  1  0.254955  0.506196  0.999127  1
  O  O12  1  0.258768  0.899627  0.289237  1
  O  O13  1  0.254741  0.096050  0.710592  1
  O  O14  1  0.753005  0.400108  0.204994  1
  O  O15  1  0.741697  0.600794  0.789865  1
  O  O16  1  0.746965  0.095458  0.710217  1
  O  O17  1  0.743301  0.900202  0.289593  1
  O  O18  1  0.260452  0.599629  0.791779  1
  O  O19  1  0.247333  0.400655  0.203094  1
  O  O20  1  0.496803  0.342682  0.933013  1
  O  O21  1  0.496940  0.657325  0.071598  1
  O  O22  1  0.499951  0.838617  0.567641  1
  O  O23  1  0.500385  0.150843  0.439934  1
  O  O24  1  0.286672  0.993090  0.002572  1
  O  O25  1  0.715310  0.504444  0.505062  1
  O  O26  1  0.716133  0.994025  0.002467  1
  O  O27  1  0.278958  0.505267  0.503565  1
  O  O28  1  0.000413  0.153423  0.447544  1
  O  O29  1  0.000324  0.838454  0.551079  1
  O  O30  1  0.997710  0.659540  0.051107  1
  O  O31  1  0.999449  0.347293  0.945665  1
