# generated using pymatgen
data_Pr9Nd11(SnBi)8
_symmetry_space_group_name_H-M   'P 1'
_cell_length_a   8.46475409
_cell_length_b   8.51342008
_cell_length_c   16.21284810
_cell_angle_alpha   90.00801486
_cell_angle_beta   90.00986090
_cell_angle_gamma   90.01350503
_symmetry_Int_Tables_number   1
_chemical_formula_structural   Pr9Nd11(SnBi)8
_chemical_formula_sum   'Pr9 Nd11 Sn8 Bi8'
_cell_volume   1168.36274493
_cell_formula_units_Z   1
loop_
 _symmetry_equiv_pos_site_id
 _symmetry_equiv_pos_as_xyz
  1  'x, y, z'
loop_
 _atom_site_type_symbol
 _atom_site_label
 _atom_site_symmetry_multiplicity
 _atom_site_fract_x
 _atom_site_fract_y
 _atom_site_fract_z
 _atom_site_occupancy
  Pr  Pr0  1  0.891365  0.664807  0.879253  1
  Pr  Pr1  1  0.548534  0.325532  0.890536  1
  Pr  Pr2  1  0.048649  0.174365  0.609440  1
  Pr  Pr3  1  0.451377  0.674372  0.390525  1
  Pr  Pr4  1  0.951388  0.825705  0.109558  1
  Pr  Pr5  1  0.451370  0.674319  0.109471  1
  Pr  Pr6  1  0.951386  0.825633  0.390514  1
  Pr  Pr7  1  0.548586  0.325616  0.609466  1
  Pr  Pr8  1  0.048666  0.174319  0.890514  1
  Nd  Nd9  1  0.391141  0.835365  0.878993  1
  Nd  Nd10  1  0.891158  0.664690  0.620941  1
  Nd  Nd11  1  0.608843  0.164678  0.379000  1
  Nd  Nd12  1  0.108825  0.335341  0.120955  1
  Nd  Nd13  1  0.608816  0.164677  0.121015  1
  Nd  Nd14  1  0.108856  0.335323  0.379013  1
  Nd  Nd15  1  0.391178  0.835337  0.620957  1
  Nd  Nd16  1  0.217824  0.496287  0.749940  1
  Nd  Nd17  1  0.717581  0.003740  0.749961  1
  Nd  Nd18  1  0.782320  0.503583  0.250014  1
  Nd  Nd19  1  0.282316  0.996385  0.249988  1
  Sn  Sn20  1  0.589559  0.623006  0.749824  1
  Sn  Sn21  1  0.090217  0.877295  0.749766  1
  Sn  Sn22  1  0.410103  0.376880  0.250012  1
  Sn  Sn23  1  0.910117  0.123102  0.250002  1
  Sn  Sn24  1  0.349728  0.136218  0.749985  1
  Sn  Sn25  1  0.849685  0.363461  0.749829  1
  Sn  Sn26  1  0.650232  0.863735  0.249997  1
  Sn  Sn27  1  0.150217  0.636247  0.249996  1
  Bi  Bi28  1  0.269400  0.020138  0.044998  1
  Bi  Bi29  1  0.769415  0.479842  0.455013  1
  Bi  Bi30  1  0.730580  0.979815  0.544975  1
  Bi  Bi31  1  0.231154  0.519860  0.955117  1
  Bi  Bi32  1  0.730248  0.980526  0.955127  1
  Bi  Bi33  1  0.230547  0.520155  0.544977  1
  Bi  Bi34  1  0.269429  0.020155  0.455014  1
  Bi  Bi35  1  0.769192  0.479492  0.045312  1
