# generated using pymatgen
data_Gd3Ho(MoN3)4
_symmetry_space_group_name_H-M   'P 1'
_cell_length_a   7.34431056
_cell_length_b   7.34431037
_cell_length_c   6.29716900
_cell_angle_alpha   73.81006754
_cell_angle_beta   73.81006798
_cell_angle_gamma   82.08396808
_symmetry_Int_Tables_number   1
_chemical_formula_structural   Gd3Ho(MoN3)4
_chemical_formula_sum   'Gd3 Ho1 Mo4 N12'
_cell_volume   312.59316068
_cell_formula_units_Z   1
loop_
 _symmetry_equiv_pos_site_id
 _symmetry_equiv_pos_as_xyz
  1  'x, y, z'
loop_
 _atom_site_type_symbol
 _atom_site_label
 _atom_site_symmetry_multiplicity
 _atom_site_fract_x
 _atom_site_fract_y
 _atom_site_fract_z
 _atom_site_occupancy
  Gd  Gd0  1  0.704900  0.295100  0.250000  1
  Gd  Gd1  1  0.087933  0.912067  0.250000  1
  Gd  Gd2  1  0.295544  0.704456  0.750000  1
  Ho  Ho3  1  0.911495  0.088505  0.750000  1
  Mo  Mo4  1  0.800312  0.619912  0.769033  1
  Mo  Mo5  1  0.199837  0.379456  0.232987  1
  Mo  Mo6  1  0.620544  0.800163  0.267013  1
  Mo  Mo7  1  0.380088  0.199688  0.730967  1
  N  N8  1  0.217221  0.001526  0.844213  1
  N  N9  1  0.363749  0.350090  0.438924  1
  N  N10  1  0.640196  0.652505  0.558597  1
  N  N11  1  0.622717  0.112120  0.663581  1
  N  N12  1  0.998474  0.782779  0.655787  1
  N  N13  1  0.781141  0.000311  0.148692  1
  N  N14  1  0.112576  0.621703  0.160182  1
  N  N15  1  0.887880  0.377283  0.836419  1
  N  N16  1  0.999689  0.218859  0.351308  1
  N  N17  1  0.347495  0.359804  0.941403  1
  N  N18  1  0.649910  0.636251  0.061076  1
  N  N19  1  0.378297  0.887424  0.339818  1
