# generated using pymatgen
data_La2Ce2NdRu2
_symmetry_space_group_name_H-M   'P 1'
_cell_length_a   9.18486537
_cell_length_b   9.18486598
_cell_length_c   7.15906558
_cell_angle_alpha   85.81053739
_cell_angle_beta   85.81053568
_cell_angle_gamma   41.79087644
_symmetry_Int_Tables_number   1
_chemical_formula_structural   La2Ce2NdRu2
_chemical_formula_sum   'La4 Ce4 Nd2 Ru4'
_cell_volume   401.24904230
_cell_formula_units_Z   2
loop_
 _symmetry_equiv_pos_site_id
 _symmetry_equiv_pos_as_xyz
  1  'x, y, z'
loop_
 _atom_site_type_symbol
 _atom_site_label
 _atom_site_symmetry_multiplicity
 _atom_site_fract_x
 _atom_site_fract_y
 _atom_site_fract_z
 _atom_site_occupancy
  La  La0  1  0.353731  0.215486  0.822788  1
  La  La1  1  0.784514  0.646269  0.677212  1
  La  La2  1  0.646269  0.784514  0.177212  1
  La  La3  1  0.215486  0.353731  0.322788  1
  Ce  Ce4  1  0.008415  0.809748  0.902118  1
  Ce  Ce5  1  0.190252  0.991585  0.597882  1
  Ce  Ce6  1  0.991585  0.190252  0.097882  1
  Ce  Ce7  1  0.809748  0.008415  0.402118  1
  Nd  Nd8  1  0.579300  0.420700  0.750000  1
  Nd  Nd9  1  0.420700  0.579300  0.250000  1
  Ru  Ru10  1  0.141631  0.642906  0.598345  1
  Ru  Ru11  1  0.357094  0.858369  0.901655  1
  Ru  Ru12  1  0.858369  0.357094  0.401655  1
  Ru  Ru13  1  0.642906  0.141631  0.098345  1
