# generated using pymatgen
data_FeSbPd2(SeO3)8
_symmetry_space_group_name_H-M   'P 1'
_cell_length_a   8.12901038
_cell_length_b   8.16728054
_cell_length_c   8.14283160
_cell_angle_alpha   89.79125395
_cell_angle_beta   89.75983729
_cell_angle_gamma   89.74964585
_symmetry_Int_Tables_number   1
_chemical_formula_structural   FeSbPd2(SeO3)8
_chemical_formula_sum   'Fe1 Sb1 Pd2 Se8 O24'
_cell_volume   540.60466645
_cell_formula_units_Z   1
loop_
 _symmetry_equiv_pos_site_id
 _symmetry_equiv_pos_as_xyz
  1  'x, y, z'
loop_
 _atom_site_type_symbol
 _atom_site_label
 _atom_site_symmetry_multiplicity
 _atom_site_fract_x
 _atom_site_fract_y
 _atom_site_fract_z
 _atom_site_occupancy
  Fe  Fe0  1  0.000000  0.000000  0.500000  1
  Sb  Sb1  1  0.500000  0.000000  0.000000  1
  Pd  Pd2  1  0.000000  0.500000  0.000000  1
  Pd  Pd3  1  0.500000  0.500000  0.500000  1
  Se  Se4  1  0.324415  0.657539  0.175436  1
  Se  Se5  1  0.830945  0.339679  0.330944  1
  Se  Se6  1  0.667495  0.823632  0.660011  1
  Se  Se7  1  0.159988  0.177086  0.832190  1
  Se  Se8  1  0.675585  0.342461  0.824564  1
  Se  Se9  1  0.169055  0.660321  0.669056  1
  Se  Se10  1  0.332505  0.176368  0.339989  1
  Se  Se11  1  0.840012  0.822914  0.167810  1
  O  O12  1  0.246349  0.522499  0.029861  1
  O  O13  1  0.746768  0.474340  0.478838  1
  O  O14  1  0.756013  0.965467  0.536368  1
  O  O15  1  0.257822  0.036936  0.972421  1
  O  O16  1  0.523953  0.959883  0.758669  1
  O  O17  1  0.470872  0.521237  0.253989  1
  O  O18  1  0.968198  0.485228  0.246252  1
  O  O19  1  0.032841  0.040934  0.742621  1
  O  O20  1  0.965387  0.241851  0.458230  1
  O  O21  1  0.523882  0.746327  0.520370  1
  O  O22  1  0.462207  0.756692  0.038673  1
  O  O23  1  0.020475  0.253921  0.978250  1
  O  O24  1  0.753651  0.477501  0.970139  1
  O  O25  1  0.253232  0.525660  0.521162  1
  O  O26  1  0.243987  0.034533  0.463632  1
  O  O27  1  0.742178  0.963064  0.027579  1
  O  O28  1  0.476047  0.040117  0.241331  1
  O  O29  1  0.529128  0.478763  0.746011  1
  O  O30  1  0.031802  0.514772  0.753748  1
  O  O31  1  0.967159  0.959066  0.257379  1
  O  O32  1  0.034613  0.758149  0.541770  1
  O  O33  1  0.476118  0.253673  0.479630  1
  O  O34  1  0.537793  0.243308  0.961327  1
  O  O35  1  0.979525  0.746079  0.021750  1
