# generated using pymatgen
data_Ce5Ta(Be2Ru5)2
_symmetry_space_group_name_H-M   'P 1'
_cell_length_a   9.83088500
_cell_length_b   9.83088500
_cell_length_c   3.28835600
_cell_angle_alpha   90.00000000
_cell_angle_beta   90.00000000
_cell_angle_gamma   90.00000000
_symmetry_Int_Tables_number   1
_chemical_formula_structural   Ce5Ta(Be2Ru5)2
_chemical_formula_sum   'Ce5 Ta1 Be4 Ru10'
_cell_volume   317.80744010
_cell_formula_units_Z   1
loop_
 _symmetry_equiv_pos_site_id
 _symmetry_equiv_pos_as_xyz
  1  'x, y, z'
loop_
 _atom_site_type_symbol
 _atom_site_label
 _atom_site_symmetry_multiplicity
 _atom_site_fract_x
 _atom_site_fract_y
 _atom_site_fract_z
 _atom_site_occupancy
  Ce  Ce0  1  0.831840  0.677248  0.000000  1
  Ce  Ce1  1  0.168160  0.322752  0.000000  1
  Ce  Ce2  1  0.322752  0.831840  0.000000  1
  Ce  Ce3  1  0.677248  0.168160  0.000000  1
  Ce  Ce4  1  0.500000  0.500000  0.000000  1
  Ta  Ta5  1  0.000000  0.000000  0.000000  1
  Be  Be6  1  0.621468  0.879536  0.000000  1
  Be  Be7  1  0.378532  0.120464  0.000000  1
  Be  Be8  1  0.120464  0.621468  0.000000  1
  Be  Be9  1  0.879536  0.378532  0.000000  1
  Ru  Ru10  1  0.573653  0.714136  0.500000  1
  Ru  Ru11  1  0.426347  0.285864  0.500000  1
  Ru  Ru12  1  0.071518  0.790211  0.500000  1
  Ru  Ru13  1  0.928482  0.209789  0.500000  1
  Ru  Ru14  1  0.285864  0.573653  0.500000  1
  Ru  Ru15  1  0.714136  0.426347  0.500000  1
  Ru  Ru16  1  0.209789  0.071518  0.500000  1
  Ru  Ru17  1  0.790211  0.928482  0.500000  1
  Ru  Ru18  1  0.500000  0.000000  0.500000  1
  Ru  Ru19  1  0.000000  0.500000  0.500000  1
