# generated using pymatgen
data_La2Y3RuRh
_symmetry_space_group_name_H-M   'P 1'
_cell_length_a   6.56378509
_cell_length_b   7.25217638
_cell_length_c   8.95079995
_cell_angle_alpha   96.16535779
_cell_angle_beta   111.50973070
_cell_angle_gamma   89.99999650
_symmetry_Int_Tables_number   1
_chemical_formula_structural   La2Y3RuRh
_chemical_formula_sum   'La4 Y6 Ru2 Rh2'
_cell_volume   393.74972846
_cell_formula_units_Z   2
loop_
 _symmetry_equiv_pos_site_id
 _symmetry_equiv_pos_as_xyz
  1  'x, y, z'
loop_
 _atom_site_type_symbol
 _atom_site_label
 _atom_site_symmetry_multiplicity
 _atom_site_fract_x
 _atom_site_fract_y
 _atom_site_fract_z
 _atom_site_occupancy
  La  La0  1  0.987848  0.912110  0.193715  1
  La  La1  1  0.794134  0.587890  0.806285  1
  La  La2  1  0.021495  0.094331  0.807257  1
  La  La3  1  0.214237  0.405669  0.192743  1
  Y  Y4  1  0.637643  0.815721  0.428018  1
  Y  Y5  1  0.209626  0.684279  0.571982  1
  Y  Y6  1  0.361549  0.185958  0.568412  1
  Y  Y7  1  0.793137  0.314042  0.431588  1
  Y  Y8  1  0.428848  0.750000  0.000000  1
  Y  Y9  1  0.572042  0.250000  0.000000  1
  Ru  Ru10  1  0.167918  0.419365  0.773394  1
  Ru  Ru11  1  0.394524  0.080635  0.226606  1
  Rh  Rh12  1  0.821138  0.577975  0.225279  1
  Rh  Rh13  1  0.595860  0.922025  0.774721  1
