# generated using pymatgen
data_Fe2NiI8
_symmetry_space_group_name_H-M   'P 1'
_cell_length_a   10.79920827
_cell_length_b   10.79920764
_cell_length_c   13.47474082
_cell_angle_alpha   54.79074761
_cell_angle_beta   54.79075062
_cell_angle_gamma   48.12837763
_symmetry_Int_Tables_number   1
_chemical_formula_structural   Fe2NiI8
_chemical_formula_sum   'Fe4 Ni2 I16'
_cell_volume   907.38155267
_cell_formula_units_Z   2
loop_
 _symmetry_equiv_pos_site_id
 _symmetry_equiv_pos_as_xyz
  1  'x, y, z'
loop_
 _atom_site_type_symbol
 _atom_site_label
 _atom_site_symmetry_multiplicity
 _atom_site_fract_x
 _atom_site_fract_y
 _atom_site_fract_z
 _atom_site_occupancy
  Fe  Fe0  1  0.681841  0.157567  0.028161  1
  Fe  Fe1  1  0.318159  0.842433  0.971839  1
  Fe  Fe2  1  0.842433  0.318159  0.471839  1
  Fe  Fe3  1  0.157567  0.681841  0.528161  1
  Ni  Ni4  1  0.992688  0.007312  0.750000  1
  Ni  Ni5  1  0.007312  0.992688  0.250000  1
  I  I6  1  0.854322  0.840504  0.509501  1
  I  I7  1  0.145678  0.159496  0.490499  1
  I  I8  1  0.680767  0.639462  0.434447  1
  I  I9  1  0.639462  0.680767  0.934447  1
  I  I10  1  0.840504  0.854322  0.009501  1
  I  I11  1  0.856454  0.297087  0.284584  1
  I  I12  1  0.150327  0.710128  0.195318  1
  I  I13  1  0.289872  0.849673  0.304682  1
  I  I14  1  0.143546  0.702913  0.715416  1
  I  I15  1  0.319233  0.360538  0.565553  1
  I  I16  1  0.702913  0.143546  0.215416  1
  I  I17  1  0.159496  0.145678  0.990499  1
  I  I18  1  0.360538  0.319233  0.065553  1
  I  I19  1  0.297087  0.856454  0.784584  1
  I  I20  1  0.710128  0.150327  0.695318  1
  I  I21  1  0.849673  0.289872  0.804682  1
