# generated using pymatgen
data_Sc22RuRh7
_symmetry_space_group_name_H-M   'P 1'
_cell_length_a   9.49886800
_cell_length_b   9.49886780
_cell_length_c   9.49886800
_cell_angle_alpha   59.99999931
_cell_angle_beta   60.00000001
_cell_angle_gamma   59.99999930
_symmetry_Int_Tables_number   1
_chemical_formula_structural   Sc22RuRh7
_chemical_formula_sum   'Sc22 Ru1 Rh7'
_cell_volume   606.03896313
_cell_formula_units_Z   1
loop_
 _symmetry_equiv_pos_site_id
 _symmetry_equiv_pos_as_xyz
  1  'x, y, z'
loop_
 _atom_site_type_symbol
 _atom_site_label
 _atom_site_symmetry_multiplicity
 _atom_site_fract_x
 _atom_site_fract_y
 _atom_site_fract_z
 _atom_site_occupancy
  Sc  Sc0  1  0.802438  0.802438  0.197562  1
  Sc  Sc1  1  0.197562  0.802438  0.197562  1
  Sc  Sc2  1  0.802438  0.197562  0.197562  1
  Sc  Sc3  1  0.197562  0.197562  0.802438  1
  Sc  Sc4  1  0.802438  0.197562  0.802438  1
  Sc  Sc5  1  0.197562  0.802438  0.802438  1
  Sc  Sc6  1  0.615893  0.615893  0.152321  1
  Sc  Sc7  1  0.615893  0.152321  0.615893  1
  Sc  Sc8  1  0.152321  0.615893  0.615893  1
  Sc  Sc9  1  0.615893  0.615893  0.615893  1
  Sc  Sc10  1  0.384107  0.384107  0.847679  1
  Sc  Sc11  1  0.384107  0.847679  0.384107  1
  Sc  Sc12  1  0.847679  0.384107  0.384107  1
  Sc  Sc13  1  0.384107  0.384107  0.384107  1
  Sc  Sc14  1  0.842019  0.842019  0.473942  1
  Sc  Sc15  1  0.842019  0.473942  0.842019  1
  Sc  Sc16  1  0.473942  0.842019  0.842019  1
  Sc  Sc17  1  0.842019  0.842019  0.842019  1
  Sc  Sc18  1  0.157981  0.157981  0.526058  1
  Sc  Sc19  1  0.157981  0.526058  0.157981  1
  Sc  Sc20  1  0.526058  0.157981  0.157981  1
  Sc  Sc21  1  0.157981  0.157981  0.157981  1
  Ru  Ru22  1  0.500000  0.500000  0.500000  1
  Rh  Rh23  1  0.000000  0.000000  0.000000  1
  Rh  Rh24  1  0.000000  0.000000  0.500000  1
  Rh  Rh25  1  0.500000  0.000000  0.500000  1
  Rh  Rh26  1  0.000000  0.500000  0.500000  1
  Rh  Rh27  1  0.500000  0.500000  0.000000  1
  Rh  Rh28  1  0.000000  0.500000  0.000000  1
  Rh  Rh29  1  0.500000  0.000000  0.000000  1
