# generated using pymatgen
data_Pu2V2O11
_symmetry_space_group_name_H-M   'P 1'
_cell_length_a   13.12440400
_cell_length_b   6.14783136
_cell_length_c   7.35626999
_cell_angle_alpha   59.73942096
_cell_angle_beta   90.00000000
_cell_angle_gamma   90.00000000
_symmetry_Int_Tables_number   1
_chemical_formula_structural   Pu2V2O11
_chemical_formula_sum   'Pu4 V4 O22'
_cell_volume   512.67657379
_cell_formula_units_Z   2
loop_
 _symmetry_equiv_pos_site_id
 _symmetry_equiv_pos_as_xyz
  1  'x, y, z'
loop_
 _atom_site_type_symbol
 _atom_site_label
 _atom_site_symmetry_multiplicity
 _atom_site_fract_x
 _atom_site_fract_y
 _atom_site_fract_z
 _atom_site_occupancy
  Pu  Pu0  1  0.676620  0.162503  0.171170  1
  Pu  Pu1  1  0.176620  0.837497  0.328830  1
  Pu  Pu2  1  0.323380  0.837497  0.828830  1
  Pu  Pu3  1  0.823380  0.162503  0.671170  1
  V  V4  1  0.929263  0.210006  0.146716  1
  V  V5  1  0.429263  0.789994  0.353284  1
  V  V6  1  0.070737  0.789994  0.853284  1
  V  V7  1  0.570737  0.210006  0.646716  1
  O  O8  1  0.511231  0.039449  0.237376  1
  O  O9  1  0.011231  0.960551  0.262624  1
  O  O10  1  0.488769  0.960551  0.762624  1
  O  O11  1  0.988769  0.039449  0.737376  1
  O  O12  1  0.657852  0.173298  0.487308  1
  O  O13  1  0.157852  0.826702  0.012692  1
  O  O14  1  0.342148  0.826702  0.512692  1
  O  O15  1  0.842148  0.173298  0.987308  1
  O  O16  1  0.500000  0.500000  0.500000  1
  O  O17  1  0.000000  0.500000  0.000000  1
  O  O18  1  0.846166  0.205541  0.331396  1
  O  O19  1  0.346166  0.794459  0.168604  1
  O  O20  1  0.153834  0.794459  0.668604  1
  O  O21  1  0.653834  0.205541  0.831396  1
  O  O22  1  0.797713  0.836937  0.799563  1
  O  O23  1  0.647451  0.486349  0.045009  1
  O  O24  1  0.202287  0.163063  0.200437  1
  O  O25  1  0.702287  0.836937  0.299563  1
  O  O26  1  0.852549  0.486349  0.545009  1
  O  O27  1  0.352549  0.513651  0.954991  1
  O  O28  1  0.147451  0.513651  0.454991  1
  O  O29  1  0.297713  0.163063  0.700437  1
