# generated using pymatgen
data_Ba5Ca(NbH9)3
_symmetry_space_group_name_H-M   'P 1'
_cell_length_a   9.51857500
_cell_length_b   9.42707531
_cell_length_c   5.49401900
_cell_angle_alpha   90.00000000
_cell_angle_beta   90.00000000
_cell_angle_gamma   119.68253580
_symmetry_Int_Tables_number   1
_chemical_formula_structural   Ba5Ca(NbH9)3
_chemical_formula_sum   'Ba5 Ca1 Nb3 H27'
_cell_volume   428.30202831
_cell_formula_units_Z   1
loop_
 _symmetry_equiv_pos_site_id
 _symmetry_equiv_pos_as_xyz
  1  'x, y, z'
loop_
 _atom_site_type_symbol
 _atom_site_label
 _atom_site_symmetry_multiplicity
 _atom_site_fract_x
 _atom_site_fract_y
 _atom_site_fract_z
 _atom_site_occupancy
  Ba  Ba0  1  0.734084  0.735442  0.500000  1
  Ba  Ba1  1  0.265916  0.001357  0.500000  1
  Ba  Ba2  1  0.000000  0.582164  0.000000  1
  Ba  Ba3  1  0.400308  0.400509  0.000000  1
  Ba  Ba4  1  0.599692  0.000201  0.000000  1
  Ca  Ca5  1  0.000000  0.262415  0.500000  1
  Nb  Nb6  1  0.677023  0.331018  0.500000  1
  Nb  Nb7  1  0.322977  0.653996  0.500000  1
  Nb  Nb8  1  0.000000  0.016179  0.000000  1
  H  H9  1  0.816076  0.311138  0.729790  1
  H  H10  1  0.690902  0.472330  0.755182  1
  H  H11  1  0.532328  0.206642  0.751833  1
  H  H12  1  0.183924  0.495063  0.270210  1
  H  H13  1  0.532328  0.206642  0.248167  1
  H  H14  1  0.816076  0.311138  0.270210  1
  H  H15  1  0.690902  0.472330  0.244818  1
  H  H16  1  0.309098  0.781429  0.755182  1
  H  H17  1  0.467672  0.674316  0.751833  1
  H  H18  1  0.201721  0.027770  0.000000  1
  H  H19  1  0.798279  0.826049  0.000000  1
  H  H20  1  0.000000  0.213422  0.000000  1
  H  H21  1  0.866382  0.021568  0.247706  1
  H  H22  1  0.133618  0.155185  0.752294  1
  H  H23  1  0.000000  0.865725  0.773881  1
  H  H24  1  0.000000  0.865725  0.226119  1
  H  H25  1  0.133618  0.155185  0.247706  1
  H  H26  1  0.866382  0.021568  0.752294  1
  H  H27  1  0.129202  0.651218  0.500000  1
  H  H28  1  0.506398  0.858855  0.500000  1
  H  H29  1  0.349414  0.473778  0.500000  1
  H  H30  1  0.493602  0.352457  0.500000  1
  H  H31  1  0.870798  0.522015  0.500000  1
  H  H32  1  0.650586  0.124364  0.500000  1
  H  H33  1  0.183924  0.495063  0.729790  1
  H  H34  1  0.309098  0.781429  0.244818  1
  H  H35  1  0.467672  0.674316  0.248167  1
