# generated using pymatgen
data_Tb8TcOsBr8
_symmetry_space_group_name_H-M   'P 1'
_cell_length_a   9.05926466
_cell_length_b   9.05926394
_cell_length_c   6.57561063
_cell_angle_alpha   89.82634052
_cell_angle_beta   89.82633854
_cell_angle_gamma   89.31182851
_symmetry_Int_Tables_number   1
_chemical_formula_structural   Tb8TcOsBr8
_chemical_formula_sum   'Tb8 Tc1 Os1 Br8'
_cell_volume   539.61831387
_cell_formula_units_Z   1
loop_
 _symmetry_equiv_pos_site_id
 _symmetry_equiv_pos_as_xyz
  1  'x, y, z'
loop_
 _atom_site_type_symbol
 _atom_site_label
 _atom_site_symmetry_multiplicity
 _atom_site_fract_x
 _atom_site_fract_y
 _atom_site_fract_z
 _atom_site_occupancy
  Tb  Tb0  1  0.751307  0.099307  0.989424  1
  Tb  Tb1  1  0.099317  0.752022  0.488895  1
  Tb  Tb2  1  0.096543  0.246748  0.995046  1
  Tb  Tb3  1  0.247037  0.097103  0.494364  1
  Tb  Tb4  1  0.902897  0.752963  0.005636  1
  Tb  Tb5  1  0.900693  0.248693  0.510576  1
  Tb  Tb6  1  0.247978  0.900683  0.011105  1
  Tb  Tb7  1  0.753252  0.903457  0.504954  1
  Tc  Tc8  1  0.995557  0.004443  0.250000  1
  Os  Os9  1  0.004123  0.995877  0.750000  1
  Br  Br10  1  0.583151  0.182294  0.586767  1
  Br  Br11  1  0.812392  0.587713  0.413526  1
  Br  Br12  1  0.412287  0.187608  0.086474  1
  Br  Br13  1  0.188184  0.411863  0.587689  1
  Br  Br14  1  0.588137  0.811816  0.912311  1
  Br  Br15  1  0.416799  0.817362  0.415712  1
  Br  Br16  1  0.182638  0.583201  0.084288  1
  Br  Br17  1  0.817706  0.416849  0.913233  1
