# generated using pymatgen
data_DyYV3Co9As7
_symmetry_space_group_name_H-M   'P 1'
_cell_length_a   3.77235200
_cell_length_b   9.40418602
_cell_length_c   9.40418700
_cell_angle_alpha   119.99999993
_cell_angle_beta   90.00000000
_cell_angle_gamma   90.00000000
_symmetry_Int_Tables_number   1
_chemical_formula_structural   DyYV3Co9As7
_chemical_formula_sum   'Dy1 Y1 V3 Co9 As7'
_cell_volume   288.92512486
_cell_formula_units_Z   1
loop_
 _symmetry_equiv_pos_site_id
 _symmetry_equiv_pos_as_xyz
  1  'x, y, z'
loop_
 _atom_site_type_symbol
 _atom_site_label
 _atom_site_symmetry_multiplicity
 _atom_site_fract_x
 _atom_site_fract_y
 _atom_site_fract_z
 _atom_site_occupancy
  Dy  Dy0  1  0.500000  0.333333  0.666667  1
  Y  Y1  1  0.000000  0.666667  0.333333  1
  V  V2  1  0.500000  0.782161  0.898788  1
  V  V3  1  0.500000  0.116627  0.217839  1
  V  V4  1  0.500000  0.101212  0.883373  1
  Co  Co5  1  0.000000  0.569740  0.941256  1
  Co  Co6  1  0.000000  0.371515  0.430260  1
  Co  Co7  1  0.000000  0.058744  0.628485  1
  Co  Co8  1  0.000000  0.878076  0.157339  1
  Co  Co9  1  0.000000  0.279263  0.121924  1
  Co  Co10  1  0.000000  0.842661  0.720737  1
  Co  Co11  1  0.500000  0.950303  0.382846  1
  Co  Co12  1  0.500000  0.432542  0.049697  1
  Co  Co13  1  0.500000  0.617154  0.567458  1
  As  As14  1  0.000000  0.000000  0.000000  1
  As  As15  1  0.500000  0.708036  0.118039  1
  As  As16  1  0.500000  0.410003  0.291964  1
  As  As17  1  0.500000  0.881961  0.589997  1
  As  As18  1  0.000000  0.587166  0.701995  1
  As  As19  1  0.000000  0.114829  0.412834  1
  As  As20  1  0.000000  0.298005  0.885171  1
