# generated using pymatgen
data_Ce2ReB6
_symmetry_space_group_name_H-M   'P 1'
_cell_length_a   3.73212700
_cell_length_b   9.43934000
_cell_length_c   11.55671800
_cell_angle_alpha   90.00000000
_cell_angle_beta   90.00000000
_cell_angle_gamma   90.00000000
_symmetry_Int_Tables_number   1
_chemical_formula_structural   Ce2ReB6
_chemical_formula_sum   'Ce8 Re4 B24'
_cell_volume   407.12948824
_cell_formula_units_Z   4
loop_
 _symmetry_equiv_pos_site_id
 _symmetry_equiv_pos_as_xyz
  1  'x, y, z'
loop_
 _atom_site_type_symbol
 _atom_site_label
 _atom_site_symmetry_multiplicity
 _atom_site_fract_x
 _atom_site_fract_y
 _atom_site_fract_z
 _atom_site_occupancy
  Ce  Ce0  1  0.000000  0.334574  0.408303  1
  Ce  Ce1  1  0.000000  0.665426  0.591697  1
  Ce  Ce2  1  0.000000  0.834574  0.091697  1
  Ce  Ce3  1  0.000000  0.165426  0.908303  1
  Ce  Ce4  1  0.000000  0.953101  0.389113  1
  Ce  Ce5  1  0.000000  0.046899  0.610887  1
  Ce  Ce6  1  0.000000  0.453101  0.110887  1
  Ce  Ce7  1  0.000000  0.546899  0.889113  1
  Re  Re8  1  0.000000  0.643375  0.320981  1
  Re  Re9  1  0.000000  0.356625  0.679019  1
  Re  Re10  1  0.000000  0.143375  0.179019  1
  Re  Re11  1  0.000000  0.856625  0.820981  1
  B  B12  1  0.500000  0.552482  0.430335  1
  B  B13  1  0.500000  0.447518  0.569665  1
  B  B14  1  0.500000  0.052482  0.069665  1
  B  B15  1  0.500000  0.947518  0.930335  1
  B  B16  1  0.500000  0.741781  0.422876  1
  B  B17  1  0.500000  0.258219  0.577124  1
  B  B18  1  0.500000  0.241781  0.077124  1
  B  B19  1  0.500000  0.758219  0.922876  1
  B  B20  1  0.500000  0.797764  0.274597  1
  B  B21  1  0.500000  0.202236  0.725403  1
  B  B22  1  0.500000  0.297764  0.225403  1
  B  B23  1  0.500000  0.702236  0.774597  1
  B  B24  1  0.500000  0.643474  0.189617  1
  B  B25  1  0.500000  0.356526  0.810383  1
  B  B26  1  0.500000  0.143474  0.310383  1
  B  B27  1  0.500000  0.856526  0.689617  1
  B  B28  1  0.500000  0.990021  0.217346  1
  B  B29  1  0.500000  0.009979  0.782654  1
  B  B30  1  0.500000  0.490021  0.282654  1
  B  B31  1  0.500000  0.509979  0.717346  1
  B  B32  1  0.500000  0.646022  0.040752  1
  B  B33  1  0.500000  0.353978  0.959248  1
  B  B34  1  0.500000  0.146022  0.459248  1
  B  B35  1  0.500000  0.853978  0.540752  1
