# generated using pymatgen
data_Rb2GdTa5O15
_symmetry_space_group_name_H-M   'P 1'
_cell_length_a   9.29109200
_cell_length_b   9.29109296
_cell_length_c   3.95399300
_cell_angle_alpha   90.00000000
_cell_angle_beta   90.00000000
_cell_angle_gamma   111.77617757
_symmetry_Int_Tables_number   1
_chemical_formula_structural   Rb2GdTa5O15
_chemical_formula_sum   'Rb2 Gd1 Ta5 O15'
_cell_volume   316.96909546
_cell_formula_units_Z   1
loop_
 _symmetry_equiv_pos_site_id
 _symmetry_equiv_pos_as_xyz
  1  'x, y, z'
loop_
 _atom_site_type_symbol
 _atom_site_label
 _atom_site_symmetry_multiplicity
 _atom_site_fract_x
 _atom_site_fract_y
 _atom_site_fract_z
 _atom_site_occupancy
  Rb  Rb0  1  0.298280  0.701720  0.000000  1
  Rb  Rb1  1  0.701720  0.298280  0.000000  1
  Gd  Gd2  1  0.000000  0.000000  0.000000  1
  Ta  Ta3  1  0.319524  0.061173  0.500000  1
  Ta  Ta4  1  0.061173  0.319524  0.500000  1
  Ta  Ta5  1  0.680476  0.938827  0.500000  1
  Ta  Ta6  1  0.938827  0.680476  0.500000  1
  Ta  Ta7  1  0.500000  0.500000  0.500000  1
  O  O8  1  0.131995  0.131995  0.500000  1
  O  O9  1  0.155235  0.844765  0.500000  1
  O  O10  1  0.273772  0.457352  0.500000  1
  O  O11  1  0.844765  0.155235  0.500000  1
  O  O12  1  0.868005  0.868005  0.500000  1
  O  O13  1  0.286543  0.049855  0.000000  1
  O  O14  1  0.713457  0.950145  0.000000  1
  O  O15  1  0.542648  0.726228  0.500000  1
  O  O16  1  0.049855  0.286543  0.000000  1
  O  O17  1  0.500000  0.000000  0.500000  1
  O  O18  1  0.457352  0.273772  0.500000  1
  O  O19  1  0.950145  0.713457  0.000000  1
  O  O20  1  0.500000  0.500000  0.000000  1
  O  O21  1  0.726228  0.542648  0.500000  1
  O  O22  1  0.000000  0.500000  0.500000  1
