# generated using pymatgen
data_KBaFeCo3As4
_symmetry_space_group_name_H-M   'P 1'
_cell_length_a   7.14587609
_cell_length_b   7.15620275
_cell_length_c   5.46562500
_cell_angle_alpha   90.00000000
_cell_angle_beta   90.00000000
_cell_angle_gamma   135.13626562
_symmetry_Int_Tables_number   1
_chemical_formula_structural   KBaFeCo3As4
_chemical_formula_sum   'K1 Ba1 Fe1 Co3 As4'
_cell_volume   197.16399759
_cell_formula_units_Z   1
loop_
 _symmetry_equiv_pos_site_id
 _symmetry_equiv_pos_as_xyz
  1  'x, y, z'
loop_
 _atom_site_type_symbol
 _atom_site_label
 _atom_site_symmetry_multiplicity
 _atom_site_fract_x
 _atom_site_fract_y
 _atom_site_fract_z
 _atom_site_occupancy
  K  K0  1  0.000000  0.000000  0.998887  1
  Ba  Ba1  1  0.500000  0.500000  0.502006  1
  Fe  Fe2  1  0.500000  0.000000  0.250526  1
  Co  Co3  1  0.500000  0.000000  0.749279  1
  Co  Co4  1  0.000000  0.500000  0.251215  1
  Co  Co5  1  0.000000  0.500000  0.748764  1
  As  As6  1  0.650867  0.344165  0.002130  1
  As  As7  1  0.154473  0.849933  0.497532  1
  As  As8  1  0.845527  0.150067  0.497532  1
  As  As9  1  0.349133  0.655835  0.002130  1
