# generated using pymatgen
data_Ce17Sm3Si15Os
_symmetry_space_group_name_H-M   'P 1'
_cell_length_a   7.47915700
_cell_length_b   7.79943193
_cell_length_c   14.77720100
_cell_angle_alpha   90.00000000
_cell_angle_beta   90.00000000
_cell_angle_gamma   89.83349933
_symmetry_Int_Tables_number   1
_chemical_formula_structural   Ce17Sm3Si15Os
_chemical_formula_sum   'Ce17 Sm3 Si15 Os1'
_cell_volume   861.99742601
_cell_formula_units_Z   1
loop_
 _symmetry_equiv_pos_site_id
 _symmetry_equiv_pos_as_xyz
  1  'x, y, z'
loop_
 _atom_site_type_symbol
 _atom_site_label
 _atom_site_symmetry_multiplicity
 _atom_site_fract_x
 _atom_site_fract_y
 _atom_site_fract_z
 _atom_site_occupancy
  Ce  Ce0  1  0.813349  0.319372  0.622755  1
  Ce  Ce1  1  0.474932  0.688917  0.900885  1
  Ce  Ce2  1  0.973073  0.821586  0.903757  1
  Ce  Ce3  1  0.197426  0.675433  0.126056  1
  Ce  Ce4  1  0.675085  0.810310  0.125278  1
  Ce  Ce5  1  0.324292  0.177120  0.874981  1
  Ce  Ce6  1  0.197426  0.675433  0.373944  1
  Ce  Ce7  1  0.020994  0.173920  0.093634  1
  Ce  Ce8  1  0.324292  0.177120  0.625019  1
  Ce  Ce9  1  0.520575  0.325633  0.403783  1
  Ce  Ce10  1  0.813349  0.319372  0.877245  1
  Ce  Ce11  1  0.973073  0.821586  0.596243  1
  Ce  Ce12  1  0.474932  0.688917  0.599115  1
  Ce  Ce13  1  0.020994  0.173920  0.406366  1
  Ce  Ce14  1  0.675085  0.810310  0.374722  1
  Ce  Ce15  1  0.628809  0.018005  0.750000  1
  Ce  Ce16  1  0.520575  0.325633  0.096217  1
  Sm  Sm17  1  0.138572  0.505041  0.750000  1
  Sm  Sm18  1  0.853526  0.483850  0.250000  1
  Sm  Sm19  1  0.357335  0.014952  0.250000  1
  Si  Si20  1  0.233147  0.365695  0.250000  1
  Si  Si21  1  0.865474  0.526382  0.459853  1
  Si  Si22  1  0.521764  0.415126  0.750000  1
  Si  Si23  1  0.647589  0.025962  0.963417  1
  Si  Si24  1  0.019351  0.093550  0.750000  1
  Si  Si25  1  0.757718  0.636473  0.750000  1
  Si  Si26  1  0.743497  0.118935  0.250000  1
  Si  Si27  1  0.355627  0.974242  0.460189  1
  Si  Si28  1  0.977662  0.899106  0.250000  1
  Si  Si29  1  0.355627  0.974242  0.039811  1
  Si  Si30  1  0.647589  0.025962  0.536583  1
  Si  Si31  1  0.149989  0.471300  0.960430  1
  Si  Si32  1  0.149989  0.471300  0.539570  1
  Si  Si33  1  0.865474  0.526382  0.040147  1
  Si  Si34  1  0.255606  0.869327  0.750000  1
  Os  Os35  1  0.476201  0.599584  0.250000  1
