# generated using pymatgen
data_P10Au7Br
_symmetry_space_group_name_H-M   'P 1'
_cell_length_a   6.26699600
_cell_length_b   6.26699622
_cell_length_c   11.34013300
_cell_angle_alpha   90.00000000
_cell_angle_beta   90.00000000
_cell_angle_gamma   119.99999882
_symmetry_Int_Tables_number   1
_chemical_formula_structural   P10Au7Br
_chemical_formula_sum   'P10 Au7 Br1'
_cell_volume   385.71598327
_cell_formula_units_Z   1
loop_
 _symmetry_equiv_pos_site_id
 _symmetry_equiv_pos_as_xyz
  1  'x, y, z'
loop_
 _atom_site_type_symbol
 _atom_site_label
 _atom_site_symmetry_multiplicity
 _atom_site_fract_x
 _atom_site_fract_y
 _atom_site_fract_z
 _atom_site_occupancy
  P  P0  1  0.666667  0.333333  0.705629  1
  P  P1  1  0.375750  0.000000  0.795888  1
  P  P2  1  0.624250  0.624250  0.204112  1
  P  P3  1  0.000000  0.375750  0.204112  1
  P  P4  1  0.000000  0.375750  0.795888  1
  P  P5  1  0.624250  0.624250  0.795888  1
  P  P6  1  0.375750  0.000000  0.204112  1
  P  P7  1  0.333333  0.666667  0.294371  1
  P  P8  1  0.333333  0.666667  0.705629  1
  P  P9  1  0.666667  0.333333  0.294371  1
  Au  Au10  1  0.333333  0.666667  0.500000  1
  Au  Au11  1  0.000000  0.000000  0.231891  1
  Au  Au12  1  0.666667  0.333333  0.500000  1
  Au  Au13  1  0.000000  0.000000  0.768109  1
  Au  Au14  1  0.000000  0.453399  0.000000  1
  Au  Au15  1  0.546601  0.546601  0.000000  1
  Au  Au16  1  0.453399  0.000000  0.000000  1
  Br  Br17  1  0.000000  0.000000  0.500000  1
