# generated using pymatgen
data_VNiTe5
_symmetry_space_group_name_H-M   'P 1'
_cell_length_a   6.89798854
_cell_length_b   6.89798892
_cell_length_c   15.19626100
_cell_angle_alpha   90.00000000
_cell_angle_beta   90.00000000
_cell_angle_gamma   149.59963166
_symmetry_Int_Tables_number   1
_chemical_formula_structural   VNiTe5
_chemical_formula_sum   'V2 Ni2 Te10'
_cell_volume   365.90299058
_cell_formula_units_Z   2
loop_
 _symmetry_equiv_pos_site_id
 _symmetry_equiv_pos_as_xyz
  1  'x, y, z'
loop_
 _atom_site_type_symbol
 _atom_site_label
 _atom_site_symmetry_multiplicity
 _atom_site_fract_x
 _atom_site_fract_y
 _atom_site_fract_z
 _atom_site_occupancy
  V  V0  1  0.488825  0.511175  0.250000  1
  V  V1  1  0.511175  0.488825  0.750000  1
  Ni  Ni2  1  0.000000  0.000000  0.500000  1
  Ni  Ni3  1  0.000000  0.000000  0.000000  1
  Te  Te4  1  0.603502  0.396498  0.579711  1
  Te  Te5  1  0.902702  0.097298  0.647261  1
  Te  Te6  1  0.396498  0.603502  0.420289  1
  Te  Te7  1  0.396498  0.603502  0.079711  1
  Te  Te8  1  0.603502  0.396498  0.920289  1
  Te  Te9  1  0.834626  0.165374  0.250000  1
  Te  Te10  1  0.097298  0.902702  0.147261  1
  Te  Te11  1  0.165374  0.834626  0.750000  1
  Te  Te12  1  0.902702  0.097298  0.852739  1
  Te  Te13  1  0.097298  0.902702  0.352739  1
