# generated using pymatgen
data_La5YU4O20
_symmetry_space_group_name_H-M   'P 1'
_cell_length_a   6.80628159
_cell_length_b   7.76353742
_cell_length_c   8.67971961
_cell_angle_alpha   101.72391851
_cell_angle_beta   97.72948165
_cell_angle_gamma   107.14410707
_symmetry_Int_Tables_number   1
_chemical_formula_structural   La5YU4O20
_chemical_formula_sum   'La5 Y1 U4 O20'
_cell_volume   419.75713981
_cell_formula_units_Z   1
loop_
 _symmetry_equiv_pos_site_id
 _symmetry_equiv_pos_as_xyz
  1  'x, y, z'
loop_
 _atom_site_type_symbol
 _atom_site_label
 _atom_site_symmetry_multiplicity
 _atom_site_fract_x
 _atom_site_fract_y
 _atom_site_fract_z
 _atom_site_occupancy
  La  La0  1  0.611631  0.703580  0.699796  1
  La  La1  1  0.388369  0.296420  0.300204  1
  La  La2  1  0.199122  0.897941  0.893432  1
  La  La3  1  0.000000  0.500000  0.500000  1
  La  La4  1  0.800878  0.102059  0.106568  1
  Y  Y5  1  0.000000  0.000000  0.500000  1
  U  U6  1  0.402176  0.804317  0.302327  1
  U  U7  1  0.198232  0.401381  0.901280  1
  U  U8  1  0.801768  0.598619  0.098720  1
  U  U9  1  0.597824  0.195683  0.697673  1
  O  O10  1  0.438331  0.534879  0.131917  1
  O  O11  1  0.558209  0.996410  0.835810  1
  O  O12  1  0.273800  0.152795  0.741982  1
  O  O13  1  0.360522  0.601661  0.436051  1
  O  O14  1  0.055495  0.734572  0.325437  1
  O  O15  1  0.441791  0.003590  0.164190  1
  O  O16  1  0.150298  0.192139  0.027746  1
  O  O17  1  0.561669  0.465121  0.868083  1
  O  O18  1  0.855574  0.343312  0.948529  1
  O  O19  1  0.254246  0.599571  0.764959  1
  O  O20  1  0.955184  0.780108  0.646122  1
  O  O21  1  0.353948  0.056587  0.456831  1
  O  O22  1  0.646052  0.943413  0.543169  1
  O  O23  1  0.044816  0.219892  0.353878  1
  O  O24  1  0.745754  0.400429  0.235041  1
  O  O25  1  0.144426  0.656688  0.051471  1
  O  O26  1  0.849702  0.807861  0.972254  1
  O  O27  1  0.944505  0.265428  0.674563  1
  O  O28  1  0.639478  0.398339  0.563949  1
  O  O29  1  0.726200  0.847205  0.258018  1
