# generated using pymatgen
data_Dy2TcB8Os
_symmetry_space_group_name_H-M   'P 1'
_cell_length_a   3.58691100
_cell_length_b   5.97056510
_cell_length_c   11.55242457
_cell_angle_alpha   90.19998850
_cell_angle_beta   90.00000000
_cell_angle_gamma   90.00000000
_symmetry_Int_Tables_number   1
_chemical_formula_structural   Dy2TcB8Os
_chemical_formula_sum   'Dy4 Tc2 B16 Os2'
_cell_volume   247.40389647
_cell_formula_units_Z   2
loop_
 _symmetry_equiv_pos_site_id
 _symmetry_equiv_pos_as_xyz
  1  'x, y, z'
loop_
 _atom_site_type_symbol
 _atom_site_label
 _atom_site_symmetry_multiplicity
 _atom_site_fract_x
 _atom_site_fract_y
 _atom_site_fract_z
 _atom_site_occupancy
  Dy  Dy0  1  0.000000  0.628568  0.350755  1
  Dy  Dy1  1  0.000000  0.371432  0.649245  1
  Dy  Dy2  1  0.000000  0.126932  0.150439  1
  Dy  Dy3  1  0.000000  0.873068  0.849561  1
  Tc  Tc4  1  0.000000  0.631757  0.088291  1
  Tc  Tc5  1  0.000000  0.368243  0.911709  1
  B  B6  1  0.500000  0.788029  0.185021  1
  B  B7  1  0.500000  0.211971  0.814979  1
  B  B8  1  0.500000  0.288694  0.314551  1
  B  B9  1  0.500000  0.711306  0.685449  1
  B  B10  1  0.500000  0.864508  0.031437  1
  B  B11  1  0.500000  0.135492  0.968563  1
  B  B12  1  0.500000  0.363359  0.469744  1
  B  B13  1  0.500000  0.636641  0.530256  1
  B  B14  1  0.500000  0.887417  0.453135  1
  B  B15  1  0.500000  0.112583  0.546865  1
  B  B16  1  0.500000  0.387297  0.046850  1
  B  B17  1  0.500000  0.612703  0.953150  1
  B  B18  1  0.500000  0.974232  0.308546  1
  B  B19  1  0.500000  0.025768  0.691454  1
  B  B20  1  0.500000  0.477928  0.192171  1
  B  B21  1  0.500000  0.522072  0.807829  1
  Os  Os22  1  0.000000  0.141481  0.406997  1
  Os  Os23  1  0.000000  0.858519  0.593003  1
