# generated using pymatgen
data_Pr8Er2Ir5Rh
_symmetry_space_group_name_H-M   'P 1'
_cell_length_a   11.25076300
_cell_length_b   11.25076300
_cell_length_c   6.56995500
_cell_angle_alpha   90.00000000
_cell_angle_beta   90.00000000
_cell_angle_gamma   90.00000000
_symmetry_Int_Tables_number   1
_chemical_formula_structural   Pr8Er2Ir5Rh
_chemical_formula_sum   'Pr16 Er4 Ir10 Rh2'
_cell_volume   831.62272321
_cell_formula_units_Z   2
loop_
 _symmetry_equiv_pos_site_id
 _symmetry_equiv_pos_as_xyz
  1  'x, y, z'
loop_
 _atom_site_type_symbol
 _atom_site_label
 _atom_site_symmetry_multiplicity
 _atom_site_fract_x
 _atom_site_fract_y
 _atom_site_fract_z
 _atom_site_occupancy
  Pr  Pr0  1  0.287534  0.087557  0.381460  1
  Pr  Pr1  1  0.287534  0.912443  0.881460  1
  Pr  Pr2  1  0.712466  0.087557  0.881460  1
  Pr  Pr3  1  0.712466  0.912443  0.381460  1
  Pr  Pr4  1  0.587557  0.787534  0.881460  1
  Pr  Pr5  1  0.587557  0.212466  0.381460  1
  Pr  Pr6  1  0.412443  0.787534  0.381460  1
  Pr  Pr7  1  0.412443  0.212466  0.881460  1
  Pr  Pr8  1  0.211670  0.412498  0.619263  1
  Pr  Pr9  1  0.211670  0.587502  0.119263  1
  Pr  Pr10  1  0.788330  0.412498  0.119263  1
  Pr  Pr11  1  0.788330  0.587502  0.619263  1
  Pr  Pr12  1  0.912498  0.711670  0.119263  1
  Pr  Pr13  1  0.912498  0.288330  0.619263  1
  Pr  Pr14  1  0.087502  0.711670  0.619263  1
  Pr  Pr15  1  0.087502  0.288330  0.119263  1
  Er  Er16  1  0.000000  0.000000  0.500015  1
  Er  Er17  1  0.000000  0.000000  0.000015  1
  Er  Er18  1  0.500000  0.500000  0.000015  1
  Er  Er19  1  0.500000  0.500000  0.500015  1
  Ir  Ir20  1  0.851873  0.146792  0.249183  1
  Ir  Ir21  1  0.851873  0.853208  0.749183  1
  Ir  Ir22  1  0.148127  0.146792  0.749183  1
  Ir  Ir23  1  0.148127  0.853208  0.249183  1
  Ir  Ir24  1  0.646792  0.351873  0.749183  1
  Ir  Ir25  1  0.646792  0.648127  0.249183  1
  Ir  Ir26  1  0.353208  0.351873  0.249183  1
  Ir  Ir27  1  0.353208  0.648127  0.749183  1
  Ir  Ir28  1  0.000000  0.500000  0.882817  1
  Ir  Ir29  1  0.000000  0.500000  0.382817  1
  Rh  Rh30  1  0.500000  0.000000  0.117529  1
  Rh  Rh31  1  0.500000  0.000000  0.617529  1
