# generated using pymatgen
data_Er3Tm3ReB14Ru
_symmetry_space_group_name_H-M   'P 1'
_cell_length_a   7.96685626
_cell_length_b   7.96685658
_cell_length_c   9.26563223
_cell_angle_alpha   90.02481006
_cell_angle_beta   89.97518910
_cell_angle_gamma   154.61296044
_symmetry_Int_Tables_number   1
_chemical_formula_structural   Er3Tm3ReB14Ru
_chemical_formula_sum   'Er3 Tm3 Re1 B14 Ru1'
_cell_volume   252.13530749
_cell_formula_units_Z   1
loop_
 _symmetry_equiv_pos_site_id
 _symmetry_equiv_pos_as_xyz
  1  'x, y, z'
loop_
 _atom_site_type_symbol
 _atom_site_label
 _atom_site_symmetry_multiplicity
 _atom_site_fract_x
 _atom_site_fract_y
 _atom_site_fract_z
 _atom_site_occupancy
  Er  Er0  1  0.894290  0.105710  0.059636  1
  Er  Er1  1  0.243918  0.756082  0.250071  1
  Er  Er2  1  0.756056  0.243944  0.749964  1
  Tm  Tm3  1  0.105797  0.894203  0.560102  1
  Tm  Tm4  1  0.105749  0.894251  0.939806  1
  Tm  Tm5  1  0.894345  0.105655  0.440784  1
  Re  Re6  1  0.947780  0.052220  0.749767  1
  B  B7  1  0.454825  0.545175  0.250305  1
  B  B8  1  0.546383  0.453617  0.749955  1
  B  B9  1  0.726865  0.273135  0.034532  1
  B  B10  1  0.272267  0.727733  0.533405  1
  B  B11  1  0.272122  0.727878  0.966465  1
  B  B12  1  0.727091  0.272909  0.465400  1
  B  B13  1  0.631658  0.368342  0.348973  1
  B  B14  1  0.367561  0.632439  0.849226  1
  B  B15  1  0.367569  0.632431  0.650438  1
  B  B16  1  0.631649  0.368351  0.151049  1
  B  B17  1  0.519909  0.480091  0.404273  1
  B  B18  1  0.480421  0.519579  0.905134  1
  B  B19  1  0.480349  0.519651  0.594593  1
  B  B20  1  0.520018  0.479982  0.095983  1
  Ru  Ru21  1  0.053380  0.946620  0.250139  1
