# generated using pymatgen
data_ZrPdAu3
_symmetry_space_group_name_H-M   'P 1'
_cell_length_a   5.13394288
_cell_length_b   5.13394304
_cell_length_c   5.08048231
_cell_angle_alpha   99.47105456
_cell_angle_beta   98.90812955
_cell_angle_gamma   133.15120321
_symmetry_Int_Tables_number   1
_chemical_formula_structural   ZrPdAu3
_chemical_formula_sum   'Zr1 Pd1 Au3'
_cell_volume   89.46191109
_cell_formula_units_Z   1
loop_
 _symmetry_equiv_pos_site_id
 _symmetry_equiv_pos_as_xyz
  1  'x, y, z'
loop_
 _atom_site_type_symbol
 _atom_site_label
 _atom_site_symmetry_multiplicity
 _atom_site_fract_x
 _atom_site_fract_y
 _atom_site_fract_z
 _atom_site_occupancy
  Zr  Zr0  1  0.999478  0.003513  0.002991  1
  Pd  Pd1  1  0.601803  0.794716  0.396517  1
  Au  Au2  1  0.396512  0.201882  0.598394  1
  Au  Au3  1  0.202688  0.599525  0.802213  1
  Au  Au4  1  0.799520  0.400364  0.199884  1
