# generated using pymatgen
data_Y16Ho4Si15Ag
_symmetry_space_group_name_H-M   'P 1'
_cell_length_a   7.48062246
_cell_length_b   7.70104071
_cell_length_c   14.67472439
_cell_angle_alpha   90.25241401
_cell_angle_beta   90.70168755
_cell_angle_gamma   90.14116817
_symmetry_Int_Tables_number   1
_chemical_formula_structural   Y16Ho4Si15Ag
_chemical_formula_sum   'Y16 Ho4 Si15 Ag1'
_cell_volume   845.31572663
_cell_formula_units_Z   1
loop_
 _symmetry_equiv_pos_site_id
 _symmetry_equiv_pos_as_xyz
  1  'x, y, z'
loop_
 _atom_site_type_symbol
 _atom_site_label
 _atom_site_symmetry_multiplicity
 _atom_site_fract_x
 _atom_site_fract_y
 _atom_site_fract_z
 _atom_site_occupancy
  Y  Y0  1  0.317900  0.825050  0.377837  1
  Y  Y1  1  0.817182  0.678765  0.121414  1
  Y  Y2  1  0.681137  0.179025  0.877808  1
  Y  Y3  1  0.176392  0.320981  0.623250  1
  Y  Y4  1  0.524346  0.675505  0.602305  1
  Y  Y5  1  0.029232  0.816356  0.900999  1
  Y  Y6  1  0.469372  0.318523  0.098560  1
  Y  Y7  1  0.979412  0.184956  0.398414  1
  Y  Y8  1  0.471575  0.325768  0.399897  1
  Y  Y9  1  0.970124  0.183172  0.098257  1
  Y  Y10  1  0.531026  0.682543  0.899520  1
  Y  Y11  1  0.025668  0.817157  0.601232  1
  Y  Y12  1  0.851288  0.507185  0.750025  1
  Y  Y13  1  0.349703  0.989661  0.748451  1
  Y  Y14  1  0.150825  0.489617  0.249550  1
  Y  Y15  1  0.651308  0.010833  0.249217  1
  Ho  Ho16  1  0.679253  0.175204  0.624765  1
  Ho  Ho17  1  0.182620  0.321994  0.877409  1
  Ho  Ho18  1  0.317829  0.820168  0.121310  1
  Ho  Ho19  1  0.826100  0.675372  0.376198  1
  Si  Si20  1  0.145218  0.528391  0.040261  1
  Si  Si21  1  0.353312  0.029526  0.959993  1
  Si  Si22  1  0.847069  0.470013  0.540880  1
  Si  Si23  1  0.343356  0.028468  0.542922  1
  Si  Si24  1  0.856451  0.471440  0.958498  1
  Si  Si25  1  0.642480  0.970844  0.039500  1
  Si  Si26  1  0.148885  0.531207  0.460903  1
  Si  Si27  1  0.477235  0.393232  0.750923  1
  Si  Si28  1  0.976633  0.104860  0.752581  1
  Si  Si29  1  0.523887  0.609929  0.248608  1
  Si  Si30  1  0.024452  0.894738  0.247703  1
  Si  Si31  1  0.733932  0.870913  0.751704  1
  Si  Si32  1  0.232900  0.626275  0.751638  1
  Si  Si33  1  0.268816  0.126518  0.247043  1
  Si  Si34  1  0.765864  0.375650  0.248924  1
  Ag  Ag35  1  0.657221  0.970163  0.461501  1
