# generated using pymatgen
data_Ho2Tm6Tc3B24Os
_symmetry_space_group_name_H-M   'P 1'
_cell_length_a   3.64205500
_cell_length_b   9.09879292
_cell_length_c   11.47227600
_cell_angle_alpha   89.94592961
_cell_angle_beta   90.00000000
_cell_angle_gamma   90.00000000
_symmetry_Int_Tables_number   1
_chemical_formula_structural   Ho2Tm6Tc3B24Os
_chemical_formula_sum   'Ho2 Tm6 Tc3 B24 Os1'
_cell_volume   380.17160331
_cell_formula_units_Z   1
loop_
 _symmetry_equiv_pos_site_id
 _symmetry_equiv_pos_as_xyz
  1  'x, y, z'
loop_
 _atom_site_type_symbol
 _atom_site_label
 _atom_site_symmetry_multiplicity
 _atom_site_fract_x
 _atom_site_fract_y
 _atom_site_fract_z
 _atom_site_occupancy
  Ho  Ho0  1  0.000000  0.323221  0.413720  1
  Ho  Ho1  1  0.000000  0.675863  0.584407  1
  Tm  Tm2  1  0.000000  0.822610  0.087301  1
  Tm  Tm3  1  0.000000  0.178436  0.914589  1
  Tm  Tm4  1  0.000000  0.942615  0.370031  1
  Tm  Tm5  1  0.000000  0.058092  0.630001  1
  Tm  Tm6  1  0.000000  0.442958  0.129748  1
  Tm  Tm7  1  0.000000  0.556896  0.869907  1
  Tc  Tc8  1  0.000000  0.638909  0.319826  1
  Tc  Tc9  1  0.000000  0.361158  0.680637  1
  Tc  Tc10  1  0.000000  0.137853  0.178140  1
  B  B11  1  0.500000  0.553127  0.432882  1
  B  B12  1  0.500000  0.446795  0.566877  1
  B  B13  1  0.500000  0.052766  0.066443  1
  B  B14  1  0.500000  0.946577  0.933385  1
  B  B15  1  0.500000  0.749411  0.418696  1
  B  B16  1  0.500000  0.250186  0.581333  1
  B  B17  1  0.500000  0.249740  0.080726  1
  B  B18  1  0.500000  0.750718  0.919016  1
  B  B19  1  0.500000  0.792439  0.265052  1
  B  B20  1  0.500000  0.207724  0.735521  1
  B  B21  1  0.500000  0.292065  0.234596  1
  B  B22  1  0.500000  0.708659  0.765380  1
  B  B23  1  0.500000  0.630834  0.184763  1
  B  B24  1  0.500000  0.369063  0.815773  1
  B  B25  1  0.500000  0.129995  0.314410  1
  B  B26  1  0.500000  0.869516  0.685421  1
  B  B27  1  0.500000  0.980933  0.211713  1
  B  B28  1  0.500000  0.017908  0.788305  1
  B  B29  1  0.500000  0.481584  0.287581  1
  B  B30  1  0.500000  0.518243  0.712249  1
  B  B31  1  0.500000  0.601535  0.027975  1
  B  B32  1  0.500000  0.399589  0.971916  1
  B  B33  1  0.500000  0.100482  0.472128  1
  B  B34  1  0.500000  0.899550  0.528290  1
  Os  Os35  1  0.000000  0.861952  0.821261  1
