# generated using pymatgen
data_LuPa3Ge6Ru7
_symmetry_space_group_name_H-M   'P 1'
_cell_length_a   7.22128109
_cell_length_b   7.25887919
_cell_length_c   7.25887916
_cell_angle_alpha   109.57591080
_cell_angle_beta   109.36633039
_cell_angle_gamma   109.36632954
_symmetry_Int_Tables_number   1
_chemical_formula_structural   LuPa3Ge6Ru7
_chemical_formula_sum   'Lu1 Pa3 Ge6 Ru7'
_cell_volume   293.28647153
_cell_formula_units_Z   1
loop_
 _symmetry_equiv_pos_site_id
 _symmetry_equiv_pos_as_xyz
  1  'x, y, z'
loop_
 _atom_site_type_symbol
 _atom_site_label
 _atom_site_symmetry_multiplicity
 _atom_site_fract_x
 _atom_site_fract_y
 _atom_site_fract_z
 _atom_site_occupancy
  Lu  Lu0  1  0.500000  0.000000  0.000000  1
  Pa  Pa1  1  0.000000  0.000000  0.500000  1
  Pa  Pa2  1  0.000000  0.500000  0.000000  1
  Pa  Pa3  1  0.500000  0.500000  0.500000  1
  Ge  Ge4  1  0.684065  0.689359  0.000000  1
  Ge  Ge5  1  0.315935  0.000000  0.310641  1
  Ge  Ge6  1  0.994706  0.310641  0.310641  1
  Ge  Ge7  1  0.315935  0.310641  0.000000  1
  Ge  Ge8  1  0.684065  0.000000  0.689359  1
  Ge  Ge9  1  0.005294  0.689359  0.689359  1
  Ru  Ru10  1  0.751963  0.251963  0.503925  1
  Ru  Ru11  1  0.751963  0.503925  0.251963  1
  Ru  Ru12  1  0.500000  0.251963  0.748037  1
  Ru  Ru13  1  0.248037  0.496075  0.748037  1
  Ru  Ru14  1  0.248037  0.748037  0.496075  1
  Ru  Ru15  1  0.500000  0.748037  0.251963  1
  Ru  Ru16  1  0.000000  0.000000  0.000000  1
