# generated using pymatgen
data_TbErPa2(CoGe)4
_symmetry_space_group_name_H-M   'P 1'
_cell_length_a   4.30889400
_cell_length_b   7.24766862
_cell_length_c   6.94320768
_cell_angle_alpha   93.02055977
_cell_angle_beta   90.00000000
_cell_angle_gamma   90.00000000
_symmetry_Int_Tables_number   1
_chemical_formula_structural   TbErPa2(CoGe)4
_chemical_formula_sum   'Tb1 Er1 Pa2 Co4 Ge4'
_cell_volume   216.53121121
_cell_formula_units_Z   1
loop_
 _symmetry_equiv_pos_site_id
 _symmetry_equiv_pos_as_xyz
  1  'x, y, z'
loop_
 _atom_site_type_symbol
 _atom_site_label
 _atom_site_symmetry_multiplicity
 _atom_site_fract_x
 _atom_site_fract_y
 _atom_site_fract_z
 _atom_site_occupancy
  Tb  Tb0  1  0.750000  0.018993  0.225935  1
  Er  Er1  1  0.250000  0.980073  0.770467  1
  Pa  Pa2  1  0.250000  0.489775  0.698071  1
  Pa  Pa3  1  0.750000  0.509818  0.302549  1
  Co  Co4  1  0.750000  0.376612  0.961709  1
  Co  Co5  1  0.250000  0.255343  0.450486  1
  Co  Co6  1  0.750000  0.744892  0.551021  1
  Co  Co7  1  0.250000  0.625649  0.038798  1
  Ge  Ge8  1  0.250000  0.798200  0.388234  1
  Ge  Ge9  1  0.750000  0.720330  0.903970  1
  Ge  Ge10  1  0.250000  0.280133  0.094397  1
  Ge  Ge11  1  0.750000  0.200183  0.614365  1
