# generated using pymatgen
data_NaBi3(Ru2O7)2
_symmetry_space_group_name_H-M   'P 1'
_cell_length_a   7.25122556
_cell_length_b   7.25122456
_cell_length_c   7.25122518
_cell_angle_alpha   60.81257130
_cell_angle_beta   60.81257221
_cell_angle_gamma   60.81257622
_symmetry_Int_Tables_number   1
_chemical_formula_structural   NaBi3(Ru2O7)2
_chemical_formula_sum   'Na1 Bi3 Ru4 O14'
_cell_volume   274.54028318
_cell_formula_units_Z   1
loop_
 _symmetry_equiv_pos_site_id
 _symmetry_equiv_pos_as_xyz
  1  'x, y, z'
loop_
 _atom_site_type_symbol
 _atom_site_label
 _atom_site_symmetry_multiplicity
 _atom_site_fract_x
 _atom_site_fract_y
 _atom_site_fract_z
 _atom_site_occupancy
  Na  Na0  1  0.500000  0.500000  0.500000  1
  Bi  Bi1  1  0.500000  0.000000  0.500000  1
  Bi  Bi2  1  0.000000  0.500000  0.500000  1
  Bi  Bi3  1  0.500000  0.500000  0.000000  1
  Ru  Ru4  1  0.000000  0.000000  0.000000  1
  Ru  Ru5  1  0.000000  0.500000  0.000000  1
  Ru  Ru6  1  0.500000  0.000000  0.000000  1
  Ru  Ru7  1  0.000000  0.000000  0.500000  1
  O  O8  1  0.624206  0.624206  0.624206  1
  O  O9  1  0.375794  0.375794  0.375794  1
  O  O10  1  0.920610  0.920610  0.326959  1
  O  O11  1  0.326959  0.920610  0.920610  1
  O  O12  1  0.920610  0.326959  0.920610  1
  O  O13  1  0.322146  0.322146  0.939147  1
  O  O14  1  0.939147  0.322146  0.322146  1
  O  O15  1  0.322146  0.939147  0.322146  1
  O  O16  1  0.079390  0.079390  0.673041  1
  O  O17  1  0.673041  0.079390  0.079390  1
  O  O18  1  0.079390  0.673041  0.079390  1
  O  O19  1  0.677854  0.677854  0.060853  1
  O  O20  1  0.060853  0.677854  0.677854  1
  O  O21  1  0.677854  0.060853  0.677854  1
