# generated using pymatgen
data_TbDy(PS)2
_symmetry_space_group_name_H-M   'P 1'
_cell_length_a   5.32689300
_cell_length_b   5.38063000
_cell_length_c   16.76317400
_cell_angle_alpha   90.00000000
_cell_angle_beta   90.00000000
_cell_angle_gamma   90.00000000
_symmetry_Int_Tables_number   1
_chemical_formula_structural   TbDy(PS)2
_chemical_formula_sum   'Tb4 Dy4 P8 S8'
_cell_volume   480.46676845
_cell_formula_units_Z   4
loop_
 _symmetry_equiv_pos_site_id
 _symmetry_equiv_pos_as_xyz
  1  'x, y, z'
loop_
 _atom_site_type_symbol
 _atom_site_label
 _atom_site_symmetry_multiplicity
 _atom_site_fract_x
 _atom_site_fract_y
 _atom_site_fract_z
 _atom_site_occupancy
  Tb  Tb0  1  0.250000  0.484170  0.362470  1
  Tb  Tb1  1  0.250000  0.984170  0.137530  1
  Tb  Tb2  1  0.750000  0.515830  0.637530  1
  Tb  Tb3  1  0.750000  0.015830  0.862470  1
  Dy  Dy4  1  0.250000  0.014933  0.646183  1
  Dy  Dy5  1  0.250000  0.514933  0.853817  1
  Dy  Dy6  1  0.750000  0.985067  0.353817  1
  Dy  Dy7  1  0.750000  0.485067  0.146183  1
  P  P8  1  0.035785  0.295341  0.997305  1
  P  P9  1  0.464215  0.795341  0.502695  1
  P  P10  1  0.535785  0.704659  0.002695  1
  P  P11  1  0.964215  0.204659  0.497305  1
  P  P12  1  0.964215  0.704659  0.002695  1
  P  P13  1  0.535785  0.204659  0.497305  1
  P  P14  1  0.464215  0.295341  0.997305  1
  P  P15  1  0.035785  0.795341  0.502695  1
  S  S16  1  0.250000  0.484761  0.189019  1
  S  S17  1  0.250000  0.984761  0.310981  1
  S  S18  1  0.750000  0.515239  0.810981  1
  S  S19  1  0.750000  0.015239  0.689019  1
  S  S20  1  0.250000  0.011471  0.816063  1
  S  S21  1  0.250000  0.511471  0.683937  1
  S  S22  1  0.750000  0.988529  0.183937  1
  S  S23  1  0.750000  0.488529  0.316063  1
