# generated using pymatgen
data_K2Zr3MnS8
_symmetry_space_group_name_H-M   'P 1'
_cell_length_a   6.43892900
_cell_length_b   7.45083300
_cell_length_c   15.35012400
_cell_angle_alpha   90.00000000
_cell_angle_beta   90.00000000
_cell_angle_gamma   90.00000000
_symmetry_Int_Tables_number   1
_chemical_formula_structural   K2Zr3MnS8
_chemical_formula_sum   'K4 Zr6 Mn2 S16'
_cell_volume   736.42810375
_cell_formula_units_Z   2
loop_
 _symmetry_equiv_pos_site_id
 _symmetry_equiv_pos_as_xyz
  1  'x, y, z'
loop_
 _atom_site_type_symbol
 _atom_site_label
 _atom_site_symmetry_multiplicity
 _atom_site_fract_x
 _atom_site_fract_y
 _atom_site_fract_z
 _atom_site_occupancy
  K  K0  1  0.338347  0.000000  0.000000  1
  K  K1  1  0.656941  0.500000  0.500000  1
  K  K2  1  0.020937  0.000000  0.500000  1
  K  K3  1  0.980074  0.500000  0.000000  1
  Zr  Zr4  1  0.998578  0.500000  0.253637  1
  Zr  Zr5  1  0.998578  0.500000  0.746363  1
  Zr  Zr6  1  0.499155  0.242727  0.249904  1
  Zr  Zr7  1  0.499155  0.757273  0.750096  1
  Zr  Zr8  1  0.499155  0.757273  0.249904  1
  Zr  Zr9  1  0.499155  0.242727  0.750096  1
  Mn  Mn10  1  0.003136  0.000000  0.246879  1
  Mn  Mn11  1  0.003136  0.000000  0.753121  1
  S  S12  1  0.833807  0.249019  0.343945  1
  S  S13  1  0.833807  0.750981  0.656055  1
  S  S14  1  0.165828  0.747362  0.156602  1
  S  S15  1  0.165828  0.252638  0.843398  1
  S  S16  1  0.165828  0.252638  0.156602  1
  S  S17  1  0.165828  0.747362  0.843398  1
  S  S18  1  0.833807  0.750981  0.343945  1
  S  S19  1  0.833807  0.249019  0.656055  1
  S  S20  1  0.666011  0.000000  0.156133  1
  S  S21  1  0.666011  0.000000  0.843867  1
  S  S22  1  0.332211  0.500000  0.344935  1
  S  S23  1  0.332211  0.500000  0.655065  1
  S  S24  1  0.338104  0.000000  0.344148  1
  S  S25  1  0.338104  0.000000  0.655852  1
  S  S26  1  0.666233  0.500000  0.157459  1
  S  S27  1  0.666233  0.500000  0.842541  1
