# generated using pymatgen
data_Nd2ThGa3PdPt2
_symmetry_space_group_name_H-M   'P 1'
_cell_length_a   7.46873104
_cell_length_b   7.48560006
_cell_length_c   3.98160500
_cell_angle_alpha   90.00000000
_cell_angle_beta   90.00000000
_cell_angle_gamma   120.07475512
_symmetry_Int_Tables_number   1
_chemical_formula_structural   Nd2ThGa3PdPt2
_chemical_formula_sum   'Nd2 Th1 Ga3 Pd1 Pt2'
_cell_volume   192.63473758
_cell_formula_units_Z   1
loop_
 _symmetry_equiv_pos_site_id
 _symmetry_equiv_pos_as_xyz
  1  'x, y, z'
loop_
 _atom_site_type_symbol
 _atom_site_label
 _atom_site_symmetry_multiplicity
 _atom_site_fract_x
 _atom_site_fract_y
 _atom_site_fract_z
 _atom_site_occupancy
  Nd  Nd0  1  0.410514  0.411718  0.500000  1
  Nd  Nd1  1  0.589486  0.001205  0.500000  1
  Th  Th2  1  0.000000  0.586081  0.500000  1
  Ga  Ga3  1  0.749054  0.755239  0.000000  1
  Ga  Ga4  1  0.250946  0.006186  0.000000  1
  Ga  Ga5  1  0.000000  0.238407  0.000000  1
  Pd  Pd6  1  0.000000  0.991241  0.500000  1
  Pt  Pt7  1  0.679192  0.344557  0.000000  1
  Pt  Pt8  1  0.320808  0.665366  0.000000  1
