# generated using pymatgen
data_YbY5Al19Si5Os8
_symmetry_space_group_name_H-M   'P 1'
_cell_length_a   8.70462900
_cell_length_b   8.67877233
_cell_length_c   9.61725000
_cell_angle_alpha   90.00000000
_cell_angle_beta   90.00000000
_cell_angle_gamma   120.09860733
_symmetry_Int_Tables_number   1
_chemical_formula_structural   YbY5Al19Si5Os8
_chemical_formula_sum   'Yb1 Y5 Al19 Si5 Os8'
_cell_volume   628.57587887
_cell_formula_units_Z   1
loop_
 _symmetry_equiv_pos_site_id
 _symmetry_equiv_pos_as_xyz
  1  'x, y, z'
loop_
 _atom_site_type_symbol
 _atom_site_label
 _atom_site_symmetry_multiplicity
 _atom_site_fract_x
 _atom_site_fract_y
 _atom_site_fract_z
 _atom_site_occupancy
  Yb  Yb0  1  0.194218  0.388440  0.250000  1
  Y  Y1  1  0.805551  0.611101  0.750000  1
  Y  Y2  1  0.608936  0.806091  0.250000  1
  Y  Y3  1  0.389764  0.195770  0.750000  1
  Y  Y4  1  0.197156  0.806091  0.250000  1
  Y  Y5  1  0.806008  0.195770  0.750000  1
  Al  Al6  1  0.165296  0.330594  0.575220  1
  Al  Al7  1  0.834115  0.668229  0.421640  1
  Al  Al8  1  0.668764  0.835450  0.576208  1
  Al  Al9  1  0.834115  0.668229  0.078360  1
  Al  Al10  1  0.329461  0.165881  0.422393  1
  Al  Al11  1  0.165296  0.330594  0.924780  1
  Al  Al12  1  0.166684  0.835450  0.576208  1
  Al  Al13  1  0.329461  0.165881  0.077607  1
  Al  Al14  1  0.836420  0.165881  0.422393  1
  Al  Al15  1  0.668764  0.835450  0.923792  1
  Al  Al16  1  0.836420  0.165881  0.077607  1
  Al  Al17  1  0.166684  0.835450  0.923792  1
  Al  Al18  1  0.437060  0.874120  0.750000  1
  Al  Al19  1  0.873800  0.432620  0.250000  1
  Al  Al20  1  0.128802  0.564964  0.750000  1
  Al  Al21  1  0.558819  0.432620  0.250000  1
  Al  Al22  1  0.436160  0.564964  0.750000  1
  Al  Al23  1  0.999985  0.999970  0.250000  1
  Al  Al24  1  0.000779  0.001559  0.750000  1
  Si  Si25  1  0.331944  0.663888  0.038984  1
  Si  Si26  1  0.667138  0.334274  0.961264  1
  Si  Si27  1  0.667138  0.334274  0.538736  1
  Si  Si28  1  0.331944  0.663888  0.461016  1
  Si  Si29  1  0.564508  0.129018  0.250000  1
  Os  Os30  1  0.501095  0.002191  0.005751  1
  Os  Os31  1  0.998278  0.499308  0.999461  1
  Os  Os32  1  0.501095  0.002191  0.494249  1
  Os  Os33  1  0.501029  0.499308  0.999461  1
  Os  Os34  1  0.998278  0.499308  0.500539  1
  Os  Os35  1  0.501029  0.499308  0.500539  1
  Os  Os36  1  0.999000  0.997998  0.999769  1
  Os  Os37  1  0.999000  0.997998  0.500231  1
