# generated using pymatgen
data_LaPr9Os3Ru
_symmetry_space_group_name_H-M   'P 1'
_cell_length_a   8.95703579
_cell_length_b   8.96142669
_cell_length_c   7.50103412
_cell_angle_alpha   83.71451035
_cell_angle_beta   83.45858024
_cell_angle_gamma   43.95456859
_symmetry_Int_Tables_number   1
_chemical_formula_structural   LaPr9Os3Ru
_chemical_formula_sum   'La1 Pr9 Os3 Ru1'
_cell_volume   414.85418647
_cell_formula_units_Z   1
loop_
 _symmetry_equiv_pos_site_id
 _symmetry_equiv_pos_as_xyz
  1  'x, y, z'
loop_
 _atom_site_type_symbol
 _atom_site_label
 _atom_site_symmetry_multiplicity
 _atom_site_fract_x
 _atom_site_fract_y
 _atom_site_fract_z
 _atom_site_occupancy
  La  La0  1  0.012248  0.802346  0.908727  1
  Pr  Pr1  1  0.202831  0.982152  0.584709  1
  Pr  Pr2  1  0.983351  0.201171  0.085782  1
  Pr  Pr3  1  0.797468  0.019884  0.412965  1
  Pr  Pr4  1  0.361534  0.205552  0.815898  1
  Pr  Pr5  1  0.791678  0.640572  0.684225  1
  Pr  Pr6  1  0.641460  0.789038  0.187157  1
  Pr  Pr7  1  0.206460  0.359831  0.318045  1
  Pr  Pr8  1  0.571014  0.430699  0.748662  1
  Pr  Pr9  1  0.426467  0.573344  0.250606  1
  Os  Os10  1  0.170595  0.608105  0.580337  1
  Os  Os11  1  0.400227  0.822654  0.925554  1
  Os  Os12  1  0.823322  0.397212  0.424253  1
  Ru  Ru13  1  0.611343  0.167439  0.073081  1
