# generated using pymatgen
data_Yb2YHf(Co4P3)2
_symmetry_space_group_name_H-M   'P 1'
_cell_length_a   3.71729200
_cell_length_b   10.68865500
_cell_length_c   12.39179100
_cell_angle_alpha   90.00000000
_cell_angle_beta   90.00000000
_cell_angle_gamma   90.00000000
_symmetry_Int_Tables_number   1
_chemical_formula_structural   Yb2YHf(Co4P3)2
_chemical_formula_sum   'Yb4 Y2 Hf2 Co16 P12'
_cell_volume   492.36119438
_cell_formula_units_Z   2
loop_
 _symmetry_equiv_pos_site_id
 _symmetry_equiv_pos_as_xyz
  1  'x, y, z'
loop_
 _atom_site_type_symbol
 _atom_site_label
 _atom_site_symmetry_multiplicity
 _atom_site_fract_x
 _atom_site_fract_y
 _atom_site_fract_z
 _atom_site_occupancy
  Yb  Yb0  1  0.500000  0.824279  0.205659  1
  Yb  Yb1  1  0.500000  0.175721  0.205659  1
  Yb  Yb2  1  0.000000  0.675721  0.794341  1
  Yb  Yb3  1  0.000000  0.324279  0.794341  1
  Y  Y4  1  0.000000  0.500000  0.530472  1
  Y  Y5  1  0.500000  0.000000  0.469528  1
  Hf  Hf6  1  0.500000  0.500000  0.157534  1
  Hf  Hf7  1  0.000000  0.000000  0.842466  1
  Co  Co8  1  0.000000  0.500000  0.987657  1
  Co  Co9  1  0.500000  0.000000  0.012343  1
  Co  Co10  1  0.500000  0.295696  0.433699  1
  Co  Co11  1  0.500000  0.704304  0.433699  1
  Co  Co12  1  0.000000  0.204304  0.566301  1
  Co  Co13  1  0.000000  0.795696  0.566301  1
  Co  Co14  1  0.500000  0.878916  0.701341  1
  Co  Co15  1  0.500000  0.121084  0.701341  1
  Co  Co16  1  0.000000  0.621084  0.298659  1
  Co  Co17  1  0.000000  0.378916  0.298659  1
  Co  Co18  1  0.500000  0.331562  0.995130  1
  Co  Co19  1  0.500000  0.668438  0.995130  1
  Co  Co20  1  0.000000  0.168438  0.004870  1
  Co  Co21  1  0.000000  0.831562  0.004870  1
  Co  Co22  1  0.500000  0.500000  0.702442  1
  Co  Co23  1  0.000000  0.000000  0.297558  1
  P  P24  1  0.500000  0.308399  0.616637  1
  P  P25  1  0.500000  0.691601  0.616637  1
  P  P26  1  0.000000  0.191601  0.383363  1
  P  P27  1  0.000000  0.808399  0.383363  1
  P  P28  1  0.500000  0.500000  0.884705  1
  P  P29  1  0.000000  0.000000  0.115295  1
  P  P30  1  0.500000  0.838104  0.893564  1
  P  P31  1  0.500000  0.161896  0.893564  1
  P  P32  1  0.000000  0.661896  0.106436  1
  P  P33  1  0.000000  0.338104  0.106436  1
  P  P34  1  0.500000  0.500000  0.360913  1
  P  P35  1  0.000000  0.000000  0.639087  1
