# generated using pymatgen
data_Sr4ZnNi2O9
_symmetry_space_group_name_H-M   'P 1'
_cell_length_a   7.77907000
_cell_length_b   9.45656653
_cell_length_c   9.45656700
_cell_angle_alpha   60.00000185
_cell_angle_beta   90.00000000
_cell_angle_gamma   90.00000000
_symmetry_Int_Tables_number   1
_chemical_formula_structural   Sr4ZnNi2O9
_chemical_formula_sum   'Sr12 Zn3 Ni6 O27'
_cell_volume   602.45596048
_cell_formula_units_Z   3
loop_
 _symmetry_equiv_pos_site_id
 _symmetry_equiv_pos_as_xyz
  1  'x, y, z'
loop_
 _atom_site_type_symbol
 _atom_site_label
 _atom_site_symmetry_multiplicity
 _atom_site_fract_x
 _atom_site_fract_y
 _atom_site_fract_z
 _atom_site_occupancy
  Sr  Sr0  1  0.000000  0.331281  0.000000  1
  Sr  Sr1  1  0.499999  0.359989  0.000000  1
  Sr  Sr2  1  0.751362  0.666708  0.025485  1
  Sr  Sr3  1  0.751362  0.025484  0.307807  1
  Sr  Sr4  1  0.000000  0.668720  0.331280  1
  Sr  Sr5  1  0.248638  0.974515  0.333291  1
  Sr  Sr6  1  0.499999  0.640011  0.359989  1
  Sr  Sr7  1  0.499999  0.000000  0.640010  1
  Sr  Sr8  1  0.751362  0.307806  0.666708  1
  Sr  Sr9  1  0.000000  0.000000  0.668719  1
  Sr  Sr10  1  0.248638  0.333291  0.692194  1
  Sr  Sr11  1  0.248638  0.692195  0.974514  1
  Zn  Zn12  1  0.499999  0.000000  0.000000  1
  Zn  Zn13  1  0.254112  0.333333  0.333334  1
  Zn  Zn14  1  0.745888  0.666667  0.666668  1
  Ni  Ni15  1  0.159204  0.000000  0.000000  1
  Ni  Ni16  1  0.840796  0.000000  0.000000  1
  Ni  Ni17  1  0.596414  0.333333  0.333334  1
  Ni  Ni18  1  0.917072  0.333333  0.333334  1
  Ni  Ni19  1  0.082928  0.666667  0.666668  1
  Ni  Ni20  1  0.403584  0.666667  0.666668  1
  O  O21  1  0.000000  0.849601  0.000000  1
  O  O22  1  0.298316  0.156856  0.008322  1
  O  O23  1  0.000000  0.000000  0.150399  1
  O  O24  1  0.298316  0.834822  0.156855  1
  O  O25  1  0.701684  0.843145  0.165178  1
  O  O26  1  0.755779  0.348226  0.171679  1
  O  O27  1  0.456766  0.500862  0.181551  1
  O  O28  1  0.055251  0.496444  0.181660  1
  O  O29  1  0.456766  0.181551  0.317588  1
  O  O30  1  0.055251  0.181660  0.321895  1
  O  O31  1  0.755779  0.480093  0.348227  1
  O  O32  1  0.755779  0.171679  0.480094  1
  O  O33  1  0.055251  0.321896  0.496444  1
  O  O34  1  0.543234  0.818450  0.499138  1
  O  O35  1  0.456766  0.317587  0.500862  1
  O  O36  1  0.944749  0.818342  0.503555  1
  O  O37  1  0.244221  0.651774  0.519908  1
  O  O38  1  0.244221  0.828320  0.651774  1
  O  O39  1  0.944749  0.503554  0.678105  1
  O  O40  1  0.543234  0.499138  0.682413  1
  O  O41  1  0.944749  0.678103  0.818341  1
  O  O42  1  0.543234  0.682413  0.818450  1
  O  O43  1  0.244221  0.519907  0.828319  1
  O  O44  1  0.298316  0.008322  0.834822  1
  O  O45  1  0.701684  0.991677  0.843145  1
  O  O46  1  0.000000  0.150400  0.849600  1
  O  O47  1  0.701684  0.165178  0.991678  1
