# generated using pymatgen
data_La17(PrIr4)3
_symmetry_space_group_name_H-M   'P 1'
_cell_length_a   11.40461900
_cell_length_b   11.40461900
_cell_length_c   6.69248500
_cell_angle_alpha   90.00000000
_cell_angle_beta   90.00000000
_cell_angle_gamma   90.00000000
_symmetry_Int_Tables_number   1
_chemical_formula_structural   La17(PrIr4)3
_chemical_formula_sum   'La17 Pr3 Ir12'
_cell_volume   870.46030040
_cell_formula_units_Z   1
loop_
 _symmetry_equiv_pos_site_id
 _symmetry_equiv_pos_as_xyz
  1  'x, y, z'
loop_
 _atom_site_type_symbol
 _atom_site_label
 _atom_site_symmetry_multiplicity
 _atom_site_fract_x
 _atom_site_fract_y
 _atom_site_fract_z
 _atom_site_occupancy
  La  La0  1  0.291691  0.090566  0.385257  1
  La  La1  1  0.291395  0.908953  0.886165  1
  La  La2  1  0.708605  0.091047  0.886165  1
  La  La3  1  0.708309  0.909434  0.385257  1
  La  La4  1  0.590945  0.791288  0.885634  1
  La  La5  1  0.590440  0.208706  0.386221  1
  La  La6  1  0.409560  0.791294  0.386221  1
  La  La7  1  0.409055  0.208712  0.885634  1
  La  La8  1  0.208706  0.409560  0.613779  1
  La  La9  1  0.208712  0.590945  0.114366  1
  La  La10  1  0.791288  0.409055  0.114366  1
  La  La11  1  0.791294  0.590440  0.613779  1
  La  La12  1  0.908953  0.708605  0.113835  1
  La  La13  1  0.909434  0.291691  0.614743  1
  La  La14  1  0.090566  0.708309  0.614743  1
  La  La15  1  0.091047  0.291395  0.113835  1
  La  La16  1  0.000000  0.000000  0.500000  1
  Pr  Pr17  1  0.000000  0.000000  0.000000  1
  Pr  Pr18  1  0.500000  0.500000  0.000000  1
  Pr  Pr19  1  0.500000  0.500000  0.500000  1
  Ir  Ir20  1  0.845842  0.153791  0.251274  1
  Ir  Ir21  1  0.846209  0.845842  0.748726  1
  Ir  Ir22  1  0.153791  0.154158  0.748726  1
  Ir  Ir23  1  0.154158  0.846209  0.251274  1
  Ir  Ir24  1  0.654381  0.345507  0.750225  1
  Ir  Ir25  1  0.654493  0.654381  0.249775  1
  Ir  Ir26  1  0.345507  0.345619  0.249775  1
  Ir  Ir27  1  0.345619  0.654493  0.750225  1
  Ir  Ir28  1  0.500000  0.000000  0.115986  1
  Ir  Ir29  1  0.500000  0.000000  0.616518  1
  Ir  Ir30  1  0.000000  0.500000  0.884014  1
  Ir  Ir31  1  0.000000  0.500000  0.383482  1
