# generated using pymatgen
data_Tb8Tm11Si16Hg
_symmetry_space_group_name_H-M   'P 1'
_cell_length_a   7.28607864
_cell_length_b   7.64828885
_cell_length_c   14.50707800
_cell_angle_alpha   90.00000000
_cell_angle_beta   90.00000000
_cell_angle_gamma   89.98429419
_symmetry_Int_Tables_number   1
_chemical_formula_structural   Tb8Tm11Si16Hg
_chemical_formula_sum   'Tb8 Tm11 Si16 Hg1'
_cell_volume   808.42189167
_cell_formula_units_Z   1
loop_
 _symmetry_equiv_pos_site_id
 _symmetry_equiv_pos_as_xyz
  1  'x, y, z'
loop_
 _atom_site_type_symbol
 _atom_site_label
 _atom_site_symmetry_multiplicity
 _atom_site_fract_x
 _atom_site_fract_y
 _atom_site_fract_z
 _atom_site_occupancy
  Tb  Tb0  1  0.014854  0.178992  0.096848  1
  Tb  Tb1  1  0.985675  0.810549  0.900341  1
  Tb  Tb2  1  0.478064  0.675200  0.900684  1
  Tb  Tb3  1  0.985675  0.810549  0.599659  1
  Tb  Tb4  1  0.515285  0.321943  0.096633  1
  Tb  Tb5  1  0.014854  0.178992  0.403152  1
  Tb  Tb6  1  0.515285  0.321943  0.403367  1
  Tb  Tb7  1  0.478064  0.675200  0.599316  1
  Tm  Tm8  1  0.838365  0.490524  0.250000  1
  Tm  Tm9  1  0.342466  0.011675  0.250000  1
  Tm  Tm10  1  0.654195  0.991138  0.750000  1
  Tm  Tm11  1  0.321449  0.186674  0.626305  1
  Tm  Tm12  1  0.674641  0.823082  0.377080  1
  Tm  Tm13  1  0.171965  0.684156  0.374868  1
  Tm  Tm14  1  0.674641  0.823082  0.122920  1
  Tm  Tm15  1  0.840203  0.324604  0.626345  1
  Tm  Tm16  1  0.321449  0.186674  0.873695  1
  Tm  Tm17  1  0.840203  0.324604  0.873655  1
  Tm  Tm18  1  0.171965  0.684156  0.125132  1
  Si  Si19  1  0.025472  0.079569  0.750000  1
  Si  Si20  1  0.969121  0.896413  0.250000  1
  Si  Si21  1  0.467546  0.612182  0.250000  1
  Si  Si22  1  0.541561  0.390742  0.750000  1
  Si  Si23  1  0.282066  0.878576  0.750000  1
  Si  Si24  1  0.720336  0.129853  0.250000  1
  Si  Si25  1  0.218972  0.372925  0.250000  1
  Si  Si26  1  0.763545  0.630357  0.750000  1
  Si  Si27  1  0.160974  0.461863  0.527917  1
  Si  Si28  1  0.845106  0.531799  0.461731  1
  Si  Si29  1  0.347000  0.970679  0.463865  1
  Si  Si30  1  0.845106  0.531799  0.038269  1
  Si  Si31  1  0.654334  0.030054  0.541157  1
  Si  Si32  1  0.160974  0.461863  0.972083  1
  Si  Si33  1  0.654334  0.030054  0.958843  1
  Si  Si34  1  0.347000  0.970679  0.036135  1
  Hg  Hg35  1  0.157253  0.516860  0.750000  1
