# generated using pymatgen
data_Er6Al24ZnOs7
_symmetry_space_group_name_H-M   'P 1'
_cell_length_a   8.84410101
_cell_length_b   8.84410008
_cell_length_c   9.51587943
_cell_angle_alpha   89.93459287
_cell_angle_beta   90.06540667
_cell_angle_gamma   120.00335243
_symmetry_Int_Tables_number   1
_chemical_formula_structural   Er6Al24ZnOs7
_chemical_formula_sum   'Er6 Al24 Zn1 Os7'
_cell_volume   644.57262279
_cell_formula_units_Z   1
loop_
 _symmetry_equiv_pos_site_id
 _symmetry_equiv_pos_as_xyz
  1  'x, y, z'
loop_
 _atom_site_type_symbol
 _atom_site_label
 _atom_site_symmetry_multiplicity
 _atom_site_fract_x
 _atom_site_fract_y
 _atom_site_fract_z
 _atom_site_occupancy
  Er  Er0  1  0.192099  0.387729  0.248347  1
  Er  Er1  1  0.807901  0.612271  0.751653  1
  Er  Er2  1  0.612271  0.807901  0.248347  1
  Er  Er3  1  0.387729  0.192099  0.751653  1
  Er  Er4  1  0.195302  0.804698  0.253447  1
  Er  Er5  1  0.804698  0.195302  0.746553  1
  Al  Al6  1  0.329803  0.670197  0.022349  1
  Al  Al7  1  0.670197  0.329803  0.977651  1
  Al  Al8  1  0.666063  0.333937  0.518001  1
  Al  Al9  1  0.333937  0.666063  0.481999  1
  Al  Al10  1  0.162611  0.325698  0.574347  1
  Al  Al11  1  0.837389  0.674302  0.425653  1
  Al  Al12  1  0.674302  0.837389  0.574347  1
  Al  Al13  1  0.848675  0.677243  0.081435  1
  Al  Al14  1  0.325698  0.162611  0.425653  1
  Al  Al15  1  0.151325  0.322757  0.918565  1
  Al  Al16  1  0.162836  0.837164  0.576084  1
  Al  Al17  1  0.322757  0.151325  0.081435  1
  Al  Al18  1  0.837164  0.162836  0.423916  1
  Al  Al19  1  0.677243  0.848675  0.918565  1
  Al  Al20  1  0.836778  0.163222  0.076704  1
  Al  Al21  1  0.163222  0.836778  0.923296  1
  Al  Al22  1  0.561563  0.121088  0.249268  1
  Al  Al23  1  0.438437  0.878912  0.750732  1
  Al  Al24  1  0.878912  0.438437  0.249268  1
  Al  Al25  1  0.121088  0.561563  0.750732  1
  Al  Al26  1  0.563408  0.436592  0.254143  1
  Al  Al27  1  0.436592  0.563408  0.745857  1
  Al  Al28  1  0.999071  0.000929  0.250501  1
  Al  Al29  1  0.000929  0.999071  0.749499  1
  Zn  Zn30  1  0.500000  0.500000  0.000000  1
  Os  Os31  1  0.500000  0.000000  0.000000  1
  Os  Os32  1  0.000000  0.500000  0.000000  1
  Os  Os33  1  0.500000  0.000000  0.500000  1
  Os  Os34  1  0.000000  0.500000  0.500000  1
  Os  Os35  1  0.500000  0.500000  0.500000  1
  Os  Os36  1  0.000000  0.000000  0.000000  1
  Os  Os37  1  0.000000  0.000000  0.500000  1
