# generated using pymatgen
data_Eu4NiAg3Sn4
_symmetry_space_group_name_H-M   'P 1'
_cell_length_a   7.62912698
_cell_length_b   4.66587500
_cell_length_c   8.30316100
_cell_angle_alpha   90.00000000
_cell_angle_beta   90.33573503
_cell_angle_gamma   90.00000000
_symmetry_Int_Tables_number   1
_chemical_formula_structural   Eu4NiAg3Sn4
_chemical_formula_sum   'Eu4 Ni1 Ag3 Sn4'
_cell_volume   295.55883498
_cell_formula_units_Z   1
loop_
 _symmetry_equiv_pos_site_id
 _symmetry_equiv_pos_as_xyz
  1  'x, y, z'
loop_
 _atom_site_type_symbol
 _atom_site_label
 _atom_site_symmetry_multiplicity
 _atom_site_fract_x
 _atom_site_fract_y
 _atom_site_fract_z
 _atom_site_occupancy
  Eu  Eu0  1  0.507023  0.250000  0.202788  1
  Eu  Eu1  1  0.005874  0.250000  0.296824  1
  Eu  Eu2  1  0.000731  0.750000  0.704480  1
  Eu  Eu3  1  0.488693  0.750000  0.804442  1
  Ni  Ni4  1  0.192019  0.750000  0.086183  1
  Ag  Ag5  1  0.700290  0.750000  0.407359  1
  Ag  Ag6  1  0.300973  0.250000  0.590477  1
  Ag  Ag7  1  0.795191  0.250000  0.908920  1
  Sn  Sn8  1  0.829338  0.750000  0.084338  1
  Sn  Sn9  1  0.293742  0.750000  0.394325  1
  Sn  Sn10  1  0.691673  0.250000  0.587004  1
  Sn  Sn11  1  0.194452  0.250000  0.932864  1
