# generated using pymatgen
data_Y6Cd23Sn
_symmetry_space_group_name_H-M   'P 1'
_cell_length_a   10.01617972
_cell_length_b   10.01618048
_cell_length_c   10.01618100
_cell_angle_alpha   60.00000159
_cell_angle_beta   59.99999906
_cell_angle_gamma   59.99999619
_symmetry_Int_Tables_number   1
_chemical_formula_structural   Y6Cd23Sn
_chemical_formula_sum   'Y6 Cd23 Sn1'
_cell_volume   710.54470194
_cell_formula_units_Z   1
loop_
 _symmetry_equiv_pos_site_id
 _symmetry_equiv_pos_as_xyz
  1  'x, y, z'
loop_
 _atom_site_type_symbol
 _atom_site_label
 _atom_site_symmetry_multiplicity
 _atom_site_fract_x
 _atom_site_fract_y
 _atom_site_fract_z
 _atom_site_occupancy
  Y  Y0  1  0.781428  0.781428  0.218572  1
  Y  Y1  1  0.218572  0.781428  0.218572  1
  Y  Y2  1  0.781428  0.218572  0.218572  1
  Y  Y3  1  0.218572  0.218572  0.781428  1
  Y  Y4  1  0.781428  0.218572  0.781428  1
  Y  Y5  1  0.218572  0.781428  0.781428  1
  Cd  Cd6  1  0.843467  0.843467  0.469601  1
  Cd  Cd7  1  0.843467  0.469601  0.843467  1
  Cd  Cd8  1  0.469601  0.843467  0.843467  1
  Cd  Cd9  1  0.843467  0.843467  0.843467  1
  Cd  Cd10  1  0.156533  0.156533  0.530399  1
  Cd  Cd11  1  0.156533  0.530399  0.156533  1
  Cd  Cd12  1  0.530399  0.156533  0.156533  1
  Cd  Cd13  1  0.156533  0.156533  0.156533  1
  Cd  Cd14  1  0.624602  0.624602  0.126197  1
  Cd  Cd15  1  0.624602  0.126197  0.624602  1
  Cd  Cd16  1  0.126197  0.624602  0.624602  1
  Cd  Cd17  1  0.624602  0.624602  0.624602  1
  Cd  Cd18  1  0.375398  0.375398  0.873803  1
  Cd  Cd19  1  0.375398  0.873803  0.375398  1
  Cd  Cd20  1  0.873803  0.375398  0.375398  1
  Cd  Cd21  1  0.375398  0.375398  0.375398  1
  Cd  Cd22  1  0.000000  0.000000  0.500000  1
  Cd  Cd23  1  0.500000  0.000000  0.500000  1
  Cd  Cd24  1  0.000000  0.500000  0.500000  1
  Cd  Cd25  1  0.500000  0.500000  0.000000  1
  Cd  Cd26  1  0.000000  0.500000  0.000000  1
  Cd  Cd27  1  0.500000  0.000000  0.000000  1
  Cd  Cd28  1  0.500000  0.500000  0.500000  1
  Sn  Sn29  1  0.000000  0.000000  0.000000  1
