# generated using pymatgen
data_TbDy3Al18(PtRh)3
_symmetry_space_group_name_H-M   'P 1'
_cell_length_a   7.60302803
_cell_length_b   7.60379836
_cell_length_c   9.44639601
_cell_angle_alpha   89.99527015
_cell_angle_beta   89.99326845
_cell_angle_gamma   119.61928894
_symmetry_Int_Tables_number   1
_chemical_formula_structural   TbDy3Al18(PtRh)3
_chemical_formula_sum   'Tb1 Dy3 Al18 Pt3 Rh3'
_cell_volume   474.75252824
_cell_formula_units_Z   1
loop_
 _symmetry_equiv_pos_site_id
 _symmetry_equiv_pos_as_xyz
  1  'x, y, z'
loop_
 _atom_site_type_symbol
 _atom_site_label
 _atom_site_symmetry_multiplicity
 _atom_site_fract_x
 _atom_site_fract_y
 _atom_site_fract_z
 _atom_site_occupancy
  Tb  Tb0  1  0.996003  0.669448  0.750179  1
  Dy  Dy1  1  0.005782  0.332061  0.249999  1
  Dy  Dy2  1  0.667884  0.994180  0.750009  1
  Dy  Dy3  1  0.330470  0.004019  0.249787  1
  Al  Al4  1  0.124253  0.125245  0.750677  1
  Al  Al5  1  0.874944  0.875852  0.249316  1
  Al  Al6  1  0.999840  0.330496  0.576168  1
  Al  Al7  1  0.999132  0.669579  0.423176  1
  Al  Al8  1  0.996416  0.665232  0.075216  1
  Al  Al9  1  0.334943  0.003754  0.925159  1
  Al  Al10  1  0.996089  0.330528  0.925160  1
  Al  Al11  1  0.669244  0.003915  0.075046  1
  Al  Al12  1  0.669316  0.000176  0.423662  1
  Al  Al13  1  0.330611  0.001063  0.576473  1
  Al  Al14  1  0.332313  0.328934  0.053344  1
  Al  Al15  1  0.670911  0.667686  0.946937  1
  Al  Al16  1  0.669906  0.670095  0.555756  1
  Al  Al17  1  0.329928  0.329958  0.443984  1
  Al  Al18  1  0.339714  0.543928  0.750540  1
  Al  Al19  1  0.659774  0.451868  0.246576  1
  Al  Al20  1  0.547851  0.339971  0.753434  1
  Al  Al21  1  0.456027  0.660422  0.249471  1
  Pt  Pt22  1  0.671883  0.328019  0.499926  1
  Pt  Pt23  1  0.327465  0.672602  0.499924  1
  Pt  Pt24  1  0.327558  0.672483  0.000079  1
  Rh  Rh25  1  0.671853  0.328073  0.000060  1
  Rh  Rh26  1  0.999754  0.000438  0.499866  1
  Rh  Rh27  1  0.000136  0.999975  0.000075  1
