# generated using pymatgen
data_K2CoP2O7
_symmetry_space_group_name_H-M   'P 1'
_cell_length_a   8.06534400
_cell_length_b   8.06534400
_cell_length_c   5.70456100
_cell_angle_alpha   90.00000000
_cell_angle_beta   90.00000000
_cell_angle_gamma   90.00000000
_symmetry_Int_Tables_number   1
_chemical_formula_structural   K2CoP2O7
_chemical_formula_sum   'K4 Co2 P4 O14'
_cell_volume   371.08040290
_cell_formula_units_Z   2
loop_
 _symmetry_equiv_pos_site_id
 _symmetry_equiv_pos_as_xyz
  1  'x, y, z'
loop_
 _atom_site_type_symbol
 _atom_site_label
 _atom_site_symmetry_multiplicity
 _atom_site_fract_x
 _atom_site_fract_y
 _atom_site_fract_z
 _atom_site_occupancy
  K  K0  1  0.334982  0.834982  0.488871  1
  K  K1  1  0.165018  0.334982  0.511129  1
  K  K2  1  0.665018  0.165018  0.488871  1
  K  K3  1  0.834982  0.665018  0.511129  1
  Co  Co4  1  0.500000  0.500000  0.000000  1
  Co  Co5  1  0.000000  0.000000  0.000000  1
  P  P6  1  0.363904  0.136096  0.955446  1
  P  P7  1  0.136096  0.636096  0.044554  1
  P  P8  1  0.636096  0.863904  0.955446  1
  P  P9  1  0.863904  0.363904  0.044554  1
  O  O10  1  0.500000  0.000000  0.860543  1
  O  O11  1  0.000000  0.500000  0.139457  1
  O  O12  1  0.578000  0.702250  0.833175  1
  O  O13  1  0.922000  0.202250  0.166825  1
  O  O14  1  0.422000  0.297750  0.833175  1
  O  O15  1  0.078000  0.797750  0.166825  1
  O  O16  1  0.702250  0.422000  0.166825  1
  O  O17  1  0.797750  0.922000  0.833175  1
  O  O18  1  0.297750  0.578000  0.166825  1
  O  O19  1  0.202250  0.078000  0.833175  1
  O  O20  1  0.361152  0.138848  0.219817  1
  O  O21  1  0.138848  0.638848  0.780183  1
  O  O22  1  0.638848  0.861152  0.219817  1
  O  O23  1  0.861152  0.361152  0.780183  1
