# generated using pymatgen
data_Tm8In2IrRu
_symmetry_space_group_name_H-M   'P 1'
_cell_length_a   9.53879000
_cell_length_b   9.57694744
_cell_length_c   9.53843865
_cell_angle_alpha   59.86635642
_cell_angle_beta   59.78882587
_cell_angle_gamma   59.86757450
_symmetry_Int_Tables_number   1
_chemical_formula_structural   Tm8In2IrRu
_chemical_formula_sum   'Tm16 In4 Ir2 Ru2'
_cell_volume   613.91938598
_cell_formula_units_Z   2
loop_
 _symmetry_equiv_pos_site_id
 _symmetry_equiv_pos_as_xyz
  1  'x, y, z'
loop_
 _atom_site_type_symbol
 _atom_site_label
 _atom_site_symmetry_multiplicity
 _atom_site_fract_x
 _atom_site_fract_y
 _atom_site_fract_z
 _atom_site_occupancy
  Tm  Tm0  1  0.807883  0.192185  0.807747  1
  Tm  Tm1  1  0.941374  0.557764  0.559679  1
  Tm  Tm2  1  0.558572  0.941434  0.558559  1
  Tm  Tm3  1  0.805889  0.193279  0.191076  1
  Tm  Tm4  1  0.192406  0.807591  0.192411  1
  Tm  Tm5  1  0.349521  0.954572  0.349634  1
  Tm  Tm6  1  0.941374  0.941183  0.559679  1
  Tm  Tm7  1  0.559670  0.941198  0.941391  1
  Tm  Tm8  1  0.191055  0.809840  0.805839  1
  Tm  Tm9  1  0.349747  0.348041  0.954172  1
  Tm  Tm10  1  0.559670  0.557743  0.941391  1
  Tm  Tm11  1  0.349521  0.346275  0.349634  1
  Tm  Tm12  1  0.191055  0.193266  0.805839  1
  Tm  Tm13  1  0.805889  0.809757  0.191076  1
  Tm  Tm14  1  0.940581  0.559417  0.940585  1
  Tm  Tm15  1  0.954222  0.347983  0.349812  1
  In  In16  1  0.583389  0.583358  0.583384  1
  In  In17  1  0.583389  0.249870  0.583384  1
  In  In18  1  0.583540  0.583063  0.250335  1
  In  In19  1  0.250339  0.583064  0.583534  1
  Ir  Ir20  1  0.140077  0.579912  0.140080  1
  Ir  Ir21  1  0.140077  0.139931  0.140080  1
  Ru  Ru22  1  0.140785  0.139644  0.579927  1
  Ru  Ru23  1  0.579979  0.139632  0.140758  1
