# generated using pymatgen
data_Tm2Co2P6Ir7Ru
_symmetry_space_group_name_H-M   'P 1'
_cell_length_a   3.88606500
_cell_length_b   10.74033400
_cell_length_c   12.33673100
_cell_angle_alpha   90.00000000
_cell_angle_beta   90.00000000
_cell_angle_gamma   90.00000000
_symmetry_Int_Tables_number   1
_chemical_formula_structural   Tm2Co2P6Ir7Ru
_chemical_formula_sum   'Tm4 Co4 P12 Ir14 Ru2'
_cell_volume   514.90598847
_cell_formula_units_Z   2
loop_
 _symmetry_equiv_pos_site_id
 _symmetry_equiv_pos_as_xyz
  1  'x, y, z'
loop_
 _atom_site_type_symbol
 _atom_site_label
 _atom_site_symmetry_multiplicity
 _atom_site_fract_x
 _atom_site_fract_y
 _atom_site_fract_z
 _atom_site_occupancy
  Tm  Tm0  1  0.250000  0.586571  0.709751  1
  Tm  Tm1  1  0.250000  0.913429  0.209751  1
  Tm  Tm2  1  0.750000  0.416384  0.291003  1
  Tm  Tm3  1  0.750000  0.083616  0.791003  1
  Co  Co4  1  0.250000  0.457407  0.933288  1
  Co  Co5  1  0.250000  0.042593  0.433288  1
  Co  Co6  1  0.750000  0.540322  0.066665  1
  Co  Co7  1  0.750000  0.959678  0.566665  1
  P  P8  1  0.250000  0.426980  0.105571  1
  P  P9  1  0.250000  0.073020  0.605571  1
  P  P10  1  0.750000  0.574353  0.894301  1
  P  P11  1  0.750000  0.925647  0.394301  1
  P  P12  1  0.250000  0.267896  0.872192  1
  P  P13  1  0.250000  0.232104  0.372192  1
  P  P14  1  0.750000  0.730124  0.127218  1
  P  P15  1  0.750000  0.769876  0.627218  1
  P  P16  1  0.250000  0.599075  0.387552  1
  P  P17  1  0.250000  0.900925  0.887552  1
  P  P18  1  0.750000  0.406855  0.612979  1
  P  P19  1  0.750000  0.093145  0.112979  1
  Ir  Ir20  1  0.750000  0.277774  0.016255  1
  Ir  Ir21  1  0.750000  0.222226  0.516255  1
  Ir  Ir22  1  0.250000  0.409587  0.479870  1
  Ir  Ir23  1  0.250000  0.090413  0.979870  1
  Ir  Ir24  1  0.750000  0.593949  0.519445  1
  Ir  Ir25  1  0.750000  0.906051  0.019445  1
  Ir  Ir26  1  0.250000  0.235735  0.181792  1
  Ir  Ir27  1  0.250000  0.264265  0.681792  1
  Ir  Ir28  1  0.750000  0.767093  0.819028  1
  Ir  Ir29  1  0.750000  0.732907  0.319028  1
  Ir  Ir30  1  0.250000  0.888365  0.700637  1
  Ir  Ir31  1  0.250000  0.611635  0.200637  1
  Ir  Ir32  1  0.750000  0.109647  0.297909  1
  Ir  Ir33  1  0.750000  0.390353  0.797909  1
  Ru  Ru34  1  0.250000  0.716838  0.984545  1
  Ru  Ru35  1  0.250000  0.783162  0.484545  1
