# generated using pymatgen
data_Li3Y2ThPt3
_symmetry_space_group_name_H-M   'P 1'
_cell_length_a   7.27474600
_cell_length_b   7.22647542
_cell_length_c   4.06236900
_cell_angle_alpha   90.00000000
_cell_angle_beta   90.00000000
_cell_angle_gamma   120.22121849
_symmetry_Int_Tables_number   1
_chemical_formula_structural   Li3Y2ThPt3
_chemical_formula_sum   'Li3 Y2 Th1 Pt3'
_cell_volume   184.53635479
_cell_formula_units_Z   1
loop_
 _symmetry_equiv_pos_site_id
 _symmetry_equiv_pos_as_xyz
  1  'x, y, z'
loop_
 _atom_site_type_symbol
 _atom_site_label
 _atom_site_symmetry_multiplicity
 _atom_site_fract_x
 _atom_site_fract_y
 _atom_site_fract_z
 _atom_site_occupancy
  Li  Li0  1  0.775538  0.000000  0.000000  1
  Li  Li1  1  0.233370  0.239988  0.000000  1
  Li  Li2  1  0.993382  0.760012  0.000000  1
  Y  Y3  1  0.997214  0.403905  0.500000  1
  Y  Y4  1  0.593309  0.596095  0.500000  1
  Th  Th5  1  0.410499  0.000000  0.500000  1
  Pt  Pt6  1  0.005454  0.000000  0.500000  1
  Pt  Pt7  1  0.660869  0.330503  0.000000  1
  Pt  Pt8  1  0.330365  0.669497  0.000000  1
