# generated using pymatgen
data_Lu3Hf(Al3Tc)2
_symmetry_space_group_name_H-M   'P 1'
_cell_length_a   5.38445500
_cell_length_b   5.38445578
_cell_length_c   8.80162900
_cell_angle_alpha   90.00000000
_cell_angle_beta   90.00000000
_cell_angle_gamma   119.99998909
_symmetry_Int_Tables_number   1
_chemical_formula_structural   Lu3Hf(Al3Tc)2
_chemical_formula_sum   'Lu3 Hf1 Al6 Tc2'
_cell_volume   220.99238251
_cell_formula_units_Z   1
loop_
 _symmetry_equiv_pos_site_id
 _symmetry_equiv_pos_as_xyz
  1  'x, y, z'
loop_
 _atom_site_type_symbol
 _atom_site_label
 _atom_site_symmetry_multiplicity
 _atom_site_fract_x
 _atom_site_fract_y
 _atom_site_fract_z
 _atom_site_occupancy
  Lu  Lu0  1  0.333333  0.666667  0.442765  1
  Lu  Lu1  1  0.666667  0.333333  0.949316  1
  Lu  Lu2  1  0.666667  0.333333  0.553521  1
  Hf  Hf3  1  0.333333  0.666667  0.047779  1
  Al  Al4  1  0.164479  0.328960  0.753596  1
  Al  Al5  1  0.836066  0.163934  0.248080  1
  Al  Al6  1  0.327870  0.163934  0.248080  1
  Al  Al7  1  0.671040  0.835521  0.753596  1
  Al  Al8  1  0.836066  0.672130  0.248080  1
  Al  Al9  1  0.164479  0.835521  0.753596  1
  Tc  Tc10  1  0.000000  0.000000  0.000518  1
  Tc  Tc11  1  0.000000  0.000000  0.501073  1
