# generated using pymatgen
data_Hf3Sc5P12Ir3Rh13
_symmetry_space_group_name_H-M   'P 1'
_cell_length_a   12.78811400
_cell_length_b   12.78421780
_cell_length_c   3.85960100
_cell_angle_alpha   90.00000000
_cell_angle_beta   90.00000000
_cell_angle_gamma   120.01007692
_symmetry_Int_Tables_number   1
_chemical_formula_structural   Hf3Sc5P12Ir3Rh13
_chemical_formula_sum   'Hf3 Sc5 P12 Ir3 Rh13'
_cell_volume   546.39862053
_cell_formula_units_Z   1
loop_
 _symmetry_equiv_pos_site_id
 _symmetry_equiv_pos_as_xyz
  1  'x, y, z'
loop_
 _atom_site_type_symbol
 _atom_site_label
 _atom_site_symmetry_multiplicity
 _atom_site_fract_x
 _atom_site_fract_y
 _atom_site_fract_z
 _atom_site_occupancy
  Hf  Hf0  1  0.447755  0.000000  0.000000  1
  Hf  Hf1  1  0.999972  0.448332  0.000000  1
  Hf  Hf2  1  0.551640  0.551668  0.000000  1
  Sc  Sc3  1  0.333277  0.666645  0.000000  1
  Sc  Sc4  1  0.666633  0.333355  0.000000  1
  Sc  Sc5  1  0.816051  0.000000  0.500000  1
  Sc  Sc6  1  0.999505  0.815894  0.500000  1
  Sc  Sc7  1  0.183612  0.184106  0.500000  1
  P  P8  1  0.174164  0.000000  0.000000  1
  P  P9  1  0.999978  0.173531  0.000000  1
  P  P10  1  0.826447  0.826469  0.000000  1
  P  P11  1  0.171193  0.484658  0.500000  1
  P  P12  1  0.515473  0.686788  0.500000  1
  P  P13  1  0.313473  0.828701  0.500000  1
  P  P14  1  0.686534  0.515342  0.500000  1
  P  P15  1  0.828684  0.313212  0.500000  1
  P  P16  1  0.484771  0.171299  0.500000  1
  P  P17  1  0.652480  0.000000  0.000000  1
  P  P18  1  0.000300  0.653095  0.000000  1
  P  P19  1  0.347205  0.346905  0.000000  1
  Ir  Ir20  1  0.000023  0.277122  0.500000  1
  Ir  Ir21  1  0.722901  0.722878  0.500000  1
  Ir  Ir22  1  0.000387  0.000000  0.000000  1
  Rh  Rh23  1  0.357434  0.490609  0.500000  1
  Rh  Rh24  1  0.509983  0.867334  0.500000  1
  Rh  Rh25  1  0.132723  0.642787  0.500000  1
  Rh  Rh26  1  0.866825  0.509391  0.500000  1
  Rh  Rh27  1  0.642649  0.132666  0.500000  1
  Rh  Rh28  1  0.489936  0.357213  0.500000  1
  Rh  Rh29  1  0.178208  0.371553  0.000000  1
  Rh  Rh30  1  0.628390  0.806464  0.000000  1
  Rh  Rh31  1  0.193961  0.822807  0.000000  1
  Rh  Rh32  1  0.806656  0.628447  0.000000  1
  Rh  Rh33  1  0.821926  0.193536  0.000000  1
  Rh  Rh34  1  0.371155  0.177193  0.000000  1
  Rh  Rh35  1  0.277695  0.000000  0.500000  1
