# generated using pymatgen
data_Pr4DyCoRuO12
_symmetry_space_group_name_H-M   'P 1'
_cell_length_a   7.02567220
_cell_length_b   7.02376233
_cell_length_c   7.53790389
_cell_angle_alpha   74.12579112
_cell_angle_beta   74.15680610
_cell_angle_gamma   50.78866213
_symmetry_Int_Tables_number   1
_chemical_formula_structural   Pr4DyCoRuO12
_chemical_formula_sum   'Pr4 Dy1 Co1 Ru1 O12'
_cell_volume   274.70754949
_cell_formula_units_Z   1
loop_
 _symmetry_equiv_pos_site_id
 _symmetry_equiv_pos_as_xyz
  1  'x, y, z'
loop_
 _atom_site_type_symbol
 _atom_site_label
 _atom_site_symmetry_multiplicity
 _atom_site_fract_x
 _atom_site_fract_y
 _atom_site_fract_z
 _atom_site_occupancy
  Pr  Pr0  1  0.705966  0.681674  0.640619  1
  Pr  Pr1  1  0.696889  0.688184  0.165836  1
  Pr  Pr2  1  0.311933  0.303163  0.832194  1
  Pr  Pr3  1  0.002037  0.000182  0.498020  1
  Dy  Dy4  1  0.319538  0.294513  0.355034  1
  Co  Co5  1  0.741270  0.256222  0.002870  1
  Ru  Ru6  1  0.229399  0.767982  0.003167  1
  O  O7  1  0.109750  0.588901  0.565867  1
  O  O8  1  0.981897  0.016934  0.165993  1
  O  O9  1  0.403359  0.907179  0.422498  1
  O  O10  1  0.500325  0.494283  0.176700  1
  O  O11  1  0.109235  0.576578  0.084699  1
  O  O12  1  0.923591  0.396535  0.417851  1
  O  O13  1  0.979536  0.016228  0.835875  1
  O  O14  1  0.594802  0.094323  0.569198  1
  O  O15  1  0.501509  0.496505  0.832387  1
  O  O16  1  0.574163  0.107141  0.086379  1
  O  O17  1  0.417177  0.894354  0.922050  1
  O  O18  1  0.897626  0.419118  0.922764  1
