# generated using pymatgen
data_Tm12Co4HgPt
_symmetry_space_group_name_H-M   'P 1'
_cell_length_a   8.18730909
_cell_length_b   8.18730952
_cell_length_c   8.18730978
_cell_angle_alpha   111.03083858
_cell_angle_beta   110.66650830
_cell_angle_gamma   106.75032300
_symmetry_Int_Tables_number   1
_chemical_formula_structural   Tm12Co4HgPt
_chemical_formula_sum   'Tm12 Co4 Hg1 Pt1'
_cell_volume   421.76091482
_cell_formula_units_Z   1
loop_
 _symmetry_equiv_pos_site_id
 _symmetry_equiv_pos_as_xyz
  1  'x, y, z'
loop_
 _atom_site_type_symbol
 _atom_site_label
 _atom_site_symmetry_multiplicity
 _atom_site_fract_x
 _atom_site_fract_y
 _atom_site_fract_z
 _atom_site_occupancy
  Tm  Tm0  1  0.417323  0.219570  0.197753  1
  Tm  Tm1  1  0.582677  0.780430  0.802247  1
  Tm  Tm2  1  0.021816  0.219570  0.802247  1
  Tm  Tm3  1  0.978184  0.780430  0.197753  1
  Tm  Tm4  1  0.185607  0.288528  0.474135  1
  Tm  Tm5  1  0.814393  0.711472  0.525865  1
  Tm  Tm6  1  0.185607  0.711472  0.897081  1
  Tm  Tm7  1  0.814393  0.288528  0.102919  1
  Tm  Tm8  1  0.315870  0.620198  0.304329  1
  Tm  Tm9  1  0.684130  0.379802  0.695671  1
  Tm  Tm10  1  0.315870  0.011540  0.695671  1
  Tm  Tm11  1  0.684130  0.988460  0.304329  1
  Co  Co12  1  0.377157  0.000000  0.377157  1
  Co  Co13  1  0.622843  0.000000  0.622843  1
  Co  Co14  1  0.112915  0.612915  0.500000  1
  Co  Co15  1  0.887085  0.387085  0.500000  1
  Hg  Hg16  1  0.500000  0.500000  0.000000  1
  Pt  Pt17  1  0.000000  0.000000  0.000000  1
