# generated using pymatgen
data_TaNb3Ni2N
_symmetry_space_group_name_H-M   'P 1'
_cell_length_a   8.24165423
_cell_length_b   8.24165439
_cell_length_c   8.24165500
_cell_angle_alpha   60.00000158
_cell_angle_beta   60.00000093
_cell_angle_gamma   60.00000591
_symmetry_Int_Tables_number   1
_chemical_formula_structural   TaNb3Ni2N
_chemical_formula_sum   'Ta4 Nb12 Ni8 N4'
_cell_volume   395.84781287
_cell_formula_units_Z   4
loop_
 _symmetry_equiv_pos_site_id
 _symmetry_equiv_pos_as_xyz
  1  'x, y, z'
loop_
 _atom_site_type_symbol
 _atom_site_label
 _atom_site_symmetry_multiplicity
 _atom_site_fract_x
 _atom_site_fract_y
 _atom_site_fract_z
 _atom_site_occupancy
  Ta  Ta0  1  0.125000  0.625000  0.625000  1
  Ta  Ta1  1  0.625000  0.125000  0.625000  1
  Ta  Ta2  1  0.625000  0.625000  0.125000  1
  Ta  Ta3  1  0.625000  0.625000  0.625000  1
  Nb  Nb4  1  0.817202  0.817202  0.182798  1
  Nb  Nb5  1  0.182798  0.182798  0.817202  1
  Nb  Nb6  1  0.817202  0.182798  0.817202  1
  Nb  Nb7  1  0.182798  0.817202  0.182798  1
  Nb  Nb8  1  0.182798  0.817202  0.817202  1
  Nb  Nb9  1  0.817202  0.182798  0.182798  1
  Nb  Nb10  1  0.432798  0.432798  0.067202  1
  Nb  Nb11  1  0.067202  0.067202  0.432798  1
  Nb  Nb12  1  0.432798  0.067202  0.432798  1
  Nb  Nb13  1  0.067202  0.432798  0.067202  1
  Nb  Nb14  1  0.067202  0.432798  0.432798  1
  Nb  Nb15  1  0.432798  0.067202  0.067202  1
  Ni  Ni16  1  0.739347  0.420218  0.420218  1
  Ni  Ni17  1  0.420218  0.739347  0.420218  1
  Ni  Ni18  1  0.420218  0.420218  0.739347  1
  Ni  Ni19  1  0.420218  0.420218  0.420218  1
  Ni  Ni20  1  0.510653  0.829782  0.829782  1
  Ni  Ni21  1  0.829782  0.510653  0.829782  1
  Ni  Ni22  1  0.829782  0.829782  0.510653  1
  Ni  Ni23  1  0.829782  0.829782  0.829782  1
  N  N24  1  0.625000  0.125000  0.125000  1
  N  N25  1  0.125000  0.625000  0.125000  1
  N  N26  1  0.125000  0.125000  0.625000  1
  N  N27  1  0.125000  0.125000  0.125000  1
