# generated using pymatgen
data_TbYbY2(B4Ru)4
_symmetry_space_group_name_H-M   'P 1'
_cell_length_a   3.55617900
_cell_length_b   5.97294086
_cell_length_c   11.54485803
_cell_angle_alpha   89.97310508
_cell_angle_beta   90.00000000
_cell_angle_gamma   90.00000000
_symmetry_Int_Tables_number   1
_chemical_formula_structural   TbYbY2(B4Ru)4
_chemical_formula_sum   'Tb1 Yb1 Y2 B16 Ru4'
_cell_volume   245.22253449
_cell_formula_units_Z   1
loop_
 _symmetry_equiv_pos_site_id
 _symmetry_equiv_pos_as_xyz
  1  'x, y, z'
loop_
 _atom_site_type_symbol
 _atom_site_label
 _atom_site_symmetry_multiplicity
 _atom_site_fract_x
 _atom_site_fract_y
 _atom_site_fract_z
 _atom_site_occupancy
  Tb  Tb0  1  0.500000  0.628404  0.150189  1
  Yb  Yb1  1  0.500000  0.870351  0.649690  1
  Y  Y2  1  0.500000  0.371108  0.848693  1
  Y  Y3  1  0.500000  0.128501  0.350888  1
  B  B4  1  0.000000  0.975867  0.191656  1
  B  B5  1  0.000000  0.024483  0.808000  1
  B  B6  1  0.000000  0.475297  0.308779  1
  B  B7  1  0.000000  0.524590  0.691087  1
  B  B8  1  0.000000  0.788512  0.315326  1
  B  B9  1  0.000000  0.211358  0.684885  1
  B  B10  1  0.000000  0.288232  0.185546  1
  B  B11  1  0.000000  0.712853  0.814043  1
  B  B12  1  0.000000  0.863731  0.470058  1
  B  B13  1  0.000000  0.135744  0.530656  1
  B  B14  1  0.000000  0.363602  0.030366  1
  B  B15  1  0.000000  0.636297  0.969655  1
  B  B16  1  0.000000  0.887969  0.046713  1
  B  B17  1  0.000000  0.111418  0.953004  1
  B  B18  1  0.000000  0.388414  0.454081  1
  B  B19  1  0.000000  0.613574  0.547085  1
  Ru  Ru20  1  0.500000  0.639540  0.408046  1
  Ru  Ru21  1  0.500000  0.360643  0.590896  1
  Ru  Ru22  1  0.500000  0.139955  0.092047  1
  Ru  Ru23  1  0.500000  0.859558  0.908610  1
