# generated using pymatgen
data_Ho3Cd(Pd2Au)4
_symmetry_space_group_name_H-M   'P 1'
_cell_length_a   5.98594700
_cell_length_b   5.96128000
_cell_length_c   7.98509700
_cell_angle_alpha   90.00003845
_cell_angle_beta   90.00055265
_cell_angle_gamma   89.99998082
_symmetry_Int_Tables_number   1
_chemical_formula_structural   Ho3Cd(Pd2Au)4
_chemical_formula_sum   'Ho3 Cd1 Pd8 Au4'
_cell_volume   284.93945180
_cell_formula_units_Z   1
loop_
 _symmetry_equiv_pos_site_id
 _symmetry_equiv_pos_as_xyz
  1  'x, y, z'
loop_
 _atom_site_type_symbol
 _atom_site_label
 _atom_site_symmetry_multiplicity
 _atom_site_fract_x
 _atom_site_fract_y
 _atom_site_fract_z
 _atom_site_occupancy
  Ho  Ho0  1  0.250776  0.249996  0.999993  1
  Ho  Ho1  1  0.749276  0.750003  0.000003  1
  Ho  Ho2  1  0.750753  0.750001  0.499988  1
  Cd  Cd3  1  0.248887  0.250003  0.500021  1
  Pd  Pd4  1  0.000724  0.999970  0.250542  1
  Pd  Pd5  1  0.000721  0.500067  0.250538  1
  Pd  Pd6  1  0.499699  0.000061  0.252283  1
  Pd  Pd7  1  0.499701  0.499908  0.252280  1
  Pd  Pd8  1  0.499282  0.000040  0.747715  1
  Pd  Pd9  1  0.499282  0.499992  0.747715  1
  Pd  Pd10  1  0.000308  0.999938  0.749464  1
  Pd  Pd11  1  0.000307  0.500027  0.749462  1
  Au  Au12  1  0.749419  0.250004  0.999989  1
  Au  Au13  1  0.250568  0.749993  0.999992  1
  Au  Au14  1  0.249395  0.749994  0.499977  1
  Au  Au15  1  0.750900  0.250005  0.500037  1
