# generated using pymatgen
data_YbYRe4(SiC)2
_symmetry_space_group_name_H-M   'P 1'
_cell_length_a   5.76204289
_cell_length_b   5.76204490
_cell_length_c   7.32444400
_cell_angle_alpha   90.00000000
_cell_angle_beta   90.00000000
_cell_angle_gamma   139.57823405
_symmetry_Int_Tables_number   1
_chemical_formula_structural   YbYRe4(SiC)2
_chemical_formula_sum   'Yb1 Y1 Re4 Si2 C2'
_cell_volume   157.68011392
_cell_formula_units_Z   1
loop_
 _symmetry_equiv_pos_site_id
 _symmetry_equiv_pos_as_xyz
  1  'x, y, z'
loop_
 _atom_site_type_symbol
 _atom_site_label
 _atom_site_symmetry_multiplicity
 _atom_site_fract_x
 _atom_site_fract_y
 _atom_site_fract_z
 _atom_site_occupancy
  Yb  Yb0  1  0.541591  0.458409  0.250000  1
  Y  Y1  1  0.458913  0.541087  0.750000  1
  Re  Re2  1  0.826049  0.173951  0.062255  1
  Re  Re3  1  0.175100  0.824900  0.940297  1
  Re  Re4  1  0.175100  0.824900  0.559703  1
  Re  Re5  1  0.826049  0.173951  0.437745  1
  Si  Si6  1  0.264203  0.735797  0.250000  1
  Si  Si7  1  0.732566  0.267434  0.750000  1
  C  C8  1  0.000215  0.999785  0.998167  1
  C  C9  1  0.000215  0.999785  0.501833  1
