# generated using pymatgen
data_Zr12Co(Si4Rh)3
_symmetry_space_group_name_H-M   'P 1'
_cell_length_a   3.90304100
_cell_length_b   10.39659814
_cell_length_c   11.81480215
_cell_angle_alpha   89.75491706
_cell_angle_beta   90.00000000
_cell_angle_gamma   90.00000000
_symmetry_Int_Tables_number   1
_chemical_formula_structural   Zr12Co(Si4Rh)3
_chemical_formula_sum   'Zr12 Co1 Si12 Rh3'
_cell_volume   479.42077665
_cell_formula_units_Z   1
loop_
 _symmetry_equiv_pos_site_id
 _symmetry_equiv_pos_as_xyz
  1  'x, y, z'
loop_
 _atom_site_type_symbol
 _atom_site_label
 _atom_site_symmetry_multiplicity
 _atom_site_fract_x
 _atom_site_fract_y
 _atom_site_fract_z
 _atom_site_occupancy
  Zr  Zr0  1  0.250000  0.878276  0.021730  1
  Zr  Zr1  1  0.250000  0.619176  0.524891  1
  Zr  Zr2  1  0.750000  0.124429  0.975805  1
  Zr  Zr3  1  0.750000  0.376304  0.478530  1
  Zr  Zr4  1  0.250000  0.926760  0.596993  1
  Zr  Zr5  1  0.250000  0.573391  0.096489  1
  Zr  Zr6  1  0.750000  0.072075  0.404974  1
  Zr  Zr7  1  0.750000  0.428267  0.904570  1
  Zr  Zr8  1  0.250000  0.654252  0.800133  1
  Zr  Zr9  1  0.250000  0.841794  0.301085  1
  Zr  Zr10  1  0.750000  0.342561  0.199296  1
  Zr  Zr11  1  0.750000  0.164208  0.699257  1
  Co  Co12  1  0.250000  0.385132  0.680784  1
  Si  Si13  1  0.250000  0.019691  0.823939  1
  Si  Si14  1  0.250000  0.482892  0.325275  1
  Si  Si15  1  0.750000  0.984050  0.174877  1
  Si  Si16  1  0.750000  0.505855  0.676605  1
  Si  Si17  1  0.250000  0.255961  0.839252  1
  Si  Si18  1  0.250000  0.249362  0.343809  1
  Si  Si19  1  0.750000  0.750854  0.156461  1
  Si  Si20  1  0.750000  0.746778  0.657174  1
  Si  Si21  1  0.250000  0.195866  0.543389  1
  Si  Si22  1  0.250000  0.306500  0.041477  1
  Si  Si23  1  0.750000  0.804556  0.458980  1
  Si  Si24  1  0.750000  0.695278  0.957450  1
  Rh  Rh25  1  0.250000  0.115263  0.181036  1
  Rh  Rh26  1  0.750000  0.614612  0.318718  1
  Rh  Rh27  1  0.750000  0.885857  0.817023  1
