# generated using pymatgen
data_DyEr19(Ir2Os)4
_symmetry_space_group_name_H-M   'P 1'
_cell_length_a   10.76746603
_cell_length_b   10.76678800
_cell_length_c   6.36469802
_cell_angle_alpha   89.99749820
_cell_angle_beta   90.00876336
_cell_angle_gamma   89.99864847
_symmetry_Int_Tables_number   1
_chemical_formula_structural   DyEr19(Ir2Os)4
_chemical_formula_sum   'Dy1 Er19 Ir8 Os4'
_cell_volume   737.86595003
_cell_formula_units_Z   1
loop_
 _symmetry_equiv_pos_site_id
 _symmetry_equiv_pos_as_xyz
  1  'x, y, z'
loop_
 _atom_site_type_symbol
 _atom_site_label
 _atom_site_symmetry_multiplicity
 _atom_site_fract_x
 _atom_site_fract_y
 _atom_site_fract_z
 _atom_site_occupancy
  Dy  Dy0  1  0.293165  0.086362  0.376109  1
  Er  Er1  1  0.293633  0.913636  0.876477  1
  Er  Er2  1  0.706388  0.086213  0.876495  1
  Er  Er3  1  0.706420  0.913767  0.376430  1
  Er  Er4  1  0.586248  0.793621  0.876498  1
  Er  Er5  1  0.586464  0.206470  0.376461  1
  Er  Er6  1  0.413873  0.793426  0.376439  1
  Er  Er7  1  0.413898  0.206448  0.876469  1
  Er  Er8  1  0.206353  0.413844  0.623587  1
  Er  Er9  1  0.206347  0.586226  0.123561  1
  Er  Er10  1  0.793639  0.413791  0.123538  1
  Er  Er11  1  0.793648  0.586228  0.623537  1
  Er  Er12  1  0.913786  0.706350  0.123537  1
  Er  Er13  1  0.913766  0.293623  0.623535  1
  Er  Er14  1  0.086202  0.706363  0.623538  1
  Er  Er15  1  0.086080  0.293735  0.123400  1
  Er  Er16  1  0.999794  0.999898  0.500099  1
  Er  Er17  1  0.999957  0.999983  0.999953  1
  Er  Er18  1  0.500019  0.500012  0.999988  1
  Er  Er19  1  0.500040  0.500021  0.500042  1
  Ir  Ir20  1  0.847571  0.152415  0.249985  1
  Ir  Ir21  1  0.847581  0.847604  0.749997  1
  Ir  Ir22  1  0.152190  0.152546  0.750708  1
  Ir  Ir23  1  0.152268  0.847312  0.249833  1
  Ir  Ir24  1  0.652404  0.347579  0.750010  1
  Ir  Ir25  1  0.652386  0.652427  0.249996  1
  Ir  Ir26  1  0.347673  0.347969  0.249782  1
  Ir  Ir27  1  0.347603  0.652408  0.750019  1
  Os  Os28  1  0.500255  0.999894  0.122190  1
  Os  Os29  1  0.500323  0.999880  0.622905  1
  Os  Os30  1  0.000013  0.499963  0.877440  1
  Os  Os31  1  0.000012  0.499986  0.377443  1
