# generated using pymatgen
data_Ho7Lu2Al(SiB4)4
_symmetry_space_group_name_H-M   'P 1'
_cell_length_a   7.12661207
_cell_length_b   7.12487610
_cell_length_c   7.87983213
_cell_angle_alpha   90.01650221
_cell_angle_beta   89.98755388
_cell_angle_gamma   89.98963647
_symmetry_Int_Tables_number   1
_chemical_formula_structural   Ho7Lu2Al(SiB4)4
_chemical_formula_sum   'Ho7 Lu2 Al1 Si4 B16'
_cell_volume   400.10812049
_cell_formula_units_Z   1
loop_
 _symmetry_equiv_pos_site_id
 _symmetry_equiv_pos_as_xyz
  1  'x, y, z'
loop_
 _atom_site_type_symbol
 _atom_site_label
 _atom_site_symmetry_multiplicity
 _atom_site_fract_x
 _atom_site_fract_y
 _atom_site_fract_z
 _atom_site_occupancy
  Ho  Ho0  1  0.317995  0.820586  0.771622  1
  Ho  Ho1  1  0.317995  0.820610  0.228517  1
  Ho  Ho2  1  0.820417  0.682116  0.228427  1
  Ho  Ho3  1  0.820554  0.682093  0.771406  1
  Ho  Ho4  1  0.682211  0.179446  0.771756  1
  Ho  Ho5  1  0.179381  0.317847  0.771393  1
  Ho  Ho6  1  0.179495  0.317790  0.228506  1
  Lu  Lu7  1  0.681840  0.179630  0.225577  1
  Lu  Lu8  1  0.500248  0.499672  0.499704  1
  Al  Al9  1  0.999440  0.000297  0.499535  1
  Si  Si10  1  0.114860  0.619706  0.499769  1
  Si  Si11  1  0.883930  0.378521  0.498578  1
  Si  Si12  1  0.380915  0.115765  0.499114  1
  Si  Si13  1  0.620815  0.885910  0.498887  1
  B  B14  1  0.174373  0.039886  0.000410  1
  B  B15  1  0.825153  0.960758  0.000695  1
  B  B16  1  0.959741  0.174771  0.000477  1
  B  B17  1  0.327418  0.539269  0.000284  1
  B  B18  1  0.039534  0.825620  0.000328  1
  B  B19  1  0.673016  0.460133  0.000283  1
  B  B20  1  0.539666  0.672652  0.000399  1
  B  B21  1  0.460993  0.326910  0.000477  1
  B  B22  1  0.089797  0.588460  0.000229  1
  B  B23  1  0.910181  0.411515  0.000099  1
  B  B24  1  0.411804  0.089833  0.000786  1
  B  B25  1  0.588510  0.910575  0.000956  1
  B  B26  1  0.999113  0.000565  0.164167  1
  B  B27  1  0.999905  0.000077  0.836964  1
  B  B28  1  0.500106  0.499957  0.833821  1
  B  B29  1  0.500595  0.499031  0.166832  1
