# generated using pymatgen
data_La2Al6Si4Au
_symmetry_space_group_name_H-M   'P 1'
_cell_length_a   4.25686502
_cell_length_b   4.25686491
_cell_length_c   17.67477535
_cell_angle_alpha   83.08354616
_cell_angle_beta   83.08354505
_cell_angle_gamma   59.99999800
_symmetry_Int_Tables_number   1
_chemical_formula_structural   La2Al6Si4Au
_chemical_formula_sum   'La2 Al6 Si4 Au1'
_cell_volume   274.67842816
_cell_formula_units_Z   1
loop_
 _symmetry_equiv_pos_site_id
 _symmetry_equiv_pos_as_xyz
  1  'x, y, z'
loop_
 _atom_site_type_symbol
 _atom_site_label
 _atom_site_symmetry_multiplicity
 _atom_site_fract_x
 _atom_site_fract_y
 _atom_site_fract_z
 _atom_site_occupancy
  La  La0  1  0.566034  0.566034  0.301899  1
  La  La1  1  0.433966  0.433966  0.698101  1
  Al  Al2  1  0.184933  0.184933  0.445202  1
  Al  Al3  1  0.050369  0.050369  0.848894  1
  Al  Al4  1  0.815067  0.815067  0.554798  1
  Al  Al5  1  0.949631  0.949631  0.151106  1
  Al  Al6  1  0.682285  0.682285  0.953146  1
  Al  Al7  1  0.317715  0.317715  0.046854  1
  Si  Si8  1  0.731580  0.731580  0.805261  1
  Si  Si9  1  0.268420  0.268420  0.194739  1
  Si  Si10  1  0.136735  0.136735  0.589795  1
  Si  Si11  1  0.863265  0.863265  0.410205  1
  Au  Au12  1  0.000000  0.000000  0.000000  1
