# generated using pymatgen
data_Np(CoAs)2
_symmetry_space_group_name_H-M   'P 1'
_cell_length_a   3.95141384
_cell_length_b   3.95141372
_cell_length_c   5.75938000
_cell_angle_alpha   110.06228910
_cell_angle_beta   110.06228850
_cell_angle_gamma   90.00000296
_symmetry_Int_Tables_number   1
_chemical_formula_structural   Np(CoAs)2
_chemical_formula_sum   'Np1 Co2 As2'
_cell_volume   78.63405731
_cell_formula_units_Z   1
loop_
 _symmetry_equiv_pos_site_id
 _symmetry_equiv_pos_as_xyz
  1  'x, y, z'
loop_
 _atom_site_type_symbol
 _atom_site_label
 _atom_site_symmetry_multiplicity
 _atom_site_fract_x
 _atom_site_fract_y
 _atom_site_fract_z
 _atom_site_occupancy
  Np  Np0  1  0.000000  0.000000  0.000000  1
  Co  Co1  1  0.750000  0.250000  0.500000  1
  Co  Co2  1  0.250000  0.750000  0.500000  1
  As  As3  1  0.630248  0.630248  0.260497  1
  As  As4  1  0.369751  0.369751  0.739502  1
