# generated using pymatgen
data_ErLu9(Ga2Bi)2
_symmetry_space_group_name_H-M   'P 1'
_cell_length_a   8.57103335
_cell_length_b   8.59234553
_cell_length_c   6.42216900
_cell_angle_alpha   90.00000000
_cell_angle_beta   90.00000000
_cell_angle_gamma   120.11099407
_symmetry_Int_Tables_number   1
_chemical_formula_structural   ErLu9(Ga2Bi)2
_chemical_formula_sum   'Er1 Lu9 Ga4 Bi2'
_cell_volume   409.13860097
_cell_formula_units_Z   1
loop_
 _symmetry_equiv_pos_site_id
 _symmetry_equiv_pos_as_xyz
  1  'x, y, z'
loop_
 _atom_site_type_symbol
 _atom_site_label
 _atom_site_symmetry_multiplicity
 _atom_site_fract_x
 _atom_site_fract_y
 _atom_site_fract_z
 _atom_site_occupancy
  Er  Er0  1  0.232979  0.250355  0.750000  1
  Lu  Lu1  1  0.982046  0.748766  0.750000  1
  Lu  Lu2  1  0.981966  0.233267  0.250000  1
  Lu  Lu3  1  0.769415  0.770074  0.250000  1
  Lu  Lu4  1  0.768775  0.999073  0.750000  1
  Lu  Lu5  1  0.232896  0.982037  0.250000  1
  Lu  Lu6  1  0.329736  0.665088  0.499818  1
  Lu  Lu7  1  0.692538  0.346217  0.000006  1
  Lu  Lu8  1  0.692538  0.346217  0.499994  1
  Lu  Lu9  1  0.329736  0.665088  0.000182  1
  Ga  Ga10  1  0.001882  0.601503  0.250000  1
  Ga  Ga11  1  0.001383  0.400713  0.750000  1
  Ga  Ga12  1  0.596853  0.601556  0.750000  1
  Ga  Ga13  1  0.596428  0.995278  0.250000  1
  Bi  Bi14  1  0.395596  0.005915  0.750000  1
  Bi  Bi15  1  0.395236  0.388853  0.250000  1
