# generated using pymatgen
data_Dy5Er3(TmGa5)4
_symmetry_space_group_name_H-M   'P 1'
_cell_length_a   6.06511916
_cell_length_b   9.58001205
_cell_length_c   11.46056624
_cell_angle_alpha   90.00275022
_cell_angle_beta   90.02346410
_cell_angle_gamma   90.01137941
_symmetry_Int_Tables_number   1
_chemical_formula_structural   Dy5Er3(TmGa5)4
_chemical_formula_sum   'Dy5 Er3 Tm4 Ga20'
_cell_volume   665.90369265
_cell_formula_units_Z   1
loop_
 _symmetry_equiv_pos_site_id
 _symmetry_equiv_pos_as_xyz
  1  'x, y, z'
loop_
 _atom_site_type_symbol
 _atom_site_label
 _atom_site_symmetry_multiplicity
 _atom_site_fract_x
 _atom_site_fract_y
 _atom_site_fract_z
 _atom_site_occupancy
  Dy  Dy0  1  0.390898  0.490253  0.148578  1
  Dy  Dy1  1  0.109113  0.490220  0.648225  1
  Dy  Dy2  1  0.390853  0.009786  0.148202  1
  Dy  Dy3  1  0.890857  0.990192  0.351810  1
  Dy  Dy4  1  0.609233  0.509820  0.851531  1
  Er  Er5  1  0.890917  0.509748  0.351512  1
  Er  Er6  1  0.609081  0.990274  0.851324  1
  Er  Er7  1  0.109035  0.009785  0.648667  1
  Tm  Tm8  1  0.848300  0.750077  0.074139  1
  Tm  Tm9  1  0.651971  0.749951  0.574272  1
  Tm  Tm10  1  0.151904  0.249947  0.925666  1
  Tm  Tm11  1  0.347968  0.249904  0.425887  1
  Ga  Ga12  1  0.875735  0.052764  0.089694  1
  Ga  Ga13  1  0.624262  0.447191  0.589692  1
  Ga  Ga14  1  0.124184  0.552862  0.910190  1
  Ga  Ga15  1  0.375683  0.947209  0.410297  1
  Ga  Ga16  1  0.124543  0.947378  0.909770  1
  Ga  Ga17  1  0.375402  0.552716  0.410094  1
  Ga  Ga18  1  0.875819  0.447274  0.090128  1
  Ga  Ga19  1  0.624588  0.052624  0.590227  1
  Ga  Ga20  1  0.171270  0.749778  0.251629  1
  Ga  Ga21  1  0.328456  0.750531  0.751373  1
  Ga  Ga22  1  0.828439  0.249481  0.748565  1
  Ga  Ga23  1  0.671718  0.250276  0.248699  1
  Ga  Ga24  1  0.373367  0.750153  0.004474  1
  Ga  Ga25  1  0.126571  0.750236  0.504866  1
  Ga  Ga26  1  0.626769  0.249669  0.995137  1
  Ga  Ga27  1  0.873445  0.250215  0.495191  1
  Ga  Ga28  1  0.602670  0.749602  0.299070  1
  Ga  Ga29  1  0.897389  0.750445  0.799020  1
  Ga  Ga30  1  0.397382  0.249561  0.700994  1
  Ga  Ga31  1  0.102178  0.250077  0.201078  1
