# generated using pymatgen
data_K2TaNbCl12
_symmetry_space_group_name_H-M   'P 1'
_cell_length_a   10.16310570
_cell_length_b   7.21613749
_cell_length_c   7.12053500
_cell_angle_alpha   89.73298641
_cell_angle_beta   89.74367325
_cell_angle_gamma   89.96668867
_symmetry_Int_Tables_number   1
_chemical_formula_structural   K2TaNbCl12
_chemical_formula_sum   'K2 Ta1 Nb1 Cl12'
_cell_volume   522.19743859
_cell_formula_units_Z   1
loop_
 _symmetry_equiv_pos_site_id
 _symmetry_equiv_pos_as_xyz
  1  'x, y, z'
loop_
 _atom_site_type_symbol
 _atom_site_label
 _atom_site_symmetry_multiplicity
 _atom_site_fract_x
 _atom_site_fract_y
 _atom_site_fract_z
 _atom_site_occupancy
  K  K0  1  0.736477  0.252731  0.273763  1
  K  K1  1  0.237551  0.747731  0.726719  1
  Ta  Ta2  1  0.992802  0.248982  0.755912  1
  Nb  Nb3  1  0.493003  0.751074  0.243261  1
  Cl  Cl4  1  0.487435  0.982447  0.483171  1
  Cl  Cl5  1  0.759137  0.247609  0.764733  1
  Cl  Cl6  1  0.998116  0.016670  0.990207  1
  Cl  Cl7  1  0.996010  0.481533  0.988472  1
  Cl  Cl8  1  0.498567  0.985819  0.009501  1
  Cl  Cl9  1  0.727103  0.749353  0.254259  1
  Cl  Cl10  1  0.258150  0.752142  0.236285  1
  Cl  Cl11  1  0.487171  0.518233  0.484169  1
  Cl  Cl12  1  0.987756  0.017841  0.518708  1
  Cl  Cl13  1  0.987358  0.481603  0.517866  1
  Cl  Cl14  1  0.225759  0.249810  0.742129  1
  Cl  Cl15  1  0.496513  0.516422  0.010842  1
