# generated using pymatgen
data_Be3Nb6S
_symmetry_space_group_name_H-M   'P 1'
_cell_length_a   6.53372822
_cell_length_b   6.53372822
_cell_length_c   3.38558600
_cell_angle_alpha   90.00000000
_cell_angle_beta   90.00000000
_cell_angle_gamma   89.68162385
_symmetry_Int_Tables_number   1
_chemical_formula_structural   Be3Nb6S
_chemical_formula_sum   'Be3 Nb6 S1'
_cell_volume   144.52709577
_cell_formula_units_Z   1
loop_
 _symmetry_equiv_pos_site_id
 _symmetry_equiv_pos_as_xyz
  1  'x, y, z'
loop_
 _atom_site_type_symbol
 _atom_site_label
 _atom_site_symmetry_multiplicity
 _atom_site_fract_x
 _atom_site_fract_y
 _atom_site_fract_z
 _atom_site_occupancy
  Be  Be0  1  0.385311  0.113814  0.000000  1
  Be  Be1  1  0.613814  0.885311  0.000000  1
  Be  Be2  1  0.121020  0.621020  0.000000  1
  Nb  Nb3  1  0.001568  0.995021  0.000000  1
  Nb  Nb4  1  0.495021  0.501568  0.000000  1
  Nb  Nb5  1  0.675096  0.175096  0.500000  1
  Nb  Nb6  1  0.180546  0.321647  0.500000  1
  Nb  Nb7  1  0.821647  0.680546  0.500000  1
  Nb  Nb8  1  0.321457  0.821457  0.500000  1
  S  S9  1  0.884520  0.384520  0.000000  1
