# generated using pymatgen
data_LuZn4Rh
_symmetry_space_group_name_H-M   'P 1'
_cell_length_a   5.08858600
_cell_length_b   5.08858622
_cell_length_c   8.33577500
_cell_angle_alpha   90.00000000
_cell_angle_beta   90.00000000
_cell_angle_gamma   119.99999857
_symmetry_Int_Tables_number   1
_chemical_formula_structural   LuZn4Rh
_chemical_formula_sum   'Lu2 Zn8 Rh2'
_cell_volume   186.92650152
_cell_formula_units_Z   2
loop_
 _symmetry_equiv_pos_site_id
 _symmetry_equiv_pos_as_xyz
  1  'x, y, z'
loop_
 _atom_site_type_symbol
 _atom_site_label
 _atom_site_symmetry_multiplicity
 _atom_site_fract_x
 _atom_site_fract_y
 _atom_site_fract_z
 _atom_site_occupancy
  Lu  Lu0  1  0.666667  0.333333  0.434817  1
  Lu  Lu1  1  0.333333  0.666667  0.934817  1
  Zn  Zn2  1  0.000000  0.000000  0.001071  1
  Zn  Zn3  1  0.000000  0.000000  0.501071  1
  Zn  Zn4  1  0.170196  0.340392  0.247878  1
  Zn  Zn5  1  0.829804  0.170196  0.747878  1
  Zn  Zn6  1  0.340392  0.170196  0.747878  1
  Zn  Zn7  1  0.659608  0.829804  0.247878  1
  Zn  Zn8  1  0.170196  0.829804  0.247878  1
  Zn  Zn9  1  0.829804  0.659608  0.747878  1
  Rh  Rh10  1  0.333333  0.666667  0.570478  1
  Rh  Rh11  1  0.666667  0.333333  0.070478  1
