# generated using pymatgen
data_Nd6Sm2InPd24
_symmetry_space_group_name_H-M   'P 1'
_cell_length_a   8.52957702
_cell_length_b   8.52957702
_cell_length_c   8.52957702
_cell_angle_alpha   89.99427671
_cell_angle_beta   90.00572329
_cell_angle_gamma   90.00572329
_symmetry_Int_Tables_number   1
_chemical_formula_structural   Nd6Sm2InPd24
_chemical_formula_sum   'Nd6 Sm2 In1 Pd24'
_cell_volume   620.55814335
_cell_formula_units_Z   1
loop_
 _symmetry_equiv_pos_site_id
 _symmetry_equiv_pos_as_xyz
  1  'x, y, z'
loop_
 _atom_site_type_symbol
 _atom_site_label
 _atom_site_symmetry_multiplicity
 _atom_site_fract_x
 _atom_site_fract_y
 _atom_site_fract_z
 _atom_site_occupancy
  Nd  Nd0  1  0.251184  0.251233  0.251233  1
  Nd  Nd1  1  0.748816  0.748767  0.748767  1
  Nd  Nd2  1  0.748767  0.748816  0.251233  1
  Nd  Nd3  1  0.748767  0.251233  0.748816  1
  Nd  Nd4  1  0.251233  0.251184  0.748767  1
  Nd  Nd5  1  0.251233  0.748767  0.251184  1
  Sm  Sm6  1  0.251243  0.748757  0.748757  1
  Sm  Sm7  1  0.748757  0.251243  0.251243  1
  In  In8  1  0.000000  0.000000  0.000000  1
  Pd  Pd9  1  0.266828  0.500670  0.999189  1
  Pd  Pd10  1  0.733172  0.499330  0.000811  1
  Pd  Pd11  1  0.999189  0.266828  0.499330  1
  Pd  Pd12  1  0.500670  0.266828  0.000811  1
  Pd  Pd13  1  0.000811  0.733172  0.500670  1
  Pd  Pd14  1  0.499330  0.733172  0.999189  1
  Pd  Pd15  1  0.500670  0.000811  0.266828  1
  Pd  Pd16  1  0.266828  0.999189  0.500670  1
  Pd  Pd17  1  0.499330  0.999189  0.733172  1
  Pd  Pd18  1  0.733172  0.000811  0.499330  1
  Pd  Pd19  1  0.999189  0.499330  0.266828  1
  Pd  Pd20  1  0.000811  0.500670  0.733172  1
  Pd  Pd21  1  0.255179  0.500841  0.500841  1
  Pd  Pd22  1  0.744821  0.499159  0.499159  1
  Pd  Pd23  1  0.500841  0.255179  0.499159  1
  Pd  Pd24  1  0.499159  0.744821  0.500841  1
  Pd  Pd25  1  0.500841  0.499159  0.255179  1
  Pd  Pd26  1  0.499159  0.500841  0.744821  1
  Pd  Pd27  1  0.314052  0.999299  0.999299  1
  Pd  Pd28  1  0.685948  0.000701  0.000701  1
  Pd  Pd29  1  0.999299  0.314052  0.000701  1
  Pd  Pd30  1  0.000701  0.685948  0.999299  1
  Pd  Pd31  1  0.999299  0.000701  0.314052  1
  Pd  Pd32  1  0.000701  0.999299  0.685948  1
