# generated using pymatgen
data_NdSm(ThSe3)2
_symmetry_space_group_name_H-M   'P 1'
_cell_length_a   4.13166000
_cell_length_b   11.24013326
_cell_length_c   11.38896557
_cell_angle_alpha   90.94700209
_cell_angle_beta   90.00000000
_cell_angle_gamma   90.00000000
_symmetry_Int_Tables_number   1
_chemical_formula_structural   NdSm(ThSe3)2
_chemical_formula_sum   'Nd2 Sm2 Th4 Se12'
_cell_volume   528.83597545
_cell_formula_units_Z   2
loop_
 _symmetry_equiv_pos_site_id
 _symmetry_equiv_pos_as_xyz
  1  'x, y, z'
loop_
 _atom_site_type_symbol
 _atom_site_label
 _atom_site_symmetry_multiplicity
 _atom_site_fract_x
 _atom_site_fract_y
 _atom_site_fract_z
 _atom_site_occupancy
  Nd  Nd0  1  0.250000  0.994903  0.694330  1
  Nd  Nd1  1  0.750000  0.005097  0.305670  1
  Sm  Sm2  1  0.750000  0.814009  0.983776  1
  Sm  Sm3  1  0.250000  0.185991  0.016224  1
  Th  Th4  1  0.750000  0.495239  0.802707  1
  Th  Th5  1  0.250000  0.504761  0.197293  1
  Th  Th6  1  0.250000  0.312211  0.516946  1
  Th  Th7  1  0.750000  0.687789  0.483054  1
  Se  Se8  1  0.750000  0.053065  0.881064  1
  Se  Se9  1  0.250000  0.946935  0.118936  1
  Se  Se10  1  0.250000  0.556710  0.621498  1
  Se  Se11  1  0.750000  0.443290  0.378502  1
  Se  Se12  1  0.250000  0.874120  0.451016  1
  Se  Se13  1  0.750000  0.125880  0.548984  1
  Se  Se14  1  0.750000  0.375453  0.046517  1
  Se  Se15  1  0.250000  0.624547  0.953483  1
  Se  Se16  1  0.250000  0.301241  0.779160  1
  Se  Se17  1  0.750000  0.698759  0.220840  1
  Se  Se18  1  0.750000  0.793627  0.725005  1
  Se  Se19  1  0.250000  0.206373  0.274995  1
