# generated using pymatgen
data_Th2Al20Tc3Ni
_symmetry_space_group_name_H-M   'P 1'
_cell_length_a   6.90652106
_cell_length_b   6.92136168
_cell_length_c   9.19314940
_cell_angle_alpha   90.26044274
_cell_angle_beta   90.57314838
_cell_angle_gamma   97.23113048
_symmetry_Int_Tables_number   1
_chemical_formula_structural   Th2Al20Tc3Ni
_chemical_formula_sum   'Th2 Al20 Tc3 Ni1'
_cell_volume   435.93129545
_cell_formula_units_Z   1
loop_
 _symmetry_equiv_pos_site_id
 _symmetry_equiv_pos_as_xyz
  1  'x, y, z'
loop_
 _atom_site_type_symbol
 _atom_site_label
 _atom_site_symmetry_multiplicity
 _atom_site_fract_x
 _atom_site_fract_y
 _atom_site_fract_z
 _atom_site_occupancy
  Th  Th0  1  0.878016  0.130606  0.750329  1
  Th  Th1  1  0.121984  0.869394  0.249671  1
  Al  Al2  1  0.518657  0.779045  0.748756  1
  Al  Al3  1  0.481343  0.220955  0.251244  1
  Al  Al4  1  0.590755  0.861626  0.247663  1
  Al  Al5  1  0.769899  0.772311  0.999525  1
  Al  Al6  1  0.160915  0.841906  0.601515  1
  Al  Al7  1  0.230101  0.227689  0.000475  1
  Al  Al8  1  0.138072  0.405565  0.250319  1
  Al  Al9  1  0.621520  0.378957  0.950039  1
  Al  Al10  1  0.837476  0.158303  0.102164  1
  Al  Al11  1  0.378183  0.622198  0.452580  1
  Al  Al12  1  0.162524  0.841697  0.897836  1
  Al  Al13  1  0.222710  0.482857  0.752408  1
  Al  Al14  1  0.378480  0.621043  0.049961  1
  Al  Al15  1  0.839085  0.158094  0.398485  1
  Al  Al16  1  0.621817  0.377802  0.547420  1
  Al  Al17  1  0.409245  0.138374  0.752337  1
  Al  Al18  1  0.777290  0.517143  0.247592  1
  Al  Al19  1  0.772908  0.773009  0.497512  1
  Al  Al20  1  0.227092  0.226991  0.502488  1
  Al  Al21  1  0.861928  0.594435  0.749681  1
  Tc  Tc22  1  0.000000  0.500000  0.500000  1
  Tc  Tc23  1  0.000000  0.500000  0.000000  1
  Tc  Tc24  1  0.500000  0.000000  0.500000  1
  Ni  Ni25  1  0.500000  0.000000  0.000000  1
