# generated using pymatgen
data_Ho2(ThIr)3
_symmetry_space_group_name_H-M   'P 1'
_cell_length_a   6.49477800
_cell_length_b   8.38352992
_cell_length_c   8.38349702
_cell_angle_alpha   120.00012805
_cell_angle_beta   90.00000000
_cell_angle_gamma   90.00000000
_symmetry_Int_Tables_number   1
_chemical_formula_structural   Ho2(ThIr)3
_chemical_formula_sum   'Ho4 Th6 Ir6'
_cell_volume   395.31793260
_cell_formula_units_Z   2
loop_
 _symmetry_equiv_pos_site_id
 _symmetry_equiv_pos_as_xyz
  1  'x, y, z'
loop_
 _atom_site_type_symbol
 _atom_site_label
 _atom_site_symmetry_multiplicity
 _atom_site_fract_x
 _atom_site_fract_y
 _atom_site_fract_z
 _atom_site_occupancy
  Ho  Ho0  1  0.499998  0.333340  0.666689  1
  Ho  Ho1  1  0.499998  0.666652  0.333311  1
  Ho  Ho2  1  0.999998  0.666660  0.333311  1
  Ho  Ho3  1  0.999998  0.333348  0.666689  1
  Th  Th4  1  0.750001  0.255779  0.000000  1
  Th  Th5  1  0.749995  0.744207  0.744196  1
  Th  Th6  1  0.749995  0.000012  0.255804  1
  Th  Th7  1  0.250001  0.744221  0.000000  1
  Th  Th8  1  0.249995  0.255793  0.255804  1
  Th  Th9  1  0.249995  0.999988  0.744196  1
  Ir  Ir10  1  0.750000  0.617235  0.000000  1
  Ir  Ir11  1  0.750006  0.382765  0.382766  1
  Ir  Ir12  1  0.750006  0.999999  0.617234  1
  Ir  Ir13  1  0.250000  0.382765  0.000000  1
  Ir  Ir14  1  0.250006  0.617235  0.617234  1
  Ir  Ir15  1  0.250006  0.000001  0.382766  1
