# generated using pymatgen
data_Ba2H12Pt2Pb
_symmetry_space_group_name_H-M   'P 1'
_cell_length_a   5.37965100
_cell_length_b   5.37965261
_cell_length_c   9.50682300
_cell_angle_alpha   90.00000000
_cell_angle_beta   90.00000000
_cell_angle_gamma   119.99999625
_symmetry_Int_Tables_number   1
_chemical_formula_structural   Ba2H12Pt2Pb
_chemical_formula_sum   'Ba2 H12 Pt2 Pb1'
_cell_volume   238.27275731
_cell_formula_units_Z   1
loop_
 _symmetry_equiv_pos_site_id
 _symmetry_equiv_pos_as_xyz
  1  'x, y, z'
loop_
 _atom_site_type_symbol
 _atom_site_label
 _atom_site_symmetry_multiplicity
 _atom_site_fract_x
 _atom_site_fract_y
 _atom_site_fract_z
 _atom_site_occupancy
  Ba  Ba0  1  0.000000  0.000000  0.012482  1
  Ba  Ba1  1  0.333333  0.666667  0.603905  1
  H  H2  1  0.185606  0.814394  0.338910  1
  H  H3  1  0.628788  0.814394  0.338910  1
  H  H4  1  0.185606  0.371212  0.338910  1
  H  H5  1  0.814899  0.185101  0.680664  1
  H  H6  1  0.370203  0.185101  0.680664  1
  H  H7  1  0.814899  0.629797  0.680664  1
  H  H8  1  0.520534  0.041069  0.878695  1
  H  H9  1  0.520534  0.479466  0.878695  1
  H  H10  1  0.958931  0.479466  0.878695  1
  H  H11  1  0.476633  0.953266  0.124815  1
  H  H12  1  0.476633  0.523367  0.124815  1
  H  H13  1  0.046734  0.523367  0.124815  1
  Pt  Pt14  1  0.666667  0.333333  0.779175  1
  Pt  Pt15  1  0.333333  0.666667  0.231258  1
  Pb  Pb16  1  0.666667  0.333333  0.303930  1
