# generated using pymatgen
data_Yb(PaI4)3
_symmetry_space_group_name_H-M   'P 1'
_cell_length_a   7.61592323
_cell_length_b   8.01288089
_cell_length_c   14.16603800
_cell_angle_alpha   90.00000000
_cell_angle_beta   90.00000000
_cell_angle_gamma   89.87138029
_symmetry_Int_Tables_number   1
_chemical_formula_structural   Yb(PaI4)3
_chemical_formula_sum   'Yb1 Pa3 I12'
_cell_volume   864.48717232
_cell_formula_units_Z   1
loop_
 _symmetry_equiv_pos_site_id
 _symmetry_equiv_pos_as_xyz
  1  'x, y, z'
loop_
 _atom_site_type_symbol
 _atom_site_label
 _atom_site_symmetry_multiplicity
 _atom_site_fract_x
 _atom_site_fract_y
 _atom_site_fract_z
 _atom_site_occupancy
  Yb  Yb0  1  0.749986  0.247981  0.000000  1
  Pa  Pa1  1  0.250065  0.752018  0.500000  1
  Pa  Pa2  1  0.750018  0.751933  0.500000  1
  Pa  Pa3  1  0.249960  0.247890  0.000000  1
  I  I4  1  0.000248  0.598850  0.652203  1
  I  I5  1  0.000059  0.061593  0.500000  1
  I  I6  1  0.007050  0.097271  0.850196  1
  I  I7  1  0.007050  0.097271  0.149804  1
  I  I8  1  0.499904  0.905262  0.347840  1
  I  I9  1  0.492690  0.398787  0.149781  1
  I  I10  1  0.499928  0.442282  0.500000  1
  I  I11  1  0.499904  0.905262  0.652160  1
  I  I12  1  0.492690  0.398787  0.850219  1
  I  I13  1  0.493751  0.944354  0.000000  1
  I  I14  1  0.006447  0.551606  0.000000  1
  I  I15  1  0.000248  0.598850  0.347797  1
