# generated using pymatgen
data_YbHo6Er(B6Ru)4
_symmetry_space_group_name_H-M   'P 1'
_cell_length_a   3.64735300
_cell_length_b   9.11404669
_cell_length_c   11.49625900
_cell_angle_alpha   89.91723330
_cell_angle_beta   90.00000000
_cell_angle_gamma   90.00000000
_symmetry_Int_Tables_number   1
_chemical_formula_structural   YbHo6Er(B6Ru)4
_chemical_formula_sum   'Yb1 Ho6 Er1 B24 Ru4'
_cell_volume   382.15991591
_cell_formula_units_Z   1
loop_
 _symmetry_equiv_pos_site_id
 _symmetry_equiv_pos_as_xyz
  1  'x, y, z'
loop_
 _atom_site_type_symbol
 _atom_site_label
 _atom_site_symmetry_multiplicity
 _atom_site_fract_x
 _atom_site_fract_y
 _atom_site_fract_z
 _atom_site_occupancy
  Yb  Yb0  1  0.000000  0.323316  0.413831  1
  Ho  Ho1  1  0.000000  0.676118  0.584981  1
  Ho  Ho2  1  0.000000  0.822153  0.086152  1
  Ho  Ho3  1  0.000000  0.178336  0.914615  1
  Ho  Ho4  1  0.000000  0.943734  0.371021  1
  Ho  Ho5  1  0.000000  0.058258  0.628178  1
  Ho  Ho6  1  0.000000  0.442741  0.129544  1
  Er  Er7  1  0.000000  0.556388  0.872058  1
  B  B8  1  0.500000  0.553904  0.432732  1
  B  B9  1  0.500000  0.446022  0.567389  1
  B  B10  1  0.500000  0.053191  0.066437  1
  B  B11  1  0.500000  0.945946  0.932605  1
  B  B12  1  0.500000  0.748197  0.419255  1
  B  B13  1  0.500000  0.252470  0.581058  1
  B  B14  1  0.500000  0.247479  0.080447  1
  B  B15  1  0.500000  0.751649  0.919596  1
  B  B16  1  0.500000  0.791017  0.265780  1
  B  B17  1  0.500000  0.210088  0.734516  1
  B  B18  1  0.500000  0.289512  0.233782  1
  B  B19  1  0.500000  0.709358  0.766070  1
  B  B20  1  0.500000  0.631589  0.185719  1
  B  B21  1  0.500000  0.369073  0.815405  1
  B  B22  1  0.500000  0.130798  0.313996  1
  B  B23  1  0.500000  0.868871  0.685064  1
  B  B24  1  0.500000  0.982810  0.211612  1
  B  B25  1  0.500000  0.017027  0.787444  1
  B  B26  1  0.500000  0.483504  0.287915  1
  B  B27  1  0.500000  0.517029  0.712749  1
  B  B28  1  0.500000  0.607260  0.029677  1
  B  B29  1  0.500000  0.393097  0.970625  1
  B  B30  1  0.500000  0.103881  0.471139  1
  B  B31  1  0.500000  0.894914  0.529038  1
  Ru  Ru32  1  0.000000  0.639125  0.320608  1
  Ru  Ru33  1  0.000000  0.362507  0.680396  1
  Ru  Ru34  1  0.000000  0.136405  0.177568  1
  Ru  Ru35  1  0.000000  0.862231  0.821000  1
