# generated using pymatgen
data_Tb4Al4Pd3Ru
_symmetry_space_group_name_H-M   'P 1'
_cell_length_a   4.37869800
_cell_length_b   6.92464756
_cell_length_c   7.88124337
_cell_angle_alpha   89.81188173
_cell_angle_beta   90.00000000
_cell_angle_gamma   90.00000000
_symmetry_Int_Tables_number   1
_chemical_formula_structural   Tb4Al4Pd3Ru
_chemical_formula_sum   'Tb4 Al4 Pd3 Ru1'
_cell_volume   238.96542241
_cell_formula_units_Z   1
loop_
 _symmetry_equiv_pos_site_id
 _symmetry_equiv_pos_as_xyz
  1  'x, y, z'
loop_
 _atom_site_type_symbol
 _atom_site_label
 _atom_site_symmetry_multiplicity
 _atom_site_fract_x
 _atom_site_fract_y
 _atom_site_fract_z
 _atom_site_occupancy
  Tb  Tb0  1  0.250000  0.535506  0.814381  1
  Tb  Tb1  1  0.750000  0.467972  0.181242  1
  Tb  Tb2  1  0.250000  0.022125  0.679878  1
  Tb  Tb3  1  0.750000  0.964007  0.322289  1
  Al  Al4  1  0.250000  0.645469  0.440215  1
  Al  Al5  1  0.750000  0.362568  0.563551  1
  Al  Al6  1  0.250000  0.143236  0.062373  1
  Al  Al7  1  0.750000  0.854233  0.935077  1
  Pd  Pd8  1  0.250000  0.272782  0.381262  1
  Pd  Pd9  1  0.750000  0.225381  0.883518  1
  Pd  Pd10  1  0.250000  0.772570  0.118752  1
  Ru  Ru11  1  0.750000  0.734151  0.617462  1
