# generated using pymatgen
data_PrFe7CoP5
_symmetry_space_group_name_H-M   'P 1'
_cell_length_a   3.59860000
_cell_length_b   9.16453300
_cell_length_c   10.52471000
_cell_angle_alpha   90.00000000
_cell_angle_beta   90.00000000
_cell_angle_gamma   90.00000000
_symmetry_Int_Tables_number   1
_chemical_formula_structural   PrFe7CoP5
_chemical_formula_sum   'Pr2 Fe14 Co2 P10'
_cell_volume   347.09955192
_cell_formula_units_Z   2
loop_
 _symmetry_equiv_pos_site_id
 _symmetry_equiv_pos_as_xyz
  1  'x, y, z'
loop_
 _atom_site_type_symbol
 _atom_site_label
 _atom_site_symmetry_multiplicity
 _atom_site_fract_x
 _atom_site_fract_y
 _atom_site_fract_z
 _atom_site_occupancy
  Pr  Pr0  1  0.750000  0.820398  0.750000  1
  Pr  Pr1  1  0.250000  0.179602  0.250000  1
  Fe  Fe2  1  0.750000  0.518733  0.918981  1
  Fe  Fe3  1  0.750000  0.518733  0.581019  1
  Fe  Fe4  1  0.250000  0.481267  0.081019  1
  Fe  Fe5  1  0.250000  0.481267  0.418981  1
  Fe  Fe6  1  0.750000  0.109781  0.991792  1
  Fe  Fe7  1  0.750000  0.109781  0.508208  1
  Fe  Fe8  1  0.250000  0.890219  0.008208  1
  Fe  Fe9  1  0.250000  0.890219  0.491792  1
  Fe  Fe10  1  0.750000  0.694150  0.106115  1
  Fe  Fe11  1  0.750000  0.694150  0.393885  1
  Fe  Fe12  1  0.250000  0.305850  0.893885  1
  Fe  Fe13  1  0.250000  0.305850  0.606115  1
  Fe  Fe14  1  0.750000  0.152940  0.750000  1
  Fe  Fe15  1  0.250000  0.847060  0.250000  1
  Co  Co16  1  0.250000  0.545994  0.750000  1
  Co  Co17  1  0.750000  0.454006  0.250000  1
  P  P18  1  0.750000  0.933770  0.130834  1
  P  P19  1  0.750000  0.933770  0.369166  1
  P  P20  1  0.250000  0.066230  0.869166  1
  P  P21  1  0.250000  0.066230  0.630834  1
  P  P22  1  0.750000  0.339038  0.059554  1
  P  P23  1  0.750000  0.339038  0.440446  1
  P  P24  1  0.250000  0.660962  0.940446  1
  P  P25  1  0.250000  0.660962  0.559554  1
  P  P26  1  0.750000  0.388248  0.750000  1
  P  P27  1  0.250000  0.611752  0.250000  1
