# generated using pymatgen
data_Er2Ga8SiRh3
_symmetry_space_group_name_H-M   'P 1'
_cell_length_a   7.55407956
_cell_length_b   7.50489598
_cell_length_c   9.47613762
_cell_angle_alpha   89.99723823
_cell_angle_beta   89.78422373
_cell_angle_gamma   119.84767554
_symmetry_Int_Tables_number   1
_chemical_formula_structural   Er2Ga8SiRh3
_chemical_formula_sum   'Er4 Ga16 Si2 Rh6'
_cell_volume   465.96000345
_cell_formula_units_Z   2
loop_
 _symmetry_equiv_pos_site_id
 _symmetry_equiv_pos_as_xyz
  1  'x, y, z'
loop_
 _atom_site_type_symbol
 _atom_site_label
 _atom_site_symmetry_multiplicity
 _atom_site_fract_x
 _atom_site_fract_y
 _atom_site_fract_z
 _atom_site_occupancy
  Er  Er0  1  0.995835  0.665192  0.245531  1
  Er  Er1  1  0.004165  0.334808  0.754469  1
  Er  Er2  1  0.675398  0.004194  0.247559  1
  Er  Er3  1  0.324602  0.995806  0.752441  1
  Ga  Ga4  1  0.128883  0.128522  0.250015  1
  Ga  Ga5  1  0.871117  0.871478  0.749985  1
  Ga  Ga6  1  0.999623  0.664560  0.576411  1
  Ga  Ga7  1  0.334358  0.998439  0.419991  1
  Ga  Ga8  1  0.000377  0.335440  0.423589  1
  Ga  Ga9  1  0.665642  0.001561  0.580009  1
  Ga  Ga10  1  0.661073  0.997661  0.917855  1
  Ga  Ga11  1  0.338927  0.002339  0.082145  1
  Ga  Ga12  1  0.332150  0.330287  0.567798  1
  Ga  Ga13  1  0.667850  0.669713  0.432202  1
  Ga  Ga14  1  0.662056  0.668116  0.069637  1
  Ga  Ga15  1  0.337944  0.331884  0.930363  1
  Ga  Ga16  1  0.336910  0.548875  0.250245  1
  Ga  Ga17  1  0.663090  0.451125  0.749755  1
  Ga  Ga18  1  0.548238  0.340277  0.249787  1
  Ga  Ga19  1  0.451762  0.659723  0.750213  1
  Si  Si20  1  0.001482  0.329761  0.074473  1
  Si  Si21  1  0.998518  0.670239  0.925527  1
  Rh  Rh22  1  0.696098  0.342507  0.001646  1
  Rh  Rh23  1  0.303902  0.657493  0.998354  1
  Rh  Rh24  1  0.328691  0.671449  0.500864  1
  Rh  Rh25  1  0.671309  0.328551  0.499136  1
  Rh  Rh26  1  0.000000  0.000000  0.000000  1
  Rh  Rh27  1  0.000000  0.000000  0.500000  1
