# generated using pymatgen
data_Y16In6PtRh
_symmetry_space_group_name_H-M   'P 1'
_cell_length_a   10.51634100
_cell_length_b   10.51634955
_cell_length_c   7.05530500
_cell_angle_alpha   90.00006082
_cell_angle_beta   89.99999455
_cell_angle_gamma   120.00006388
_symmetry_Int_Tables_number   1
_chemical_formula_structural   Y16In6PtRh
_chemical_formula_sum   'Y16 In6 Pt1 Rh1'
_cell_volume   675.73407274
_cell_formula_units_Z   1
loop_
 _symmetry_equiv_pos_site_id
 _symmetry_equiv_pos_as_xyz
  1  'x, y, z'
loop_
 _atom_site_type_symbol
 _atom_site_label
 _atom_site_symmetry_multiplicity
 _atom_site_fract_x
 _atom_site_fract_y
 _atom_site_fract_z
 _atom_site_occupancy
  Y  Y0  1  0.467095  0.532905  0.479619  1
  Y  Y1  1  0.065811  0.532906  0.479620  1
  Y  Y2  1  0.467094  0.934188  0.479620  1
  Y  Y3  1  0.531778  0.468222  0.978166  1
  Y  Y4  1  0.936443  0.468222  0.978166  1
  Y  Y5  1  0.531778  0.063556  0.978166  1
  Y  Y6  1  0.825316  0.174683  0.273084  1
  Y  Y7  1  0.349366  0.174683  0.273085  1
  Y  Y8  1  0.825317  0.650635  0.273084  1
  Y  Y9  1  0.175513  0.824488  0.772989  1
  Y  Y10  1  0.648975  0.824487  0.772988  1
  Y  Y11  1  0.175512  0.351025  0.772988  1
  Y  Y12  1  0.333333  0.666667  0.101355  1
  Y  Y13  1  0.666667  0.333333  0.603785  1
  Y  Y14  1  0.000000  0.000000  0.498973  1
  Y  Y15  1  0.000001  0.000001  0.999803  1
  In  In16  1  0.162946  0.837053  0.235855  1
  In  In17  1  0.674106  0.837053  0.235855  1
  In  In18  1  0.162947  0.325893  0.235856  1
  In  In19  1  0.836891  0.163108  0.735593  1
  In  In20  1  0.326218  0.163108  0.735593  1
  In  In21  1  0.836892  0.673783  0.735593  1
  Pt  Pt22  1  0.666667  0.333333  0.207592  1
  Rh  Rh23  1  0.333333  0.666666  0.707126  1
