# generated using pymatgen
data_Lu2(SeO3)3
_symmetry_space_group_name_H-M   'P 1'
_cell_length_a   6.96875233
_cell_length_b   7.98905997
_cell_length_c   8.95413100
_cell_angle_alpha   71.86069902
_cell_angle_beta   70.21223234
_cell_angle_gamma   66.01772509
_symmetry_Int_Tables_number   1
_chemical_formula_structural   Lu2(SeO3)3
_chemical_formula_sum   'Lu4 Se6 O18'
_cell_volume   419.73854760
_cell_formula_units_Z   2
loop_
 _symmetry_equiv_pos_site_id
 _symmetry_equiv_pos_as_xyz
  1  'x, y, z'
loop_
 _atom_site_type_symbol
 _atom_site_label
 _atom_site_symmetry_multiplicity
 _atom_site_fract_x
 _atom_site_fract_y
 _atom_site_fract_z
 _atom_site_occupancy
  Lu  Lu0  1  0.256908  0.264863  0.203864  1
  Lu  Lu1  1  0.333539  0.726895  0.591620  1
  Lu  Lu2  1  0.666461  0.273105  0.408380  1
  Lu  Lu3  1  0.743092  0.735137  0.796136  1
  Se  Se4  1  0.113921  0.242257  0.586582  1
  Se  Se5  1  0.427880  0.775765  0.196614  1
  Se  Se6  1  0.145833  0.751569  0.966317  1
  Se  Se7  1  0.854167  0.248431  0.033683  1
  Se  Se8  1  0.572120  0.224235  0.803386  1
  Se  Se9  1  0.886079  0.757743  0.413418  1
  O  O10  1  0.158632  0.010378  0.656014  1
  O  O11  1  0.166597  0.564235  0.123149  1
  O  O12  1  0.035668  0.703390  0.555780  1
  O  O13  1  0.346933  0.254230  0.433868  1
  O  O14  1  0.066501  0.694508  0.829266  1
  O  O15  1  0.589747  0.287407  0.151180  1
  O  O16  1  0.345571  0.208130  0.952178  1
  O  O17  1  0.357701  0.946768  0.306852  1
  O  O18  1  0.517545  0.591898  0.353071  1
  O  O19  1  0.482455  0.408102  0.646929  1
  O  O20  1  0.642299  0.053232  0.693148  1
  O  O21  1  0.654429  0.791870  0.047822  1
  O  O22  1  0.410253  0.712593  0.848820  1
  O  O23  1  0.933499  0.305492  0.170734  1
  O  O24  1  0.653067  0.745770  0.566132  1
  O  O25  1  0.964332  0.296610  0.444220  1
  O  O26  1  0.833403  0.435765  0.876851  1
  O  O27  1  0.841368  0.989622  0.343986  1
