# generated using pymatgen
data_Dy3(YC2)5
_symmetry_space_group_name_H-M   'P 1'
_cell_length_a   3.68304300
_cell_length_b   6.59659847
_cell_length_c   11.98408799
_cell_angle_alpha   90.81036055
_cell_angle_beta   90.00000000
_cell_angle_gamma   90.00000000
_symmetry_Int_Tables_number   1
_chemical_formula_structural   Dy3(YC2)5
_chemical_formula_sum   'Dy3 Y5 C10'
_cell_volume   291.13095747
_cell_formula_units_Z   1
loop_
 _symmetry_equiv_pos_site_id
 _symmetry_equiv_pos_as_xyz
  1  'x, y, z'
loop_
 _atom_site_type_symbol
 _atom_site_label
 _atom_site_symmetry_multiplicity
 _atom_site_fract_x
 _atom_site_fract_y
 _atom_site_fract_z
 _atom_site_occupancy
  Dy  Dy0  1  0.500000  0.892208  0.195828  1
  Dy  Dy1  1  0.500000  0.603556  0.696612  1
  Dy  Dy2  1  0.500000  0.395998  0.303431  1
  Y  Y3  1  0.000000  0.256570  0.542179  1
  Y  Y4  1  0.000000  0.745355  0.457651  1
  Y  Y5  1  0.000000  0.754515  0.956811  1
  Y  Y6  1  0.000000  0.242880  0.042768  1
  Y  Y7  1  0.500000  0.108531  0.804146  1
  C  C8  1  0.500000  0.501776  0.500248  1
  C  C9  1  0.500000  0.997410  0.000492  1
  C  C10  1  0.000000  0.363378  0.735301  1
  C  C11  1  0.000000  0.638280  0.265016  1
  C  C12  1  0.000000  0.855867  0.761905  1
  C  C13  1  0.000000  0.141855  0.236552  1
  C  C14  1  0.000000  0.391094  0.845920  1
  C  C15  1  0.000000  0.603481  0.155033  1
  C  C16  1  0.000000  0.089198  0.343217  1
  C  C17  1  0.000000  0.918053  0.656888  1
