# generated using pymatgen
data_Ti5GaSb2
_symmetry_space_group_name_H-M   'P 1'
_cell_length_a   7.84136959
_cell_length_b   7.84134758
_cell_length_c   7.84136995
_cell_angle_alpha   96.36441343
_cell_angle_beta   96.36721775
_cell_angle_gamma   141.10066561
_symmetry_Int_Tables_number   1
_chemical_formula_structural   Ti5GaSb2
_chemical_formula_sum   'Ti10 Ga2 Sb4'
_cell_volume   285.48499344
_cell_formula_units_Z   2
loop_
 _symmetry_equiv_pos_site_id
 _symmetry_equiv_pos_as_xyz
  1  'x, y, z'
loop_
 _atom_site_type_symbol
 _atom_site_label
 _atom_site_symmetry_multiplicity
 _atom_site_fract_x
 _atom_site_fract_y
 _atom_site_fract_z
 _atom_site_occupancy
  Ti  Ti0  1  0.573834  0.716487  0.290320  1
  Ti  Ti1  1  0.426166  0.283513  0.709680  1
  Ti  Ti2  1  0.749999  0.250000  0.499999  1
  Ti  Ti3  1  0.250001  0.750000  0.500001  1
  Ti  Ti4  1  0.716488  0.426150  0.142640  1
  Ti  Ti5  1  0.283512  0.573850  0.857360  1
  Ti  Ti6  1  0.926167  0.216487  0.142653  1
  Ti  Ti7  1  0.216491  0.073850  0.290338  1
  Ti  Ti8  1  0.073833  0.783513  0.857347  1
  Ti  Ti9  1  0.783509  0.926150  0.709662  1
  Ga  Ga10  1  0.750000  0.750000  0.000000  1
  Ga  Ga11  1  0.250000  0.250000  0.000000  1
  Sb  Sb12  1  0.335819  0.835815  0.171635  1
  Sb  Sb13  1  0.164180  0.335815  0.499996  1
  Sb  Sb14  1  0.664181  0.164185  0.828365  1
  Sb  Sb15  1  0.835820  0.664185  0.500004  1
