# generated using pymatgen
data_Cs4Ir2O9
_symmetry_space_group_name_H-M   'P 1'
_cell_length_a   6.60853800
_cell_length_b   6.60853768
_cell_length_c   17.34615000
_cell_angle_alpha   90.00000000
_cell_angle_beta   90.00000000
_cell_angle_gamma   119.99999158
_symmetry_Int_Tables_number   1
_chemical_formula_structural   Cs4Ir2O9
_chemical_formula_sum   'Cs8 Ir4 O18'
_cell_volume   656.06146354
_cell_formula_units_Z   2
loop_
 _symmetry_equiv_pos_site_id
 _symmetry_equiv_pos_as_xyz
  1  'x, y, z'
loop_
 _atom_site_type_symbol
 _atom_site_label
 _atom_site_symmetry_multiplicity
 _atom_site_fract_x
 _atom_site_fract_y
 _atom_site_fract_z
 _atom_site_occupancy
  Cs  Cs0  1  0.000000  0.000000  0.750000  1
  Cs  Cs1  1  0.000000  0.000000  0.250000  1
  Cs  Cs2  1  0.666667  0.333333  0.622549  1
  Cs  Cs3  1  0.333333  0.666667  0.122549  1
  Cs  Cs4  1  0.333333  0.666667  0.377451  1
  Cs  Cs5  1  0.666667  0.333333  0.877451  1
  Cs  Cs6  1  0.000000  0.000000  0.500000  1
  Cs  Cs7  1  0.000000  0.000000  0.000000  1
  Ir  Ir8  1  0.666667  0.333333  0.332928  1
  Ir  Ir9  1  0.333333  0.666667  0.832928  1
  Ir  Ir10  1  0.333333  0.666667  0.667072  1
  Ir  Ir11  1  0.666667  0.333333  0.167072  1
  O  O12  1  0.473404  0.918588  0.750000  1
  O  O13  1  0.081412  0.554816  0.750000  1
  O  O14  1  0.445184  0.526596  0.750000  1
  O  O15  1  0.526596  0.081412  0.250000  1
  O  O16  1  0.918588  0.445184  0.250000  1
  O  O17  1  0.554816  0.473404  0.250000  1
  O  O18  1  0.177755  0.386483  0.615010  1
  O  O19  1  0.613517  0.791271  0.615010  1
  O  O20  1  0.208729  0.822245  0.615010  1
  O  O21  1  0.822245  0.613517  0.115010  1
  O  O22  1  0.386483  0.208729  0.115010  1
  O  O23  1  0.791271  0.177755  0.115010  1
  O  O24  1  0.822245  0.613517  0.384990  1
  O  O25  1  0.386483  0.208729  0.384990  1
  O  O26  1  0.791271  0.177755  0.384990  1
  O  O27  1  0.177755  0.386483  0.884990  1
  O  O28  1  0.613517  0.791271  0.884990  1
  O  O29  1  0.208729  0.822245  0.884990  1
