# generated using pymatgen
data_Yb4Er2Al17Si7Os8
_symmetry_space_group_name_H-M   'P 1'
_cell_length_a   8.68281801
_cell_length_b   8.66704750
_cell_length_c   9.57364200
_cell_angle_alpha   90.00000000
_cell_angle_beta   90.00000000
_cell_angle_gamma   120.14268027
_symmetry_Int_Tables_number   1
_chemical_formula_structural   Yb4Er2Al17Si7Os8
_chemical_formula_sum   'Yb4 Er2 Al17 Si7 Os8'
_cell_volume   623.03649961
_cell_formula_units_Z   1
loop_
 _symmetry_equiv_pos_site_id
 _symmetry_equiv_pos_as_xyz
  1  'x, y, z'
loop_
 _atom_site_type_symbol
 _atom_site_label
 _atom_site_symmetry_multiplicity
 _atom_site_fract_x
 _atom_site_fract_y
 _atom_site_fract_z
 _atom_site_occupancy
  Yb  Yb0  1  0.192355  0.387716  0.250000  1
  Yb  Yb1  1  0.805982  0.611903  0.750000  1
  Yb  Yb2  1  0.390568  0.191797  0.750000  1
  Yb  Yb3  1  0.800407  0.192439  0.750000  1
  Er  Er4  1  0.610046  0.807258  0.250000  1
  Er  Er5  1  0.195877  0.803682  0.250000  1
  Al  Al6  1  0.166054  0.332894  0.576999  1
  Al  Al7  1  0.833291  0.669457  0.420263  1
  Al  Al8  1  0.668552  0.834231  0.576998  1
  Al  Al9  1  0.833291  0.669457  0.079737  1
  Al  Al10  1  0.331979  0.166915  0.422837  1
  Al  Al11  1  0.166054  0.332894  0.923001  1
  Al  Al12  1  0.165639  0.833373  0.575987  1
  Al  Al13  1  0.331979  0.166915  0.077163  1
  Al  Al14  1  0.834487  0.165333  0.422433  1
  Al  Al15  1  0.668552  0.834231  0.923002  1
  Al  Al16  1  0.834487  0.165333  0.077567  1
  Al  Al17  1  0.165639  0.833373  0.924013  1
  Al  Al18  1  0.125800  0.565611  0.750000  1
  Al  Al19  1  0.563241  0.433949  0.250000  1
  Al  Al20  1  0.438322  0.566138  0.750000  1
  Al  Al21  1  0.999682  0.998626  0.250000  1
  Al  Al22  1  0.000489  0.002095  0.750000  1
  Si  Si23  1  0.333449  0.664258  0.040634  1
  Si  Si24  1  0.666326  0.335588  0.963164  1
  Si  Si25  1  0.666326  0.335588  0.536836  1
  Si  Si26  1  0.333449  0.664258  0.459366  1
  Si  Si27  1  0.564923  0.125521  0.250000  1
  Si  Si28  1  0.435072  0.871863  0.750000  1
  Si  Si29  1  0.874195  0.432770  0.250000  1
  Os  Os30  1  0.500335  0.999635  0.003853  1
  Os  Os31  1  0.999317  0.500860  0.009161  1
  Os  Os32  1  0.500335  0.999635  0.496147  1
  Os  Os33  1  0.501507  0.501671  0.002346  1
  Os  Os34  1  0.999317  0.500860  0.490839  1
  Os  Os35  1  0.501507  0.501671  0.497654  1
  Os  Os36  1  0.000583  0.000104  0.998796  1
  Os  Os37  1  0.000583  0.000104  0.501204  1
