# generated using pymatgen
data_Na6Si2S7
_symmetry_space_group_name_H-M   'P 1'
_cell_length_a   6.88661629
_cell_length_b   6.88661717
_cell_length_c   15.18640809
_cell_angle_alpha   80.19998582
_cell_angle_beta   80.19998638
_cell_angle_gamma   97.86941659
_symmetry_Int_Tables_number   1
_chemical_formula_structural   Na6Si2S7
_chemical_formula_sum   'Na12 Si4 S14'
_cell_volume   689.07603511
_cell_formula_units_Z   2
loop_
 _symmetry_equiv_pos_site_id
 _symmetry_equiv_pos_as_xyz
  1  'x, y, z'
loop_
 _atom_site_type_symbol
 _atom_site_label
 _atom_site_symmetry_multiplicity
 _atom_site_fract_x
 _atom_site_fract_y
 _atom_site_fract_z
 _atom_site_occupancy
  Na  Na0  1  0.580867  0.419133  0.750000  1
  Na  Na1  1  0.419133  0.580867  0.250000  1
  Na  Na2  1  0.500000  0.500000  0.000000  1
  Na  Na3  1  0.500000  0.500000  0.500000  1
  Na  Na4  1  0.266162  0.971811  0.927786  1
  Na  Na5  1  0.028189  0.733838  0.572214  1
  Na  Na6  1  0.733838  0.028189  0.072214  1
  Na  Na7  1  0.971811  0.266162  0.427786  1
  Na  Na8  1  0.510725  0.953396  0.641558  1
  Na  Na9  1  0.046604  0.489275  0.858442  1
  Na  Na10  1  0.489275  0.046604  0.358442  1
  Na  Na11  1  0.953396  0.510725  0.141558  1
  Si  Si12  1  0.764762  0.923549  0.859139  1
  Si  Si13  1  0.076451  0.235238  0.640861  1
  Si  Si14  1  0.923549  0.764762  0.359139  1
  Si  Si15  1  0.235238  0.076451  0.140861  1
  S  S16  1  0.032096  0.967904  0.750000  1
  S  S17  1  0.967904  0.032096  0.250000  1
  S  S18  1  0.692793  0.194916  0.892760  1
  S  S19  1  0.805084  0.307207  0.607240  1
  S  S20  1  0.307207  0.805084  0.107240  1
  S  S21  1  0.194916  0.692793  0.392760  1
  S  S22  1  0.867777  0.744524  0.965626  1
  S  S23  1  0.255476  0.132223  0.534374  1
  S  S24  1  0.132223  0.255476  0.034374  1
  S  S25  1  0.744524  0.867777  0.465626  1
  S  S26  1  0.515964  0.759420  0.821818  1
  S  S27  1  0.240580  0.484036  0.678182  1
  S  S28  1  0.484036  0.240580  0.178182  1
  S  S29  1  0.759420  0.515964  0.321818  1
