# generated using pymatgen
data_Cs2PrNd5(CBr6)2
_symmetry_space_group_name_H-M   'P 1'
_cell_length_a   9.09818058
_cell_length_b   9.12739841
_cell_length_c   9.80638066
_cell_angle_alpha   69.73849701
_cell_angle_beta   85.99129163
_cell_angle_gamma   89.36090825
_symmetry_Int_Tables_number   1
_chemical_formula_structural   Cs2PrNd5(CBr6)2
_chemical_formula_sum   'Cs2 Pr1 Nd5 C2 Br12'
_cell_volume   762.01488019
_cell_formula_units_Z   1
loop_
 _symmetry_equiv_pos_site_id
 _symmetry_equiv_pos_as_xyz
  1  'x, y, z'
loop_
 _atom_site_type_symbol
 _atom_site_label
 _atom_site_symmetry_multiplicity
 _atom_site_fract_x
 _atom_site_fract_y
 _atom_site_fract_z
 _atom_site_occupancy
  Cs  Cs0  1  0.475691  0.349384  0.334317  1
  Cs  Cs1  1  0.524076  0.650602  0.665546  1
  Pr  Pr2  1  0.914247  0.736584  0.003868  1
  Nd  Nd3  1  0.085930  0.261715  0.996318  1
  Nd  Nd4  1  0.737792  0.086758  0.000736  1
  Nd  Nd5  1  0.262151  0.912995  0.999184  1
  Nd  Nd6  1  0.979179  0.877393  0.326804  1
  Nd  Nd7  1  0.020811  0.123476  0.673067  1
  C  C8  1  0.005016  0.029013  0.923172  1
  C  C9  1  0.995444  0.972480  0.076648  1
  Br  Br10  1  0.086124  0.189939  0.326162  1
  Br  Br11  1  0.913829  0.811399  0.672045  1
  Br  Br12  1  0.209977  0.590947  0.000459  1
  Br  Br13  1  0.792749  0.407232  0.999625  1
  Br  Br14  1  0.405457  0.201843  0.005139  1
  Br  Br15  1  0.593062  0.798480  0.994486  1
  Br  Br16  1  0.671933  0.995190  0.325290  1
  Br  Br17  1  0.327640  0.004978  0.674342  1
  Br  Br18  1  0.286065  0.762890  0.322703  1
  Br  Br19  1  0.713555  0.236775  0.677475  1
  Br  Br20  1  0.850166  0.582335  0.327395  1
  Br  Br21  1  0.149105  0.417592  0.675218  1
