# generated using pymatgen
data_K3SrUS5
_symmetry_space_group_name_H-M   'P 1'
_cell_length_a   7.36765538
_cell_length_b   11.13915834
_cell_length_c   7.40074200
_cell_angle_alpha   101.48357638
_cell_angle_beta   101.72831423
_cell_angle_gamma   109.50361733
_symmetry_Int_Tables_number   1
_chemical_formula_structural   K3SrUS5
_chemical_formula_sum   'K6 Sr2 U2 S10'
_cell_volume   536.61033002
_cell_formula_units_Z   2
loop_
 _symmetry_equiv_pos_site_id
 _symmetry_equiv_pos_as_xyz
  1  'x, y, z'
loop_
 _atom_site_type_symbol
 _atom_site_label
 _atom_site_symmetry_multiplicity
 _atom_site_fract_x
 _atom_site_fract_y
 _atom_site_fract_z
 _atom_site_occupancy
  K  K0  1  0.984669  0.492162  0.990542  1
  K  K1  1  0.819111  0.305589  0.426521  1
  K  K2  1  0.008893  0.001737  0.504212  1
  K  K3  1  0.192665  0.692526  0.581299  1
  K  K4  1  0.399492  0.398815  0.703788  1
  K  K5  1  0.576154  0.100054  0.787544  1
  Sr  Sr6  1  0.412188  0.903277  0.208546  1
  Sr  Sr7  1  0.602450  0.598635  0.296366  1
  U  U8  1  0.200467  0.202106  0.103789  1
  U  U9  1  0.798805  0.803039  0.895281  1
  S  S10  1  0.549815  0.333413  0.072569  1
  S  S11  1  0.823594  0.034083  0.115293  1
  S  S12  1  0.983769  0.755897  0.201768  1
  S  S13  1  0.206762  0.420027  0.314515  1
  S  S14  1  0.383579  0.148649  0.399422  1
  S  S15  1  0.613889  0.840032  0.572248  1
  S  S16  1  0.801405  0.592552  0.676419  1
  S  S17  1  0.019873  0.238267  0.800803  1
  S  S18  1  0.165909  0.957092  0.890445  1
  S  S19  1  0.456515  0.682050  0.958629  1
