# generated using pymatgen
data_Tc2Sb7Mo
_symmetry_space_group_name_H-M   'P 1'
_cell_length_a   8.27290745
_cell_length_b   8.27026947
_cell_length_c   8.27026999
_cell_angle_alpha   109.25307300
_cell_angle_beta   109.57391069
_cell_angle_gamma   109.57390573
_symmetry_Int_Tables_number   1
_chemical_formula_structural   Tc2Sb7Mo
_chemical_formula_sum   'Tc4 Sb14 Mo2'
_cell_volume   435.65295078
_cell_formula_units_Z   2
loop_
 _symmetry_equiv_pos_site_id
 _symmetry_equiv_pos_as_xyz
  1  'x, y, z'
loop_
 _atom_site_type_symbol
 _atom_site_label
 _atom_site_symmetry_multiplicity
 _atom_site_fract_x
 _atom_site_fract_y
 _atom_site_fract_z
 _atom_site_occupancy
  Tc  Tc0  1  0.339882  0.339789  0.000092  1
  Tc  Tc1  1  0.000000  0.342338  0.342643  1
  Tc  Tc2  1  0.000000  0.657357  0.657662  1
  Tc  Tc3  1  0.660118  0.999908  0.660211  1
  Sb  Sb4  1  0.749833  0.250248  0.499586  1
  Sb  Sb5  1  0.500000  0.250397  0.749603  1
  Sb  Sb6  1  0.500000  0.750397  0.249603  1
  Sb  Sb7  1  0.250167  0.500414  0.749752  1
  Sb  Sb8  1  0.751389  0.500319  0.251070  1
  Sb  Sb9  1  0.248611  0.748930  0.499681  1
  Sb  Sb10  1  0.326141  0.326850  0.325922  1
  Sb  Sb11  1  0.000000  0.000689  0.326164  1
  Sb  Sb12  1  0.326141  0.000219  0.999291  1
  Sb  Sb13  1  0.000000  0.326342  0.999691  1
  Sb  Sb14  1  0.673859  0.000709  0.999781  1
  Sb  Sb15  1  0.000000  0.673836  0.999311  1
  Sb  Sb16  1  0.000000  0.000309  0.673658  1
  Sb  Sb17  1  0.673859  0.674078  0.673150  1
  Mo  Mo18  1  0.342819  0.999846  0.342974  1
  Mo  Mo19  1  0.657181  0.657026  0.000154  1
