# generated using pymatgen
data_LaTb2PuO7
_symmetry_space_group_name_H-M   'P 1'
_cell_length_a   6.67026600
_cell_length_b   6.67026699
_cell_length_c   7.81927800
_cell_angle_alpha   90.00000000
_cell_angle_beta   90.00000000
_cell_angle_gamma   109.05125897
_symmetry_Int_Tables_number   1
_chemical_formula_structural   LaTb2PuO7
_chemical_formula_sum   'La2 Tb4 Pu2 O14'
_cell_volume   328.84338655
_cell_formula_units_Z   2
loop_
 _symmetry_equiv_pos_site_id
 _symmetry_equiv_pos_as_xyz
  1  'x, y, z'
loop_
 _atom_site_type_symbol
 _atom_site_label
 _atom_site_symmetry_multiplicity
 _atom_site_fract_x
 _atom_site_fract_y
 _atom_site_fract_z
 _atom_site_occupancy
  La  La0  1  0.500000  0.500000  0.500000  1
  La  La1  1  0.500000  0.500000  0.000000  1
  Tb  Tb2  1  0.534825  0.003852  0.750000  1
  Tb  Tb3  1  0.003852  0.534825  0.250000  1
  Tb  Tb4  1  0.465175  0.996148  0.250000  1
  Tb  Tb5  1  0.996148  0.465175  0.750000  1
  Pu  Pu6  1  0.000000  0.000000  0.500000  1
  Pu  Pu7  1  0.000000  0.000000  0.000000  1
  O  O8  1  0.669979  0.923985  0.468698  1
  O  O9  1  0.923985  0.669979  0.531302  1
  O  O10  1  0.669979  0.923985  0.031302  1
  O  O11  1  0.923985  0.669979  0.968698  1
  O  O12  1  0.330021  0.076015  0.531302  1
  O  O13  1  0.076015  0.330021  0.468698  1
  O  O14  1  0.330021  0.076015  0.968698  1
  O  O15  1  0.076015  0.330021  0.031302  1
  O  O16  1  0.909699  0.090301  0.750000  1
  O  O17  1  0.090301  0.909699  0.250000  1
  O  O18  1  0.361593  0.638407  0.750000  1
  O  O19  1  0.638407  0.361593  0.250000  1
  O  O20  1  0.640683  0.359317  0.750000  1
  O  O21  1  0.359317  0.640683  0.250000  1
