# generated using pymatgen
data_Pr3ErZr4F28
_symmetry_space_group_name_H-M   'P 1'
_cell_length_a   5.86776538
_cell_length_b   9.32503448
_cell_length_c   12.52336337
_cell_angle_alpha   62.14980824
_cell_angle_beta   90.05918726
_cell_angle_gamma   89.96099173
_symmetry_Int_Tables_number   1
_chemical_formula_structural   Pr3ErZr4F28
_chemical_formula_sum   'Pr3 Er1 Zr4 F28'
_cell_volume   605.87126637
_cell_formula_units_Z   1
loop_
 _symmetry_equiv_pos_site_id
 _symmetry_equiv_pos_as_xyz
  1  'x, y, z'
loop_
 _atom_site_type_symbol
 _atom_site_label
 _atom_site_symmetry_multiplicity
 _atom_site_fract_x
 _atom_site_fract_y
 _atom_site_fract_z
 _atom_site_occupancy
  Pr  Pr0  1  0.743345  0.810070  0.266597  1
  Pr  Pr1  1  0.243021  0.186293  0.233337  1
  Pr  Pr2  1  0.256626  0.181914  0.733801  1
  Er  Er3  1  0.757888  0.811837  0.766192  1
  Zr  Zr4  1  0.746289  0.268406  0.458285  1
  Zr  Zr5  1  0.244893  0.725968  0.038536  1
  Zr  Zr6  1  0.256513  0.726374  0.551035  1
  Zr  Zr7  1  0.755367  0.280601  0.952265  1
  F  F8  1  0.469376  0.714337  0.918256  1
  F  F9  1  0.962100  0.287974  0.578231  1
  F  F10  1  0.539820  0.291910  0.075365  1
  F  F11  1  0.040087  0.713053  0.428412  1
  F  F12  1  0.460085  0.281688  0.547159  1
  F  F13  1  0.958706  0.720650  0.944084  1
  F  F14  1  0.536690  0.717040  0.456582  1
  F  F15  1  0.041090  0.287453  0.043708  1
  F  F16  1  0.763531  0.529148  0.856895  1
  F  F17  1  0.265698  0.479974  0.643728  1
  F  F18  1  0.231039  0.480702  0.137139  1
  F  F19  1  0.733905  0.515757  0.362488  1
  F  F20  1  0.761055  0.034780  0.054308  1
  F  F21  1  0.261314  0.971479  0.446918  1
  F  F22  1  0.239795  0.972487  0.942998  1
  F  F23  1  0.740678  0.022891  0.561835  1
  F  F24  1  0.988843  0.736433  0.653189  1
  F  F25  1  0.488286  0.268041  0.852644  1
  F  F26  1  0.015813  0.266590  0.356777  1
  F  F27  1  0.511108  0.732024  0.141455  1
  F  F28  1  0.038779  0.744324  0.164560  1
  F  F29  1  0.542449  0.253188  0.331180  1
  F  F30  1  0.960245  0.258592  0.828138  1
  F  F31  1  0.472884  0.749419  0.672929  1
  F  F32  1  0.418222  0.966733  0.232831  1
  F  F33  1  0.916705  0.030918  0.267247  1
  F  F34  1  0.578995  0.015695  0.765103  1
  F  F35  1  0.058758  0.965256  0.735790  1
