# generated using pymatgen
data_TaBi6SbO14
_symmetry_space_group_name_H-M   'P 1'
_cell_length_a   6.70337601
_cell_length_b   7.02981496
_cell_length_c   7.69967152
_cell_angle_alpha   106.61224341
_cell_angle_beta   89.07441651
_cell_angle_gamma   103.31833142
_symmetry_Int_Tables_number   1
_chemical_formula_structural   TaBi6SbO14
_chemical_formula_sum   'Ta1 Bi6 Sb1 O14'
_cell_volume   337.85913662
_cell_formula_units_Z   1
loop_
 _symmetry_equiv_pos_site_id
 _symmetry_equiv_pos_as_xyz
  1  'x, y, z'
loop_
 _atom_site_type_symbol
 _atom_site_label
 _atom_site_symmetry_multiplicity
 _atom_site_fract_x
 _atom_site_fract_y
 _atom_site_fract_z
 _atom_site_occupancy
  Ta  Ta0  1  0.000000  0.000000  0.500000  1
  Bi  Bi1  1  0.516984  0.009360  0.742075  1
  Bi  Bi2  1  0.483016  0.990640  0.257925  1
  Bi  Bi3  1  0.264089  0.509975  0.875129  1
  Bi  Bi4  1  0.735911  0.490025  0.124871  1
  Bi  Bi5  1  0.739219  0.539721  0.634472  1
  Bi  Bi6  1  0.260781  0.460279  0.365528  1
  Sb  Sb7  1  0.000000  0.000000  0.000000  1
  O  O8  1  0.466393  0.626495  0.184863  1
  O  O9  1  0.533607  0.373505  0.815137  1
  O  O10  1  0.276963  0.948182  0.943278  1
  O  O11  1  0.723037  0.051818  0.056722  1
  O  O12  1  0.276154  0.947471  0.525256  1
  O  O13  1  0.723846  0.052529  0.474744  1
  O  O14  1  0.532896  0.340870  0.360164  1
  O  O15  1  0.467104  0.659130  0.639836  1
  O  O16  1  0.893194  0.695686  0.960118  1
  O  O17  1  0.106806  0.304314  0.039882  1
  O  O18  1  0.103349  0.300797  0.619506  1
  O  O19  1  0.896651  0.699203  0.380494  1
  O  O20  1  0.909559  0.931888  0.731949  1
  O  O21  1  0.090441  0.068112  0.268051  1
