# generated using pymatgen
data_Er6Tm4(SnSb)3
_symmetry_space_group_name_H-M   'P 1'
_cell_length_a   8.87603600
_cell_length_b   8.86564032
_cell_length_c   6.35916300
_cell_angle_alpha   90.00000000
_cell_angle_beta   90.00000000
_cell_angle_gamma   120.03878877
_symmetry_Int_Tables_number   1
_chemical_formula_structural   Er6Tm4(SnSb)3
_chemical_formula_sum   'Er6 Tm4 Sn3 Sb3'
_cell_volume   433.20141876
_cell_formula_units_Z   1
loop_
 _symmetry_equiv_pos_site_id
 _symmetry_equiv_pos_as_xyz
  1  'x, y, z'
loop_
 _atom_site_type_symbol
 _atom_site_label
 _atom_site_symmetry_multiplicity
 _atom_site_fract_x
 _atom_site_fract_y
 _atom_site_fract_z
 _atom_site_occupancy
  Er  Er0  1  0.001149  0.760925  0.750000  1
  Er  Er1  1  0.001206  0.241852  0.250000  1
  Er  Er2  1  0.759354  0.758148  0.250000  1
  Er  Er3  1  0.757912  0.000000  0.750000  1
  Er  Er4  1  0.240226  0.239075  0.750000  1
  Er  Er5  1  0.239242  0.000000  0.250000  1
  Tm  Tm6  1  0.333072  0.666326  0.499875  1
  Tm  Tm7  1  0.666747  0.333674  0.000125  1
  Tm  Tm8  1  0.666747  0.333674  0.499875  1
  Tm  Tm9  1  0.333072  0.666326  0.000125  1
  Sn  Sn10  1  0.393853  0.000000  0.750000  1
  Sn  Sn11  1  0.393004  0.393044  0.250000  1
  Sn  Sn12  1  0.999960  0.606956  0.250000  1
  Sb  Sb13  1  0.999510  0.392223  0.750000  1
  Sb  Sb14  1  0.607287  0.607777  0.750000  1
  Sb  Sb15  1  0.607659  0.000000  0.250000  1
