# generated using pymatgen
data_Cs5Y2InBr12
_symmetry_space_group_name_H-M   'P 1'
_cell_length_a   8.77283540
_cell_length_b   8.23943568
_cell_length_c   14.37043500
_cell_angle_alpha   55.58624722
_cell_angle_beta   89.92559832
_cell_angle_gamma   90.17710138
_symmetry_Int_Tables_number   1
_chemical_formula_structural   Cs5Y2InBr12
_chemical_formula_sum   'Cs5 Y2 In1 Br12'
_cell_volume   856.92857616
_cell_formula_units_Z   1
loop_
 _symmetry_equiv_pos_site_id
 _symmetry_equiv_pos_as_xyz
  1  'x, y, z'
loop_
 _atom_site_type_symbol
 _atom_site_label
 _atom_site_symmetry_multiplicity
 _atom_site_fract_x
 _atom_site_fract_y
 _atom_site_fract_z
 _atom_site_occupancy
  Cs  Cs0  1  0.500000  0.500000  0.000000  1
  Cs  Cs1  1  0.069402  0.725214  0.747871  1
  Cs  Cs2  1  0.930598  0.274786  0.252129  1
  Cs  Cs3  1  0.573114  0.283239  0.743706  1
  Cs  Cs4  1  0.426886  0.716761  0.256294  1
  Y  Y5  1  0.500000  0.000000  0.500000  1
  Y  Y6  1  0.000000  0.000000  0.000000  1
  In  In7  1  0.000000  0.500000  0.500000  1
  Br  Br8  1  0.767783  0.768133  0.560158  1
  Br  Br9  1  0.232217  0.231867  0.439842  1
  Br  Br10  1  0.269219  0.223559  0.935433  1
  Br  Br11  1  0.730781  0.776441  0.064567  1
  Br  Br12  1  0.457325  0.889933  0.720224  1
  Br  Br13  1  0.542675  0.110067  0.279776  1
  Br  Br14  1  0.962387  0.126286  0.771751  1
  Br  Br15  1  0.037613  0.873714  0.228249  1
  Br  Br16  1  0.316385  0.679690  0.542827  1
  Br  Br17  1  0.683615  0.320310  0.457173  1
  Br  Br18  1  0.830901  0.323442  0.954704  1
  Br  Br19  1  0.169099  0.676558  0.045296  1
