# generated using pymatgen
data_Er5Tm2Co6Sn23
_symmetry_space_group_name_H-M   'P 1'
_cell_length_a   9.68376002
_cell_length_b   9.68376091
_cell_length_c   9.95519601
_cell_angle_alpha   89.99521912
_cell_angle_beta   90.00477889
_cell_angle_gamma   120.00603428
_symmetry_Int_Tables_number   1
_chemical_formula_structural   Er5Tm2Co6Sn23
_chemical_formula_sum   'Er5 Tm2 Co6 Sn23'
_cell_volume   808.42942247
_cell_formula_units_Z   1
loop_
 _symmetry_equiv_pos_site_id
 _symmetry_equiv_pos_as_xyz
  1  'x, y, z'
loop_
 _atom_site_type_symbol
 _atom_site_label
 _atom_site_symmetry_multiplicity
 _atom_site_fract_x
 _atom_site_fract_y
 _atom_site_fract_z
 _atom_site_occupancy
  Er  Er0  1  0.479122  0.958251  0.305864  1
  Er  Er1  1  0.520878  0.041749  0.694136  1
  Er  Er2  1  0.041749  0.520878  0.305864  1
  Er  Er3  1  0.958251  0.479122  0.694136  1
  Er  Er4  1  0.000000  0.000000  0.000000  1
  Tm  Tm5  1  0.479146  0.520854  0.305886  1
  Tm  Tm6  1  0.520854  0.479146  0.694114  1
  Co  Co7  1  0.832335  0.167665  0.197528  1
  Co  Co8  1  0.167665  0.832335  0.802472  1
  Co  Co9  1  0.832260  0.664639  0.197562  1
  Co  Co10  1  0.167740  0.335361  0.802438  1
  Co  Co11  1  0.335361  0.167740  0.197562  1
  Co  Co12  1  0.664639  0.832260  0.802438  1
  Sn  Sn13  1  0.118336  0.881664  0.274847  1
  Sn  Sn14  1  0.881664  0.118336  0.725153  1
  Sn  Sn15  1  0.118435  0.236752  0.274854  1
  Sn  Sn16  1  0.881565  0.763248  0.725146  1
  Sn  Sn17  1  0.763248  0.881565  0.274854  1
  Sn  Sn18  1  0.236752  0.118435  0.725146  1
  Sn  Sn19  1  0.780820  0.219180  0.452437  1
  Sn  Sn20  1  0.219180  0.780820  0.547563  1
  Sn  Sn21  1  0.780688  0.561637  0.452432  1
  Sn  Sn22  1  0.219312  0.438363  0.547568  1
  Sn  Sn23  1  0.438363  0.219312  0.452432  1
  Sn  Sn24  1  0.561637  0.780688  0.547568  1
  Sn  Sn25  1  0.345892  0.000014  0.999997  1
  Sn  Sn26  1  0.654108  0.999986  0.000003  1
  Sn  Sn27  1  0.000014  0.345892  0.000003  1
  Sn  Sn28  1  0.999986  0.654108  0.999997  1
  Sn  Sn29  1  0.654091  0.654091  0.000000  1
  Sn  Sn30  1  0.345909  0.345909  0.000000  1
  Sn  Sn31  1  0.333398  0.666602  0.118757  1
  Sn  Sn32  1  0.666602  0.333398  0.881243  1
  Sn  Sn33  1  0.333353  0.666647  0.817686  1
  Sn  Sn34  1  0.666647  0.333353  0.182314  1
  Sn  Sn35  1  0.000000  0.000000  0.500000  1
