# generated using pymatgen
data_Ho2Sc18GaBi11
_symmetry_space_group_name_H-M   'P 1'
_cell_length_a   7.78463103
_cell_length_b   9.00504300
_cell_length_c   11.42503563
_cell_angle_alpha   90.00000000
_cell_angle_beta   90.24555707
_cell_angle_gamma   90.00000000
_symmetry_Int_Tables_number   1
_chemical_formula_structural   Ho2Sc18GaBi11
_chemical_formula_sum   'Ho2 Sc18 Ga1 Bi11'
_cell_volume   800.89834991
_cell_formula_units_Z   1
loop_
 _symmetry_equiv_pos_site_id
 _symmetry_equiv_pos_as_xyz
  1  'x, y, z'
loop_
 _atom_site_type_symbol
 _atom_site_label
 _atom_site_symmetry_multiplicity
 _atom_site_fract_x
 _atom_site_fract_y
 _atom_site_fract_z
 _atom_site_occupancy
  Ho  Ho0  1  0.674367  0.750000  0.788079  1
  Ho  Ho1  1  0.191001  0.750000  0.724687  1
  Sc  Sc2  1  0.353672  0.750000  0.208177  1
  Sc  Sc3  1  0.850082  0.750000  0.280816  1
  Sc  Sc4  1  0.653438  0.250000  0.782816  1
  Sc  Sc5  1  0.150784  0.250000  0.718160  1
  Sc  Sc6  1  0.685332  0.573747  0.057172  1
  Sc  Sc7  1  0.195476  0.933341  0.437274  1
  Sc  Sc8  1  0.308655  0.051599  0.941689  1
  Sc  Sc9  1  0.805596  0.432766  0.559514  1
  Sc  Sc10  1  0.308655  0.448401  0.941689  1
  Sc  Sc11  1  0.805596  0.067234  0.559514  1
  Sc  Sc12  1  0.685332  0.926253  0.057172  1
  Sc  Sc13  1  0.195476  0.566659  0.437274  1
  Sc  Sc14  1  0.479000  0.250000  0.487162  1
  Sc  Sc15  1  0.982542  0.250000  0.011692  1
  Sc  Sc16  1  0.520659  0.750000  0.509444  1
  Sc  Sc17  1  0.032348  0.750000  0.991413  1
  Sc  Sc18  1  0.313028  0.250000  0.220289  1
  Sc  Sc19  1  0.810754  0.250000  0.280951  1
  Ga  Ga20  1  0.403465  0.750000  0.966557  1
  Bi  Bi21  1  0.905022  0.750000  0.537442  1
  Bi  Bi22  1  0.591774  0.250000  0.040429  1
  Bi  Bi23  1  0.092950  0.250000  0.459404  1
  Bi  Bi24  1  0.564861  0.995170  0.325191  1
  Bi  Bi25  1  0.063926  0.503632  0.174836  1
  Bi  Bi26  1  0.436897  0.489315  0.672557  1
  Bi  Bi27  1  0.936813  0.008808  0.828009  1
  Bi  Bi28  1  0.436897  0.010685  0.672557  1
  Bi  Bi29  1  0.936813  0.491192  0.828009  1
  Bi  Bi30  1  0.564861  0.504830  0.325191  1
  Bi  Bi31  1  0.063926  0.996368  0.174836  1
