# generated using pymatgen
data_Hf4Co5NiP6
_symmetry_space_group_name_H-M   'P 1'
_cell_length_a   3.61793200
_cell_length_b   9.96449500
_cell_length_c   12.10456000
_cell_angle_alpha   90.00000000
_cell_angle_beta   90.00000000
_cell_angle_gamma   90.00000000
_symmetry_Int_Tables_number   1
_chemical_formula_structural   Hf4Co5NiP6
_chemical_formula_sum   'Hf8 Co10 Ni2 P12'
_cell_volume   436.37986237
_cell_formula_units_Z   2
loop_
 _symmetry_equiv_pos_site_id
 _symmetry_equiv_pos_as_xyz
  1  'x, y, z'
loop_
 _atom_site_type_symbol
 _atom_site_label
 _atom_site_symmetry_multiplicity
 _atom_site_fract_x
 _atom_site_fract_y
 _atom_site_fract_z
 _atom_site_occupancy
  Hf  Hf0  1  0.250000  0.335644  0.995484  1
  Hf  Hf1  1  0.250000  0.164356  0.495484  1
  Hf  Hf2  1  0.750000  0.661808  0.004840  1
  Hf  Hf3  1  0.750000  0.838192  0.504840  1
  Hf  Hf4  1  0.250000  0.428973  0.708488  1
  Hf  Hf5  1  0.250000  0.071027  0.208488  1
  Hf  Hf6  1  0.750000  0.572669  0.290250  1
  Hf  Hf7  1  0.750000  0.927331  0.790250  1
  Co  Co8  1  0.250000  0.900135  0.981223  1
  Co  Co9  1  0.250000  0.599865  0.481223  1
  Co  Co10  1  0.750000  0.091952  0.017730  1
  Co  Co11  1  0.750000  0.408048  0.517730  1
  Co  Co12  1  0.250000  0.135886  0.718003  1
  Co  Co13  1  0.250000  0.364114  0.218003  1
  Co  Co14  1  0.750000  0.865287  0.283997  1
  Co  Co15  1  0.750000  0.634713  0.783997  1
  Co  Co16  1  0.250000  0.769065  0.166259  1
  Co  Co17  1  0.250000  0.730935  0.666259  1
  Ni  Ni18  1  0.750000  0.229867  0.835103  1
  Ni  Ni19  1  0.750000  0.270133  0.335103  1
  P  P20  1  0.250000  0.098030  0.899222  1
  P  P21  1  0.250000  0.401970  0.399222  1
  P  P22  1  0.750000  0.895199  0.102511  1
  P  P23  1  0.750000  0.604801  0.602511  1
  P  P24  1  0.250000  0.736643  0.850924  1
  P  P25  1  0.250000  0.763357  0.350924  1
  P  P26  1  0.750000  0.262346  0.145769  1
  P  P27  1  0.750000  0.237654  0.645769  1
  P  P28  1  0.250000  0.550918  0.125940  1
  P  P29  1  0.250000  0.949082  0.625940  1
  P  P30  1  0.750000  0.448390  0.874258  1
  P  P31  1  0.750000  0.051610  0.374258  1
