# generated using pymatgen
data_Pr3YB4I5
_symmetry_space_group_name_H-M   'P 1'
_cell_length_a   9.87148392
_cell_length_b   9.87148313
_cell_length_c   10.03956246
_cell_angle_alpha   74.34802903
_cell_angle_beta   74.34803000
_cell_angle_gamma   25.37510333
_symmetry_Int_Tables_number   1
_chemical_formula_structural   Pr3YB4I5
_chemical_formula_sum   'Pr3 Y1 B4 I5'
_cell_volume   402.90003283
_cell_formula_units_Z   1
loop_
 _symmetry_equiv_pos_site_id
 _symmetry_equiv_pos_as_xyz
  1  'x, y, z'
loop_
 _atom_site_type_symbol
 _atom_site_label
 _atom_site_symmetry_multiplicity
 _atom_site_fract_x
 _atom_site_fract_y
 _atom_site_fract_z
 _atom_site_occupancy
  Pr  Pr0  1  0.495407  0.495407  0.253114  1
  Pr  Pr1  1  0.134194  0.134194  0.929989  1
  Pr  Pr2  1  0.866691  0.866691  0.063878  1
  Y  Y3  1  0.505360  0.505360  0.758432  1
  B  B4  1  0.315482  0.685444  0.999349  1
  B  B5  1  0.685444  0.315482  0.999349  1
  B  B6  1  0.999340  0.999340  0.093810  1
  B  B7  1  0.001586  0.001586  0.903677  1
  I  I8  1  0.673705  0.673705  0.674671  1
  I  I9  1  0.322121  0.322121  0.320071  1
  I  I10  1  0.333319  0.333319  0.838468  1
  I  I11  1  0.673759  0.673759  0.146655  1
  I  I12  1  0.007894  0.007894  0.508735  1
