# generated using pymatgen
data_Ce8Y2TcIr5
_symmetry_space_group_name_H-M   'P 1'
_cell_length_a   11.07294000
_cell_length_b   11.06398700
_cell_length_c   6.26726000
_cell_angle_alpha   90.00000000
_cell_angle_beta   90.00000000
_cell_angle_gamma   90.00000000
_symmetry_Int_Tables_number   1
_chemical_formula_structural   Ce8Y2TcIr5
_chemical_formula_sum   'Ce16 Y4 Tc2 Ir10'
_cell_volume   767.80743884
_cell_formula_units_Z   2
loop_
 _symmetry_equiv_pos_site_id
 _symmetry_equiv_pos_as_xyz
  1  'x, y, z'
loop_
 _atom_site_type_symbol
 _atom_site_label
 _atom_site_symmetry_multiplicity
 _atom_site_fract_x
 _atom_site_fract_y
 _atom_site_fract_z
 _atom_site_occupancy
  Ce  Ce0  1  0.295973  0.088440  0.370602  1
  Ce  Ce1  1  0.295973  0.911560  0.870602  1
  Ce  Ce2  1  0.704027  0.088440  0.870602  1
  Ce  Ce3  1  0.704027  0.911560  0.370602  1
  Ce  Ce4  1  0.590838  0.790116  0.873803  1
  Ce  Ce5  1  0.590838  0.209884  0.373803  1
  Ce  Ce6  1  0.409162  0.790116  0.373803  1
  Ce  Ce7  1  0.409162  0.209884  0.873803  1
  Ce  Ce8  1  0.205797  0.408576  0.629197  1
  Ce  Ce9  1  0.205797  0.591424  0.129197  1
  Ce  Ce10  1  0.794203  0.408576  0.129197  1
  Ce  Ce11  1  0.794203  0.591424  0.629197  1
  Ce  Ce12  1  0.000000  0.000000  0.482614  1
  Ce  Ce13  1  0.000000  0.000000  0.982614  1
  Ce  Ce14  1  0.500000  0.500000  0.009874  1
  Ce  Ce15  1  0.500000  0.500000  0.509874  1
  Y  Y16  1  0.912070  0.712986  0.128556  1
  Y  Y17  1  0.912070  0.287014  0.628556  1
  Y  Y18  1  0.087930  0.712986  0.628556  1
  Y  Y19  1  0.087930  0.287014  0.128556  1
  Tc  Tc20  1  0.500000  0.000000  0.129800  1
  Tc  Tc21  1  0.500000  0.000000  0.629800  1
  Ir  Ir22  1  0.844137  0.153262  0.235844  1
  Ir  Ir23  1  0.844137  0.846738  0.735844  1
  Ir  Ir24  1  0.155863  0.153262  0.735844  1
  Ir  Ir25  1  0.155863  0.846738  0.235844  1
  Ir  Ir26  1  0.654192  0.342412  0.755975  1
  Ir  Ir27  1  0.654192  0.657588  0.255975  1
  Ir  Ir28  1  0.345808  0.342412  0.255975  1
  Ir  Ir29  1  0.345808  0.657588  0.755975  1
  Ir  Ir30  1  0.000000  0.500000  0.889758  1
  Ir  Ir31  1  0.000000  0.500000  0.389758  1
