# generated using pymatgen
data_Tb5Y2Co6Sn23
_symmetry_space_group_name_H-M   'P 1'
_cell_length_a   9.71798630
_cell_length_b   9.71798531
_cell_length_c   9.97689532
_cell_angle_alpha   89.97492865
_cell_angle_beta   90.02507235
_cell_angle_gamma   120.01322471
_symmetry_Int_Tables_number   1
_chemical_formula_structural   Tb5Y2Co6Sn23
_chemical_formula_sum   'Tb5 Y2 Co6 Sn23'
_cell_volume   815.86935775
_cell_formula_units_Z   1
loop_
 _symmetry_equiv_pos_site_id
 _symmetry_equiv_pos_as_xyz
  1  'x, y, z'
loop_
 _atom_site_type_symbol
 _atom_site_label
 _atom_site_symmetry_multiplicity
 _atom_site_fract_x
 _atom_site_fract_y
 _atom_site_fract_z
 _atom_site_occupancy
  Tb  Tb0  1  0.000000  0.000000  0.000000  1
  Tb  Tb1  1  0.478286  0.956579  0.305670  1
  Tb  Tb2  1  0.521714  0.043421  0.694330  1
  Tb  Tb3  1  0.043421  0.521714  0.305670  1
  Tb  Tb4  1  0.956579  0.478286  0.694330  1
  Y  Y5  1  0.478265  0.521735  0.305881  1
  Y  Y6  1  0.521735  0.478265  0.694119  1
  Co  Co7  1  0.832742  0.167258  0.196810  1
  Co  Co8  1  0.167258  0.832742  0.803190  1
  Co  Co9  1  0.832779  0.665353  0.196747  1
  Co  Co10  1  0.167221  0.334647  0.803253  1
  Co  Co11  1  0.334647  0.167221  0.196747  1
  Co  Co12  1  0.665353  0.832779  0.803253  1
  Sn  Sn13  1  0.345884  0.000074  0.999935  1
  Sn  Sn14  1  0.654116  0.999926  0.000065  1
  Sn  Sn15  1  0.000074  0.345884  0.000065  1
  Sn  Sn16  1  0.999926  0.654116  0.999935  1
  Sn  Sn17  1  0.654189  0.654189  0.000000  1
  Sn  Sn18  1  0.345811  0.345811  0.000000  1
  Sn  Sn19  1  0.333314  0.666686  0.818275  1
  Sn  Sn20  1  0.666686  0.333314  0.181725  1
  Sn  Sn21  1  0.000000  0.000000  0.500000  1
  Sn  Sn22  1  0.781077  0.218923  0.451565  1
  Sn  Sn23  1  0.218923  0.781077  0.548435  1
  Sn  Sn24  1  0.781090  0.562267  0.451360  1
  Sn  Sn25  1  0.218910  0.437733  0.548640  1
  Sn  Sn26  1  0.437733  0.218910  0.451360  1
  Sn  Sn27  1  0.562267  0.781090  0.548640  1
  Sn  Sn28  1  0.333534  0.666466  0.115730  1
  Sn  Sn29  1  0.666466  0.333534  0.884270  1
  Sn  Sn30  1  0.117600  0.882400  0.274905  1
  Sn  Sn31  1  0.882400  0.117600  0.725095  1
  Sn  Sn32  1  0.117972  0.235636  0.274875  1
  Sn  Sn33  1  0.882028  0.764364  0.725125  1
  Sn  Sn34  1  0.764364  0.882028  0.274875  1
  Sn  Sn35  1  0.235636  0.117972  0.725125  1
