# generated using pymatgen
data_Pr8Tm12Si15Pt
_symmetry_space_group_name_H-M   'P 1'
_cell_length_a   7.43939304
_cell_length_b   7.75844766
_cell_length_c   14.78785200
_cell_angle_alpha   90.00000000
_cell_angle_beta   90.00000000
_cell_angle_gamma   90.62689099
_symmetry_Int_Tables_number   1
_chemical_formula_structural   Pr8Tm12Si15Pt
_chemical_formula_sum   'Pr8 Tm12 Si15 Pt1'
_cell_volume   853.47624658
_cell_formula_units_Z   1
loop_
 _symmetry_equiv_pos_site_id
 _symmetry_equiv_pos_as_xyz
  1  'x, y, z'
loop_
 _atom_site_type_symbol
 _atom_site_label
 _atom_site_symmetry_multiplicity
 _atom_site_fract_x
 _atom_site_fract_y
 _atom_site_fract_z
 _atom_site_occupancy
  Pr  Pr0  1  0.016285  0.178949  0.400951  1
  Pr  Pr1  1  0.515912  0.324459  0.401263  1
  Pr  Pr2  1  0.484925  0.671998  0.905349  1
  Pr  Pr3  1  0.484925  0.671998  0.594651  1
  Pr  Pr4  1  0.984423  0.824561  0.595787  1
  Pr  Pr5  1  0.984423  0.824561  0.904213  1
  Pr  Pr6  1  0.515912  0.324459  0.098737  1
  Pr  Pr7  1  0.016285  0.178949  0.099049  1
  Tm  Tm8  1  0.323479  0.178396  0.623526  1
  Tm  Tm9  1  0.676114  0.824237  0.375334  1
  Tm  Tm10  1  0.645321  0.980996  0.750000  1
  Tm  Tm11  1  0.175044  0.676291  0.376384  1
  Tm  Tm12  1  0.827766  0.320408  0.877675  1
  Tm  Tm13  1  0.827766  0.320408  0.622325  1
  Tm  Tm14  1  0.839783  0.493707  0.250000  1
  Tm  Tm15  1  0.340118  0.008514  0.250000  1
  Tm  Tm16  1  0.323479  0.178396  0.876474  1
  Tm  Tm17  1  0.175044  0.676291  0.123616  1
  Tm  Tm18  1  0.676114  0.824237  0.124666  1
  Tm  Tm19  1  0.167293  0.516145  0.750000  1
  Si  Si20  1  0.467598  0.618004  0.250000  1
  Si  Si21  1  0.027766  0.115388  0.750000  1
  Si  Si22  1  0.538533  0.383254  0.750000  1
  Si  Si23  1  0.151413  0.467307  0.538670  1
  Si  Si24  1  0.971251  0.881872  0.250000  1
  Si  Si25  1  0.718165  0.123930  0.250000  1
  Si  Si26  1  0.847574  0.533350  0.039974  1
  Si  Si27  1  0.351546  0.966536  0.038876  1
  Si  Si28  1  0.151413  0.467307  0.961330  1
  Si  Si29  1  0.649123  0.034217  0.537540  1
  Si  Si30  1  0.351546  0.966536  0.461124  1
  Si  Si31  1  0.847574  0.533350  0.460026  1
  Si  Si32  1  0.779009  0.614337  0.750000  1
  Si  Si33  1  0.221176  0.379265  0.250000  1
  Si  Si34  1  0.649123  0.034217  0.962460  1
  Pt  Pt35  1  0.276775  0.883169  0.750000  1
