# generated using pymatgen
data_Tm20Ga3Bi8Rh
_symmetry_space_group_name_H-M   'P 1'
_cell_length_a   7.95805810
_cell_length_b   9.19537800
_cell_length_c   11.94092220
_cell_angle_alpha   90.00000000
_cell_angle_beta   90.21248298
_cell_angle_gamma   90.00000000
_symmetry_Int_Tables_number   1
_chemical_formula_structural   Tm20Ga3Bi8Rh
_chemical_formula_sum   'Tm20 Ga3 Bi8 Rh1'
_cell_volume   873.79906225
_cell_formula_units_Z   1
loop_
 _symmetry_equiv_pos_site_id
 _symmetry_equiv_pos_as_xyz
  1  'x, y, z'
loop_
 _atom_site_type_symbol
 _atom_site_label
 _atom_site_symmetry_multiplicity
 _atom_site_fract_x
 _atom_site_fract_y
 _atom_site_fract_z
 _atom_site_occupancy
  Tm  Tm0  1  0.679058  0.960081  0.438198  1
  Tm  Tm1  1  0.819149  0.555133  0.936513  1
  Tm  Tm2  1  0.325813  0.440396  0.561806  1
  Tm  Tm3  1  0.181798  0.056063  0.061791  1
  Tm  Tm4  1  0.325813  0.059604  0.561806  1
  Tm  Tm5  1  0.181798  0.443937  0.061791  1
  Tm  Tm6  1  0.679058  0.539919  0.438198  1
  Tm  Tm7  1  0.819149  0.944867  0.936513  1
  Tm  Tm8  1  0.326152  0.750000  0.282996  1
  Tm  Tm9  1  0.169560  0.750000  0.784715  1
  Tm  Tm10  1  0.664581  0.250000  0.708962  1
  Tm  Tm11  1  0.826896  0.250000  0.214813  1
  Tm  Tm12  1  0.037359  0.750000  0.496562  1
  Tm  Tm13  1  0.460338  0.750000  0.997331  1
  Tm  Tm14  1  0.950087  0.250000  0.500210  1
  Tm  Tm15  1  0.537565  0.250000  0.001259  1
  Tm  Tm16  1  0.857235  0.750000  0.206577  1
  Tm  Tm17  1  0.642000  0.750000  0.708087  1
  Tm  Tm18  1  0.142610  0.250000  0.795588  1
  Tm  Tm19  1  0.372660  0.250000  0.300360  1
  Ga  Ga20  1  0.093949  0.750000  0.026349  1
  Ga  Ga21  1  0.407885  0.750000  0.523760  1
  Ga  Ga22  1  0.905615  0.250000  0.974546  1
  Bi  Bi23  1  0.565463  0.988506  0.172614  1
  Bi  Bi24  1  0.938205  0.509753  0.675275  1
  Bi  Bi25  1  0.435005  0.491516  0.825908  1
  Bi  Bi26  1  0.066515  0.010355  0.324172  1
  Bi  Bi27  1  0.435005  0.008484  0.825908  1
  Bi  Bi28  1  0.066515  0.489645  0.324172  1
  Bi  Bi29  1  0.565463  0.511494  0.172614  1
  Bi  Bi30  1  0.938205  0.990247  0.675275  1
  Rh  Rh31  1  0.583494  0.250000  0.485334  1
