# generated using pymatgen
data_Dy4YTi2Co16TcP12
_symmetry_space_group_name_H-M   'P 1'
_cell_length_a   12.08019617
_cell_length_b   12.08115380
_cell_length_c   3.68419300
_cell_angle_alpha   90.00000000
_cell_angle_beta   90.00000000
_cell_angle_gamma   119.97489055
_symmetry_Int_Tables_number   1
_chemical_formula_structural   Dy4YTi2Co16TcP12
_chemical_formula_sum   'Dy4 Y1 Ti2 Co16 Tc1 P12'
_cell_volume   465.76326676
_cell_formula_units_Z   1
loop_
 _symmetry_equiv_pos_site_id
 _symmetry_equiv_pos_as_xyz
  1  'x, y, z'
loop_
 _atom_site_type_symbol
 _atom_site_label
 _atom_site_symmetry_multiplicity
 _atom_site_fract_x
 _atom_site_fract_y
 _atom_site_fract_z
 _atom_site_occupancy
  Dy  Dy0  1  0.333568  0.666075  0.000000  1
  Dy  Dy1  1  0.186442  0.186481  0.500000  1
  Dy  Dy2  1  0.816235  0.001346  0.500000  1
  Dy  Dy3  1  0.001359  0.816230  0.500000  1
  Y  Y4  1  0.666123  0.333523  0.000000  1
  Ti  Ti5  1  0.438952  0.999284  0.000000  1
  Ti  Ti6  1  0.999504  0.439063  0.000000  1
  Co  Co7  1  0.821953  0.197012  0.000000  1
  Co  Co8  1  0.800682  0.625351  0.000000  1
  Co  Co9  1  0.377014  0.179442  0.000000  1
  Co  Co10  1  0.197103  0.821856  0.000000  1
  Co  Co11  1  0.625182  0.800634  0.000000  1
  Co  Co12  1  0.179554  0.377202  0.000000  1
  Co  Co13  1  0.644190  0.124359  0.500000  1
  Co  Co14  1  0.873137  0.519469  0.500000  1
  Co  Co15  1  0.482067  0.357519  0.500000  1
  Co  Co16  1  0.124664  0.644187  0.500000  1
  Co  Co17  1  0.519199  0.872851  0.500000  1
  Co  Co18  1  0.357475  0.482341  0.500000  1
  Co  Co19  1  0.717876  0.717988  0.500000  1
  Co  Co20  1  0.282064  0.000560  0.500000  1
  Co  Co21  1  0.000746  0.282156  0.500000  1
  Co  Co22  1  0.000123  0.000138  0.000000  1
  Tc  Tc23  1  0.553204  0.553326  0.000000  1
  P  P24  1  0.362278  0.362317  0.000000  1
  P  P25  1  0.639812  0.997979  0.000000  1
  P  P26  1  0.998066  0.639868  0.000000  1
  P  P27  1  0.832434  0.312016  0.500000  1
  P  P28  1  0.685245  0.521239  0.500000  1
  P  P29  1  0.480537  0.167406  0.500000  1
  P  P30  1  0.312064  0.832178  0.500000  1
  P  P31  1  0.520990  0.685265  0.500000  1
  P  P32  1  0.167645  0.480822  0.500000  1
  P  P33  1  0.821697  0.821739  0.000000  1
  P  P34  1  0.179612  0.001120  0.000000  1
  P  P35  1  0.001205  0.179659  0.000000  1
