# generated using pymatgen
data_Er3TmGa17SiRh6
_symmetry_space_group_name_H-M   'P 1'
_cell_length_a   7.56096541
_cell_length_b   7.53333210
_cell_length_c   9.48623611
_cell_angle_alpha   90.03339288
_cell_angle_beta   89.91812400
_cell_angle_gamma   119.89747110
_symmetry_Int_Tables_number   1
_chemical_formula_structural   Er3TmGa17SiRh6
_chemical_formula_sum   'Er3 Tm1 Ga17 Si1 Rh6'
_cell_volume   468.42087614
_cell_formula_units_Z   1
loop_
 _symmetry_equiv_pos_site_id
 _symmetry_equiv_pos_as_xyz
  1  'x, y, z'
loop_
 _atom_site_type_symbol
 _atom_site_label
 _atom_site_symmetry_multiplicity
 _atom_site_fract_x
 _atom_site_fract_y
 _atom_site_fract_z
 _atom_site_occupancy
  Er  Er0  1  0.995623  0.663404  0.247616  1
  Er  Er1  1  0.003732  0.331006  0.752499  1
  Er  Er2  1  0.674387  0.003306  0.247692  1
  Tm  Tm3  1  0.329609  0.002424  0.749433  1
  Ga  Ga4  1  0.128357  0.127850  0.250526  1
  Ga  Ga5  1  0.872284  0.874398  0.750429  1
  Ga  Ga6  1  0.999698  0.671583  0.918307  1
  Ga  Ga7  1  0.000842  0.665550  0.579077  1
  Ga  Ga8  1  0.333835  0.997886  0.420419  1
  Ga  Ga9  1  0.999865  0.334599  0.422743  1
  Ga  Ga10  1  0.665019  0.000326  0.579215  1
  Ga  Ga11  1  0.658571  0.995184  0.918155  1
  Ga  Ga12  1  0.333181  0.998197  0.079781  1
  Ga  Ga13  1  0.333168  0.332088  0.566151  1
  Ga  Ga14  1  0.668534  0.668826  0.433996  1
  Ga  Ga15  1  0.667249  0.668996  0.068363  1
  Ga  Ga16  1  0.338993  0.332537  0.932620  1
  Ga  Ga17  1  0.338801  0.547593  0.250847  1
  Ga  Ga18  1  0.663201  0.450901  0.751227  1
  Ga  Ga19  1  0.546718  0.338300  0.250593  1
  Ga  Ga20  1  0.450835  0.659429  0.750160  1
  Si  Si21  1  0.000667  0.334642  0.073986  1
  Rh  Rh22  1  0.684575  0.329942  0.003825  1
  Rh  Rh23  1  0.314408  0.657824  0.001121  1
  Rh  Rh24  1  0.328460  0.671314  0.500014  1
  Rh  Rh25  1  0.671516  0.328343  0.500110  1
  Rh  Rh26  1  0.997995  0.013410  0.001070  1
  Rh  Rh27  1  0.999873  0.000143  0.500019  1
