# generated using pymatgen
data_Nd6Al24Tc3Pd5
_symmetry_space_group_name_H-M   'P 1'
_cell_length_a   9.01548252
_cell_length_b   8.96895274
_cell_length_c   9.67767971
_cell_angle_alpha   90.00000208
_cell_angle_beta   89.79470879
_cell_angle_gamma   119.82942294
_symmetry_Int_Tables_number   1
_chemical_formula_structural   Nd6Al24Tc3Pd5
_chemical_formula_sum   'Nd6 Al24 Tc3 Pd5'
_cell_volume   678.84841149
_cell_formula_units_Z   1
loop_
 _symmetry_equiv_pos_site_id
 _symmetry_equiv_pos_as_xyz
  1  'x, y, z'
loop_
 _atom_site_type_symbol
 _atom_site_label
 _atom_site_symmetry_multiplicity
 _atom_site_fract_x
 _atom_site_fract_y
 _atom_site_fract_z
 _atom_site_occupancy
  Nd  Nd0  1  0.188160  0.380465  0.250169  1
  Nd  Nd1  1  0.811840  0.619535  0.749831  1
  Nd  Nd2  1  0.620788  0.810394  0.251259  1
  Nd  Nd3  1  0.379212  0.189606  0.748741  1
  Nd  Nd4  1  0.188160  0.807694  0.250169  1
  Nd  Nd5  1  0.811840  0.192306  0.749831  1
  Al  Al6  1  0.333791  0.666896  0.022525  1
  Al  Al7  1  0.666209  0.333104  0.977475  1
  Al  Al8  1  0.671953  0.335976  0.522312  1
  Al  Al9  1  0.328047  0.664024  0.477688  1
  Al  Al10  1  0.156679  0.324684  0.575266  1
  Al  Al11  1  0.843321  0.675316  0.424734  1
  Al  Al12  1  0.676580  0.838290  0.575681  1
  Al  Al13  1  0.837558  0.676853  0.078851  1
  Al  Al14  1  0.323420  0.161710  0.424319  1
  Al  Al15  1  0.162442  0.323147  0.921149  1
  Al  Al16  1  0.156679  0.831994  0.575266  1
  Al  Al17  1  0.321937  0.160969  0.076111  1
  Al  Al18  1  0.843321  0.168006  0.424734  1
  Al  Al19  1  0.678063  0.839031  0.923889  1
  Al  Al20  1  0.837558  0.160705  0.078851  1
  Al  Al21  1  0.162442  0.839295  0.921149  1
  Al  Al22  1  0.564455  0.128019  0.249500  1
  Al  Al23  1  0.435545  0.871981  0.750500  1
  Al  Al24  1  0.871364  0.435682  0.253449  1
  Al  Al25  1  0.128636  0.564318  0.746551  1
  Al  Al26  1  0.564455  0.436436  0.249500  1
  Al  Al27  1  0.435545  0.563564  0.750500  1
  Al  Al28  1  0.997493  0.998747  0.250306  1
  Al  Al29  1  0.002507  0.001253  0.749694  1
  Tc  Tc30  1  0.000000  0.500000  0.500000  1
  Tc  Tc31  1  0.000000  0.000000  0.000000  1
  Tc  Tc32  1  0.000000  0.000000  0.500000  1
  Pd  Pd33  1  0.500000  0.000000  0.000000  1
  Pd  Pd34  1  0.000000  0.500000  0.000000  1
  Pd  Pd35  1  0.500000  0.000000  0.500000  1
  Pd  Pd36  1  0.500000  0.500000  0.000000  1
  Pd  Pd37  1  0.500000  0.500000  0.500000  1
