# generated using pymatgen
data_SrBi5(TeO6)3
_symmetry_space_group_name_H-M   'P 1'
_cell_length_a   9.38515700
_cell_length_b   9.29291190
_cell_length_c   5.58066233
_cell_angle_alpha   90.64976700
_cell_angle_beta   90.00000000
_cell_angle_gamma   120.32892002
_symmetry_Int_Tables_number   1
_chemical_formula_structural   SrBi5(TeO6)3
_chemical_formula_sum   'Sr1 Bi5 Te3 O18'
_cell_volume   420.07153801
_cell_formula_units_Z   1
loop_
 _symmetry_equiv_pos_site_id
 _symmetry_equiv_pos_as_xyz
  1  'x, y, z'
loop_
 _atom_site_type_symbol
 _atom_site_label
 _atom_site_symmetry_multiplicity
 _atom_site_fract_x
 _atom_site_fract_y
 _atom_site_fract_z
 _atom_site_occupancy
  Sr  Sr0  1  0.608035  0.000000  0.500000  1
  Bi  Bi1  1  0.000591  0.623434  0.503924  1
  Bi  Bi2  1  0.993732  0.283191  0.001340  1
  Bi  Bi3  1  0.377157  0.376566  0.496076  1
  Bi  Bi4  1  0.285716  0.000000  0.000000  1
  Bi  Bi5  1  0.710540  0.716809  0.998660  1
  Te  Te6  1  0.330710  0.663606  0.982569  1
  Te  Te7  1  0.004944  0.000000  0.500000  1
  Te  Te8  1  0.667106  0.336394  0.017431  1
  O  O9  1  0.085469  0.875213  0.314932  1
  O  O10  1  0.232869  0.761511  0.767876  1
  O  O11  1  0.134225  0.541204  0.184451  1
  O  O12  1  0.397266  0.860417  0.179328  1
  O  O13  1  0.229069  0.459602  0.780864  1
  O  O14  1  0.126360  0.200295  0.296080  1
  O  O15  1  0.210256  0.124787  0.685068  1
  O  O16  1  0.526683  0.759758  0.783116  1
  O  O17  1  0.455664  0.596072  0.192018  1
  O  O18  1  0.810503  0.920674  0.300539  1
  O  O19  1  0.471358  0.238489  0.232124  1
  O  O20  1  0.593021  0.458796  0.815549  1
  O  O21  1  0.536850  0.139583  0.820672  1
  O  O22  1  0.769467  0.540398  0.219136  1
  O  O23  1  0.926066  0.799705  0.703920  1
  O  O24  1  0.766925  0.240242  0.216884  1
  O  O25  1  0.859591  0.403928  0.807982  1
  O  O26  1  0.889829  0.079326  0.699461  1
