# generated using pymatgen
data_Dy2Tm3Tc3(P3Ir4)4
_symmetry_space_group_name_H-M   'P 1'
_cell_length_a   12.63899300
_cell_length_b   12.63899410
_cell_length_c   3.97436000
_cell_angle_alpha   90.00000000
_cell_angle_beta   90.00000000
_cell_angle_gamma   119.99999973
_symmetry_Int_Tables_number   1
_chemical_formula_structural   Dy2Tm3Tc3(P3Ir4)4
_chemical_formula_sum   'Dy2 Tm3 Tc3 P12 Ir16'
_cell_volume   549.82289548
_cell_formula_units_Z   1
loop_
 _symmetry_equiv_pos_site_id
 _symmetry_equiv_pos_as_xyz
  1  'x, y, z'
loop_
 _atom_site_type_symbol
 _atom_site_label
 _atom_site_symmetry_multiplicity
 _atom_site_fract_x
 _atom_site_fract_y
 _atom_site_fract_z
 _atom_site_occupancy
  Dy  Dy0  1  0.333333  0.666667  0.500000  1
  Dy  Dy1  1  0.666667  0.333333  0.500000  1
  Tm  Tm2  1  0.000000  0.818384  0.000000  1
  Tm  Tm3  1  0.181616  0.181616  0.000000  1
  Tm  Tm4  1  0.818384  0.000000  0.000000  1
  Tc  Tc5  1  0.000000  0.455247  0.500000  1
  Tc  Tc6  1  0.544753  0.544753  0.500000  1
  Tc  Tc7  1  0.455247  0.000000  0.500000  1
  P  P8  1  0.000000  0.639389  0.500000  1
  P  P9  1  0.360611  0.360611  0.500000  1
  P  P10  1  0.639389  0.000000  0.500000  1
  P  P11  1  0.515651  0.684825  0.000000  1
  P  P12  1  0.315175  0.830826  0.000000  1
  P  P13  1  0.169174  0.484349  0.000000  1
  P  P14  1  0.484349  0.169174  0.000000  1
  P  P15  1  0.684825  0.515651  0.000000  1
  P  P16  1  0.830826  0.315175  0.000000  1
  P  P17  1  0.000000  0.175548  0.500000  1
  P  P18  1  0.824452  0.824452  0.500000  1
  P  P19  1  0.175548  0.000000  0.500000  1
  Ir  Ir20  1  0.510348  0.868252  0.000000  1
  Ir  Ir21  1  0.131748  0.642097  0.000000  1
  Ir  Ir22  1  0.357903  0.489652  0.000000  1
  Ir  Ir23  1  0.489652  0.357903  0.000000  1
  Ir  Ir24  1  0.868252  0.510348  0.000000  1
  Ir  Ir25  1  0.642097  0.131748  0.000000  1
  Ir  Ir26  1  0.000000  0.290851  0.000000  1
  Ir  Ir27  1  0.709149  0.709149  0.000000  1
  Ir  Ir28  1  0.290851  0.000000  0.000000  1
  Ir  Ir29  1  0.628482  0.807276  0.500000  1
  Ir  Ir30  1  0.192724  0.821206  0.500000  1
  Ir  Ir31  1  0.178794  0.371518  0.500000  1
  Ir  Ir32  1  0.371518  0.178794  0.500000  1
  Ir  Ir33  1  0.807276  0.628482  0.500000  1
  Ir  Ir34  1  0.821206  0.192724  0.500000  1
  Ir  Ir35  1  0.000000  0.000000  0.500000  1
