# generated using pymatgen
data_LiTi3(B4Ru5)2
_symmetry_space_group_name_H-M   'P 1'
_cell_length_a   2.94473800
_cell_length_b   8.38214833
_cell_length_c   9.98163322
_cell_angle_alpha   88.75078973
_cell_angle_beta   90.00000000
_cell_angle_gamma   90.00000000
_symmetry_Int_Tables_number   1
_chemical_formula_structural   LiTi3(B4Ru5)2
_chemical_formula_sum   'Li1 Ti3 B8 Ru10'
_cell_volume   246.32039833
_cell_formula_units_Z   1
loop_
 _symmetry_equiv_pos_site_id
 _symmetry_equiv_pos_as_xyz
  1  'x, y, z'
loop_
 _atom_site_type_symbol
 _atom_site_label
 _atom_site_symmetry_multiplicity
 _atom_site_fract_x
 _atom_site_fract_y
 _atom_site_fract_z
 _atom_site_occupancy
  Li  Li0  1  0.500000  0.852247  0.191588  1
  Ti  Ti1  1  0.500000  0.152298  0.826942  1
  Ti  Ti2  1  0.500000  0.656288  0.678483  1
  Ti  Ti3  1  0.500000  0.350422  0.313843  1
  B  B4  1  0.500000  0.963009  0.591313  1
  B  B5  1  0.500000  0.035477  0.413343  1
  B  B6  1  0.500000  0.849351  0.904017  1
  B  B7  1  0.500000  0.139634  0.105754  1
  B  B8  1  0.500000  0.655655  0.387922  1
  B  B9  1  0.500000  0.352668  0.598358  1
  B  B10  1  0.500000  0.457125  0.909168  1
  B  B11  1  0.500000  0.539333  0.084387  1
  Ru  Ru12  1  0.000000  0.654332  0.941992  1
  Ru  Ru13  1  0.000000  0.336051  0.047624  1
  Ru  Ru14  1  0.000000  0.837246  0.457903  1
  Ru  Ru15  1  0.000000  0.163790  0.550248  1
  Ru  Ru16  1  0.000000  0.997151  0.002038  1
  Ru  Ru17  1  0.000000  0.398152  0.758838  1
  Ru  Ru18  1  0.000000  0.599375  0.232554  1
  Ru  Ru19  1  0.000000  0.503216  0.496582  1
  Ru  Ru20  1  0.000000  0.901878  0.740766  1
  Ru  Ru21  1  0.000000  0.105299  0.266338  1
