# generated using pymatgen
data_NdCdBPd6
_symmetry_space_group_name_H-M   'P 1'
_cell_length_a   5.92238897
_cell_length_b   5.92238993
_cell_length_c   5.92238900
_cell_angle_alpha   59.99999959
_cell_angle_beta   59.99999424
_cell_angle_gamma   59.99999506
_symmetry_Int_Tables_number   1
_chemical_formula_structural   NdCdBPd6
_chemical_formula_sum   'Nd1 Cd1 B1 Pd6'
_cell_volume   146.88444968
_cell_formula_units_Z   1
loop_
 _symmetry_equiv_pos_site_id
 _symmetry_equiv_pos_as_xyz
  1  'x, y, z'
loop_
 _atom_site_type_symbol
 _atom_site_label
 _atom_site_symmetry_multiplicity
 _atom_site_fract_x
 _atom_site_fract_y
 _atom_site_fract_z
 _atom_site_occupancy
  Nd  Nd0  1  0.750000  0.750000  0.750000  1
  Cd  Cd1  1  0.250000  0.250000  0.250000  1
  B  B2  1  0.500000  0.500000  0.500000  1
  Pd  Pd3  1  0.755010  0.244990  0.244990  1
  Pd  Pd4  1  0.244990  0.755010  0.244990  1
  Pd  Pd5  1  0.755010  0.755010  0.244990  1
  Pd  Pd6  1  0.244990  0.244990  0.755010  1
  Pd  Pd7  1  0.755010  0.244990  0.755010  1
  Pd  Pd8  1  0.244990  0.755010  0.755010  1
