# generated using pymatgen
data_NaNb10SiO19
_symmetry_space_group_name_H-M   'P 1'
_cell_length_a   7.86315900
_cell_length_b   7.86315873
_cell_length_c   14.72364300
_cell_angle_alpha   90.00000000
_cell_angle_beta   90.00000000
_cell_angle_gamma   119.99998852
_symmetry_Int_Tables_number   1
_chemical_formula_structural   NaNb10SiO19
_chemical_formula_sum   'Na2 Nb20 Si2 O38'
_cell_volume   788.38810064
_cell_formula_units_Z   2
loop_
 _symmetry_equiv_pos_site_id
 _symmetry_equiv_pos_as_xyz
  1  'x, y, z'
loop_
 _atom_site_type_symbol
 _atom_site_label
 _atom_site_symmetry_multiplicity
 _atom_site_fract_x
 _atom_site_fract_y
 _atom_site_fract_z
 _atom_site_occupancy
  Na  Na0  1  0.666667  0.333333  0.609639  1
  Na  Na1  1  0.333333  0.666667  0.109639  1
  Nb  Nb2  1  0.318959  0.449152  0.500051  1
  Nb  Nb3  1  0.666667  0.333333  0.334495  1
  Nb  Nb4  1  0.525514  0.639973  0.337624  1
  Nb  Nb5  1  0.550848  0.869808  0.500051  1
  Nb  Nb6  1  0.046532  0.234042  0.671059  1
  Nb  Nb7  1  0.885541  0.525514  0.837624  1
  Nb  Nb8  1  0.130192  0.681041  0.500051  1
  Nb  Nb9  1  0.234042  0.187510  0.171059  1
  Nb  Nb10  1  0.360027  0.885541  0.337624  1
  Nb  Nb11  1  0.639973  0.114459  0.837624  1
  Nb  Nb12  1  0.474486  0.360027  0.837624  1
  Nb  Nb13  1  0.812490  0.046532  0.171059  1
  Nb  Nb14  1  0.449152  0.130192  0.000051  1
  Nb  Nb15  1  0.333333  0.666667  0.834495  1
  Nb  Nb16  1  0.114459  0.474486  0.337624  1
  Nb  Nb17  1  0.681041  0.550848  0.000051  1
  Nb  Nb18  1  0.187510  0.953468  0.671059  1
  Nb  Nb19  1  0.765958  0.812490  0.671059  1
  Nb  Nb20  1  0.953468  0.765958  0.171059  1
  Nb  Nb21  1  0.869808  0.318959  0.000051  1
  Si  Si22  1  0.000000  0.000000  0.887578  1
  Si  Si23  1  0.000000  0.000000  0.387578  1
  O  O24  1  0.000000  0.000000  0.273501  1
  O  O25  1  0.917084  0.771823  0.918506  1
  O  O26  1  0.868773  0.304097  0.752656  1
  O  O27  1  0.771823  0.854739  0.418506  1
  O  O28  1  0.131227  0.695903  0.252656  1
  O  O29  1  0.695903  0.564677  0.752656  1
  O  O30  1  0.546942  0.643433  0.580888  1
  O  O31  1  0.591388  0.098549  0.418683  1
  O  O32  1  0.854739  0.082916  0.918506  1
  O  O33  1  0.492839  0.591388  0.918683  1
  O  O34  1  0.408612  0.901451  0.918683  1
  O  O35  1  0.903508  0.546942  0.080888  1
  O  O36  1  0.261129  0.209347  0.601182  1
  O  O37  1  0.577561  0.840752  0.761512  1
  O  O38  1  0.051782  0.261129  0.101182  1
  O  O39  1  0.096492  0.453058  0.580888  1
  O  O40  1  0.304097  0.435323  0.252656  1
  O  O41  1  0.435323  0.131227  0.752656  1
  O  O42  1  0.901451  0.492839  0.418683  1
  O  O43  1  0.453058  0.356567  0.080888  1
  O  O44  1  0.000000  0.000000  0.773501  1
  O  O45  1  0.948218  0.738871  0.601182  1
  O  O46  1  0.422439  0.159248  0.261512  1
  O  O47  1  0.736809  0.577561  0.261512  1
  O  O48  1  0.790653  0.051782  0.601182  1
  O  O49  1  0.738871  0.790653  0.101182  1
  O  O50  1  0.643433  0.096492  0.080888  1
  O  O51  1  0.356567  0.903508  0.580888  1
  O  O52  1  0.840752  0.263191  0.261512  1
  O  O53  1  0.564677  0.868773  0.252656  1
  O  O54  1  0.159248  0.736809  0.761512  1
  O  O55  1  0.228177  0.145261  0.918506  1
  O  O56  1  0.263191  0.422439  0.761512  1
  O  O57  1  0.098549  0.507161  0.918683  1
  O  O58  1  0.209347  0.948218  0.101182  1
  O  O59  1  0.145261  0.917084  0.418506  1
  O  O60  1  0.082916  0.228177  0.418506  1
  O  O61  1  0.507161  0.408612  0.418683  1
