# generated using pymatgen
data_NdY19Pb16
_symmetry_space_group_name_H-M   'P 1'
_cell_length_a   8.24069597
_cell_length_b   8.30432611
_cell_length_c   15.70663700
_cell_angle_alpha   90.01689690
_cell_angle_beta   89.72060822
_cell_angle_gamma   89.92182216
_symmetry_Int_Tables_number   1
_chemical_formula_structural   NdY19Pb16
_chemical_formula_sum   'Nd1 Y19 Pb16'
_cell_volume   1074.84516375
_cell_formula_units_Z   1
loop_
 _symmetry_equiv_pos_site_id
 _symmetry_equiv_pos_as_xyz
  1  'x, y, z'
loop_
 _atom_site_type_symbol
 _atom_site_label
 _atom_site_symmetry_multiplicity
 _atom_site_fract_x
 _atom_site_fract_y
 _atom_site_fract_z
 _atom_site_occupancy
  Nd  Nd0  1  0.967649  0.823176  0.598122  1
  Y  Y1  1  0.624159  0.158521  0.621238  1
  Y  Y2  1  0.121972  0.341571  0.880010  1
  Y  Y3  1  0.378242  0.842474  0.121225  1
  Y  Y4  1  0.875476  0.657933  0.378008  1
  Y  Y5  1  0.375624  0.841899  0.378377  1
  Y  Y6  1  0.877933  0.658040  0.121185  1
  Y  Y7  1  0.621654  0.158069  0.879436  1
  Y  Y8  1  0.123403  0.341594  0.621169  1
  Y  Y9  1  0.464541  0.674772  0.599444  1
  Y  Y10  1  0.962496  0.824537  0.899447  1
  Y  Y11  1  0.536865  0.324934  0.100623  1
  Y  Y12  1  0.035165  0.176162  0.399998  1
  Y  Y13  1  0.534844  0.324149  0.400274  1
  Y  Y14  1  0.037240  0.175182  0.100543  1
  Y  Y15  1  0.463320  0.675166  0.900440  1
  Y  Y16  1  0.790163  0.495915  0.750495  1
  Y  Y17  1  0.290531  0.004473  0.750690  1
  Y  Y18  1  0.209503  0.504186  0.249862  1
  Y  Y19  1  0.709485  0.995815  0.249360  1
  Pb  Pb20  1  0.715989  0.967532  0.455626  1
  Pb  Pb21  1  0.219432  0.533248  0.043402  1
  Pb  Pb22  1  0.280133  0.032144  0.957414  1
  Pb  Pb23  1  0.781329  0.464410  0.542240  1
  Pb  Pb24  1  0.285670  0.037046  0.541981  1
  Pb  Pb25  1  0.780401  0.466666  0.957638  1
  Pb  Pb26  1  0.719593  0.967050  0.042892  1
  Pb  Pb27  1  0.217004  0.534705  0.457091  1
  Pb  Pb28  1  0.427010  0.374710  0.750269  1
  Pb  Pb29  1  0.927240  0.126053  0.750430  1
  Pb  Pb30  1  0.572304  0.625107  0.249781  1
  Pb  Pb31  1  0.072204  0.874595  0.249812  1
  Pb  Pb32  1  0.650786  0.846510  0.750036  1
  Pb  Pb33  1  0.153629  0.651653  0.751141  1
  Pb  Pb34  1  0.348455  0.154090  0.250221  1
  Pb  Pb35  1  0.848552  0.345917  0.250079  1
