# generated using pymatgen
data_Tb5DyAl24(RuRh)4
_symmetry_space_group_name_H-M   'P 1'
_cell_length_a   8.84245792
_cell_length_b   8.78538769
_cell_length_c   9.56249900
_cell_angle_alpha   90.00000000
_cell_angle_beta   90.00000000
_cell_angle_gamma   119.78673149
_symmetry_Int_Tables_number   1
_chemical_formula_structural   Tb5DyAl24(RuRh)4
_chemical_formula_sum   'Tb5 Dy1 Al24 Ru4 Rh4'
_cell_volume   644.71129018
_cell_formula_units_Z   1
loop_
 _symmetry_equiv_pos_site_id
 _symmetry_equiv_pos_as_xyz
  1  'x, y, z'
loop_
 _atom_site_type_symbol
 _atom_site_label
 _atom_site_symmetry_multiplicity
 _atom_site_fract_x
 _atom_site_fract_y
 _atom_site_fract_z
 _atom_site_occupancy
  Tb  Tb0  1  0.810625  0.195488  0.250000  1
  Tb  Tb1  1  0.810625  0.615136  0.250000  1
  Tb  Tb2  1  0.616890  0.808446  0.750000  1
  Tb  Tb3  1  0.189283  0.804477  0.750000  1
  Tb  Tb4  1  0.189283  0.384805  0.750000  1
  Dy  Dy5  1  0.383453  0.191726  0.250000  1
  Al  Al6  1  0.439054  0.876733  0.250000  1
  Al  Al7  1  0.124406  0.562203  0.250000  1
  Al  Al8  1  0.439054  0.562320  0.250000  1
  Al  Al9  1  0.560902  0.123464  0.750000  1
  Al  Al10  1  0.875618  0.437809  0.750000  1
  Al  Al11  1  0.560902  0.437438  0.750000  1
  Al  Al12  1  0.162213  0.835699  0.422493  1
  Al  Al13  1  0.162213  0.326516  0.422493  1
  Al  Al14  1  0.675040  0.837520  0.422884  1
  Al  Al15  1  0.837866  0.164439  0.577421  1
  Al  Al16  1  0.837866  0.673426  0.577421  1
  Al  Al17  1  0.324965  0.162483  0.576955  1
  Al  Al18  1  0.837866  0.164439  0.922579  1
  Al  Al19  1  0.837866  0.673426  0.922579  1
  Al  Al20  1  0.324965  0.162483  0.923045  1
  Al  Al21  1  0.162213  0.835699  0.077507  1
  Al  Al22  1  0.162213  0.326516  0.077507  1
  Al  Al23  1  0.675040  0.837520  0.077116  1
  Al  Al24  1  0.330996  0.665498  0.523274  1
  Al  Al25  1  0.668833  0.334417  0.476616  1
  Al  Al26  1  0.668833  0.334417  0.023384  1
  Al  Al27  1  0.330996  0.665498  0.976726  1
  Al  Al28  1  0.002497  0.001248  0.250000  1
  Al  Al29  1  0.997720  0.998860  0.750000  1
  Ru  Ru30  1  0.000032  0.000016  0.499998  1
  Ru  Ru31  1  0.000032  0.000016  0.000002  1
  Ru  Ru32  1  0.999918  0.499959  0.499967  1
  Ru  Ru33  1  0.999918  0.499959  0.000033  1
  Rh  Rh34  1  0.499951  0.000074  0.499911  1
  Rh  Rh35  1  0.499951  0.499877  0.499911  1
  Rh  Rh36  1  0.499951  0.000074  0.000089  1
  Rh  Rh37  1  0.499951  0.499877  0.000089  1
