# generated using pymatgen
data_Al12Co7Si4Rh
_symmetry_space_group_name_H-M   'P 1'
_cell_length_a   7.65049681
_cell_length_b   7.65049720
_cell_length_c   7.65049722
_cell_angle_alpha   60.11080504
_cell_angle_beta   60.11080487
_cell_angle_gamma   60.11080504
_symmetry_Int_Tables_number   1
_chemical_formula_structural   Al12Co7Si4Rh
_chemical_formula_sum   'Al12 Co7 Si4 Rh1'
_cell_volume   317.42627865
_cell_formula_units_Z   1
loop_
 _symmetry_equiv_pos_site_id
 _symmetry_equiv_pos_as_xyz
  1  'x, y, z'
loop_
 _atom_site_type_symbol
 _atom_site_label
 _atom_site_symmetry_multiplicity
 _atom_site_fract_x
 _atom_site_fract_y
 _atom_site_fract_z
 _atom_site_occupancy
  Al  Al0  1  0.797519  0.797519  0.209617  1
  Al  Al1  1  0.198837  0.198837  0.800972  1
  Al  Al2  1  0.797519  0.209617  0.797519  1
  Al  Al3  1  0.198837  0.800972  0.198837  1
  Al  Al4  1  0.209617  0.797519  0.797519  1
  Al  Al5  1  0.800972  0.198837  0.198837  1
  Al  Al6  1  0.448786  0.448786  0.050926  1
  Al  Al7  1  0.053745  0.053745  0.443075  1
  Al  Al8  1  0.448786  0.050926  0.448786  1
  Al  Al9  1  0.053745  0.443075  0.053745  1
  Al  Al10  1  0.050926  0.448786  0.448786  1
  Al  Al11  1  0.443075  0.053745  0.053745  1
  Co  Co12  1  0.776803  0.407767  0.407767  1
  Co  Co13  1  0.407767  0.776803  0.407767  1
  Co  Co14  1  0.407767  0.407767  0.776803  1
  Co  Co15  1  0.406676  0.406676  0.406676  1
  Co  Co16  1  0.472497  0.842990  0.842990  1
  Co  Co17  1  0.842990  0.472497  0.842990  1
  Co  Co18  1  0.842990  0.842990  0.472497  1
  Si  Si19  1  0.131290  0.619287  0.619287  1
  Si  Si20  1  0.619287  0.131290  0.619287  1
  Si  Si21  1  0.619287  0.619287  0.131290  1
  Si  Si22  1  0.625394  0.625394  0.625394  1
  Rh  Rh23  1  0.844884  0.844884  0.844884  1
