# generated using pymatgen
data_NdYTh3Si3C
_symmetry_space_group_name_H-M   'P 1'
_cell_length_a   8.82388000
_cell_length_b   8.82387979
_cell_length_c   6.42210500
_cell_angle_alpha   90.00000000
_cell_angle_beta   90.00000000
_cell_angle_gamma   120.00000078
_symmetry_Int_Tables_number   1
_chemical_formula_structural   NdYTh3Si3C
_chemical_formula_sum   'Nd2 Y2 Th6 Si6 C2'
_cell_volume   433.03919482
_cell_formula_units_Z   2
loop_
 _symmetry_equiv_pos_site_id
 _symmetry_equiv_pos_as_xyz
  1  'x, y, z'
loop_
 _atom_site_type_symbol
 _atom_site_label
 _atom_site_symmetry_multiplicity
 _atom_site_fract_x
 _atom_site_fract_y
 _atom_site_fract_z
 _atom_site_occupancy
  Nd  Nd0  1  0.666667  0.333333  0.000000  1
  Nd  Nd1  1  0.333333  0.666667  0.000000  1
  Y  Y2  1  0.333333  0.666667  0.500000  1
  Y  Y3  1  0.666667  0.333333  0.500000  1
  Th  Th4  1  0.768830  0.768830  0.748937  1
  Th  Th5  1  0.231170  0.000000  0.748937  1
  Th  Th6  1  0.000000  0.231170  0.748937  1
  Th  Th7  1  0.231170  0.231170  0.251063  1
  Th  Th8  1  0.768830  0.000000  0.251063  1
  Th  Th9  1  0.000000  0.768830  0.251063  1
  Si  Si10  1  0.399680  0.399680  0.737205  1
  Si  Si11  1  0.600320  0.000000  0.737205  1
  Si  Si12  1  0.000000  0.600320  0.737205  1
  Si  Si13  1  0.600320  0.600320  0.262795  1
  Si  Si14  1  0.399680  0.000000  0.262795  1
  Si  Si15  1  0.000000  0.399680  0.262795  1
  C  C16  1  0.000000  0.000000  0.000000  1
  C  C17  1  0.000000  0.000000  0.500000  1
