# generated using pymatgen
data_Tm(Mo2N3)2
_symmetry_space_group_name_H-M   'P 1'
_cell_length_a   5.05828400
_cell_length_b   5.05828362
_cell_length_c   11.10271700
_cell_angle_alpha   90.00000000
_cell_angle_beta   90.00000000
_cell_angle_gamma   120.00000251
_symmetry_Int_Tables_number   1
_chemical_formula_structural   Tm(Mo2N3)2
_chemical_formula_sum   'Tm2 Mo8 N12'
_cell_volume   246.01765616
_cell_formula_units_Z   2
loop_
 _symmetry_equiv_pos_site_id
 _symmetry_equiv_pos_as_xyz
  1  'x, y, z'
loop_
 _atom_site_type_symbol
 _atom_site_label
 _atom_site_symmetry_multiplicity
 _atom_site_fract_x
 _atom_site_fract_y
 _atom_site_fract_z
 _atom_site_occupancy
  Tm  Tm0  1  0.666667  0.333333  0.000000  1
  Tm  Tm1  1  0.333333  0.666667  0.000000  1
  Mo  Mo2  1  0.671750  0.671750  0.745892  1
  Mo  Mo3  1  0.328250  0.000000  0.745892  1
  Mo  Mo4  1  0.000000  0.328250  0.745892  1
  Mo  Mo5  1  0.328250  0.328250  0.254108  1
  Mo  Mo6  1  0.671750  0.000000  0.254108  1
  Mo  Mo7  1  0.000000  0.671750  0.254108  1
  Mo  Mo8  1  0.333333  0.666667  0.500000  1
  Mo  Mo9  1  0.666667  0.333333  0.500000  1
  N  N10  1  0.660107  0.660107  0.371016  1
  N  N11  1  0.339893  0.000000  0.371016  1
  N  N12  1  0.000000  0.339893  0.371016  1
  N  N13  1  0.339893  0.339893  0.628984  1
  N  N14  1  0.660107  0.000000  0.628984  1
  N  N15  1  0.000000  0.660107  0.628984  1
  N  N16  1  0.334079  0.334079  0.861090  1
  N  N17  1  0.665921  0.000000  0.861090  1
  N  N18  1  0.000000  0.665921  0.861090  1
  N  N19  1  0.665921  0.665921  0.138910  1
  N  N20  1  0.334079  0.000000  0.138910  1
  N  N21  1  0.000000  0.334079  0.138910  1
