# generated using pymatgen
data_Sm3GeI3
_symmetry_space_group_name_H-M   'P 1'
_cell_length_a   10.70975095
_cell_length_b   10.70970162
_cell_length_c   10.70983100
_cell_angle_alpha   109.47142315
_cell_angle_beta   109.47145646
_cell_angle_gamma   109.47112032
_symmetry_Int_Tables_number   1
_chemical_formula_structural   Sm3GeI3
_chemical_formula_sum   'Sm12 Ge4 I12'
_cell_volume   945.61784219
_cell_formula_units_Z   4
loop_
 _symmetry_equiv_pos_site_id
 _symmetry_equiv_pos_as_xyz
  1  'x, y, z'
loop_
 _atom_site_type_symbol
 _atom_site_label
 _atom_site_symmetry_multiplicity
 _atom_site_fract_x
 _atom_site_fract_y
 _atom_site_fract_z
 _atom_site_occupancy
  Sm  Sm0  1  0.465314  0.482655  0.232659  1
  Sm  Sm1  1  0.750002  0.232659  0.267343  1
  Sm  Sm2  1  0.750002  0.017344  0.482659  1
  Sm  Sm3  1  0.232657  0.465313  0.482657  1
  Sm  Sm4  1  0.267344  0.750002  0.232659  1
  Sm  Sm5  1  0.034687  0.267341  0.017345  1
  Sm  Sm6  1  0.017343  0.034687  0.267343  1
  Sm  Sm7  1  0.482658  0.750002  0.017343  1
  Sm  Sm8  1  0.482657  0.232659  0.465316  1
  Sm  Sm9  1  0.017340  0.482655  0.749996  1
  Sm  Sm10  1  0.267342  0.017344  0.034685  1
  Sm  Sm11  1  0.232655  0.267341  0.749996  1
  Ge  Ge12  1  0.249997  0.249997  0.250003  1
  Ge  Ge13  1  0.500001  0.000001  0.250001  1
  Ge  Ge14  1  0.000000  0.249997  0.499995  1
  Ge  Ge15  1  0.250000  0.499999  0.000000  1
  I  I16  1  0.250000  0.757337  0.742663  1
  I  I17  1  0.514674  0.507338  0.757337  1
  I  I18  1  0.985325  0.742663  0.992662  1
  I  I19  1  0.742663  0.250000  0.757337  1
  I  I20  1  0.992663  0.985326  0.742663  1
  I  I21  1  0.250000  0.992663  0.507337  1
  I  I22  1  0.757338  0.514675  0.507338  1
  I  I23  1  0.507337  0.250000  0.992663  1
  I  I24  1  0.757338  0.742663  0.250000  1
  I  I25  1  0.742663  0.992663  0.985326  1
  I  I26  1  0.992664  0.507338  0.250000  1
  I  I27  1  0.507337  0.757337  0.514675  1
