# generated using pymatgen
data_Rb4TlIn2GaBr16
_symmetry_space_group_name_H-M   'P 1'
_cell_length_a   8.19064361
_cell_length_b   10.97996800
_cell_length_c   11.15549470
_cell_angle_alpha   90.00000000
_cell_angle_beta   89.82498349
_cell_angle_gamma   90.00000000
_symmetry_Int_Tables_number   1
_chemical_formula_structural   Rb4TlIn2GaBr16
_chemical_formula_sum   'Rb4 Tl1 In2 Ga1 Br16'
_cell_volume   1003.24247708
_cell_formula_units_Z   1
loop_
 _symmetry_equiv_pos_site_id
 _symmetry_equiv_pos_as_xyz
  1  'x, y, z'
loop_
 _atom_site_type_symbol
 _atom_site_label
 _atom_site_symmetry_multiplicity
 _atom_site_fract_x
 _atom_site_fract_y
 _atom_site_fract_z
 _atom_site_occupancy
  Rb  Rb0  1  0.681760  0.748149  0.750276  1
  Rb  Rb1  1  0.321086  0.250193  0.247299  1
  Rb  Rb2  1  0.818240  0.748149  0.249724  1
  Rb  Rb3  1  0.178914  0.250193  0.752701  1
  Tl  Tl4  1  0.250000  0.680259  0.000000  1
  In  In5  1  0.750000  0.179481  0.500000  1
  In  In6  1  0.250000  0.819940  0.500000  1
  Ga  Ga7  1  0.750000  0.318989  0.000000  1
  Br  Br8  1  0.829890  0.439686  0.833582  1
  Br  Br9  1  0.161258  0.550539  0.186033  1
  Br  Br10  1  0.670110  0.439686  0.166418  1
  Br  Br11  1  0.659983  0.050798  0.321711  1
  Br  Br12  1  0.338742  0.550539  0.813967  1
  Br  Br13  1  0.339752  0.947725  0.679350  1
  Br  Br14  1  0.840017  0.050798  0.678289  1
  Br  Br15  1  0.160248  0.947725  0.320650  1
  Br  Br16  1  0.996774  0.822038  0.959468  1
  Br  Br17  1  0.977834  0.191734  0.042877  1
  Br  Br18  1  0.503226  0.822038  0.040532  1
  Br  Br19  1  0.496327  0.682780  0.458698  1
  Br  Br20  1  0.522166  0.191734  0.957123  1
  Br  Br21  1  0.503433  0.317024  0.540277  1
  Br  Br22  1  0.003673  0.682780  0.541302  1
  Br  Br23  1  0.996567  0.317024  0.459723  1
