# generated using pymatgen
data_TbHo19(CoPd2)4
_symmetry_space_group_name_H-M   'P 1'
_cell_length_a   7.83978600
_cell_length_b   8.23069300
_cell_length_c   11.74531100
_cell_angle_alpha   90.00000000
_cell_angle_beta   90.00065571
_cell_angle_gamma   90.00000000
_symmetry_Int_Tables_number   1
_chemical_formula_structural   TbHo19(CoPd2)4
_chemical_formula_sum   'Tb1 Ho19 Co4 Pd8'
_cell_volume   757.88817656
_cell_formula_units_Z   1
loop_
 _symmetry_equiv_pos_site_id
 _symmetry_equiv_pos_as_xyz
  1  'x, y, z'
loop_
 _atom_site_type_symbol
 _atom_site_label
 _atom_site_symmetry_multiplicity
 _atom_site_fract_x
 _atom_site_fract_y
 _atom_site_fract_z
 _atom_site_occupancy
  Tb  Tb0  1  0.164527  0.750000  0.214264  1
  Ho  Ho1  1  0.664351  0.250000  0.285805  1
  Ho  Ho2  1  0.835640  0.250000  0.785788  1
  Ho  Ho3  1  0.335629  0.750000  0.714236  1
  Ho  Ho4  1  0.461893  0.750000  0.003816  1
  Ho  Ho5  1  0.961784  0.250000  0.496066  1
  Ho  Ho6  1  0.538222  0.250000  0.996027  1
  Ho  Ho7  1  0.038207  0.750000  0.504076  1
  Ho  Ho8  1  0.630064  0.750000  0.306045  1
  Ho  Ho9  1  0.129920  0.250000  0.193974  1
  Ho  Ho10  1  0.370072  0.250000  0.693974  1
  Ho  Ho11  1  0.870076  0.750000  0.806028  1
  Ho  Ho12  1  0.827899  0.965896  0.080827  1
  Ho  Ho13  1  0.328162  0.034291  0.419205  1
  Ho  Ho14  1  0.171909  0.465746  0.919054  1
  Ho  Ho15  1  0.671904  0.534211  0.580902  1
  Ho  Ho16  1  0.171909  0.034254  0.919054  1
  Ho  Ho17  1  0.671904  0.965789  0.580902  1
  Ho  Ho18  1  0.827899  0.534104  0.080827  1
  Ho  Ho19  1  0.328162  0.465709  0.419205  1
  Co  Co20  1  0.436206  0.750000  0.495433  1
  Co  Co21  1  0.936208  0.250000  0.004568  1
  Co  Co22  1  0.563773  0.250000  0.504559  1
  Co  Co23  1  0.063658  0.750000  0.995274  1
  Pd  Pd24  1  0.935068  0.983502  0.329749  1
  Pd  Pd25  1  0.435526  0.016948  0.170289  1
  Pd  Pd26  1  0.064715  0.483269  0.670330  1
  Pd  Pd27  1  0.564702  0.516734  0.829677  1
  Pd  Pd28  1  0.064715  0.016731  0.670330  1
  Pd  Pd29  1  0.564702  0.983266  0.829677  1
  Pd  Pd30  1  0.935068  0.516498  0.329749  1
  Pd  Pd31  1  0.435526  0.483052  0.170289  1
