# generated using pymatgen
data_Pr4Pd6O19
_symmetry_space_group_name_H-M   'P 1'
_cell_length_a   7.81190202
_cell_length_b   7.81166622
_cell_length_c   7.81171000
_cell_angle_alpha   109.46978058
_cell_angle_beta   109.47246421
_cell_angle_gamma   109.46870738
_symmetry_Int_Tables_number   1
_chemical_formula_structural   Pr4Pd6O19
_chemical_formula_sum   'Pr4 Pd6 O19'
_cell_volume   366.97730715
_cell_formula_units_Z   1
loop_
 _symmetry_equiv_pos_site_id
 _symmetry_equiv_pos_as_xyz
  1  'x, y, z'
loop_
 _atom_site_type_symbol
 _atom_site_label
 _atom_site_symmetry_multiplicity
 _atom_site_fract_x
 _atom_site_fract_y
 _atom_site_fract_z
 _atom_site_occupancy
  Pr  Pr0  1  0.323190  0.000059  0.000001  1
  Pr  Pr1  1  0.000052  0.323189  0.000022  1
  Pr  Pr2  1  0.999963  0.999973  0.323144  1
  Pr  Pr3  1  0.676809  0.676808  0.676858  1
  Pd  Pd4  1  0.659709  0.500003  0.159705  1
  Pd  Pd5  1  0.500006  0.840344  0.340347  1
  Pd  Pd6  1  0.159683  0.659698  0.500010  1
  Pd  Pd7  1  0.840317  0.340326  0.500018  1
  Pd  Pd8  1  0.500002  0.159653  0.659656  1
  Pd  Pd9  1  0.340301  0.500010  0.840294  1
  O  O10  1  0.000001  0.000002  0.000002  1
  O  O11  1  0.339493  0.339489  0.000000  1
  O  O12  1  0.660508  0.660506  0.999999  1
  O  O13  1  0.280363  0.674377  0.037255  1
  O  O14  1  0.962782  0.637138  0.243136  1
  O  O15  1  0.605989  0.362851  0.325630  1
  O  O16  1  0.674380  0.037242  0.280368  1
  O  O17  1  0.339558  0.000000  0.339562  1
  O  O18  1  0.000000  0.339551  0.339549  1
  O  O19  1  0.325613  0.605987  0.362860  1
  O  O20  1  0.719631  0.756888  0.394012  1
  O  O21  1  0.362874  0.325610  0.605983  1
  O  O22  1  0.243130  0.962752  0.637132  1
  O  O23  1  0.660437  0.000000  0.660439  1
  O  O24  1  0.000000  0.660441  0.660440  1
  O  O25  1  0.756868  0.394003  0.719623  1
  O  O26  1  0.037214  0.280349  0.674355  1
  O  O27  1  0.394006  0.719642  0.756860  1
  O  O28  1  0.637120  0.243109  0.962737  1
