# generated using pymatgen
data_Ce5Ni16(MoP4)3
_symmetry_space_group_name_H-M   'P 1'
_cell_length_a   12.26196300
_cell_length_b   12.26196335
_cell_length_c   3.76891600
_cell_angle_alpha   90.00000000
_cell_angle_beta   90.00000000
_cell_angle_gamma   120.00000714
_symmetry_Int_Tables_number   1
_chemical_formula_structural   Ce5Ni16(MoP4)3
_chemical_formula_sum   'Ce5 Ni16 Mo3 P12'
_cell_volume   490.75764506
_cell_formula_units_Z   1
loop_
 _symmetry_equiv_pos_site_id
 _symmetry_equiv_pos_as_xyz
  1  'x, y, z'
loop_
 _atom_site_type_symbol
 _atom_site_label
 _atom_site_symmetry_multiplicity
 _atom_site_fract_x
 _atom_site_fract_y
 _atom_site_fract_z
 _atom_site_occupancy
  Ce  Ce0  1  0.185699  0.185699  0.500000  1
  Ce  Ce1  1  0.814301  0.000000  0.500000  1
  Ce  Ce2  1  0.000000  0.814301  0.500000  1
  Ce  Ce3  1  0.333333  0.666667  0.000000  1
  Ce  Ce4  1  0.666667  0.333333  0.000000  1
  Ni  Ni5  1  0.719496  0.719496  0.500000  1
  Ni  Ni6  1  0.280504  0.000000  0.500000  1
  Ni  Ni7  1  0.000000  0.280504  0.500000  1
  Ni  Ni8  1  0.184387  0.377885  0.000000  1
  Ni  Ni9  1  0.622115  0.806502  0.000000  1
  Ni  Ni10  1  0.193498  0.815613  0.000000  1
  Ni  Ni11  1  0.806502  0.622115  0.000000  1
  Ni  Ni12  1  0.815613  0.193498  0.000000  1
  Ni  Ni13  1  0.377885  0.184387  0.000000  1
  Ni  Ni14  1  0.360003  0.482994  0.500000  1
  Ni  Ni15  1  0.517006  0.877009  0.500000  1
  Ni  Ni16  1  0.122991  0.639997  0.500000  1
  Ni  Ni17  1  0.877009  0.517006  0.500000  1
  Ni  Ni18  1  0.639997  0.122991  0.500000  1
  Ni  Ni19  1  0.482994  0.360003  0.500000  1
  Ni  Ni20  1  0.000000  0.000000  0.000000  1
  Mo  Mo21  1  0.560638  0.560638  0.000000  1
  Mo  Mo22  1  0.439362  0.000000  0.000000  1
  Mo  Mo23  1  0.000000  0.439362  0.000000  1
  P  P24  1  0.819359  0.819359  0.000000  1
  P  P25  1  0.180641  0.000000  0.000000  1
  P  P26  1  0.000000  0.180641  0.000000  1
  P  P27  1  0.165325  0.478361  0.500000  1
  P  P28  1  0.521639  0.686964  0.500000  1
  P  P29  1  0.313036  0.834675  0.500000  1
  P  P30  1  0.686964  0.521639  0.500000  1
  P  P31  1  0.834675  0.313036  0.500000  1
  P  P32  1  0.478361  0.165325  0.500000  1
  P  P33  1  0.368403  0.368403  0.000000  1
  P  P34  1  0.631597  0.000000  0.000000  1
  P  P35  1  0.000000  0.631597  0.000000  1
