# generated using pymatgen
data_Dy4Er3Tm5Co5Bi
_symmetry_space_group_name_H-M   'P 1'
_cell_length_a   8.25205590
_cell_length_b   8.25102219
_cell_length_c   8.25205478
_cell_angle_alpha   110.89359030
_cell_angle_beta   110.70650577
_cell_angle_gamma   106.84995815
_symmetry_Int_Tables_number   1
_chemical_formula_structural   Dy4Er3Tm5Co5Bi
_chemical_formula_sum   'Dy4 Er3 Tm5 Co5 Bi1'
_cell_volume   431.82054960
_cell_formula_units_Z   1
loop_
 _symmetry_equiv_pos_site_id
 _symmetry_equiv_pos_as_xyz
  1  'x, y, z'
loop_
 _atom_site_type_symbol
 _atom_site_label
 _atom_site_symmetry_multiplicity
 _atom_site_fract_x
 _atom_site_fract_y
 _atom_site_fract_z
 _atom_site_occupancy
  Dy  Dy0  1  0.287649  0.184480  0.471776  1
  Dy  Dy1  1  0.711832  0.815233  0.527303  1
  Dy  Dy2  1  0.287930  0.815233  0.103402  1
  Dy  Dy3  1  0.712704  0.184480  0.896830  1
  Er  Er4  1  0.791955  0.597664  0.805709  1
  Er  Er5  1  0.207939  0.013872  0.805934  1
  Er  Er6  1  0.792082  0.986543  0.194460  1
  Tm  Tm7  1  0.622663  0.312218  0.310780  1
  Tm  Tm8  1  0.376931  0.687560  0.688954  1
  Tm  Tm9  1  0.001440  0.312218  0.689555  1
  Tm  Tm10  1  0.998603  0.687560  0.310630  1
  Tm  Tm11  1  0.208144  0.402769  0.194626  1
  Co  Co12  1  0.000181  0.375091  0.374911  1
  Co  Co13  1  0.999816  0.624568  0.624753  1
  Co  Co14  1  0.387960  0.887490  0.499531  1
  Co  Co15  1  0.611943  0.112075  0.500133  1
  Co  Co16  1  0.000422  0.000966  0.000545  1
  Bi  Bi17  1  0.499812  0.499977  0.000166  1
