# generated using pymatgen
data_Zr4AlV3Tc4
_symmetry_space_group_name_H-M   'P 1'
_cell_length_a   5.22084123
_cell_length_b   5.19176975
_cell_length_c   8.64651912
_cell_angle_alpha   89.99999947
_cell_angle_beta   90.10788658
_cell_angle_gamma   119.81596563
_symmetry_Int_Tables_number   1
_chemical_formula_structural   Zr4AlV3Tc4
_chemical_formula_sum   'Zr4 Al1 V3 Tc4'
_cell_volume   203.34299670
_cell_formula_units_Z   1
loop_
 _symmetry_equiv_pos_site_id
 _symmetry_equiv_pos_as_xyz
  1  'x, y, z'
loop_
 _atom_site_type_symbol
 _atom_site_label
 _atom_site_symmetry_multiplicity
 _atom_site_fract_x
 _atom_site_fract_y
 _atom_site_fract_z
 _atom_site_occupancy
  Zr  Zr0  1  0.331503  0.667039  0.438423  1
  Zr  Zr1  1  0.667018  0.332602  0.934349  1
  Zr  Zr2  1  0.668497  0.335535  0.561577  1
  Zr  Zr3  1  0.332982  0.665586  0.065651  1
  Al  Al4  1  0.000000  0.000187  0.500000  1
  V  V5  1  0.169256  0.338048  0.753752  1
  V  V6  1  0.830744  0.168794  0.246248  1
  V  V7  1  0.000000  0.002093  0.000000  1
  Tc  Tc8  1  0.337229  0.168341  0.247551  1
  Tc  Tc9  1  0.662771  0.831111  0.752449  1
  Tc  Tc10  1  0.829218  0.659942  0.248469  1
  Tc  Tc11  1  0.170782  0.830723  0.751531  1
