# generated using pymatgen
data_CsZn(In4Rh)2
_symmetry_space_group_name_H-M   'P 1'
_cell_length_a   9.16839700
_cell_length_b   9.02823766
_cell_length_c   4.24439500
_cell_angle_alpha   90.00000000
_cell_angle_beta   90.00000000
_cell_angle_gamma   120.51488699
_symmetry_Int_Tables_number   1
_chemical_formula_structural   CsZn(In4Rh)2
_chemical_formula_sum   'Cs1 Zn1 In8 Rh2'
_cell_volume   302.66770781
_cell_formula_units_Z   1
loop_
 _symmetry_equiv_pos_site_id
 _symmetry_equiv_pos_as_xyz
  1  'x, y, z'
loop_
 _atom_site_type_symbol
 _atom_site_label
 _atom_site_symmetry_multiplicity
 _atom_site_fract_x
 _atom_site_fract_y
 _atom_site_fract_z
 _atom_site_occupancy
  Cs  Cs0  1  0.000000  0.000000  0.000000  1
  Zn  Zn1  1  0.500000  0.000000  0.000000  1
  In  In2  1  0.580492  0.801427  0.500000  1
  In  In3  1  0.220936  0.801427  0.500000  1
  In  In4  1  0.208015  0.416029  0.500000  1
  In  In5  1  0.791985  0.583971  0.500000  1
  In  In6  1  0.779064  0.198573  0.500000  1
  In  In7  1  0.419508  0.198573  0.500000  1
  In  In8  1  0.000000  0.500000  0.000000  1
  In  In9  1  0.500000  0.500000  0.000000  1
  Rh  Rh10  1  0.336584  0.673171  0.000000  1
  Rh  Rh11  1  0.663416  0.326829  0.000000  1
