# generated using pymatgen
data_PrNd3Zn10SiSn
_symmetry_space_group_name_H-M   'P 1'
_cell_length_a   8.49233802
_cell_length_b   8.49233680
_cell_length_c   8.96613029
_cell_angle_alpha   89.88013821
_cell_angle_beta   90.11986345
_cell_angle_gamma   149.51708471
_symmetry_Int_Tables_number   1
_chemical_formula_structural   PrNd3Zn10SiSn
_chemical_formula_sum   'Pr1 Nd3 Zn10 Si1 Sn1'
_cell_volume   328.02538868
_cell_formula_units_Z   1
loop_
 _symmetry_equiv_pos_site_id
 _symmetry_equiv_pos_as_xyz
  1  'x, y, z'
loop_
 _atom_site_type_symbol
 _atom_site_label
 _atom_site_symmetry_multiplicity
 _atom_site_fract_x
 _atom_site_fract_y
 _atom_site_fract_z
 _atom_site_occupancy
  Pr  Pr0  1  0.000556  0.999444  0.486326  1
  Nd  Nd1  1  0.203052  0.796948  0.249786  1
  Nd  Nd2  1  0.794357  0.205643  0.750091  1
  Nd  Nd3  1  0.000589  0.999411  0.013854  1
  Zn  Zn4  1  0.812959  0.187041  0.391453  1
  Zn  Zn5  1  0.185859  0.814141  0.606741  1
  Zn  Zn6  1  0.813355  0.186645  0.108658  1
  Zn  Zn7  1  0.185506  0.814494  0.893155  1
  Zn  Zn8  1  0.650026  0.349974  0.474415  1
  Zn  Zn9  1  0.344449  0.655551  0.514162  1
  Zn  Zn10  1  0.649712  0.350288  0.025361  1
  Zn  Zn11  1  0.344629  0.655371  0.985924  1
  Zn  Zn12  1  0.406014  0.593986  0.249668  1
  Zn  Zn13  1  0.605214  0.394786  0.750073  1
  Si  Si14  1  0.558431  0.441569  0.249157  1
  Sn  Sn15  1  0.445288  0.554712  0.751177  1
