# generated using pymatgen
data_CaNd(NiB4)2
_symmetry_space_group_name_H-M   'P 1'
_cell_length_a   6.90265953
_cell_length_b   6.90265930
_cell_length_c   6.90265910
_cell_angle_alpha   112.80208545
_cell_angle_beta   112.80208521
_cell_angle_gamma   102.99709278
_symmetry_Int_Tables_number   1
_chemical_formula_structural   CaNd(NiB4)2
_chemical_formula_sum   'Ca2 Nd2 Ni4 B16'
_cell_volume   250.79217399
_cell_formula_units_Z   2
loop_
 _symmetry_equiv_pos_site_id
 _symmetry_equiv_pos_as_xyz
  1  'x, y, z'
loop_
 _atom_site_type_symbol
 _atom_site_label
 _atom_site_symmetry_multiplicity
 _atom_site_fract_x
 _atom_site_fract_y
 _atom_site_fract_z
 _atom_site_occupancy
  Ca  Ca0  1  0.795864  0.795864  0.000000  1
  Ca  Ca1  1  0.204136  0.204136  0.000000  1
  Nd  Nd2  1  0.750000  0.250000  0.500000  1
  Nd  Nd3  1  0.250000  0.750000  0.500000  1
  Ni  Ni4  1  0.273697  0.500000  0.773697  1
  Ni  Ni5  1  0.726303  0.500000  0.226303  1
  Ni  Ni6  1  0.500000  0.726303  0.226303  1
  Ni  Ni7  1  0.500000  0.273697  0.773697  1
  B  B8  1  0.275919  0.112846  0.388765  1
  B  B9  1  0.724081  0.887154  0.611235  1
  B  B10  1  0.275919  0.887154  0.163074  1
  B  B11  1  0.724081  0.112846  0.836926  1
  B  B12  1  0.112846  0.724081  0.836926  1
  B  B13  1  0.887154  0.275919  0.163074  1
  B  B14  1  0.112846  0.275919  0.388765  1
  B  B15  1  0.887154  0.724081  0.611235  1
  B  B16  1  0.113279  0.113279  0.529097  1
  B  B17  1  0.584182  0.584182  0.470903  1
  B  B18  1  0.113279  0.584182  0.000000  1
  B  B19  1  0.584182  0.113279  0.000000  1
  B  B20  1  0.886721  0.886721  0.470903  1
  B  B21  1  0.415818  0.415818  0.529097  1
  B  B22  1  0.886722  0.415818  0.000000  1
  B  B23  1  0.415818  0.886722  0.000000  1
