# generated using pymatgen
data_Ti4P4Ir3Ru
_symmetry_space_group_name_H-M   'P 1'
_cell_length_a   3.74650700
_cell_length_b   6.27426746
_cell_length_c   7.17149063
_cell_angle_alpha   90.18424917
_cell_angle_beta   90.00000000
_cell_angle_gamma   90.00000000
_symmetry_Int_Tables_number   1
_chemical_formula_structural   Ti4P4Ir3Ru
_chemical_formula_sum   'Ti4 P4 Ir3 Ru1'
_cell_volume   168.57639649
_cell_formula_units_Z   1
loop_
 _symmetry_equiv_pos_site_id
 _symmetry_equiv_pos_as_xyz
  1  'x, y, z'
loop_
 _atom_site_type_symbol
 _atom_site_label
 _atom_site_symmetry_multiplicity
 _atom_site_fract_x
 _atom_site_fract_y
 _atom_site_fract_z
 _atom_site_occupancy
  Ti  Ti0  1  0.750000  0.527830  0.325691  1
  Ti  Ti1  1  0.250000  0.972834  0.825869  1
  Ti  Ti2  1  0.750000  0.024923  0.172805  1
  Ti  Ti3  1  0.250000  0.475944  0.674325  1
  P  P4  1  0.250000  0.739377  0.118918  1
  P  P5  1  0.250000  0.241796  0.376659  1
  P  P6  1  0.750000  0.263432  0.876182  1
  P  P7  1  0.750000  0.759110  0.628194  1
  Ir  Ir8  1  0.250000  0.348725  0.064714  1
  Ir  Ir9  1  0.250000  0.851368  0.434202  1
  Ir  Ir10  1  0.750000  0.148706  0.563376  1
  Ru  Ru11  1  0.750000  0.645956  0.939066  1
