# generated using pymatgen
data_Li3Dy3AlSi4
_symmetry_space_group_name_H-M   'P 1'
_cell_length_a   8.07595184
_cell_length_b   8.07608960
_cell_length_c   8.07608937
_cell_angle_alpha   149.26813080
_cell_angle_beta   130.93506772
_cell_angle_gamma   59.01798017
_symmetry_Int_Tables_number   1
_chemical_formula_structural   Li3Dy3AlSi4
_chemical_formula_sum   'Li3 Dy3 Al1 Si4'
_cell_volume   201.74301574
_cell_formula_units_Z   1
loop_
 _symmetry_equiv_pos_site_id
 _symmetry_equiv_pos_as_xyz
  1  'x, y, z'
loop_
 _atom_site_type_symbol
 _atom_site_label
 _atom_site_symmetry_multiplicity
 _atom_site_fract_x
 _atom_site_fract_y
 _atom_site_fract_z
 _atom_site_occupancy
  Li  Li0  1  0.516863  0.828669  0.688195  1
  Li  Li1  1  0.865716  0.171916  0.693801  1
  Li  Li2  1  0.142322  0.827552  0.314769  1
  Dy  Dy3  1  0.873582  0.376927  0.496654  1
  Dy  Dy4  1  0.116867  0.625312  0.491556  1
  Dy  Dy5  1  0.501869  0.499831  0.002037  1
  Al  Al6  1  0.479095  0.171943  0.307152  1
  Si  Si7  1  0.816154  0.000770  0.815384  1
  Si  Si8  1  0.184879  0.000209  0.184670  1
  Si  Si9  1  0.287746  0.283248  0.004498  1
  Si  Si10  1  0.714907  0.713623  0.001284  1
