# generated using pymatgen
data_Tm6Sc4GaPb5
_symmetry_space_group_name_H-M   'P 1'
_cell_length_a   6.31481300
_cell_length_b   8.71757920
_cell_length_c   8.74832313
_cell_angle_alpha   119.88381826
_cell_angle_beta   89.99917146
_cell_angle_gamma   90.00166542
_symmetry_Int_Tables_number   1
_chemical_formula_structural   Tm6Sc4GaPb5
_chemical_formula_sum   'Tm6 Sc4 Ga1 Pb5'
_cell_volume   417.56019599
_cell_formula_units_Z   1
loop_
 _symmetry_equiv_pos_site_id
 _symmetry_equiv_pos_as_xyz
  1  'x, y, z'
loop_
 _atom_site_type_symbol
 _atom_site_label
 _atom_site_symmetry_multiplicity
 _atom_site_fract_x
 _atom_site_fract_y
 _atom_site_fract_z
 _atom_site_occupancy
  Tm  Tm0  1  0.750005  0.244752  0.000000  1
  Tm  Tm1  1  0.750000  0.758913  0.772734  1
  Tm  Tm2  1  0.750000  0.986179  0.227266  1
  Tm  Tm3  1  0.249996  0.762541  0.000000  1
  Tm  Tm4  1  0.249995  0.236211  0.235858  1
  Tm  Tm5  1  0.249995  0.000353  0.764142  1
  Sc  Sc6  1  0.504805  0.341471  0.676468  1
  Sc  Sc7  1  0.504805  0.665003  0.323532  1
  Sc  Sc8  1  0.995205  0.665001  0.323521  1
  Sc  Sc9  1  0.995205  0.341480  0.676479  1
  Ga  Ga10  1  0.750002  0.599355  0.000000  1
  Pb  Pb11  1  0.750010  0.396589  0.398329  1
  Pb  Pb12  1  0.750010  0.998260  0.601671  1
  Pb  Pb13  1  0.249992  0.400947  0.000000  1
  Pb  Pb14  1  0.249988  0.600753  0.598562  1
  Pb  Pb15  1  0.249988  0.002191  0.401438  1
