# generated using pymatgen
data_Lu3Ga3Pd2Pt
_symmetry_space_group_name_H-M   'P 1'
_cell_length_a   7.42346400
_cell_length_b   7.42346368
_cell_length_c   7.15720400
_cell_angle_alpha   90.00000000
_cell_angle_beta   90.00000000
_cell_angle_gamma   120.00000205
_symmetry_Int_Tables_number   1
_chemical_formula_structural   Lu3Ga3Pd2Pt
_chemical_formula_sum   'Lu6 Ga6 Pd4 Pt2'
_cell_volume   341.57589397
_cell_formula_units_Z   2
loop_
 _symmetry_equiv_pos_site_id
 _symmetry_equiv_pos_as_xyz
  1  'x, y, z'
loop_
 _atom_site_type_symbol
 _atom_site_label
 _atom_site_symmetry_multiplicity
 _atom_site_fract_x
 _atom_site_fract_y
 _atom_site_fract_z
 _atom_site_occupancy
  Lu  Lu0  1  0.738831  0.068132  0.000000  1
  Lu  Lu1  1  0.329300  0.261169  0.000000  1
  Lu  Lu2  1  0.931868  0.670700  0.000000  1
  Lu  Lu3  1  0.329396  0.261213  0.500000  1
  Lu  Lu4  1  0.738787  0.068183  0.500000  1
  Lu  Lu5  1  0.931817  0.670604  0.500000  1
  Ga  Ga6  1  0.596684  0.663808  0.750007  1
  Ga  Ga7  1  0.067124  0.403316  0.750007  1
  Ga  Ga8  1  0.336192  0.932876  0.750007  1
  Ga  Ga9  1  0.596684  0.663808  0.249993  1
  Ga  Ga10  1  0.067124  0.403316  0.249993  1
  Ga  Ga11  1  0.336192  0.932876  0.249993  1
  Pd  Pd12  1  0.333333  0.666667  0.000000  1
  Pd  Pd13  1  0.333333  0.666667  0.500000  1
  Pd  Pd14  1  0.666667  0.333333  0.750469  1
  Pd  Pd15  1  0.666667  0.333333  0.249531  1
  Pt  Pt16  1  0.000000  0.000000  0.250331  1
  Pt  Pt17  1  0.000000  0.000000  0.749669  1
