# generated using pymatgen
data_Be2Mo2W
_symmetry_space_group_name_H-M   'P 1'
_cell_length_a   6.24453300
_cell_length_b   6.24453300
_cell_length_c   3.21891500
_cell_angle_alpha   90.00000000
_cell_angle_beta   90.00000000
_cell_angle_gamma   90.00000000
_symmetry_Int_Tables_number   1
_chemical_formula_structural   Be2Mo2W
_chemical_formula_sum   'Be4 Mo4 W2'
_cell_volume   125.51899079
_cell_formula_units_Z   2
loop_
 _symmetry_equiv_pos_site_id
 _symmetry_equiv_pos_as_xyz
  1  'x, y, z'
loop_
 _atom_site_type_symbol
 _atom_site_label
 _atom_site_symmetry_multiplicity
 _atom_site_fract_x
 _atom_site_fract_y
 _atom_site_fract_z
 _atom_site_occupancy
  Be  Be0  1  0.882261  0.382261  0.000000  1
  Be  Be1  1  0.382261  0.117739  0.000000  1
  Be  Be2  1  0.617739  0.882261  0.000000  1
  Be  Be3  1  0.117739  0.617739  0.000000  1
  Mo  Mo4  1  0.677430  0.177430  0.500000  1
  Mo  Mo5  1  0.177430  0.322570  0.500000  1
  Mo  Mo6  1  0.822570  0.677430  0.500000  1
  Mo  Mo7  1  0.322570  0.822570  0.500000  1
  W  W8  1  0.000000  0.000000  0.000000  1
  W  W9  1  0.500000  0.500000  0.000000  1
