# generated using pymatgen
data_AcInP7Ru12
_symmetry_space_group_name_H-M   'P 1'
_cell_length_a   9.55769500
_cell_length_b   9.55769453
_cell_length_c   3.92945700
_cell_angle_alpha   90.00000000
_cell_angle_beta   90.00000000
_cell_angle_gamma   119.99999722
_symmetry_Int_Tables_number   1
_chemical_formula_structural   AcInP7Ru12
_chemical_formula_sum   'Ac1 In1 P7 Ru12'
_cell_volume   310.86333237
_cell_formula_units_Z   1
loop_
 _symmetry_equiv_pos_site_id
 _symmetry_equiv_pos_as_xyz
  1  'x, y, z'
loop_
 _atom_site_type_symbol
 _atom_site_label
 _atom_site_symmetry_multiplicity
 _atom_site_fract_x
 _atom_site_fract_y
 _atom_site_fract_z
 _atom_site_occupancy
  Ac  Ac0  1  0.333333  0.666667  0.000000  1
  In  In1  1  0.666667  0.333333  0.500000  1
  P  P2  1  0.608269  0.707354  0.500000  1
  P  P3  1  0.000000  0.000000  0.000000  1
  P  P4  1  0.292646  0.900915  0.500000  1
  P  P5  1  0.099085  0.391731  0.500000  1
  P  P6  1  0.909321  0.604391  0.000000  1
  P  P7  1  0.395609  0.304930  0.000000  1
  P  P8  1  0.695070  0.090679  0.000000  1
  Ru  Ru9  1  0.563275  0.955413  0.500000  1
  Ru  Ru10  1  0.392139  0.436725  0.500000  1
  Ru  Ru11  1  0.905696  0.115871  0.500000  1
  Ru  Ru12  1  0.210175  0.094304  0.500000  1
  Ru  Ru13  1  0.884129  0.789825  0.500000  1
  Ru  Ru14  1  0.726025  0.868816  0.000000  1
  Ru  Ru15  1  0.131184  0.857209  0.000000  1
  Ru  Ru16  1  0.142791  0.273975  0.000000  1
  Ru  Ru17  1  0.450997  0.097065  0.000000  1
  Ru  Ru18  1  0.902935  0.353934  0.000000  1
  Ru  Ru19  1  0.646066  0.549003  0.000000  1
  Ru  Ru20  1  0.044587  0.607861  0.500000  1
