# generated using pymatgen
data_La6Sc8Al8Os7
_symmetry_space_group_name_H-M   'P 1'
_cell_length_a   9.38755875
_cell_length_b   9.38755943
_cell_length_c   9.38755900
_cell_angle_alpha   59.99999800
_cell_angle_beta   59.99999561
_cell_angle_gamma   59.99999743
_symmetry_Int_Tables_number   1
_chemical_formula_structural   La6Sc8Al8Os7
_chemical_formula_sum   'La6 Sc8 Al8 Os7'
_cell_volume   584.98269632
_cell_formula_units_Z   1
loop_
 _symmetry_equiv_pos_site_id
 _symmetry_equiv_pos_as_xyz
  1  'x, y, z'
loop_
 _atom_site_type_symbol
 _atom_site_label
 _atom_site_symmetry_multiplicity
 _atom_site_fract_x
 _atom_site_fract_y
 _atom_site_fract_z
 _atom_site_occupancy
  La  La0  1  0.684028  0.684028  0.315972  1
  La  La1  1  0.315972  0.684028  0.315972  1
  La  La2  1  0.684028  0.315972  0.315972  1
  La  La3  1  0.315972  0.315972  0.684028  1
  La  La4  1  0.684028  0.315972  0.684028  1
  La  La5  1  0.315972  0.684028  0.684028  1
  Sc  Sc6  1  0.877205  0.877205  0.368387  1
  Sc  Sc7  1  0.877205  0.368387  0.877205  1
  Sc  Sc8  1  0.368387  0.877205  0.877205  1
  Sc  Sc9  1  0.877205  0.877205  0.877205  1
  Sc  Sc10  1  0.122795  0.122795  0.631613  1
  Sc  Sc11  1  0.122795  0.631613  0.122795  1
  Sc  Sc12  1  0.631613  0.122795  0.122795  1
  Sc  Sc13  1  0.122795  0.122795  0.122795  1
  Al  Al14  1  0.671185  0.671185  0.986444  1
  Al  Al15  1  0.671185  0.986444  0.671185  1
  Al  Al16  1  0.986444  0.671185  0.671185  1
  Al  Al17  1  0.671185  0.671185  0.671185  1
  Al  Al18  1  0.328815  0.328815  0.013556  1
  Al  Al19  1  0.328815  0.013556  0.328815  1
  Al  Al20  1  0.013556  0.328815  0.328815  1
  Al  Al21  1  0.328815  0.328815  0.328815  1
  Os  Os22  1  0.000000  0.000000  0.000000  1
  Os  Os23  1  0.000000  0.000000  0.500000  1
  Os  Os24  1  0.500000  0.000000  0.500000  1
  Os  Os25  1  0.000000  0.500000  0.500000  1
  Os  Os26  1  0.500000  0.500000  0.000000  1
  Os  Os27  1  0.000000  0.500000  0.000000  1
  Os  Os28  1  0.500000  0.000000  0.000000  1
