# generated using pymatgen
data_Dy11Y7Sc2(Cd3Ru)2
_symmetry_space_group_name_H-M   'P 1'
_cell_length_a   9.53842950
_cell_length_b   9.53744555
_cell_length_c   9.77886066
_cell_angle_alpha   89.99999795
_cell_angle_beta   90.03639355
_cell_angle_gamma   119.99659403
_symmetry_Int_Tables_number   1
_chemical_formula_structural   Dy11Y7Sc2(Cd3Ru)2
_chemical_formula_sum   'Dy11 Y7 Sc2 Cd6 Ru2'
_cell_volume   770.44674094
_cell_formula_units_Z   1
loop_
 _symmetry_equiv_pos_site_id
 _symmetry_equiv_pos_as_xyz
  1  'x, y, z'
loop_
 _atom_site_type_symbol
 _atom_site_label
 _atom_site_symmetry_multiplicity
 _atom_site_fract_x
 _atom_site_fract_y
 _atom_site_fract_z
 _atom_site_occupancy
  Dy  Dy0  1  0.208452  0.791606  0.440647  1
  Dy  Dy1  1  0.208452  0.416846  0.440647  1
  Dy  Dy2  1  0.583096  0.791548  0.440714  1
  Dy  Dy3  1  0.791592  0.208450  0.559318  1
  Dy  Dy4  1  0.791592  0.583143  0.559318  1
  Dy  Dy5  1  0.416835  0.208417  0.559294  1
  Dy  Dy6  1  0.791655  0.208550  0.940638  1
  Dy  Dy7  1  0.791655  0.583105  0.940638  1
  Dy  Dy8  1  0.416900  0.208450  0.940689  1
  Dy  Dy9  1  0.208399  0.791533  0.059382  1
  Dy  Dy10  1  0.208399  0.416866  0.059382  1
  Y  Y11  1  0.583656  0.791828  0.058953  1
  Y  Y12  1  0.540920  0.458977  0.250070  1
  Y  Y13  1  0.540920  0.081943  0.250070  1
  Y  Y14  1  0.918162  0.459081  0.250011  1
  Y  Y15  1  0.459075  0.540873  0.749895  1
  Y  Y16  1  0.459075  0.918202  0.749895  1
  Y  Y17  1  0.081865  0.540933  0.750000  1
  Sc  Sc18  1  0.999923  0.999962  0.500086  1
  Sc  Sc19  1  0.000143  0.000071  0.999966  1
  Cd  Cd20  1  0.889105  0.110862  0.249985  1
  Cd  Cd21  1  0.889105  0.778246  0.249985  1
  Cd  Cd22  1  0.221762  0.110882  0.250017  1
  Cd  Cd23  1  0.110847  0.889126  0.749978  1
  Cd  Cd24  1  0.110847  0.221719  0.749978  1
  Cd  Cd25  1  0.778247  0.889123  0.750040  1
  Ru  Ru26  1  0.332692  0.666346  0.250443  1
  Ru  Ru27  1  0.666629  0.333314  0.749960  1
