# generated using pymatgen
data_Hf3MnGa6Re
_symmetry_space_group_name_H-M   'P 1'
_cell_length_a   5.43201515
_cell_length_b   7.74613591
_cell_length_c   8.78472400
_cell_angle_alpha   90.00000000
_cell_angle_beta   90.00000000
_cell_angle_gamma   90.63258458
_symmetry_Int_Tables_number   1
_chemical_formula_structural   Hf3MnGa6Re
_chemical_formula_sum   'Hf6 Mn2 Ga12 Re2'
_cell_volume   369.61342448
_cell_formula_units_Z   2
loop_
 _symmetry_equiv_pos_site_id
 _symmetry_equiv_pos_as_xyz
  1  'x, y, z'
loop_
 _atom_site_type_symbol
 _atom_site_label
 _atom_site_symmetry_multiplicity
 _atom_site_fract_x
 _atom_site_fract_y
 _atom_site_fract_z
 _atom_site_occupancy
  Hf  Hf0  1  0.995569  0.843481  0.721416  1
  Hf  Hf1  1  0.504431  0.156519  0.221416  1
  Hf  Hf2  1  0.991038  0.287633  0.000000  1
  Hf  Hf3  1  0.995569  0.843481  0.278584  1
  Hf  Hf4  1  0.504431  0.156519  0.778584  1
  Hf  Hf5  1  0.508962  0.712367  0.500000  1
  Mn  Mn6  1  0.250000  0.500000  0.750000  1
  Mn  Mn7  1  0.250000  0.500000  0.250000  1
  Ga  Ga8  1  0.008338  0.563192  0.500000  1
  Ga  Ga9  1  0.988862  0.637908  0.000000  1
  Ga  Ga10  1  0.756802  0.966334  0.000000  1
  Ga  Ga11  1  0.006052  0.227187  0.311307  1
  Ga  Ga12  1  0.491662  0.436808  0.000000  1
  Ga  Ga13  1  0.493948  0.772813  0.188693  1
  Ga  Ga14  1  0.264499  0.036643  0.500000  1
  Ga  Ga15  1  0.511138  0.362092  0.500000  1
  Ga  Ga16  1  0.006052  0.227187  0.688693  1
  Ga  Ga17  1  0.493948  0.772813  0.811307  1
  Ga  Ga18  1  0.743198  0.033666  0.500000  1
  Ga  Ga19  1  0.235501  0.963357  0.000000  1
  Re  Re20  1  0.750000  0.500000  0.250000  1
  Re  Re21  1  0.750000  0.500000  0.750000  1
