# generated using pymatgen
data_Sc4Co18As3P9Ru2
_symmetry_space_group_name_H-M   'P 1'
_cell_length_a   3.64777800
_cell_length_b   10.34518792
_cell_length_c   11.73749026
_cell_angle_alpha   90.33817064
_cell_angle_beta   90.00000000
_cell_angle_gamma   90.00000000
_symmetry_Int_Tables_number   1
_chemical_formula_structural   Sc4Co18As3P9Ru2
_chemical_formula_sum   'Sc4 Co18 As3 P9 Ru2'
_cell_volume   442.92935499
_cell_formula_units_Z   1
loop_
 _symmetry_equiv_pos_site_id
 _symmetry_equiv_pos_as_xyz
  1  'x, y, z'
loop_
 _atom_site_type_symbol
 _atom_site_label
 _atom_site_symmetry_multiplicity
 _atom_site_fract_x
 _atom_site_fract_y
 _atom_site_fract_z
 _atom_site_occupancy
  Sc  Sc0  1  0.250000  0.583860  0.699349  1
  Sc  Sc1  1  0.250000  0.916846  0.201953  1
  Sc  Sc2  1  0.750000  0.414635  0.300857  1
  Sc  Sc3  1  0.750000  0.075215  0.801132  1
  Co  Co4  1  0.750000  0.275154  0.012664  1
  Co  Co5  1  0.750000  0.227011  0.500036  1
  Co  Co6  1  0.250000  0.409905  0.482228  1
  Co  Co7  1  0.250000  0.084418  0.991032  1
  Co  Co8  1  0.750000  0.590327  0.512630  1
  Co  Co9  1  0.750000  0.908007  0.015386  1
  Co  Co10  1  0.250000  0.210036  0.181316  1
  Co  Co11  1  0.250000  0.293939  0.672670  1
  Co  Co12  1  0.750000  0.779482  0.823369  1
  Co  Co13  1  0.750000  0.721464  0.323764  1
  Co  Co14  1  0.250000  0.882733  0.703794  1
  Co  Co15  1  0.250000  0.617712  0.203690  1
  Co  Co16  1  0.750000  0.112065  0.300238  1
  Co  Co17  1  0.750000  0.393906  0.795582  1
  Co  Co18  1  0.250000  0.475536  0.925310  1
  Co  Co19  1  0.250000  0.030440  0.426021  1
  Co  Co20  1  0.750000  0.540124  0.067009  1
  Co  Co21  1  0.750000  0.960504  0.567953  1
  As  As22  1  0.250000  0.412350  0.114257  1
  As  As23  1  0.250000  0.087981  0.614912  1
  As  As24  1  0.250000  0.265001  0.870024  1
  P  P25  1  0.750000  0.583202  0.882970  1
  P  P26  1  0.750000  0.919085  0.383817  1
  P  P27  1  0.250000  0.230877  0.369897  1
  P  P28  1  0.750000  0.734253  0.135525  1
  P  P29  1  0.750000  0.765659  0.634089  1
  P  P30  1  0.250000  0.593435  0.387969  1
  P  P31  1  0.250000  0.904733  0.889757  1
  P  P32  1  0.750000  0.404047  0.607561  1
  P  P33  1  0.750000  0.095627  0.112405  1
  Ru  Ru34  1  0.250000  0.719543  0.994781  1
  Ru  Ru35  1  0.250000  0.780888  0.494056  1
