# generated using pymatgen
data_Y4GaGe3Pt8
_symmetry_space_group_name_H-M   'P 1'
_cell_length_a   5.62198385
_cell_length_b   7.13196000
_cell_length_c   7.41118211
_cell_angle_alpha   90.00000000
_cell_angle_beta   89.77856348
_cell_angle_gamma   90.00000000
_symmetry_Int_Tables_number   1
_chemical_formula_structural   Y4GaGe3Pt8
_chemical_formula_sum   'Y4 Ga1 Ge3 Pt8'
_cell_volume   297.15478891
_cell_formula_units_Z   1
loop_
 _symmetry_equiv_pos_site_id
 _symmetry_equiv_pos_as_xyz
  1  'x, y, z'
loop_
 _atom_site_type_symbol
 _atom_site_label
 _atom_site_symmetry_multiplicity
 _atom_site_fract_x
 _atom_site_fract_y
 _atom_site_fract_z
 _atom_site_occupancy
  Y  Y0  1  0.142194  0.250000  0.972079  1
  Y  Y1  1  0.361011  0.250000  0.474027  1
  Y  Y2  1  0.637407  0.750000  0.529374  1
  Y  Y3  1  0.857563  0.750000  0.025609  1
  Ga  Ga4  1  0.361105  0.750000  0.884089  1
  Ge  Ge5  1  0.638335  0.250000  0.117509  1
  Ge  Ge6  1  0.863599  0.250000  0.617104  1
  Ge  Ge7  1  0.135727  0.750000  0.380970  1
  Pt  Pt8  1  0.086021  0.551756  0.685789  1
  Pt  Pt9  1  0.086021  0.948244  0.685789  1
  Pt  Pt10  1  0.414325  0.551690  0.185452  1
  Pt  Pt11  1  0.913368  0.448100  0.314478  1
  Pt  Pt12  1  0.587816  0.448717  0.813901  1
  Pt  Pt13  1  0.913368  0.051900  0.314478  1
  Pt  Pt14  1  0.414325  0.948310  0.185452  1
  Pt  Pt15  1  0.587816  0.051283  0.813901  1
