# generated using pymatgen
data_YbNp3(SbPd)4
_symmetry_space_group_name_H-M   'P 1'
_cell_length_a   7.39239385
_cell_length_b   4.66781000
_cell_length_c   7.94699740
_cell_angle_alpha   90.00000000
_cell_angle_beta   90.06146453
_cell_angle_gamma   90.00000000
_symmetry_Int_Tables_number   1
_chemical_formula_structural   YbNp3(SbPd)4
_chemical_formula_sum   'Yb1 Np3 Sb4 Pd4'
_cell_volume   274.22123861
_cell_formula_units_Z   1
loop_
 _symmetry_equiv_pos_site_id
 _symmetry_equiv_pos_as_xyz
  1  'x, y, z'
loop_
 _atom_site_type_symbol
 _atom_site_label
 _atom_site_symmetry_multiplicity
 _atom_site_fract_x
 _atom_site_fract_y
 _atom_site_fract_z
 _atom_site_occupancy
  Yb  Yb0  1  0.006212  0.749999  0.293023  1
  Np  Np1  1  0.994103  0.250000  0.708627  1
  Np  Np2  1  0.505823  0.749999  0.205366  1
  Np  Np3  1  0.492800  0.250000  0.792762  1
  Sb  Sb4  1  0.295223  0.250000  0.406595  1
  Sb  Sb5  1  0.209434  0.749999  0.906632  1
  Sb  Sb6  1  0.786146  0.250000  0.091444  1
  Sb  Sb7  1  0.707330  0.749999  0.594629  1
  Pd  Pd8  1  0.192054  0.250000  0.080044  1
  Pd  Pd9  1  0.306331  0.749999  0.578043  1
  Pd  Pd10  1  0.696354  0.250000  0.420818  1
  Pd  Pd11  1  0.808189  0.749999  0.922016  1
