# generated using pymatgen
data_YHo2Er5(B6Ru)4
_symmetry_space_group_name_H-M   'P 1'
_cell_length_a   3.64231300
_cell_length_b   9.11241801
_cell_length_c   11.48711700
_cell_angle_alpha   89.99930041
_cell_angle_beta   90.00000000
_cell_angle_gamma   90.00000000
_symmetry_Int_Tables_number   1
_chemical_formula_structural   YHo2Er5(B6Ru)4
_chemical_formula_sum   'Y1 Ho2 Er5 B24 Ru4'
_cell_volume   381.26061322
_cell_formula_units_Z   1
loop_
 _symmetry_equiv_pos_site_id
 _symmetry_equiv_pos_as_xyz
  1  'x, y, z'
loop_
 _atom_site_type_symbol
 _atom_site_label
 _atom_site_symmetry_multiplicity
 _atom_site_fract_x
 _atom_site_fract_y
 _atom_site_fract_z
 _atom_site_occupancy
  Y  Y0  1  0.000000  0.821863  0.085729  1
  Ho  Ho1  1  0.000000  0.321927  0.414253  1
  Ho  Ho2  1  0.000000  0.678079  0.585886  1
  Er  Er3  1  0.000000  0.178165  0.914243  1
  Er  Er4  1  0.000000  0.943667  0.372221  1
  Er  Er5  1  0.000000  0.056463  0.627827  1
  Er  Er6  1  0.000000  0.443381  0.127621  1
  Er  Er7  1  0.000000  0.556302  0.872176  1
  B  B8  1  0.500000  0.553980  0.433189  1
  B  B9  1  0.500000  0.445781  0.567087  1
  B  B10  1  0.500000  0.054563  0.066543  1
  B  B11  1  0.500000  0.946442  0.932853  1
  B  B12  1  0.500000  0.748525  0.419735  1
  B  B13  1  0.500000  0.251424  0.580562  1
  B  B14  1  0.500000  0.248523  0.079913  1
  B  B15  1  0.500000  0.751564  0.919308  1
  B  B16  1  0.500000  0.790991  0.266012  1
  B  B17  1  0.500000  0.208691  0.734558  1
  B  B18  1  0.500000  0.291082  0.233965  1
  B  B19  1  0.500000  0.708977  0.765811  1
  B  B20  1  0.500000  0.630863  0.184762  1
  B  B21  1  0.500000  0.368485  0.815624  1
  B  B22  1  0.500000  0.131300  0.315280  1
  B  B23  1  0.500000  0.869000  0.684723  1
  B  B24  1  0.500000  0.983305  0.212866  1
  B  B25  1  0.500000  0.017524  0.787241  1
  B  B26  1  0.500000  0.482699  0.287069  1
  B  B27  1  0.500000  0.516939  0.713065  1
  B  B28  1  0.500000  0.606484  0.029231  1
  B  B29  1  0.500000  0.392734  0.970493  1
  B  B30  1  0.500000  0.106671  0.470690  1
  B  B31  1  0.500000  0.893451  0.529358  1
  Ru  Ru32  1  0.000000  0.637640  0.320999  1
  Ru  Ru33  1  0.000000  0.361913  0.679413  1
  Ru  Ru34  1  0.000000  0.138138  0.178993  1
  Ru  Ru35  1  0.000000  0.862462  0.820703  1
