# generated using pymatgen
data_MnBe8Al2Tc
_symmetry_space_group_name_H-M   'P 1'
_cell_length_a   4.32968000
_cell_length_b   4.32967838
_cell_length_c   7.03662500
_cell_angle_alpha   90.00000000
_cell_angle_beta   90.00000000
_cell_angle_gamma   120.00001237
_symmetry_Int_Tables_number   1
_chemical_formula_structural   MnBe8Al2Tc
_chemical_formula_sum   'Mn1 Be8 Al2 Tc1'
_cell_volume   114.23690308
_cell_formula_units_Z   1
loop_
 _symmetry_equiv_pos_site_id
 _symmetry_equiv_pos_as_xyz
  1  'x, y, z'
loop_
 _atom_site_type_symbol
 _atom_site_label
 _atom_site_symmetry_multiplicity
 _atom_site_fract_x
 _atom_site_fract_y
 _atom_site_fract_z
 _atom_site_occupancy
  Mn  Mn0  1  0.333333  0.666667  0.435446  1
  Be  Be1  1  0.000000  0.000000  0.998449  1
  Be  Be2  1  0.000000  0.000000  0.502818  1
  Be  Be3  1  0.834364  0.668729  0.254459  1
  Be  Be4  1  0.173234  0.826766  0.746008  1
  Be  Be5  1  0.653531  0.826766  0.746008  1
  Be  Be6  1  0.331271  0.165636  0.254459  1
  Be  Be7  1  0.834364  0.165636  0.254459  1
  Be  Be8  1  0.173234  0.346469  0.746008  1
  Al  Al9  1  0.666667  0.333333  0.549715  1
  Al  Al10  1  0.666667  0.333333  0.948214  1
  Tc  Tc11  1  0.333333  0.666667  0.063959  1
