# generated using pymatgen
data_Li27Al2Si8Hg
_symmetry_space_group_name_H-M   'P 1'
_cell_length_a   9.15342411
_cell_length_b   9.11536169
_cell_length_c   9.10801035
_cell_angle_alpha   108.63401850
_cell_angle_beta   108.59307747
_cell_angle_gamma   111.46520753
_symmetry_Int_Tables_number   1
_chemical_formula_structural   Li27Al2Si8Hg
_chemical_formula_sum   'Li27 Al2 Si8 Hg1'
_cell_volume   582.62047862
_cell_formula_units_Z   1
loop_
 _symmetry_equiv_pos_site_id
 _symmetry_equiv_pos_as_xyz
  1  'x, y, z'
loop_
 _atom_site_type_symbol
 _atom_site_label
 _atom_site_symmetry_multiplicity
 _atom_site_fract_x
 _atom_site_fract_y
 _atom_site_fract_z
 _atom_site_occupancy
  Li  Li0  1  0.258197  0.784376  0.707396  1
  Li  Li1  1  0.182211  0.959096  0.971017  1
  Li  Li2  1  0.988125  0.214785  0.030966  1
  Li  Li3  1  0.039861  0.011816  0.222061  1
  Li  Li4  1  0.788777  0.818593  0.776825  1
  Li  Li5  1  0.453702  0.736071  0.525602  1
  Li  Li6  1  0.211304  0.926907  0.471925  1
  Li  Li7  1  0.722739  0.352499  0.061462  1
  Li  Li8  1  0.962544  0.401682  0.870675  1
  Li  Li9  1  0.292349  0.657563  0.936246  1
  Li  Li10  1  0.528997  0.089476  0.130925  1
  Li  Li11  1  0.685004  0.852012  0.089113  1
  Li  Li12  1  0.488660  0.892917  0.332740  1
  Li  Li13  1  0.560084  0.154970  0.667333  1
  Li  Li14  1  0.764132  0.597714  0.905700  1
  Li  Li15  1  0.841506  0.514130  0.408429  1
  Li  Li16  1  0.404947  0.310216  0.165914  1
  Li  Li17  1  0.143657  0.236592  0.832837  1
  Li  Li18  1  0.106577  0.443837  0.586923  1
  Li  Li19  1  0.909306  0.042288  0.442987  1
  Li  Li20  1  0.338629  0.276759  0.627800  1
  Li  Li21  1  0.599703  0.466375  0.558663  1
  Li  Li22  1  0.645731  0.708710  0.366457  1
  Li  Li23  1  0.997505  0.875196  0.622806  1
  Li  Li24  1  0.254246  0.376844  0.377962  1
  Li  Li25  1  0.127567  0.747311  0.124670  1
  Li  Li26  1  0.623009  0.999271  0.876519  1
  Al  Al27  1  0.499347  0.495305  0.992180  1
  Al  Al28  1  0.750849  0.250971  0.502533  1
  Si  Si29  1  0.296669  0.529308  0.150418  1
  Si  Si30  1  0.376035  0.137291  0.842857  1
  Si  Si31  1  0.954823  0.611871  0.739395  1
  Si  Si32  1  0.867105  0.208035  0.258698  1
  Si  Si33  1  0.386950  0.123068  0.341213  1
  Si  Si34  1  0.781693  0.046187  0.658840  1
  Si  Si35  1  0.467989  0.620239  0.760028  1
  Si  Si36  1  0.853782  0.707426  0.235109  1
  Hg  Hg37  1  0.095688  0.572296  0.326776  1
