# generated using pymatgen
data_Y7Ho(Sc3Pb4)4
_symmetry_space_group_name_H-M   'P 1'
_cell_length_a   8.05223503
_cell_length_b   8.05197628
_cell_length_c   14.66838300
_cell_angle_alpha   90.01502133
_cell_angle_beta   90.00513740
_cell_angle_gamma   89.99780700
_symmetry_Int_Tables_number   1
_chemical_formula_structural   Y7Ho(Sc3Pb4)4
_chemical_formula_sum   'Y7 Ho1 Sc12 Pb16'
_cell_volume   951.04519105
_cell_formula_units_Z   1
loop_
 _symmetry_equiv_pos_site_id
 _symmetry_equiv_pos_as_xyz
  1  'x, y, z'
loop_
 _atom_site_type_symbol
 _atom_site_label
 _atom_site_symmetry_multiplicity
 _atom_site_fract_x
 _atom_site_fract_y
 _atom_site_fract_z
 _atom_site_occupancy
  Y  Y0  1  0.343436  0.990070  0.472204  1
  Y  Y1  1  0.509906  0.843533  0.722309  1
  Y  Y2  1  0.490215  0.156356  0.222026  1
  Y  Y3  1  0.843576  0.509872  0.277782  1
  Y  Y4  1  0.156407  0.490146  0.777828  1
  Y  Y5  1  0.656545  0.009863  0.972344  1
  Y  Y6  1  0.990140  0.343481  0.527818  1
  Ho  Ho7  1  0.010327  0.656253  0.027567  1
  Sc  Sc8  1  0.333784  0.334059  0.000025  1
  Sc  Sc9  1  0.166100  0.833792  0.249825  1
  Sc  Sc10  1  0.833895  0.166133  0.750147  1
  Sc  Sc11  1  0.666089  0.666029  0.500039  1
  Sc  Sc12  1  0.174999  0.001369  0.869563  1
  Sc  Sc13  1  0.498785  0.675181  0.119502  1
  Sc  Sc14  1  0.501063  0.324715  0.619480  1
  Sc  Sc15  1  0.675208  0.499282  0.880882  1
  Sc  Sc16  1  0.324833  0.501165  0.380266  1
  Sc  Sc17  1  0.824947  0.998764  0.369271  1
  Sc  Sc18  1  0.000990  0.175106  0.130622  1
  Sc  Sc19  1  0.998797  0.824658  0.630721  1
  Pb  Pb20  1  0.192793  0.125359  0.666794  1
  Pb  Pb21  1  0.374097  0.692806  0.916843  1
  Pb  Pb22  1  0.625396  0.307128  0.416605  1
  Pb  Pb23  1  0.693035  0.374863  0.083380  1
  Pb  Pb24  1  0.307257  0.625381  0.583259  1
  Pb  Pb25  1  0.807932  0.873598  0.166173  1
  Pb  Pb26  1  0.125531  0.192799  0.333189  1
  Pb  Pb27  1  0.874765  0.807128  0.833677  1
  Pb  Pb28  1  0.289407  0.976237  0.071175  1
  Pb  Pb29  1  0.523850  0.789770  0.321282  1
  Pb  Pb30  1  0.476319  0.210440  0.821519  1
  Pb  Pb31  1  0.789490  0.523574  0.678812  1
  Pb  Pb32  1  0.209579  0.476713  0.178162  1
  Pb  Pb33  1  0.710305  0.023713  0.571367  1
  Pb  Pb34  1  0.976380  0.290360  0.928846  1
  Pb  Pb35  1  0.023819  0.710302  0.428696  1
