# generated using pymatgen
data_Zr3Zn3OsPd2
_symmetry_space_group_name_H-M   'P 1'
_cell_length_a   7.43962200
_cell_length_b   7.43962094
_cell_length_c   3.31034600
_cell_angle_alpha   90.00000000
_cell_angle_beta   90.00000000
_cell_angle_gamma   120.00000352
_symmetry_Int_Tables_number   1
_chemical_formula_structural   Zr3Zn3OsPd2
_chemical_formula_sum   'Zr3 Zn3 Os1 Pd2'
_cell_volume   158.67396837
_cell_formula_units_Z   1
loop_
 _symmetry_equiv_pos_site_id
 _symmetry_equiv_pos_as_xyz
  1  'x, y, z'
loop_
 _atom_site_type_symbol
 _atom_site_label
 _atom_site_symmetry_multiplicity
 _atom_site_fract_x
 _atom_site_fract_y
 _atom_site_fract_z
 _atom_site_occupancy
  Zr  Zr0  1  0.983949  0.387915  0.000000  1
  Zr  Zr1  1  0.612085  0.596034  0.000000  1
  Zr  Zr2  1  0.403966  0.016051  0.000000  1
  Zn  Zn3  1  0.003699  0.727731  0.500000  1
  Zn  Zn4  1  0.272269  0.275968  0.500000  1
  Zn  Zn5  1  0.724032  0.996301  0.500000  1
  Os  Os6  1  0.666667  0.333333  0.500000  1
  Pd  Pd7  1  0.000000  0.000000  0.000000  1
  Pd  Pd8  1  0.333333  0.666667  0.500000  1
