# generated using pymatgen
data_Hf4In2Cu3Rh
_symmetry_space_group_name_H-M   'P 1'
_cell_length_a   7.28378787
_cell_length_b   7.28378787
_cell_length_c   6.79296513
_cell_angle_alpha   90.11669724
_cell_angle_beta   90.11669724
_cell_angle_gamma   89.97775862
_symmetry_Int_Tables_number   1
_chemical_formula_structural   Hf4In2Cu3Rh
_chemical_formula_sum   'Hf8 In4 Cu6 Rh2'
_cell_volume   360.38950012
_cell_formula_units_Z   2
loop_
 _symmetry_equiv_pos_site_id
 _symmetry_equiv_pos_as_xyz
  1  'x, y, z'
loop_
 _atom_site_type_symbol
 _atom_site_label
 _atom_site_symmetry_multiplicity
 _atom_site_fract_x
 _atom_site_fract_y
 _atom_site_fract_z
 _atom_site_occupancy
  Hf  Hf0  1  0.150051  0.150051  0.006414  1
  Hf  Hf1  1  0.849949  0.849949  0.993586  1
  Hf  Hf2  1  0.651178  0.348822  0.500000  1
  Hf  Hf3  1  0.348822  0.651178  0.500000  1
  Hf  Hf4  1  0.684191  0.315809  0.000000  1
  Hf  Hf5  1  0.315809  0.684191  0.000000  1
  Hf  Hf6  1  0.808865  0.808865  0.504651  1
  Hf  Hf7  1  0.191135  0.191135  0.495349  1
  In  In8  1  0.503020  0.998238  0.249620  1
  In  In9  1  0.496980  0.001762  0.750380  1
  In  In10  1  0.998238  0.503020  0.249620  1
  In  In11  1  0.001762  0.496980  0.750380  1
  Cu  Cu12  1  0.631819  0.631819  0.204544  1
  Cu  Cu13  1  0.877989  0.123710  0.707121  1
  Cu  Cu14  1  0.876290  0.122011  0.292879  1
  Cu  Cu15  1  0.368181  0.368181  0.795456  1
  Cu  Cu16  1  0.122011  0.876290  0.292879  1
  Cu  Cu17  1  0.123710  0.877989  0.707121  1
  Rh  Rh18  1  0.376692  0.376692  0.223177  1
  Rh  Rh19  1  0.623308  0.623308  0.776823  1
