# generated using pymatgen
data_ThPa2Sn4Pd3
_symmetry_space_group_name_H-M   'P 1'
_cell_length_a   8.51388569
_cell_length_b   8.51388511
_cell_length_c   8.51388500
_cell_angle_alpha   109.38260836
_cell_angle_beta   109.38260699
_cell_angle_gamma   109.64859649
_symmetry_Int_Tables_number   1
_chemical_formula_structural   ThPa2Sn4Pd3
_chemical_formula_sum   'Th2 Pa4 Sn8 Pd6'
_cell_volume   475.07080729
_cell_formula_units_Z   2
loop_
 _symmetry_equiv_pos_site_id
 _symmetry_equiv_pos_as_xyz
  1  'x, y, z'
loop_
 _atom_site_type_symbol
 _atom_site_label
 _atom_site_symmetry_multiplicity
 _atom_site_fract_x
 _atom_site_fract_y
 _atom_site_fract_z
 _atom_site_occupancy
  Th  Th0  1  0.125000  0.875000  0.250000  1
  Th  Th1  1  0.375000  0.625000  0.750000  1
  Pa  Pa2  1  0.874968  0.250000  0.124968  1
  Pa  Pa3  1  0.625032  0.750000  0.375032  1
  Pa  Pa4  1  0.250000  0.125032  0.875032  1
  Pa  Pa5  1  0.750000  0.374968  0.624968  1
  Sn  Sn6  1  0.676495  0.496950  0.999961  1
  Sn  Sn7  1  0.503011  0.003050  0.679544  1
  Sn  Sn8  1  0.996989  0.676534  0.500039  1
  Sn  Sn9  1  0.823505  0.823466  0.820456  1
  Sn  Sn10  1  0.503050  0.003011  0.179544  1
  Sn  Sn11  1  0.176534  0.496989  0.000039  1
  Sn  Sn12  1  0.996950  0.176495  0.499961  1
  Sn  Sn13  1  0.323466  0.323505  0.320456  1
  Pd  Pd14  1  0.376857  0.250000  0.626857  1
  Pd  Pd15  1  0.123143  0.750000  0.873143  1
  Pd  Pd16  1  0.250000  0.623143  0.373143  1
  Pd  Pd17  1  0.750000  0.876857  0.126857  1
  Pd  Pd18  1  0.625000  0.375000  0.250000  1
  Pd  Pd19  1  0.875000  0.125000  0.750000  1
