# generated using pymatgen
data_Dy3Ho2Er3Ga3Co
_symmetry_space_group_name_H-M   'P 1'
_cell_length_a   9.97477900
_cell_length_b   9.97575574
_cell_length_c   6.93444800
_cell_angle_alpha   89.99953680
_cell_angle_beta   90.00071142
_cell_angle_gamma   119.99575409
_symmetry_Int_Tables_number   1
_chemical_formula_structural   Dy3Ho2Er3Ga3Co
_chemical_formula_sum   'Dy6 Ho4 Er6 Ga6 Co2'
_cell_volume   597.59945978
_cell_formula_units_Z   2
loop_
 _symmetry_equiv_pos_site_id
 _symmetry_equiv_pos_as_xyz
  1  'x, y, z'
loop_
 _atom_site_type_symbol
 _atom_site_label
 _atom_site_symmetry_multiplicity
 _atom_site_fract_x
 _atom_site_fract_y
 _atom_site_fract_z
 _atom_site_occupancy
  Dy  Dy0  1  0.463261  0.926536  0.207824  1
  Dy  Dy1  1  0.536524  0.463491  0.707705  1
  Dy  Dy2  1  0.926969  0.463495  0.707697  1
  Dy  Dy3  1  0.536593  0.073180  0.707801  1
  Dy  Dy4  1  0.000014  0.000026  0.231625  1
  Dy  Dy5  1  0.999977  0.999968  0.731632  1
  Ho  Ho6  1  0.333218  0.666428  0.827243  1
  Ho  Ho7  1  0.666780  0.333548  0.326825  1
  Ho  Ho8  1  0.463122  0.536783  0.207670  1
  Ho  Ho9  1  0.073660  0.536778  0.207676  1
  Er  Er10  1  0.172902  0.826861  0.511168  1
  Er  Er11  1  0.653965  0.826886  0.511153  1
  Er  Er12  1  0.173115  0.346248  0.510913  1
  Er  Er13  1  0.827197  0.173104  0.011462  1
  Er  Er14  1  0.345916  0.173106  0.011501  1
  Er  Er15  1  0.826983  0.653961  0.011599  1
  Ga  Ga16  1  0.163268  0.836516  0.958846  1
  Ga  Ga17  1  0.673243  0.836501  0.958865  1
  Ga  Ga18  1  0.163447  0.326889  0.959038  1
  Ga  Ga19  1  0.836709  0.163350  0.458664  1
  Ga  Ga20  1  0.326635  0.163337  0.458647  1
  Ga  Ga21  1  0.836672  0.673339  0.458574  1
  Co  Co22  1  0.333156  0.666318  0.445108  1
  Co  Co23  1  0.666675  0.333352  0.945599  1
