# generated using pymatgen
data_Eu2Si2AsPt3
_symmetry_space_group_name_H-M   'P 1'
_cell_length_a   4.18703747
_cell_length_b   4.24631600
_cell_length_c   9.11738969
_cell_angle_alpha   90.00000000
_cell_angle_beta   103.27459291
_cell_angle_gamma   90.00000000
_symmetry_Int_Tables_number   1
_chemical_formula_structural   Eu2Si2AsPt3
_chemical_formula_sum   'Eu2 Si2 As1 Pt3'
_cell_volume   157.77123552
_cell_formula_units_Z   1
loop_
 _symmetry_equiv_pos_site_id
 _symmetry_equiv_pos_as_xyz
  1  'x, y, z'
loop_
 _atom_site_type_symbol
 _atom_site_label
 _atom_site_symmetry_multiplicity
 _atom_site_fract_x
 _atom_site_fract_y
 _atom_site_fract_z
 _atom_site_occupancy
  Eu  Eu0  1  0.600732  0.250000  0.201462  1
  Eu  Eu1  1  0.398934  0.750000  0.797869  1
  Si  Si2  1  0.821508  0.250000  0.643015  1
  Si  Si3  1  0.175094  0.750000  0.350187  1
  As  As4  1  0.960865  0.250000  0.921731  1
  Pt  Pt5  1  0.042199  0.750000  0.084397  1
  Pt  Pt6  1  0.250206  0.250000  0.500411  1
  Pt  Pt7  1  0.750463  0.750000  0.500927  1
