# generated using pymatgen
data_Sr19CePt16
_symmetry_space_group_name_H-M   'P 1'
_cell_length_a   7.95283097
_cell_length_b   8.10741573
_cell_length_c   15.61885200
_cell_angle_alpha   90.08525732
_cell_angle_beta   90.09939986
_cell_angle_gamma   90.06191513
_symmetry_Int_Tables_number   1
_chemical_formula_structural   Sr19CePt16
_chemical_formula_sum   'Sr19 Ce1 Pt16'
_cell_volume   1007.05204515
_cell_formula_units_Z   1
loop_
 _symmetry_equiv_pos_site_id
 _symmetry_equiv_pos_as_xyz
  1  'x, y, z'
loop_
 _atom_site_type_symbol
 _atom_site_label
 _atom_site_symmetry_multiplicity
 _atom_site_fract_x
 _atom_site_fract_y
 _atom_site_fract_z
 _atom_site_occupancy
  Sr  Sr0  1  0.171692  0.328004  0.377627  1
  Sr  Sr1  1  0.329182  0.827513  0.622086  1
  Sr  Sr2  1  0.830458  0.672346  0.881139  1
  Sr  Sr3  1  0.490151  0.322570  0.904928  1
  Sr  Sr4  1  0.986278  0.181799  0.598265  1
  Sr  Sr5  1  0.512333  0.681946  0.402495  1
  Sr  Sr6  1  0.010194  0.820685  0.094931  1
  Sr  Sr7  1  0.508554  0.676789  0.097733  1
  Sr  Sr8  1  0.014734  0.816545  0.404197  1
  Sr  Sr9  1  0.486333  0.319731  0.598110  1
  Sr  Sr10  1  0.989248  0.183667  0.900599  1
  Sr  Sr11  1  0.168199  0.493103  0.750738  1
  Sr  Sr12  1  0.668276  0.011159  0.749751  1
  Sr  Sr13  1  0.834182  0.513037  0.250099  1
  Sr  Sr14  1  0.325117  0.987996  0.250507  1
  Sr  Sr15  1  0.332105  0.832388  0.881852  1
  Sr  Sr16  1  0.828428  0.674014  0.621945  1
  Sr  Sr17  1  0.671486  0.172555  0.378214  1
  Sr  Sr18  1  0.165507  0.328028  0.118280  1
  Ce  Ce19  1  0.667916  0.166663  0.123285  1
  Pt  Pt20  1  0.361048  0.035439  0.047156  1
  Pt  Pt21  1  0.843633  0.476687  0.457012  1
  Pt  Pt22  1  0.655731  0.974198  0.540691  1
  Pt  Pt23  1  0.150578  0.531114  0.960335  1
  Pt  Pt24  1  0.682157  0.979291  0.972990  1
  Pt  Pt25  1  0.156064  0.526225  0.541151  1
  Pt  Pt26  1  0.342070  0.025043  0.457633  1
  Pt  Pt27  1  0.818277  0.440967  0.041128  1
  Pt  Pt28  1  0.539466  0.610364  0.753362  1
  Pt  Pt29  1  0.039835  0.896185  0.751819  1
  Pt  Pt30  1  0.471151  0.375139  0.237832  1
  Pt  Pt31  1  0.948865  0.117107  0.240691  1
  Pt  Pt32  1  0.286270  0.132101  0.751725  1
  Pt  Pt33  1  0.782435  0.371063  0.750542  1
  Pt  Pt34  1  0.705646  0.877425  0.240132  1
  Pt  Pt35  1  0.226398  0.621114  0.249022  1
