# generated using pymatgen
data_DyY3Zr6(In2Pt)4
_symmetry_space_group_name_H-M   'P 1'
_cell_length_a   3.58078100
_cell_length_b   7.79613433
_cell_length_c   17.70540275
_cell_angle_alpha   90.03336410
_cell_angle_beta   90.00000000
_cell_angle_gamma   90.00000000
_symmetry_Int_Tables_number   1
_chemical_formula_structural   DyY3Zr6(In2Pt)4
_chemical_formula_sum   'Dy1 Y3 Zr6 In8 Pt4'
_cell_volume   494.26836014
_cell_formula_units_Z   1
loop_
 _symmetry_equiv_pos_site_id
 _symmetry_equiv_pos_as_xyz
  1  'x, y, z'
loop_
 _atom_site_type_symbol
 _atom_site_label
 _atom_site_symmetry_multiplicity
 _atom_site_fract_x
 _atom_site_fract_y
 _atom_site_fract_z
 _atom_site_occupancy
  Dy  Dy0  1  0.000000  0.745024  0.282178  1
  Y  Y1  1  0.000000  0.244641  0.217552  1
  Y  Y2  1  0.000000  0.755333  0.782525  1
  Y  Y3  1  0.000000  0.255307  0.717488  1
  Zr  Zr4  1  0.000000  0.126173  0.421406  1
  Zr  Zr5  1  0.000000  0.873719  0.578537  1
  Zr  Zr6  1  0.000000  0.373824  0.921512  1
  Zr  Zr7  1  0.000000  0.626213  0.078644  1
  Zr  Zr8  1  0.000000  0.000040  0.999993  1
  Zr  Zr9  1  0.000000  0.499984  0.500001  1
  In  In10  1  0.500000  0.422947  0.354059  1
  In  In11  1  0.500000  0.577240  0.646000  1
  In  In12  1  0.500000  0.077365  0.853978  1
  In  In13  1  0.500000  0.922799  0.145964  1
  In  In14  1  0.500000  0.295772  0.061033  1
  In  In15  1  0.500000  0.704294  0.939057  1
  In  In16  1  0.500000  0.204131  0.560934  1
  In  In17  1  0.500000  0.795608  0.438933  1
  Pt  Pt18  1  0.500000  0.036544  0.309861  1
  Pt  Pt19  1  0.500000  0.962130  0.689954  1
  Pt  Pt20  1  0.500000  0.462236  0.810097  1
  Pt  Pt21  1  0.500000  0.538676  0.190294  1
