# generated using pymatgen
data_Dy3Er3CrCo17P12
_symmetry_space_group_name_H-M   'P 1'
_cell_length_a   3.68404800
_cell_length_b   10.51179200
_cell_length_c   12.17765100
_cell_angle_alpha   89.99727760
_cell_angle_beta   90.00000000
_cell_angle_gamma   90.00000000
_symmetry_Int_Tables_number   1
_chemical_formula_structural   Dy3Er3CrCo17P12
_chemical_formula_sum   'Dy3 Er3 Cr1 Co17 P12'
_cell_volume   471.59105835
_cell_formula_units_Z   1
loop_
 _symmetry_equiv_pos_site_id
 _symmetry_equiv_pos_as_xyz
  1  'x, y, z'
loop_
 _atom_site_type_symbol
 _atom_site_label
 _atom_site_symmetry_multiplicity
 _atom_site_fract_x
 _atom_site_fract_y
 _atom_site_fract_z
 _atom_site_occupancy
  Dy  Dy0  1  0.750000  0.250032  0.476769  1
  Dy  Dy1  1  0.250000  0.749960  0.522802  1
  Dy  Dy2  1  0.750000  0.067950  0.204380  1
  Er  Er3  1  0.250000  0.932006  0.793503  1
  Er  Er4  1  0.250000  0.567969  0.793652  1
  Er  Er5  1  0.750000  0.432299  0.204395  1
  Cr  Cr6  1  0.250000  0.249994  0.844424  1
  Co  Co7  1  0.750000  0.749948  0.160558  1
  Co  Co8  1  0.250000  0.250518  0.296743  1
  Co  Co9  1  0.750000  0.749964  0.703895  1
  Co  Co10  1  0.750000  0.250154  0.012061  1
  Co  Co11  1  0.250000  0.749876  0.985315  1
  Co  Co12  1  0.250000  0.417524  0.006773  1
  Co  Co13  1  0.250000  0.082598  0.006434  1
  Co  Co14  1  0.750000  0.583352  0.994024  1
  Co  Co15  1  0.750000  0.916508  0.993822  1
  Co  Co16  1  0.250000  0.453495  0.569491  1
  Co  Co17  1  0.250000  0.046540  0.569549  1
  Co  Co18  1  0.750000  0.546723  0.430751  1
  Co  Co19  1  0.750000  0.953200  0.431009  1
  Co  Co20  1  0.250000  0.870854  0.291415  1
  Co  Co21  1  0.250000  0.628598  0.291199  1
  Co  Co22  1  0.750000  0.129154  0.709205  1
  Co  Co23  1  0.750000  0.370872  0.709171  1
  P  P24  1  0.250000  0.250486  0.117616  1
  P  P25  1  0.750000  0.749971  0.882283  1
  P  P26  1  0.250000  0.250004  0.653669  1
  P  P27  1  0.750000  0.750052  0.344352  1
  P  P28  1  0.250000  0.438886  0.383234  1
  P  P29  1  0.250000  0.061040  0.383846  1
  P  P30  1  0.750000  0.561360  0.616134  1
  P  P31  1  0.750000  0.938593  0.616142  1
  P  P32  1  0.250000  0.900664  0.107785  1
  P  P33  1  0.250000  0.598839  0.108181  1
  P  P34  1  0.750000  0.095615  0.892765  1
  P  P35  1  0.750000  0.404401  0.892658  1
