# generated using pymatgen
data_CeYInRh2
_symmetry_space_group_name_H-M   'P 1'
_cell_length_a   7.67081600
_cell_length_b   7.67081600
_cell_length_c   3.69785200
_cell_angle_alpha   90.00000000
_cell_angle_beta   90.00000000
_cell_angle_gamma   86.17408613
_symmetry_Int_Tables_number   1
_chemical_formula_structural   CeYInRh2
_chemical_formula_sum   'Ce2 Y2 In2 Rh4'
_cell_volume   217.10193989
_cell_formula_units_Z   2
loop_
 _symmetry_equiv_pos_site_id
 _symmetry_equiv_pos_as_xyz
  1  'x, y, z'
loop_
 _atom_site_type_symbol
 _atom_site_label
 _atom_site_symmetry_multiplicity
 _atom_site_fract_x
 _atom_site_fract_y
 _atom_site_fract_z
 _atom_site_occupancy
  Ce  Ce0  1  0.169989  0.330011  0.500000  1
  Ce  Ce1  1  0.830011  0.669989  0.500000  1
  Y  Y2  1  0.668752  0.168752  0.500000  1
  Y  Y3  1  0.331248  0.831248  0.500000  1
  In  In4  1  0.000000  0.000000  0.000000  1
  In  In5  1  0.500000  0.500000  0.000000  1
  Rh  Rh6  1  0.128064  0.628064  0.000000  1
  Rh  Rh7  1  0.871936  0.371936  0.000000  1
  Rh  Rh8  1  0.642459  0.857541  0.000000  1
  Rh  Rh9  1  0.357541  0.142459  0.000000  1
