# generated using pymatgen
data_TbNbB6Ru
_symmetry_space_group_name_H-M   'P 1'
_cell_length_a   3.49169900
_cell_length_b   9.01845700
_cell_length_c   11.31517200
_cell_angle_alpha   90.00000000
_cell_angle_beta   90.00000000
_cell_angle_gamma   90.00000000
_symmetry_Int_Tables_number   1
_chemical_formula_structural   TbNbB6Ru
_chemical_formula_sum   'Tb4 Nb4 B24 Ru4'
_cell_volume   356.31179365
_cell_formula_units_Z   4
loop_
 _symmetry_equiv_pos_site_id
 _symmetry_equiv_pos_as_xyz
  1  'x, y, z'
loop_
 _atom_site_type_symbol
 _atom_site_label
 _atom_site_symmetry_multiplicity
 _atom_site_fract_x
 _atom_site_fract_y
 _atom_site_fract_z
 _atom_site_occupancy
  Tb  Tb0  1  0.000000  0.323063  0.413247  1
  Tb  Tb1  1  0.000000  0.676937  0.586753  1
  Tb  Tb2  1  0.000000  0.823063  0.086753  1
  Tb  Tb3  1  0.000000  0.176937  0.913247  1
  Nb  Nb4  1  0.000000  0.946429  0.375084  1
  Nb  Nb5  1  0.000000  0.053571  0.624916  1
  Nb  Nb6  1  0.000000  0.446429  0.124916  1
  Nb  Nb7  1  0.000000  0.553571  0.875084  1
  B  B8  1  0.500000  0.554722  0.433766  1
  B  B9  1  0.500000  0.445278  0.566234  1
  B  B10  1  0.500000  0.054722  0.066234  1
  B  B11  1  0.500000  0.945278  0.933766  1
  B  B12  1  0.500000  0.754546  0.418218  1
  B  B13  1  0.500000  0.245454  0.581782  1
  B  B14  1  0.500000  0.254546  0.081782  1
  B  B15  1  0.500000  0.745454  0.918218  1
  B  B16  1  0.500000  0.798343  0.263299  1
  B  B17  1  0.500000  0.201657  0.736701  1
  B  B18  1  0.500000  0.298343  0.236701  1
  B  B19  1  0.500000  0.701657  0.763299  1
  B  B20  1  0.500000  0.629459  0.181703  1
  B  B21  1  0.500000  0.370541  0.818297  1
  B  B22  1  0.500000  0.129459  0.318297  1
  B  B23  1  0.500000  0.870541  0.681703  1
  B  B24  1  0.500000  0.981466  0.213977  1
  B  B25  1  0.500000  0.018534  0.786023  1
  B  B26  1  0.500000  0.481466  0.286023  1
  B  B27  1  0.500000  0.518534  0.713977  1
  B  B28  1  0.500000  0.599638  0.026467  1
  B  B29  1  0.500000  0.400362  0.973533  1
  B  B30  1  0.500000  0.099638  0.473533  1
  B  B31  1  0.500000  0.900362  0.526467  1
  Ru  Ru32  1  0.000000  0.643950  0.317549  1
  Ru  Ru33  1  0.000000  0.356050  0.682451  1
  Ru  Ru34  1  0.000000  0.143950  0.182451  1
  Ru  Ru35  1  0.000000  0.856050  0.817549  1
