# generated using pymatgen
data_TbDy5(WO7)2
_symmetry_space_group_name_H-M   'P 1'
_cell_length_a   6.48210317
_cell_length_b   6.48205115
_cell_length_c   7.48975801
_cell_angle_alpha   89.99468217
_cell_angle_beta   90.00537177
_cell_angle_gamma   109.09782000
_symmetry_Int_Tables_number   1
_chemical_formula_structural   TbDy5(WO7)2
_chemical_formula_sum   'Tb1 Dy5 W2 O14'
_cell_volume   297.37895221
_cell_formula_units_Z   1
loop_
 _symmetry_equiv_pos_site_id
 _symmetry_equiv_pos_as_xyz
  1  'x, y, z'
loop_
 _atom_site_type_symbol
 _atom_site_label
 _atom_site_symmetry_multiplicity
 _atom_site_fract_x
 _atom_site_fract_y
 _atom_site_fract_z
 _atom_site_occupancy
  Tb  Tb0  1  0.518628  0.518629  0.250000  1
  Dy  Dy1  1  0.480812  0.480813  0.750000  1
  Dy  Dy2  1  0.998636  0.466836  0.497523  1
  Dy  Dy3  1  0.533157  0.001387  0.502784  1
  Dy  Dy4  1  0.001388  0.533158  0.997210  1
  Dy  Dy5  1  0.466837  0.998635  0.002483  1
  W  W6  1  0.000890  0.000893  0.249999  1
  W  W7  1  0.999090  0.999092  0.750001  1
  O  O8  1  0.066763  0.318134  0.217641  1
  O  O9  1  0.681931  0.933178  0.782359  1
  O  O10  1  0.933176  0.681918  0.717642  1
  O  O11  1  0.318149  0.066767  0.282358  1
  O  O12  1  0.674864  0.919195  0.222200  1
  O  O13  1  0.081315  0.325271  0.777770  1
  O  O14  1  0.325261  0.081312  0.722230  1
  O  O15  1  0.919199  0.674878  0.277801  1
  O  O16  1  0.368529  0.631394  0.500742  1
  O  O17  1  0.631397  0.368530  0.999257  1
  O  O18  1  0.363111  0.636870  0.999376  1
  O  O19  1  0.636871  0.363111  0.500623  1
  O  O20  1  0.925143  0.074854  0.499984  1
  O  O21  1  0.074854  0.925144  0.000016  1
