# generated using pymatgen
data_Ho5Lu3(Ga3Pt)4
_symmetry_space_group_name_H-M   'P 1'
_cell_length_a   8.83455900
_cell_length_b   8.83455953
_cell_length_c   6.97838100
_cell_angle_alpha   90.00000000
_cell_angle_beta   90.00000000
_cell_angle_gamma   120.00061591
_symmetry_Int_Tables_number   1
_chemical_formula_structural   Ho5Lu3(Ga3Pt)4
_chemical_formula_sum   'Ho5 Lu3 Ga12 Pt4'
_cell_volume   471.68535273
_cell_formula_units_Z   1
loop_
 _symmetry_equiv_pos_site_id
 _symmetry_equiv_pos_as_xyz
  1  'x, y, z'
loop_
 _atom_site_type_symbol
 _atom_site_label
 _atom_site_symmetry_multiplicity
 _atom_site_fract_x
 _atom_site_fract_y
 _atom_site_fract_z
 _atom_site_occupancy
  Ho  Ho0  1  0.000109  0.999891  0.250000  1
  Ho  Ho1  1  0.999890  0.000110  0.750000  1
  Ho  Ho2  1  0.519953  0.040008  0.250000  1
  Ho  Ho3  1  0.519855  0.480145  0.250000  1
  Ho  Ho4  1  0.959992  0.480047  0.250000  1
  Lu  Lu5  1  0.479338  0.958599  0.750000  1
  Lu  Lu6  1  0.479467  0.520533  0.750000  1
  Lu  Lu7  1  0.041401  0.520662  0.750000  1
  Ga  Ga8  1  0.167032  0.334195  0.045960  1
  Ga  Ga9  1  0.167206  0.832794  0.454062  1
  Ga  Ga10  1  0.665805  0.832968  0.454040  1
  Ga  Ga11  1  0.665805  0.832968  0.045960  1
  Ga  Ga12  1  0.167206  0.832794  0.045938  1
  Ga  Ga13  1  0.832795  0.665466  0.951927  1
  Ga  Ga14  1  0.832623  0.167377  0.951938  1
  Ga  Ga15  1  0.334534  0.167205  0.951927  1
  Ga  Ga16  1  0.167032  0.334195  0.454040  1
  Ga  Ga17  1  0.334534  0.167205  0.548073  1
  Ga  Ga18  1  0.832795  0.665466  0.548073  1
  Ga  Ga19  1  0.832623  0.167377  0.548062  1
  Pt  Pt20  1  0.333435  0.666565  0.025458  1
  Pt  Pt21  1  0.333435  0.666565  0.474542  1
  Pt  Pt22  1  0.666568  0.333432  0.967660  1
  Pt  Pt23  1  0.666568  0.333432  0.532340  1
