# generated using pymatgen
data_Tb5Dy11Cd4Ir3Pt
_symmetry_space_group_name_H-M   'P 1'
_cell_length_a   9.63659594
_cell_length_b   9.63609066
_cell_length_c   9.63608994
_cell_angle_alpha   60.22294922
_cell_angle_beta   60.21688915
_cell_angle_gamma   60.21688878
_symmetry_Int_Tables_number   1
_chemical_formula_structural   Tb5Dy11Cd4Ir3Pt
_chemical_formula_sum   'Tb5 Dy11 Cd4 Ir3 Pt1'
_cell_volume   635.85421751
_cell_formula_units_Z   1
loop_
 _symmetry_equiv_pos_site_id
 _symmetry_equiv_pos_as_xyz
  1  'x, y, z'
loop_
 _atom_site_type_symbol
 _atom_site_label
 _atom_site_symmetry_multiplicity
 _atom_site_fract_x
 _atom_site_fract_y
 _atom_site_fract_z
 _atom_site_occupancy
  Tb  Tb0  1  0.813286  0.187937  0.187937  1
  Tb  Tb1  1  0.812920  0.188264  0.812623  1
  Tb  Tb2  1  0.187839  0.813333  0.187590  1
  Tb  Tb3  1  0.812920  0.812623  0.188264  1
  Tb  Tb4  1  0.187839  0.187590  0.813333  1
  Dy  Dy5  1  0.597791  0.597624  0.597624  1
  Dy  Dy6  1  0.602210  0.602349  0.199780  1
  Dy  Dy7  1  0.602210  0.199780  0.602349  1
  Dy  Dy8  1  0.199623  0.602326  0.602326  1
  Dy  Dy9  1  0.056035  0.440272  0.440272  1
  Dy  Dy10  1  0.437428  0.060649  0.060649  1
  Dy  Dy11  1  0.440075  0.056087  0.440388  1
  Dy  Dy12  1  0.060688  0.437681  0.060560  1
  Dy  Dy13  1  0.440075  0.440388  0.056087  1
  Dy  Dy14  1  0.060688  0.060560  0.437681  1
  Dy  Dy15  1  0.188825  0.812395  0.812395  1
  Cd  Cd16  1  0.831068  0.830715  0.830715  1
  Cd  Cd17  1  0.830640  0.830739  0.506714  1
  Cd  Cd18  1  0.830640  0.506714  0.830739  1
  Cd  Cd19  1  0.506385  0.830708  0.830708  1
  Ir  Ir20  1  0.391791  0.392262  0.824405  1
  Ir  Ir21  1  0.391791  0.824405  0.392262  1
  Ir  Ir22  1  0.824519  0.391877  0.391877  1
  Pt  Pt23  1  0.392712  0.392723  0.392723  1
