# generated using pymatgen
data_Nd6Er4Tl5InCl2
_symmetry_space_group_name_H-M   'P 1'
_cell_length_a   9.35362222
_cell_length_b   9.35406580
_cell_length_c   6.71760800
_cell_angle_alpha   90.00000000
_cell_angle_beta   90.00000000
_cell_angle_gamma   119.97600782
_symmetry_Int_Tables_number   1
_chemical_formula_structural   Nd6Er4Tl5InCl2
_chemical_formula_sum   'Nd6 Er4 Tl5 In1 Cl2'
_cell_volume   509.13210043
_cell_formula_units_Z   1
loop_
 _symmetry_equiv_pos_site_id
 _symmetry_equiv_pos_as_xyz
  1  'x, y, z'
loop_
 _atom_site_type_symbol
 _atom_site_label
 _atom_site_symmetry_multiplicity
 _atom_site_fract_x
 _atom_site_fract_y
 _atom_site_fract_z
 _atom_site_occupancy
  Nd  Nd0  1  0.737987  0.737997  0.250000  1
  Nd  Nd1  1  0.999166  0.737783  0.750000  1
  Nd  Nd2  1  0.737796  0.999176  0.750000  1
  Nd  Nd3  1  0.261716  0.261706  0.750000  1
  Nd  Nd4  1  0.000105  0.262114  0.250000  1
  Nd  Nd5  1  0.262136  0.000142  0.250000  1
  Er  Er6  1  0.334340  0.666422  0.500402  1
  Er  Er7  1  0.666524  0.334454  0.500401  1
  Er  Er8  1  0.334340  0.666422  0.999598  1
  Er  Er9  1  0.666524  0.334454  0.999599  1
  Tl  Tl10  1  0.395811  0.999774  0.750000  1
  Tl  Tl11  1  0.000090  0.603868  0.250000  1
  Tl  Tl12  1  0.603726  0.999968  0.250000  1
  Tl  Tl13  1  0.999773  0.395743  0.750000  1
  Tl  Tl14  1  0.396019  0.395989  0.250000  1
  In  In15  1  0.603679  0.603727  0.750000  1
  Cl  Cl16  1  0.000134  0.000132  0.499922  1
  Cl  Cl17  1  0.000134  0.000132  0.000078  1
