# generated using pymatgen
data_Mg3ScP7N12
_symmetry_space_group_name_H-M   'P 1'
_cell_length_a   7.27255189
_cell_length_b   7.27255252
_cell_length_c   7.27255257
_cell_angle_alpha   109.51935107
_cell_angle_beta   109.51935201
_cell_angle_gamma   109.51934288
_symmetry_Int_Tables_number   1
_chemical_formula_structural   Mg3ScP7N12
_chemical_formula_sum   'Mg3 Sc1 P7 N12'
_cell_volume   295.57138562
_cell_formula_units_Z   1
loop_
 _symmetry_equiv_pos_site_id
 _symmetry_equiv_pos_as_xyz
  1  'x, y, z'
loop_
 _atom_site_type_symbol
 _atom_site_label
 _atom_site_symmetry_multiplicity
 _atom_site_fract_x
 _atom_site_fract_y
 _atom_site_fract_z
 _atom_site_occupancy
  Mg  Mg0  1  0.000911  0.659340  0.000911  1
  Mg  Mg1  1  0.659340  0.000911  0.000911  1
  Mg  Mg2  1  0.000911  0.000911  0.659340  1
  Sc  Sc3  1  0.341034  0.341034  0.341034  1
  P  P4  1  0.500618  0.249700  0.752394  1
  P  P5  1  0.500618  0.752394  0.249700  1
  P  P6  1  0.752394  0.249700  0.500618  1
  P  P7  1  0.249700  0.500618  0.752394  1
  P  P8  1  0.752394  0.500618  0.249700  1
  P  P9  1  0.249700  0.752394  0.500618  1
  P  P10  1  0.999434  0.999434  0.999434  1
  N  N11  1  0.000187  0.724130  0.435842  1
  N  N12  1  0.275905  0.705168  0.275905  1
  N  N13  1  0.284962  0.565344  0.565344  1
  N  N14  1  0.565344  0.565344  0.284962  1
  N  N15  1  0.565344  0.284962  0.565344  1
  N  N16  1  0.724130  0.000187  0.435842  1
  N  N17  1  0.435842  0.000187  0.724130  1
  N  N18  1  0.724130  0.435842  0.000187  1
  N  N19  1  0.275905  0.275905  0.705168  1
  N  N20  1  0.705168  0.275905  0.275905  1
  N  N21  1  0.000187  0.435842  0.724130  1
  N  N22  1  0.435842  0.724130  0.000187  1
