# generated using pymatgen
data_Pr3NdRe5TcB12
_symmetry_space_group_name_H-M   'P 1'
_cell_length_a   6.33317592
_cell_length_b   6.32937739
_cell_length_c   7.65088773
_cell_angle_alpha   90.66100768
_cell_angle_beta   90.53986260
_cell_angle_gamma   114.66878529
_symmetry_Int_Tables_number   1
_chemical_formula_structural   Pr3NdRe5TcB12
_chemical_formula_sum   'Pr3 Nd1 Re5 Tc1 B12'
_cell_volume   278.64403076
_cell_formula_units_Z   1
loop_
 _symmetry_equiv_pos_site_id
 _symmetry_equiv_pos_as_xyz
  1  'x, y, z'
loop_
 _atom_site_type_symbol
 _atom_site_label
 _atom_site_symmetry_multiplicity
 _atom_site_fract_x
 _atom_site_fract_y
 _atom_site_fract_z
 _atom_site_occupancy
  Pr  Pr0  1  0.093694  0.441446  0.326033  1
  Pr  Pr1  1  0.558292  0.906302  0.173756  1
  Pr  Pr2  1  0.906836  0.558896  0.673171  1
  Nd  Nd3  1  0.441428  0.094292  0.826105  1
  Re  Re4  1  0.416229  0.584225  0.750278  1
  Re  Re5  1  0.989442  0.805349  0.087916  1
  Re  Re6  1  0.194771  0.010749  0.412045  1
  Re  Re7  1  0.010661  0.194881  0.911759  1
  Re  Re8  1  0.804452  0.989596  0.588166  1
  Tc  Tc9  1  0.583964  0.415885  0.249981  1
  B  B10  1  0.242458  0.153076  0.131943  1
  B  B11  1  0.846794  0.758340  0.367396  1
  B  B12  1  0.756439  0.847096  0.867891  1
  B  B13  1  0.153304  0.242556  0.632474  1
  B  B14  1  0.582375  0.155860  0.482866  1
  B  B15  1  0.843684  0.416966  0.017475  1
  B  B16  1  0.415237  0.841438  0.520698  1
  B  B17  1  0.158987  0.584674  0.979823  1
  B  B18  1  0.440927  0.349463  0.532959  1
  B  B19  1  0.650296  0.558784  0.967308  1
  B  B20  1  0.559907  0.650258  0.467112  1
  B  B21  1  0.349822  0.439867  0.032847  1
