# generated using pymatgen
data_Ce2Ga9Os2Pt
_symmetry_space_group_name_H-M   'P 1'
_cell_length_a   7.62456724
_cell_length_b   7.62456573
_cell_length_c   9.50953200
_cell_angle_alpha   89.90161843
_cell_angle_beta   89.90162597
_cell_angle_gamma   119.36255576
_symmetry_Int_Tables_number   1
_chemical_formula_structural   Ce2Ga9Os2Pt
_chemical_formula_sum   'Ce4 Ga18 Os4 Pt2'
_cell_volume   481.80521709
_cell_formula_units_Z   2
loop_
 _symmetry_equiv_pos_site_id
 _symmetry_equiv_pos_as_xyz
  1  'x, y, z'
loop_
 _atom_site_type_symbol
 _atom_site_label
 _atom_site_symmetry_multiplicity
 _atom_site_fract_x
 _atom_site_fract_y
 _atom_site_fract_z
 _atom_site_occupancy
  Ce  Ce0  1  0.998170  0.673004  0.254646  1
  Ce  Ce1  1  0.001830  0.326996  0.745354  1
  Ce  Ce2  1  0.673004  0.998170  0.254646  1
  Ce  Ce3  1  0.326996  0.001830  0.745354  1
  Ga  Ga4  1  0.130379  0.130379  0.249981  1
  Ga  Ga5  1  0.869621  0.869621  0.750019  1
  Ga  Ga6  1  0.002374  0.332896  0.082034  1
  Ga  Ga7  1  0.997626  0.667104  0.917966  1
  Ga  Ga8  1  0.996591  0.663491  0.579753  1
  Ga  Ga9  1  0.336509  0.003409  0.420247  1
  Ga  Ga10  1  0.003409  0.336509  0.420247  1
  Ga  Ga11  1  0.663491  0.996591  0.579753  1
  Ga  Ga12  1  0.667104  0.997626  0.917966  1
  Ga  Ga13  1  0.332896  0.002374  0.082034  1
  Ga  Ga14  1  0.333809  0.333809  0.555795  1
  Ga  Ga15  1  0.666191  0.666191  0.444205  1
  Ga  Ga16  1  0.671822  0.671822  0.066311  1
  Ga  Ga17  1  0.328178  0.328178  0.933689  1
  Ga  Ga18  1  0.343448  0.546779  0.253038  1
  Ga  Ga19  1  0.656552  0.453221  0.746962  1
  Ga  Ga20  1  0.546779  0.343448  0.253038  1
  Ga  Ga21  1  0.453221  0.656552  0.746962  1
  Os  Os22  1  0.326931  0.673069  0.500000  1
  Os  Os23  1  0.673069  0.326931  0.500000  1
  Os  Os24  1  0.000000  0.000000  0.000000  1
  Os  Os25  1  0.000000  0.000000  0.500000  1
  Pt  Pt26  1  0.670914  0.329086  0.000000  1
  Pt  Pt27  1  0.329086  0.670914  0.000000  1
