# generated using pymatgen
data_HoCoF7
_symmetry_space_group_name_H-M   'P 1'
_cell_length_a   5.36072000
_cell_length_b   8.64820521
_cell_length_c   11.57503500
_cell_angle_alpha   62.19561378
_cell_angle_beta   90.00000000
_cell_angle_gamma   90.00000000
_symmetry_Int_Tables_number   1
_chemical_formula_structural   HoCoF7
_chemical_formula_sum   'Ho4 Co4 F28'
_cell_volume   474.66967474
_cell_formula_units_Z   4
loop_
 _symmetry_equiv_pos_site_id
 _symmetry_equiv_pos_as_xyz
  1  'x, y, z'
loop_
 _atom_site_type_symbol
 _atom_site_label
 _atom_site_symmetry_multiplicity
 _atom_site_fract_x
 _atom_site_fract_y
 _atom_site_fract_z
 _atom_site_occupancy
  Ho  Ho0  1  0.762706  0.809909  0.764886  1
  Ho  Ho1  1  0.262706  0.190091  0.735114  1
  Ho  Ho2  1  0.237294  0.190091  0.235114  1
  Ho  Ho3  1  0.737294  0.809909  0.264886  1
  Co  Co4  1  0.757647  0.273758  0.956875  1
  Co  Co5  1  0.257647  0.726242  0.543125  1
  Co  Co6  1  0.242353  0.726242  0.043125  1
  Co  Co7  1  0.742353  0.273758  0.456875  1
  F  F8  1  0.426695  0.705290  0.920593  1
  F  F9  1  0.926695  0.294710  0.579407  1
  F  F10  1  0.573305  0.294710  0.079407  1
  F  F11  1  0.073305  0.705290  0.420593  1
  F  F12  1  0.455605  0.281852  0.538587  1
  F  F13  1  0.955605  0.718148  0.961413  1
  F  F14  1  0.544395  0.718148  0.461413  1
  F  F15  1  0.044395  0.281852  0.038587  1
  F  F16  1  0.770765  0.508802  0.862921  1
  F  F17  1  0.270765  0.491198  0.637079  1
  F  F18  1  0.229235  0.491198  0.137079  1
  F  F19  1  0.729235  0.508802  0.362921  1
  F  F20  1  0.757034  0.040101  0.044638  1
  F  F21  1  0.257034  0.959899  0.455362  1
  F  F22  1  0.242966  0.959899  0.955362  1
  F  F23  1  0.742966  0.040101  0.544638  1
  F  F24  1  0.976165  0.727661  0.629682  1
  F  F25  1  0.476165  0.272339  0.870318  1
  F  F26  1  0.023835  0.272339  0.370318  1
  F  F27  1  0.523835  0.727661  0.129682  1
  F  F28  1  0.059317  0.741536  0.170483  1
  F  F29  1  0.559317  0.258464  0.329517  1
  F  F30  1  0.940683  0.258464  0.829517  1
  F  F31  1  0.440683  0.741536  0.670483  1
  F  F32  1  0.403733  0.968778  0.227515  1
  F  F33  1  0.903733  0.031222  0.272485  1
  F  F34  1  0.596267  0.031222  0.772485  1
  F  F35  1  0.096267  0.968778  0.727515  1
