# generated using pymatgen
data_Sm5ErFe4(Co7P6)2
_symmetry_space_group_name_H-M   'P 1'
_cell_length_a   3.73370600
_cell_length_b   10.60135934
_cell_length_c   12.21544420
_cell_angle_alpha   90.03977987
_cell_angle_beta   90.00000000
_cell_angle_gamma   90.00000000
_symmetry_Int_Tables_number   1
_chemical_formula_structural   Sm5ErFe4(Co7P6)2
_chemical_formula_sum   'Sm5 Er1 Fe4 Co14 P12'
_cell_volume   483.51598052
_cell_formula_units_Z   1
loop_
 _symmetry_equiv_pos_site_id
 _symmetry_equiv_pos_as_xyz
  1  'x, y, z'
loop_
 _atom_site_type_symbol
 _atom_site_label
 _atom_site_symmetry_multiplicity
 _atom_site_fract_x
 _atom_site_fract_y
 _atom_site_fract_z
 _atom_site_occupancy
  Sm  Sm0  1  0.750000  0.250463  0.477931  1
  Sm  Sm1  1  0.250000  0.750015  0.521267  1
  Sm  Sm2  1  0.250000  0.930846  0.796397  1
  Sm  Sm3  1  0.250000  0.568744  0.795030  1
  Sm  Sm4  1  0.750000  0.069731  0.204663  1
  Er  Er5  1  0.750000  0.431061  0.203804  1
  Fe  Fe6  1  0.250000  0.251302  0.846509  1
  Fe  Fe7  1  0.750000  0.748581  0.154389  1
  Fe  Fe8  1  0.750000  0.251166  0.012164  1
  Fe  Fe9  1  0.250000  0.748776  0.990501  1
  Co  Co10  1  0.250000  0.252362  0.297319  1
  Co  Co11  1  0.750000  0.749407  0.701703  1
  Co  Co12  1  0.250000  0.418392  0.006476  1
  Co  Co13  1  0.250000  0.083014  0.005627  1
  Co  Co14  1  0.750000  0.580637  0.996391  1
  Co  Co15  1  0.750000  0.917768  0.995982  1
  Co  Co16  1  0.250000  0.453906  0.567654  1
  Co  Co17  1  0.250000  0.046800  0.570099  1
  Co  Co18  1  0.750000  0.546031  0.427484  1
  Co  Co19  1  0.750000  0.953931  0.430224  1
  Co  Co20  1  0.250000  0.869475  0.290033  1
  Co  Co21  1  0.250000  0.628391  0.288183  1
  Co  Co22  1  0.750000  0.130224  0.710741  1
  Co  Co23  1  0.750000  0.369821  0.709171  1
  P  P24  1  0.250000  0.252235  0.114969  1
  P  P25  1  0.750000  0.749194  0.887614  1
  P  P26  1  0.250000  0.249781  0.661344  1
  P  P27  1  0.750000  0.750117  0.338568  1
  P  P28  1  0.250000  0.442059  0.380942  1
  P  P29  1  0.250000  0.058128  0.384658  1
  P  P30  1  0.750000  0.557147  0.613885  1
  P  P31  1  0.750000  0.942419  0.615681  1
  P  P32  1  0.250000  0.901900  0.105519  1
  P  P33  1  0.250000  0.595820  0.106666  1
  P  P34  1  0.750000  0.098732  0.895882  1
  P  P35  1  0.750000  0.401623  0.894530  1
