# generated using pymatgen
data_RbTiF4
_symmetry_space_group_name_H-M   'P 1'
_cell_length_a   7.97309900
_cell_length_b   6.86127559
_cell_length_c   8.08545166
_cell_angle_alpha   72.58656571
_cell_angle_beta   90.00000000
_cell_angle_gamma   90.00000000
_symmetry_Int_Tables_number   1
_chemical_formula_structural   RbTiF4
_chemical_formula_sum   'Rb4 Ti4 F16'
_cell_volume   422.04829267
_cell_formula_units_Z   4
loop_
 _symmetry_equiv_pos_site_id
 _symmetry_equiv_pos_as_xyz
  1  'x, y, z'
loop_
 _atom_site_type_symbol
 _atom_site_label
 _atom_site_symmetry_multiplicity
 _atom_site_fract_x
 _atom_site_fract_y
 _atom_site_fract_z
 _atom_site_occupancy
  Rb  Rb0  1  0.250000  0.543174  0.865302  1
  Rb  Rb1  1  0.250000  0.550855  0.365046  1
  Rb  Rb2  1  0.750000  0.456826  0.134698  1
  Rb  Rb3  1  0.750000  0.449145  0.634954  1
  Ti  Ti4  1  0.500000  0.000000  0.000000  1
  Ti  Ti5  1  0.000000  0.000000  0.000000  1
  Ti  Ti6  1  0.000000  0.000000  0.500000  1
  Ti  Ti7  1  0.500000  0.000000  0.500000  1
  F  F8  1  0.250000  0.046939  0.506151  1
  F  F9  1  0.039759  0.708514  0.070907  1
  F  F10  1  0.463255  0.707166  0.577472  1
  F  F11  1  0.518494  0.002396  0.749231  1
  F  F12  1  0.750000  0.948799  0.030700  1
  F  F13  1  0.460241  0.708514  0.070907  1
  F  F14  1  0.960241  0.291486  0.929093  1
  F  F15  1  0.250000  0.051201  0.969300  1
  F  F16  1  0.536745  0.292834  0.422528  1
  F  F17  1  0.963255  0.292834  0.422528  1
  F  F18  1  0.018494  0.997604  0.250769  1
  F  F19  1  0.481506  0.997604  0.250769  1
  F  F20  1  0.981506  0.002396  0.749231  1
  F  F21  1  0.036745  0.707166  0.577472  1
  F  F22  1  0.539759  0.291486  0.929093  1
  F  F23  1  0.750000  0.953061  0.493849  1
