# generated using pymatgen
data_Nb3MoPb4O13
_symmetry_space_group_name_H-M   'P 1'
_cell_length_a   7.59719930
_cell_length_b   7.59719759
_cell_length_c   7.59719731
_cell_angle_alpha   60.36679477
_cell_angle_beta   60.36679822
_cell_angle_gamma   60.36680520
_symmetry_Int_Tables_number   1
_chemical_formula_structural   Nb3MoPb4O13
_chemical_formula_sum   'Nb3 Mo1 Pb4 O13'
_cell_volume   312.63222481
_cell_formula_units_Z   1
loop_
 _symmetry_equiv_pos_site_id
 _symmetry_equiv_pos_as_xyz
  1  'x, y, z'
loop_
 _atom_site_type_symbol
 _atom_site_label
 _atom_site_symmetry_multiplicity
 _atom_site_fract_x
 _atom_site_fract_y
 _atom_site_fract_z
 _atom_site_occupancy
  Nb  Nb0  1  0.002588  0.501988  0.501988  1
  Nb  Nb1  1  0.501988  0.501988  0.002588  1
  Nb  Nb2  1  0.501988  0.002588  0.501988  1
  Mo  Mo3  1  0.502023  0.502023  0.502023  1
  Pb  Pb4  1  0.001020  0.001020  0.001020  1
  Pb  Pb5  1  0.499321  0.009921  0.009921  1
  Pb  Pb6  1  0.009921  0.009921  0.499321  1
  Pb  Pb7  1  0.009921  0.499321  0.009921  1
  O  O8  1  0.847997  0.413174  0.413174  1
  O  O9  1  0.429385  0.811080  0.811080  1
  O  O10  1  0.413174  0.413174  0.847997  1
  O  O11  1  0.811080  0.811080  0.429385  1
  O  O12  1  0.811080  0.429385  0.811080  1
  O  O13  1  0.413174  0.847997  0.413174  1
  O  O14  1  0.171904  0.568121  0.568121  1
  O  O15  1  0.572189  0.183386  0.183386  1
  O  O16  1  0.568121  0.568121  0.171904  1
  O  O17  1  0.183386  0.183386  0.572189  1
  O  O18  1  0.183386  0.572189  0.183386  1
  O  O19  1  0.568121  0.171904  0.568121  1
  O  O20  1  0.123234  0.123234  0.123234  1
