# generated using pymatgen
data_Y6Ni19P13Ir
_symmetry_space_group_name_H-M   'P 1'
_cell_length_a   12.71346000
_cell_length_b   12.71345971
_cell_length_c   3.76658100
_cell_angle_alpha   90.00000000
_cell_angle_beta   90.00000000
_cell_angle_gamma   120.00000074
_symmetry_Int_Tables_number   1
_chemical_formula_structural   Y6Ni19P13Ir
_chemical_formula_sum   'Y6 Ni19 P13 Ir1'
_cell_volume   527.23648010
_cell_formula_units_Z   1
loop_
 _symmetry_equiv_pos_site_id
 _symmetry_equiv_pos_as_xyz
  1  'x, y, z'
loop_
 _atom_site_type_symbol
 _atom_site_label
 _atom_site_symmetry_multiplicity
 _atom_site_fract_x
 _atom_site_fract_y
 _atom_site_fract_z
 _atom_site_occupancy
  Y  Y0  1  0.466094  0.184809  0.000000  1
  Y  Y1  1  0.718715  0.533906  0.000000  1
  Y  Y2  1  0.815191  0.281285  0.000000  1
  Y  Y3  1  0.530959  0.812634  0.500000  1
  Y  Y4  1  0.281676  0.469041  0.500000  1
  Y  Y5  1  0.187366  0.718324  0.500000  1
  Ni  Ni6  1  0.333333  0.666667  0.000000  1
  Ni  Ni7  1  0.194615  0.090383  0.000000  1
  Ni  Ni8  1  0.895769  0.805385  0.000000  1
  Ni  Ni9  1  0.909617  0.104231  0.000000  1
  Ni  Ni10  1  0.849876  0.927684  0.500000  1
  Ni  Ni11  1  0.077808  0.150124  0.500000  1
  Ni  Ni12  1  0.072316  0.922192  0.500000  1
  Ni  Ni13  1  0.436822  0.417061  0.000000  1
  Ni  Ni14  1  0.980240  0.563178  0.000000  1
  Ni  Ni15  1  0.582939  0.019760  0.000000  1
  Ni  Ni16  1  0.564436  0.589173  0.500000  1
  Ni  Ni17  1  0.024737  0.435564  0.500000  1
  Ni  Ni18  1  0.410827  0.975263  0.500000  1
  Ni  Ni19  1  0.078272  0.319806  0.000000  1
  Ni  Ni20  1  0.241533  0.921728  0.000000  1
  Ni  Ni21  1  0.680194  0.758467  0.000000  1
  Ni  Ni22  1  0.931638  0.686060  0.500000  1
  Ni  Ni23  1  0.754422  0.068362  0.500000  1
  Ni  Ni24  1  0.313940  0.245578  0.500000  1
  P  P25  1  0.233305  0.281739  0.000000  1
  P  P26  1  0.048434  0.766695  0.000000  1
  P  P27  1  0.718261  0.951566  0.000000  1
  P  P28  1  0.767972  0.722994  0.500000  1
  P  P29  1  0.955022  0.232028  0.500000  1
  P  P30  1  0.277006  0.044978  0.500000  1
  P  P31  1  0.476856  0.615613  0.000000  1
  P  P32  1  0.138757  0.523144  0.000000  1
  P  P33  1  0.384387  0.861243  0.000000  1
  P  P34  1  0.517187  0.388736  0.500000  1
  P  P35  1  0.871549  0.482813  0.500000  1
  P  P36  1  0.611264  0.128451  0.500000  1
  P  P37  1  0.000000  0.000000  0.000000  1
  Ir  Ir38  1  0.666667  0.333333  0.500000  1
