# generated using pymatgen
data_CePr5Al18(Si3Os4)2
_symmetry_space_group_name_H-M   'P 1'
_cell_length_a   8.85147173
_cell_length_b   8.78517845
_cell_length_c   9.64165100
_cell_angle_alpha   90.00000000
_cell_angle_beta   90.00000000
_cell_angle_gamma   120.33001575
_symmetry_Int_Tables_number   1
_chemical_formula_structural   CePr5Al18(Si3Os4)2
_chemical_formula_sum   'Ce1 Pr5 Al18 Si6 Os8'
_cell_volume   647.13406094
_cell_formula_units_Z   1
loop_
 _symmetry_equiv_pos_site_id
 _symmetry_equiv_pos_as_xyz
  1  'x, y, z'
loop_
 _atom_site_type_symbol
 _atom_site_label
 _atom_site_symmetry_multiplicity
 _atom_site_fract_x
 _atom_site_fract_y
 _atom_site_fract_z
 _atom_site_occupancy
  Ce  Ce0  1  0.803206  0.191680  0.750000  1
  Pr  Pr1  1  0.191762  0.382887  0.250000  1
  Pr  Pr2  1  0.808859  0.617578  0.750000  1
  Pr  Pr3  1  0.615285  0.810139  0.250000  1
  Pr  Pr4  1  0.383696  0.189223  0.750000  1
  Pr  Pr5  1  0.194705  0.810260  0.250000  1
  Al  Al6  1  0.164373  0.329522  0.578188  1
  Al  Al7  1  0.834868  0.669078  0.423463  1
  Al  Al8  1  0.671408  0.835544  0.575781  1
  Al  Al9  1  0.834868  0.669078  0.076537  1
  Al  Al10  1  0.330082  0.165424  0.426114  1
  Al  Al11  1  0.164373  0.329522  0.921812  1
  Al  Al12  1  0.164384  0.834463  0.574537  1
  Al  Al13  1  0.330082  0.165424  0.073886  1
  Al  Al14  1  0.836076  0.164821  0.427227  1
  Al  Al15  1  0.671408  0.835544  0.924219  1
  Al  Al16  1  0.836076  0.164821  0.072773  1
  Al  Al17  1  0.164384  0.834463  0.925463  1
  Al  Al18  1  0.870103  0.430840  0.250000  1
  Al  Al19  1  0.130532  0.568885  0.750000  1
  Al  Al20  1  0.561632  0.431285  0.250000  1
  Al  Al21  1  0.438516  0.568580  0.750000  1
  Al  Al22  1  0.998696  0.998041  0.250000  1
  Al  Al23  1  0.998079  0.003853  0.750000  1
  Si  Si24  1  0.331583  0.663429  0.031732  1
  Si  Si25  1  0.667807  0.336733  0.965258  1
  Si  Si26  1  0.667807  0.336733  0.534742  1
  Si  Si27  1  0.331583  0.663429  0.468268  1
  Si  Si28  1  0.564828  0.129445  0.250000  1
  Si  Si29  1  0.436404  0.871673  0.750000  1
  Os  Os30  1  0.501943  0.001057  0.997604  1
  Os  Os31  1  0.998810  0.497931  0.997746  1
  Os  Os32  1  0.501943  0.001057  0.502396  1
  Os  Os33  1  0.500039  0.500214  0.999532  1
  Os  Os34  1  0.998810  0.497931  0.502254  1
  Os  Os35  1  0.500039  0.500214  0.500468  1
  Os  Os36  1  0.000476  0.999600  0.999972  1
  Os  Os37  1  0.000476  0.999600  0.500028  1
