# generated using pymatgen
data_Lu3In3CuNiIr
_symmetry_space_group_name_H-M   'P 1'
_cell_length_a   7.58245100
_cell_length_b   7.58245145
_cell_length_c   3.65926400
_cell_angle_alpha   90.00000000
_cell_angle_beta   90.00000000
_cell_angle_gamma   120.00000122
_symmetry_Int_Tables_number   1
_chemical_formula_structural   Lu3In3CuNiIr
_chemical_formula_sum   'Lu3 In3 Cu1 Ni1 Ir1'
_cell_volume   182.19800624
_cell_formula_units_Z   1
loop_
 _symmetry_equiv_pos_site_id
 _symmetry_equiv_pos_as_xyz
  1  'x, y, z'
loop_
 _atom_site_type_symbol
 _atom_site_label
 _atom_site_symmetry_multiplicity
 _atom_site_fract_x
 _atom_site_fract_y
 _atom_site_fract_z
 _atom_site_occupancy
  Lu  Lu0  1  0.586442  0.982864  0.000000  1
  Lu  Lu1  1  0.017136  0.603578  0.000000  1
  Lu  Lu2  1  0.396422  0.413558  0.000000  1
  In  In3  1  0.260346  0.008999  0.500000  1
  In  In4  1  0.991001  0.251347  0.500000  1
  In  In5  1  0.748653  0.739654  0.500000  1
  Cu  Cu6  1  0.666667  0.333333  0.500000  1
  Ni  Ni7  1  0.000000  0.000000  0.000000  1
  Ir  Ir8  1  0.333333  0.666667  0.500000  1
