# generated using pymatgen
data_YCoSnH
_symmetry_space_group_name_H-M   'P 1'
_cell_length_a   4.28886500
_cell_length_b   7.13448900
_cell_length_c   8.16827800
_cell_angle_alpha   90.00000000
_cell_angle_beta   90.00000000
_cell_angle_gamma   90.00000000
_symmetry_Int_Tables_number   1
_chemical_formula_structural   YCoSnH
_chemical_formula_sum   'Y4 Co4 Sn4 H4'
_cell_volume   249.93999631
_cell_formula_units_Z   4
loop_
 _symmetry_equiv_pos_site_id
 _symmetry_equiv_pos_as_xyz
  1  'x, y, z'
loop_
 _atom_site_type_symbol
 _atom_site_label
 _atom_site_symmetry_multiplicity
 _atom_site_fract_x
 _atom_site_fract_y
 _atom_site_fract_z
 _atom_site_occupancy
  Y  Y0  1  0.750000  0.012163  0.687200  1
  Y  Y1  1  0.250000  0.987837  0.312800  1
  Y  Y2  1  0.250000  0.487837  0.187200  1
  Y  Y3  1  0.750000  0.512163  0.812800  1
  Co  Co4  1  0.750000  0.777370  0.102237  1
  Co  Co5  1  0.250000  0.222630  0.897763  1
  Co  Co6  1  0.250000  0.722630  0.602237  1
  Co  Co7  1  0.750000  0.277370  0.397763  1
  Sn  Sn8  1  0.750000  0.657103  0.425940  1
  Sn  Sn9  1  0.250000  0.342897  0.574060  1
  Sn  Sn10  1  0.250000  0.842897  0.925940  1
  Sn  Sn11  1  0.750000  0.157103  0.074060  1
  H  H12  1  0.250000  0.443080  0.919669  1
  H  H13  1  0.750000  0.556920  0.080331  1
  H  H14  1  0.750000  0.056920  0.419669  1
  H  H15  1  0.250000  0.943080  0.580331  1
