# generated using pymatgen
data_KV2Ag3Te8
_symmetry_space_group_name_H-M   'P 1'
_cell_length_a   11.63310308
_cell_length_b   11.63310208
_cell_length_c   10.88114635
_cell_angle_alpha   84.70950316
_cell_angle_beta   84.70950306
_cell_angle_gamma   15.55008257
_symmetry_Int_Tables_number   1
_chemical_formula_structural   KV2Ag3Te8
_chemical_formula_sum   'K1 V2 Ag3 Te8'
_cell_volume   393.04509006
_cell_formula_units_Z   1
loop_
 _symmetry_equiv_pos_site_id
 _symmetry_equiv_pos_as_xyz
  1  'x, y, z'
loop_
 _atom_site_type_symbol
 _atom_site_label
 _atom_site_symmetry_multiplicity
 _atom_site_fract_x
 _atom_site_fract_y
 _atom_site_fract_z
 _atom_site_occupancy
  K  K0  1  0.491695  0.491695  0.517660  1
  V  V1  1  0.999186  0.999186  0.001179  1
  V  V2  1  0.665173  0.665173  0.007423  1
  Ag  Ag3  1  0.348002  0.348002  0.985380  1
  Ag  Ag4  1  0.264575  0.264575  0.380976  1
  Ag  Ag5  1  0.718915  0.718915  0.616661  1
  Te  Te6  1  0.435034  0.435034  0.173860  1
  Te  Te7  1  0.927840  0.927840  0.807454  1
  Te  Te8  1  0.843119  0.843119  0.522893  1
  Te  Te9  1  0.759993  0.759993  0.152899  1
  Te  Te10  1  0.238862  0.238862  0.845535  1
  Te  Te11  1  0.138407  0.138407  0.477343  1
  Te  Te12  1  0.091589  0.091589  0.163274  1
  Te  Te13  1  0.577611  0.577611  0.847461  1
