# generated using pymatgen
data_Tb2Ho2Re5Os3
_symmetry_space_group_name_H-M   'P 1'
_cell_length_a   5.35322802
_cell_length_b   5.27842764
_cell_length_c   9.07464255
_cell_angle_alpha   89.99999958
_cell_angle_beta   89.97391944
_cell_angle_gamma   119.53881341
_symmetry_Int_Tables_number   1
_chemical_formula_structural   Tb2Ho2Re5Os3
_chemical_formula_sum   'Tb2 Ho2 Re5 Os3'
_cell_volume   223.08993433
_cell_formula_units_Z   1
loop_
 _symmetry_equiv_pos_site_id
 _symmetry_equiv_pos_as_xyz
  1  'x, y, z'
loop_
 _atom_site_type_symbol
 _atom_site_label
 _atom_site_symmetry_multiplicity
 _atom_site_fract_x
 _atom_site_fract_y
 _atom_site_fract_z
 _atom_site_occupancy
  Tb  Tb0  1  0.668329  0.334164  0.436093  1
  Tb  Tb1  1  0.334455  0.667228  0.562687  1
  Ho  Ho2  1  0.334148  0.667075  0.937274  1
  Ho  Ho3  1  0.668467  0.334233  0.063828  1
  Re  Re4  1  0.162160  0.829150  0.248943  1
  Re  Re5  1  0.162160  0.333010  0.248943  1
  Re  Re6  1  0.344076  0.172038  0.751206  1
  Re  Re7  1  0.831288  0.169986  0.751237  1
  Re  Re8  1  0.831288  0.661302  0.751237  1
  Os  Os9  1  0.009608  0.004804  0.499651  1
  Os  Os10  1  0.009807  0.004903  0.000333  1
  Os  Os11  1  0.644214  0.822107  0.248567  1
