# generated using pymatgen
data_Li4Pr(ThPb2)2
_symmetry_space_group_name_H-M   'P 1'
_cell_length_a   4.81492079
_cell_length_b   7.41589286
_cell_length_c   8.89701942
_cell_angle_alpha   114.63037108
_cell_angle_beta   105.69948819
_cell_angle_gamma   90.00000054
_symmetry_Int_Tables_number   1
_chemical_formula_structural   Li4Pr(ThPb2)2
_chemical_formula_sum   'Li4 Pr1 Th2 Pb4'
_cell_volume   275.68952007
_cell_formula_units_Z   1
loop_
 _symmetry_equiv_pos_site_id
 _symmetry_equiv_pos_as_xyz
  1  'x, y, z'
loop_
 _atom_site_type_symbol
 _atom_site_label
 _atom_site_symmetry_multiplicity
 _atom_site_fract_x
 _atom_site_fract_y
 _atom_site_fract_z
 _atom_site_occupancy
  Li  Li0  1  0.672447  0.988162  0.344894  1
  Li  Li1  1  0.328080  0.013819  0.656161  1
  Li  Li2  1  0.328080  0.642342  0.656161  1
  Li  Li3  1  0.672447  0.356732  0.344894  1
  Pr  Pr4  1  0.874836  0.374836  0.749673  1
  Th  Th5  1  0.000319  0.000319  0.000636  1
  Th  Th6  1  0.123629  0.623629  0.247257  1
  Pb  Pb7  1  0.501355  0.711007  0.002710  1
  Pb  Pb8  1  0.501355  0.291703  0.002710  1
  Pb  Pb9  1  0.782307  0.782307  0.564613  1
  Pb  Pb10  1  0.215145  0.215145  0.430291  1
