# generated using pymatgen
data_Pr8Cd(Si4Rh)3
_symmetry_space_group_name_H-M   'P 1'
_cell_length_a   8.31408900
_cell_length_b   8.31408900
_cell_length_c   8.59563300
_cell_angle_alpha   90.00000000
_cell_angle_beta   90.00000000
_cell_angle_gamma   120.00000396
_symmetry_Int_Tables_number   1
_chemical_formula_structural   Pr8Cd(Si4Rh)3
_chemical_formula_sum   'Pr8 Cd1 Si12 Rh3'
_cell_volume   514.56212652
_cell_formula_units_Z   1
loop_
 _symmetry_equiv_pos_site_id
 _symmetry_equiv_pos_as_xyz
  1  'x, y, z'
loop_
 _atom_site_type_symbol
 _atom_site_label
 _atom_site_symmetry_multiplicity
 _atom_site_fract_x
 _atom_site_fract_y
 _atom_site_fract_z
 _atom_site_occupancy
  Pr  Pr0  1  0.000000  0.000000  0.746967  1
  Pr  Pr1  1  0.000000  0.000000  0.253321  1
  Pr  Pr2  1  0.495727  0.504273  0.743211  1
  Pr  Pr3  1  0.495727  0.991454  0.743211  1
  Pr  Pr4  1  0.008546  0.504273  0.743211  1
  Pr  Pr5  1  0.497474  0.502526  0.256588  1
  Pr  Pr6  1  0.005052  0.502526  0.256588  1
  Pr  Pr7  1  0.497474  0.994948  0.256588  1
  Cd  Cd8  1  0.666667  0.333333  0.996355  1
  Si  Si9  1  0.843194  0.156806  0.000191  1
  Si  Si10  1  0.843194  0.686387  0.000191  1
  Si  Si11  1  0.313613  0.156806  0.000191  1
  Si  Si12  1  0.832420  0.167580  0.500760  1
  Si  Si13  1  0.832420  0.664839  0.500760  1
  Si  Si14  1  0.335161  0.167580  0.500760  1
  Si  Si15  1  0.166187  0.833813  0.499346  1
  Si  Si16  1  0.667627  0.833813  0.499346  1
  Si  Si17  1  0.166187  0.332373  0.499346  1
  Si  Si18  1  0.169543  0.830457  0.000430  1
  Si  Si19  1  0.660914  0.830457  0.000430  1
  Si  Si20  1  0.169543  0.339086  0.000430  1
  Rh  Rh21  1  0.666667  0.333333  0.502424  1
  Rh  Rh22  1  0.333333  0.666667  0.497509  1
  Rh  Rh23  1  0.333333  0.666667  0.001849  1
