# generated using pymatgen
data_Ho7Er(ThRh)6
_symmetry_space_group_name_H-M   'P 1'
_cell_length_a   9.85003900
_cell_length_b   9.75882970
_cell_length_c   6.33837426
_cell_angle_alpha   90.07584903
_cell_angle_beta   90.00000000
_cell_angle_gamma   120.30966232
_symmetry_Int_Tables_number   1
_chemical_formula_structural   Ho7Er(ThRh)6
_chemical_formula_sum   'Ho7 Er1 Th6 Rh6'
_cell_volume   525.99311365
_cell_formula_units_Z   1
loop_
 _symmetry_equiv_pos_site_id
 _symmetry_equiv_pos_as_xyz
  1  'x, y, z'
loop_
 _atom_site_type_symbol
 _atom_site_label
 _atom_site_symmetry_multiplicity
 _atom_site_fract_x
 _atom_site_fract_y
 _atom_site_fract_z
 _atom_site_occupancy
  Ho  Ho0  1  0.872699  0.745398  0.740722  1
  Ho  Ho1  1  0.539836  0.463174  0.445634  1
  Ho  Ho2  1  0.923339  0.463174  0.445634  1
  Ho  Ho3  1  0.538542  0.077083  0.445025  1
  Ho  Ho4  1  0.461886  0.540644  0.940759  1
  Ho  Ho5  1  0.078757  0.540644  0.940759  1
  Ho  Ho6  1  0.460556  0.921113  0.941602  1
  Er  Er7  1  0.333037  0.666076  0.462019  1
  Th  Th8  1  0.666498  0.332996  0.959467  1
  Th  Th9  1  0.127857  0.869010  0.243437  1
  Th  Th10  1  0.741153  0.869010  0.243437  1
  Th  Th11  1  0.129584  0.259168  0.242340  1
  Th  Th12  1  0.869380  0.125004  0.738969  1
  Th  Th13  1  0.255624  0.125004  0.738969  1
  Rh  Rh14  1  0.813664  0.185185  0.195418  1
  Rh  Rh15  1  0.371519  0.185185  0.195418  1
  Rh  Rh16  1  0.813870  0.627741  0.196904  1
  Rh  Rh17  1  0.191758  0.818948  0.693180  1
  Rh  Rh18  1  0.627191  0.818948  0.693180  1
  Rh  Rh19  1  0.183249  0.366497  0.700668  1
