# generated using pymatgen
data_RbMn3NiO8
_symmetry_space_group_name_H-M   'P 1'
_cell_length_a   5.80177885
_cell_length_b   5.80177906
_cell_length_c   7.21820353
_cell_angle_alpha   68.57490876
_cell_angle_beta   68.57490722
_cell_angle_gamma   60.64965579
_symmetry_Int_Tables_number   1
_chemical_formula_structural   RbMn3NiO8
_chemical_formula_sum   'Rb1 Mn3 Ni1 O8'
_cell_volume   191.88312834
_cell_formula_units_Z   1
loop_
 _symmetry_equiv_pos_site_id
 _symmetry_equiv_pos_as_xyz
  1  'x, y, z'
loop_
 _atom_site_type_symbol
 _atom_site_label
 _atom_site_symmetry_multiplicity
 _atom_site_fract_x
 _atom_site_fract_y
 _atom_site_fract_z
 _atom_site_occupancy
  Rb  Rb0  1  0.500000  0.500000  0.500000  1
  Mn  Mn1  1  0.000000  0.000000  0.000000  1
  Mn  Mn2  1  0.000000  0.500000  0.000000  1
  Mn  Mn3  1  0.500000  0.000000  0.000000  1
  Ni  Ni4  1  0.500000  0.500000  0.000000  1
  O  O5  1  0.710260  0.710260  0.853510  1
  O  O6  1  0.719598  0.198804  0.848733  1
  O  O7  1  0.198804  0.719598  0.848733  1
  O  O8  1  0.213892  0.213892  0.847963  1
  O  O9  1  0.786108  0.786108  0.152037  1
  O  O10  1  0.801196  0.280402  0.151267  1
  O  O11  1  0.280402  0.801196  0.151267  1
  O  O12  1  0.289740  0.289740  0.146490  1
