# generated using pymatgen
data_La5MgRuO12
_symmetry_space_group_name_H-M   'P 1'
_cell_length_a   7.13746222
_cell_length_b   7.13746247
_cell_length_c   7.75330400
_cell_angle_alpha   74.24775655
_cell_angle_beta   74.24775598
_cell_angle_gamma   50.88085581
_symmetry_Int_Tables_number   1
_chemical_formula_structural   La5MgRuO12
_chemical_formula_sum   'La5 Mg1 Ru1 O12'
_cell_volume   292.26355187
_cell_formula_units_Z   1
loop_
 _symmetry_equiv_pos_site_id
 _symmetry_equiv_pos_as_xyz
  1  'x, y, z'
loop_
 _atom_site_type_symbol
 _atom_site_label
 _atom_site_symmetry_multiplicity
 _atom_site_fract_x
 _atom_site_fract_y
 _atom_site_fract_z
 _atom_site_occupancy
  La  La0  1  0.324354  0.292614  0.354432  1
  La  La1  1  0.707386  0.675646  0.645568  1
  La  La2  1  0.690880  0.689753  0.165775  1
  La  La3  1  0.310247  0.309120  0.834225  1
  La  La4  1  0.013480  0.986520  0.500000  1
  Mg  Mg5  1  0.745221  0.254779  0.000000  1
  Ru  Ru6  1  0.230705  0.769295  0.000000  1
  O  O7  1  0.101914  0.591944  0.573087  1
  O  O8  1  0.011986  0.986993  0.172120  1
  O  O9  1  0.408056  0.898086  0.426913  1
  O  O10  1  0.471256  0.530579  0.174006  1
  O  O11  1  0.102813  0.590944  0.079211  1
  O  O12  1  0.915725  0.395124  0.419549  1
  O  O13  1  0.013007  0.988014  0.827880  1
  O  O14  1  0.604876  0.084274  0.580451  1
  O  O15  1  0.469421  0.528744  0.825994  1
  O  O16  1  0.567383  0.097766  0.080523  1
  O  O17  1  0.409056  0.897187  0.920789  1
  O  O18  1  0.902234  0.432617  0.919477  1
