# generated using pymatgen
data_RbLaSnS4
_symmetry_space_group_name_H-M   'P 1'
_cell_length_a   6.99936877
_cell_length_b   7.01682600
_cell_length_c   9.23227183
_cell_angle_alpha   90.00059196
_cell_angle_beta   107.65004186
_cell_angle_gamma   89.99963769
_symmetry_Int_Tables_number   1
_chemical_formula_structural   RbLaSnS4
_chemical_formula_sum   'Rb2 La2 Sn2 S8'
_cell_volume   432.08325955
_cell_formula_units_Z   2
loop_
 _symmetry_equiv_pos_site_id
 _symmetry_equiv_pos_as_xyz
  1  'x, y, z'
loop_
 _atom_site_type_symbol
 _atom_site_label
 _atom_site_symmetry_multiplicity
 _atom_site_fract_x
 _atom_site_fract_y
 _atom_site_fract_z
 _atom_site_occupancy
  Rb  Rb0  1  0.271954  0.014099  0.066113  1
  Rb  Rb1  1  0.728077  0.514142  0.933905  1
  La  La2  1  0.771263  0.490769  0.448117  1
  La  La3  1  0.228722  0.990745  0.551870  1
  Sn  Sn4  1  0.226488  0.520718  0.323850  1
  Sn  Sn5  1  0.773507  0.020744  0.676164  1
  S  S6  1  0.436036  0.525578  0.163669  1
  S  S7  1  0.973293  0.766315  0.285555  1
  S  S8  1  0.011033  0.246733  0.299174  1
  S  S9  1  0.556256  0.096588  0.424617  1
  S  S10  1  0.443757  0.596596  0.575387  1
  S  S11  1  0.988955  0.746744  0.700809  1
  S  S12  1  0.026712  0.266321  0.714438  1
  S  S13  1  0.563947  0.025586  0.836335  1
