# generated using pymatgen
data_Mg3In(GaPd5)2
_symmetry_space_group_name_H-M   'P 1'
_cell_length_a   4.16484100
_cell_length_b   5.58089991
_cell_length_c   10.88373766
_cell_angle_alpha   89.78983529
_cell_angle_beta   90.00000000
_cell_angle_gamma   90.00000000
_symmetry_Int_Tables_number   1
_chemical_formula_structural   Mg3In(GaPd5)2
_chemical_formula_sum   'Mg3 In1 Ga2 Pd10'
_cell_volume   252.97511551
_cell_formula_units_Z   1
loop_
 _symmetry_equiv_pos_site_id
 _symmetry_equiv_pos_as_xyz
  1  'x, y, z'
loop_
 _atom_site_type_symbol
 _atom_site_label
 _atom_site_symmetry_multiplicity
 _atom_site_fract_x
 _atom_site_fract_y
 _atom_site_fract_z
 _atom_site_occupancy
  Mg  Mg0  1  0.000000  0.828377  0.642017  1
  Mg  Mg1  1  0.000000  0.329385  0.855920  1
  Mg  Mg2  1  0.000000  0.165904  0.361744  1
  In  In3  1  0.000000  0.667494  0.142717  1
  Ga  Ga4  1  0.500000  0.498157  0.502744  1
  Ga  Ga5  1  0.500000  0.017189  0.993539  1
  Pd  Pd6  1  0.000000  0.818001  0.893528  1
  Pd  Pd7  1  0.000000  0.681347  0.397686  1
  Pd  Pd8  1  0.000000  0.314465  0.606317  1
  Pd  Pd9  1  0.500000  0.926217  0.238622  1
  Pd  Pd10  1  0.500000  0.417531  0.265053  1
  Pd  Pd11  1  0.500000  0.577270  0.739954  1
  Pd  Pd12  1  0.500000  0.076514  0.757281  1
  Pd  Pd13  1  0.500000  0.502238  0.997470  1
  Pd  Pd14  1  0.500000  0.998104  0.499526  1
  Pd  Pd15  1  0.000000  0.181805  0.105878  1
