# generated using pymatgen
data_Hf6Ga6PdPt5
_symmetry_space_group_name_H-M   'P 1'
_cell_length_a   7.17891600
_cell_length_b   7.17891496
_cell_length_c   7.05098000
_cell_angle_alpha   90.00000000
_cell_angle_beta   90.00000000
_cell_angle_gamma   119.99999559
_symmetry_Int_Tables_number   1
_chemical_formula_structural   Hf6Ga6PdPt5
_chemical_formula_sum   'Hf6 Ga6 Pd1 Pt5'
_cell_volume   314.70077620
_cell_formula_units_Z   1
loop_
 _symmetry_equiv_pos_site_id
 _symmetry_equiv_pos_as_xyz
  1  'x, y, z'
loop_
 _atom_site_type_symbol
 _atom_site_label
 _atom_site_symmetry_multiplicity
 _atom_site_fract_x
 _atom_site_fract_y
 _atom_site_fract_z
 _atom_site_occupancy
  Hf  Hf0  1  0.616620  0.592728  0.250000  1
  Hf  Hf1  1  0.025620  0.415143  0.750000  1
  Hf  Hf2  1  0.407272  0.023891  0.250000  1
  Hf  Hf3  1  0.976109  0.383380  0.250000  1
  Hf  Hf4  1  0.389523  0.974380  0.750000  1
  Hf  Hf5  1  0.584857  0.610477  0.750000  1
  Ga  Ga6  1  0.267397  0.268015  0.501947  1
  Ga  Ga7  1  0.731985  0.999382  0.501947  1
  Ga  Ga8  1  0.000618  0.732603  0.501947  1
  Ga  Ga9  1  0.731985  0.999382  0.998053  1
  Ga  Ga10  1  0.267397  0.268015  0.998053  1
  Ga  Ga11  1  0.000618  0.732603  0.998053  1
  Pd  Pd12  1  0.000000  0.000000  0.750000  1
  Pt  Pt13  1  0.333333  0.666667  0.463667  1
  Pt  Pt14  1  0.000000  0.000000  0.250000  1
  Pt  Pt15  1  0.333333  0.666667  0.036333  1
  Pt  Pt16  1  0.666667  0.333333  0.532428  1
  Pt  Pt17  1  0.666667  0.333333  0.967572  1
