# generated using pymatgen
data_Zr4Pa3Pt10
_symmetry_space_group_name_H-M   'P 1'
_cell_length_a   8.37594567
_cell_length_b   8.37593721
_cell_length_c   9.86349400
_cell_angle_alpha   90.00000000
_cell_angle_beta   90.00000000
_cell_angle_gamma   107.70393999
_symmetry_Int_Tables_number   1
_chemical_formula_structural   Zr4Pa3Pt10
_chemical_formula_sum   'Zr8 Pa6 Pt20'
_cell_volume   659.21506395
_cell_formula_units_Z   2
loop_
 _symmetry_equiv_pos_site_id
 _symmetry_equiv_pos_as_xyz
  1  'x, y, z'
loop_
 _atom_site_type_symbol
 _atom_site_label
 _atom_site_symmetry_multiplicity
 _atom_site_fract_x
 _atom_site_fract_y
 _atom_site_fract_z
 _atom_site_occupancy
  Zr  Zr0  1  0.693176  0.306823  0.000000  1
  Zr  Zr1  1  0.306824  0.693177  0.000000  1
  Zr  Zr2  1  0.806824  0.193177  0.500000  1
  Zr  Zr3  1  0.193176  0.806823  0.500000  1
  Zr  Zr4  1  0.998623  0.498625  0.249999  1
  Zr  Zr5  1  0.001377  0.501375  0.750001  1
  Zr  Zr6  1  0.501377  0.001375  0.749999  1
  Zr  Zr7  1  0.498623  0.998625  0.250001  1
  Pa  Pa8  1  0.000000  0.000000  0.000000  1
  Pa  Pa9  1  0.500000  0.500000  0.500000  1
  Pa  Pa10  1  0.314421  0.314422  0.185602  1
  Pa  Pa11  1  0.685579  0.685578  0.814398  1
  Pa  Pa12  1  0.185579  0.185578  0.685602  1
  Pa  Pa13  1  0.814421  0.814422  0.314398  1
  Pt  Pt14  1  0.850589  0.146190  0.209036  1
  Pt  Pt15  1  0.149411  0.853810  0.790964  1
  Pt  Pt16  1  0.649411  0.353810  0.709036  1
  Pt  Pt17  1  0.646188  0.350590  0.290966  1
  Pt  Pt18  1  0.350589  0.646190  0.290964  1
  Pt  Pt19  1  0.353812  0.649410  0.709034  1
  Pt  Pt20  1  0.853812  0.149410  0.790966  1
  Pt  Pt21  1  0.146188  0.850590  0.209034  1
  Pt  Pt22  1  0.936346  0.641658  0.999554  1
  Pt  Pt23  1  0.063654  0.358342  0.000446  1
  Pt  Pt24  1  0.563654  0.858342  0.499554  1
  Pt  Pt25  1  0.141658  0.436346  0.500445  1
  Pt  Pt26  1  0.436346  0.141658  0.500446  1
  Pt  Pt27  1  0.858342  0.563654  0.499555  1
  Pt  Pt28  1  0.358342  0.063654  0.000445  1
  Pt  Pt29  1  0.641658  0.936346  0.999555  1
  Pt  Pt30  1  0.104996  0.104995  0.393848  1
  Pt  Pt31  1  0.895004  0.895005  0.606152  1
  Pt  Pt32  1  0.395004  0.395005  0.893848  1
  Pt  Pt33  1  0.604996  0.604995  0.106152  1
