# generated using pymatgen
data_Mn3V3CoP4W
_symmetry_space_group_name_H-M   'P 1'
_cell_length_a   3.51572900
_cell_length_b   5.92948991
_cell_length_c   6.82207289
_cell_angle_alpha   90.13491970
_cell_angle_beta   90.00000000
_cell_angle_gamma   90.00000000
_symmetry_Int_Tables_number   1
_chemical_formula_structural   Mn3V3CoP4W
_chemical_formula_sum   'Mn3 V3 Co1 P4 W1'
_cell_volume   142.21580924
_cell_formula_units_Z   1
loop_
 _symmetry_equiv_pos_site_id
 _symmetry_equiv_pos_as_xyz
  1  'x, y, z'
loop_
 _atom_site_type_symbol
 _atom_site_label
 _atom_site_symmetry_multiplicity
 _atom_site_fract_x
 _atom_site_fract_y
 _atom_site_fract_z
 _atom_site_occupancy
  Mn  Mn0  1  0.250000  0.144448  0.560169  1
  Mn  Mn1  1  0.750000  0.854387  0.443243  1
  Mn  Mn2  1  0.750000  0.357920  0.058086  1
  V  V3  1  0.250000  0.527489  0.330000  1
  V  V4  1  0.750000  0.976363  0.824491  1
  V  V5  1  0.750000  0.468494  0.673676  1
  Co  Co6  1  0.250000  0.647230  0.937914  1
  P  P7  1  0.250000  0.764400  0.630176  1
  P  P8  1  0.250000  0.271639  0.870821  1
  P  P9  1  0.750000  0.236297  0.374863  1
  P  P10  1  0.750000  0.723640  0.126658  1
  W  W11  1  0.250000  0.027692  0.169902  1
