# generated using pymatgen
data_Nd3Y3Co14(P3Rh)4
_symmetry_space_group_name_H-M   'P 1'
_cell_length_a   3.76464900
_cell_length_b   10.70272400
_cell_length_c   12.46497900
_cell_angle_alpha   89.99891156
_cell_angle_beta   90.00000000
_cell_angle_gamma   90.00000000
_symmetry_Int_Tables_number   1
_chemical_formula_structural   Nd3Y3Co14(P3Rh)4
_chemical_formula_sum   'Nd3 Y3 Co14 P12 Rh4'
_cell_volume   502.23892390
_cell_formula_units_Z   1
loop_
 _symmetry_equiv_pos_site_id
 _symmetry_equiv_pos_as_xyz
  1  'x, y, z'
loop_
 _atom_site_type_symbol
 _atom_site_label
 _atom_site_symmetry_multiplicity
 _atom_site_fract_x
 _atom_site_fract_y
 _atom_site_fract_z
 _atom_site_occupancy
  Nd  Nd0  1  0.000000  0.500311  0.520840  1
  Nd  Nd1  1  0.500000  0.999609  0.478548  1
  Nd  Nd2  1  0.000000  0.314807  0.794289  1
  Y  Y3  1  0.500000  0.813609  0.205820  1
  Y  Y4  1  0.500000  0.185941  0.205202  1
  Y  Y5  1  0.000000  0.686968  0.794829  1
  Co  Co6  1  0.000000  0.501112  0.989883  1
  Co  Co7  1  0.500000  0.998637  0.012525  1
  Co  Co8  1  0.500000  0.332007  0.995677  1
  Co  Co9  1  0.500000  0.669040  0.994670  1
  Co  Co10  1  0.000000  0.166821  0.007352  1
  Co  Co11  1  0.000000  0.831775  0.006330  1
  Co  Co12  1  0.500000  0.300007  0.426438  1
  Co  Co13  1  0.500000  0.700083  0.427641  1
  Co  Co14  1  0.000000  0.199190  0.569853  1
  Co  Co15  1  0.000000  0.800317  0.571884  1
  Co  Co16  1  0.500000  0.880779  0.712856  1
  Co  Co17  1  0.500000  0.116856  0.711014  1
  Co  Co18  1  0.000000  0.619021  0.287564  1
  Co  Co19  1  0.000000  0.381187  0.286883  1
  P  P20  1  0.500000  0.501840  0.892981  1
  P  P21  1  0.000000  0.999073  0.109329  1
  P  P22  1  0.500000  0.499966  0.345454  1
  P  P23  1  0.000000  0.000138  0.654227  1
  P  P24  1  0.500000  0.298704  0.610702  1
  P  P25  1  0.500000  0.701512  0.613469  1
  P  P26  1  0.000000  0.200289  0.384996  1
  P  P27  1  0.000000  0.799343  0.386096  1
  P  P28  1  0.500000  0.844475  0.895737  1
  P  P29  1  0.500000  0.153286  0.897766  1
  P  P30  1  0.000000  0.656155  0.105048  1
  P  P31  1  0.000000  0.344196  0.104410  1
  Rh  Rh32  1  0.500000  0.500544  0.158264  1
  Rh  Rh33  1  0.000000  0.999542  0.842276  1
  Rh  Rh34  1  0.500000  0.503202  0.705837  1
  Rh  Rh35  1  0.000000  0.999660  0.293311  1
