# generated using pymatgen
data_Y4ScIr2Rh
_symmetry_space_group_name_H-M   'P 1'
_cell_length_a   10.81359300
_cell_length_b   10.81359300
_cell_length_c   6.30031700
_cell_angle_alpha   90.00000000
_cell_angle_beta   90.00000000
_cell_angle_gamma   90.00000000
_symmetry_Int_Tables_number   1
_chemical_formula_structural   Y4ScIr2Rh
_chemical_formula_sum   'Y16 Sc4 Ir8 Rh4'
_cell_volume   736.71996750
_cell_formula_units_Z   4
loop_
 _symmetry_equiv_pos_site_id
 _symmetry_equiv_pos_as_xyz
  1  'x, y, z'
loop_
 _atom_site_type_symbol
 _atom_site_label
 _atom_site_symmetry_multiplicity
 _atom_site_fract_x
 _atom_site_fract_y
 _atom_site_fract_z
 _atom_site_occupancy
  Y  Y0  1  0.286629  0.087172  0.378636  1
  Y  Y1  1  0.286629  0.912828  0.878636  1
  Y  Y2  1  0.713371  0.087172  0.878636  1
  Y  Y3  1  0.713371  0.912828  0.378636  1
  Y  Y4  1  0.587172  0.786629  0.878636  1
  Y  Y5  1  0.587172  0.213371  0.378636  1
  Y  Y6  1  0.412828  0.786629  0.378636  1
  Y  Y7  1  0.412828  0.213371  0.878636  1
  Y  Y8  1  0.213371  0.412828  0.621364  1
  Y  Y9  1  0.213371  0.587172  0.121364  1
  Y  Y10  1  0.786629  0.412828  0.121364  1
  Y  Y11  1  0.786629  0.587172  0.621364  1
  Y  Y12  1  0.912828  0.713371  0.121364  1
  Y  Y13  1  0.912828  0.286629  0.621364  1
  Y  Y14  1  0.087172  0.713371  0.621364  1
  Y  Y15  1  0.087172  0.286629  0.121364  1
  Sc  Sc16  1  0.000000  0.000000  0.500000  1
  Sc  Sc17  1  0.000000  0.000000  0.000000  1
  Sc  Sc18  1  0.500000  0.500000  0.000000  1
  Sc  Sc19  1  0.500000  0.500000  0.500000  1
  Ir  Ir20  1  0.853039  0.146961  0.250000  1
  Ir  Ir21  1  0.853039  0.853039  0.750000  1
  Ir  Ir22  1  0.146961  0.146961  0.750000  1
  Ir  Ir23  1  0.146961  0.853039  0.250000  1
  Ir  Ir24  1  0.646961  0.353039  0.750000  1
  Ir  Ir25  1  0.646961  0.646961  0.250000  1
  Ir  Ir26  1  0.353039  0.353039  0.250000  1
  Ir  Ir27  1  0.353039  0.646961  0.750000  1
  Rh  Rh28  1  0.500000  0.000000  0.124851  1
  Rh  Rh29  1  0.500000  0.000000  0.624851  1
  Rh  Rh30  1  0.000000  0.500000  0.875149  1
  Rh  Rh31  1  0.000000  0.500000  0.375149  1
