# generated using pymatgen
data_Dy9Th8Sc3Sn16
_symmetry_space_group_name_H-M   'P 1'
_cell_length_a   8.03619139
_cell_length_b   8.17633439
_cell_length_c   15.49441500
_cell_angle_alpha   90.00000000
_cell_angle_beta   90.00000000
_cell_angle_gamma   89.96450312
_symmetry_Int_Tables_number   1
_chemical_formula_structural   Dy9Th8Sc3Sn16
_chemical_formula_sum   'Dy9 Th8 Sc3 Sn16'
_cell_volume   1018.08494746
_cell_formula_units_Z   1
loop_
 _symmetry_equiv_pos_site_id
 _symmetry_equiv_pos_as_xyz
  1  'x, y, z'
loop_
 _atom_site_type_symbol
 _atom_site_label
 _atom_site_symmetry_multiplicity
 _atom_site_fract_x
 _atom_site_fract_y
 _atom_site_fract_z
 _atom_site_occupancy
  Dy  Dy0  1  0.352767  0.839504  0.875674  1
  Dy  Dy1  1  0.851365  0.661203  0.624133  1
  Dy  Dy2  1  0.648003  0.160603  0.375066  1
  Dy  Dy3  1  0.147959  0.339409  0.125390  1
  Dy  Dy4  1  0.648003  0.160603  0.124934  1
  Dy  Dy5  1  0.147959  0.339409  0.374610  1
  Dy  Dy6  1  0.352767  0.839504  0.624326  1
  Dy  Dy7  1  0.851365  0.661203  0.875867  1
  Dy  Dy8  1  0.183337  0.497474  0.750000  1
  Th  Th9  1  0.513843  0.323098  0.905138  1
  Th  Th10  1  0.013474  0.175724  0.594940  1
  Th  Th11  1  0.486062  0.676007  0.404482  1
  Th  Th12  1  0.985950  0.824279  0.095466  1
  Th  Th13  1  0.486062  0.676007  0.095518  1
  Th  Th14  1  0.985950  0.824279  0.404534  1
  Th  Th15  1  0.513843  0.323098  0.594862  1
  Th  Th16  1  0.013474  0.175724  0.905060  1
  Sc  Sc17  1  0.683728  0.002290  0.750000  1
  Sc  Sc18  1  0.816305  0.502452  0.250000  1
  Sc  Sc19  1  0.316078  0.997441  0.250000  1
  Sn  Sn20  1  0.306067  0.040214  0.044394  1
  Sn  Sn21  1  0.806079  0.459926  0.455507  1
  Sn  Sn22  1  0.693731  0.959917  0.543872  1
  Sn  Sn23  1  0.194059  0.541035  0.958096  1
  Sn  Sn24  1  0.693731  0.959917  0.956128  1
  Sn  Sn25  1  0.194059  0.541035  0.541904  1
  Sn  Sn26  1  0.306067  0.040214  0.455606  1
  Sn  Sn27  1  0.806079  0.459926  0.044493  1
  Sn  Sn28  1  0.549361  0.624936  0.750000  1
  Sn  Sn29  1  0.042856  0.880477  0.750000  1
  Sn  Sn30  1  0.456185  0.378110  0.250000  1
  Sn  Sn31  1  0.955932  0.121904  0.250000  1
  Sn  Sn32  1  0.324193  0.143888  0.750000  1
  Sn  Sn33  1  0.817299  0.348765  0.750000  1
  Sn  Sn34  1  0.677991  0.850486  0.250000  1
  Sn  Sn35  1  0.178020  0.649936  0.250000  1
