# generated using pymatgen
data_Na3Ac16YbSi16
_symmetry_space_group_name_H-M   'P 1'
_cell_length_a   8.01965600
_cell_length_b   8.37599600
_cell_length_c   16.07488000
_cell_angle_alpha   90.00000000
_cell_angle_beta   90.00000000
_cell_angle_gamma   90.00336899
_symmetry_Int_Tables_number   1
_chemical_formula_structural   Na3Ac16YbSi16
_chemical_formula_sum   'Na3 Ac16 Yb1 Si16'
_cell_volume   1079.79158909
_cell_formula_units_Z   1
loop_
 _symmetry_equiv_pos_site_id
 _symmetry_equiv_pos_as_xyz
  1  'x, y, z'
loop_
 _atom_site_type_symbol
 _atom_site_label
 _atom_site_symmetry_multiplicity
 _atom_site_fract_x
 _atom_site_fract_y
 _atom_site_fract_z
 _atom_site_occupancy
  Na  Na0  1  0.359129  0.019026  0.750000  1
  Na  Na1  1  0.858598  0.481230  0.750000  1
  Na  Na2  1  0.141898  0.519909  0.250000  1
  Ac  Ac3  1  0.310710  0.187313  0.124611  1
  Ac  Ac4  1  0.816722  0.319423  0.375336  1
  Ac  Ac5  1  0.184853  0.685317  0.873971  1
  Ac  Ac6  1  0.684147  0.816400  0.625053  1
  Ac  Ac7  1  0.310710  0.187313  0.375389  1
  Ac  Ac8  1  0.816722  0.319423  0.124664  1
  Ac  Ac9  1  0.184853  0.685317  0.626029  1
  Ac  Ac10  1  0.684147  0.816400  0.874947  1
  Ac  Ac11  1  0.960555  0.806270  0.396069  1
  Ac  Ac12  1  0.454908  0.687583  0.103667  1
  Ac  Ac13  1  0.544376  0.306724  0.605705  1
  Ac  Ac14  1  0.044927  0.193524  0.893342  1
  Ac  Ac15  1  0.044927  0.193524  0.606658  1
  Ac  Ac16  1  0.544376  0.306724  0.894295  1
  Ac  Ac17  1  0.454908  0.687583  0.396333  1
  Ac  Ac18  1  0.960555  0.806270  0.103931  1
  Yb  Yb19  1  0.640565  0.982576  0.250000  1
  Si  Si20  1  0.864615  0.527269  0.535997  1
  Si  Si21  1  0.365061  0.972526  0.966088  1
  Si  Si22  1  0.633078  0.023681  0.460362  1
  Si  Si23  1  0.133991  0.473321  0.033479  1
  Si  Si24  1  0.133991  0.473321  0.466521  1
  Si  Si25  1  0.633078  0.023681  0.039638  1
  Si  Si26  1  0.365061  0.972526  0.533912  1
  Si  Si27  1  0.864615  0.527269  0.964003  1
  Si  Si28  1  0.980722  0.919751  0.750000  1
  Si  Si29  1  0.481199  0.580012  0.750000  1
  Si  Si30  1  0.521248  0.414375  0.250000  1
  Si  Si31  1  0.015061  0.077124  0.250000  1
  Si  Si32  1  0.259901  0.380912  0.750000  1
  Si  Si33  1  0.758895  0.118078  0.750000  1
  Si  Si34  1  0.247853  0.884565  0.250000  1
  Si  Si35  1  0.739044  0.623738  0.250000  1
