# generated using pymatgen
data_Eu4Ge9Rh13
_symmetry_space_group_name_H-M   'P 1'
_cell_length_a   3.98185300
_cell_length_b   11.38274300
_cell_length_c   19.67599100
_cell_angle_alpha   90.00000000
_cell_angle_beta   90.00000000
_cell_angle_gamma   90.00000000
_symmetry_Int_Tables_number   1
_chemical_formula_structural   Eu4Ge9Rh13
_chemical_formula_sum   'Eu8 Ge18 Rh26'
_cell_volume   891.80267070
_cell_formula_units_Z   2
loop_
 _symmetry_equiv_pos_site_id
 _symmetry_equiv_pos_as_xyz
  1  'x, y, z'
loop_
 _atom_site_type_symbol
 _atom_site_label
 _atom_site_symmetry_multiplicity
 _atom_site_fract_x
 _atom_site_fract_y
 _atom_site_fract_z
 _atom_site_occupancy
  Eu  Eu0  1  0.250000  0.561393  0.706985  1
  Eu  Eu1  1  0.750000  0.438607  0.293015  1
  Eu  Eu2  1  0.750000  0.061393  0.293015  1
  Eu  Eu3  1  0.250000  0.938607  0.706985  1
  Eu  Eu4  1  0.250000  0.750000  0.522055  1
  Eu  Eu5  1  0.750000  0.250000  0.477945  1
  Eu  Eu6  1  0.250000  0.250000  0.019570  1
  Eu  Eu7  1  0.750000  0.750000  0.980430  1
  Ge  Ge8  1  0.250000  0.250000  0.604058  1
  Ge  Ge9  1  0.750000  0.750000  0.395942  1
  Ge  Ge10  1  0.250000  0.060061  0.419335  1
  Ge  Ge11  1  0.750000  0.939939  0.580665  1
  Ge  Ge12  1  0.750000  0.560061  0.580665  1
  Ge  Ge13  1  0.250000  0.439939  0.419335  1
  Ge  Ge14  1  0.250000  0.563705  0.914461  1
  Ge  Ge15  1  0.750000  0.436295  0.085539  1
  Ge  Ge16  1  0.750000  0.063705  0.085539  1
  Ge  Ge17  1  0.250000  0.936295  0.914461  1
  Ge  Ge18  1  0.250000  0.623723  0.229970  1
  Ge  Ge19  1  0.750000  0.376277  0.770030  1
  Ge  Ge20  1  0.750000  0.123723  0.770030  1
  Ge  Ge21  1  0.250000  0.876277  0.229970  1
  Ge  Ge22  1  0.250000  0.750000  0.103040  1
  Ge  Ge23  1  0.750000  0.250000  0.896960  1
  Ge  Ge24  1  0.250000  0.250000  0.229700  1
  Ge  Ge25  1  0.750000  0.750000  0.770300  1
  Rh  Rh26  1  0.250000  0.448861  0.545975  1
  Rh  Rh27  1  0.750000  0.551139  0.454025  1
  Rh  Rh28  1  0.750000  0.948861  0.454025  1
  Rh  Rh29  1  0.250000  0.051139  0.545975  1
  Rh  Rh30  1  0.250000  0.433887  0.163307  1
  Rh  Rh31  1  0.750000  0.566113  0.836693  1
  Rh  Rh32  1  0.750000  0.933887  0.836693  1
  Rh  Rh33  1  0.250000  0.066113  0.163307  1
  Rh  Rh34  1  0.250000  0.375869  0.854648  1
  Rh  Rh35  1  0.750000  0.624131  0.145352  1
  Rh  Rh36  1  0.750000  0.875869  0.145352  1
  Rh  Rh37  1  0.250000  0.124131  0.854648  1
  Rh  Rh38  1  0.250000  0.557366  0.040327  1
  Rh  Rh39  1  0.750000  0.442634  0.959673  1
  Rh  Rh40  1  0.750000  0.057366  0.959673  1
  Rh  Rh41  1  0.250000  0.942634  0.040327  1
  Rh  Rh42  1  0.250000  0.628091  0.357846  1
  Rh  Rh43  1  0.750000  0.371909  0.642154  1
  Rh  Rh44  1  0.750000  0.128091  0.642154  1
  Rh  Rh45  1  0.250000  0.871909  0.357846  1
  Rh  Rh46  1  0.250000  0.750000  0.844429  1
  Rh  Rh47  1  0.750000  0.250000  0.155571  1
  Rh  Rh48  1  0.250000  0.250000  0.356001  1
  Rh  Rh49  1  0.750000  0.750000  0.643999  1
  Rh  Rh50  1  0.250000  0.250000  0.728444  1
  Rh  Rh51  1  0.750000  0.750000  0.271556  1
