# generated using pymatgen
data_FeCo(NF10)2
_symmetry_space_group_name_H-M   'P 1'
_cell_length_a   5.59357197
_cell_length_b   7.55091047
_cell_length_c   8.94457110
_cell_angle_alpha   88.82689811
_cell_angle_beta   109.46062550
_cell_angle_gamma   96.61984685
_symmetry_Int_Tables_number   1
_chemical_formula_structural   FeCo(NF10)2
_chemical_formula_sum   'Fe1 Co1 N2 F20'
_cell_volume   353.76542119
_cell_formula_units_Z   1
loop_
 _symmetry_equiv_pos_site_id
 _symmetry_equiv_pos_as_xyz
  1  'x, y, z'
loop_
 _atom_site_type_symbol
 _atom_site_label
 _atom_site_symmetry_multiplicity
 _atom_site_fract_x
 _atom_site_fract_y
 _atom_site_fract_z
 _atom_site_occupancy
  Fe  Fe0  1  0.996330  0.753503  0.293972  1
  Co  Co1  1  0.003805  0.246464  0.705342  1
  N  N2  1  0.296712  0.274363  0.215524  1
  N  N3  1  0.703041  0.726287  0.785783  1
  F  F4  1  0.057122  0.233079  0.213307  1
  F  F5  1  0.941666  0.767146  0.786265  1
  F  F6  1  0.372391  0.137544  0.156004  1
  F  F7  1  0.629619  0.862958  0.846864  1
  F  F8  1  0.930873  0.197944  0.883301  1
  F  F9  1  0.069698  0.803173  0.114441  1
  F  F10  1  0.076172  0.294674  0.531136  1
  F  F11  1  0.924262  0.702270  0.469839  1
  F  F12  1  0.796144  0.056181  0.611122  1
  F  F13  1  0.205164  0.944778  0.390016  1
  F  F14  1  0.261330  0.117013  0.773387  1
  F  F15  1  0.734861  0.883747  0.223692  1
  F  F16  1  0.205138  0.441968  0.800728  1
  F  F17  1  0.794091  0.556961  0.196305  1
  F  F18  1  0.743670  0.375569  0.641460  1
  F  F19  1  0.259944  0.623205  0.358837  1
  F  F20  1  0.692661  0.582669  0.874457  1
  F  F21  1  0.307864  0.417400  0.126436  1
  F  F22  1  0.544933  0.693137  0.636978  1
  F  F23  1  0.452511  0.307966  0.364806  1
