# generated using pymatgen
data_Rb4Zr6FeI18
_symmetry_space_group_name_H-M   'P 1'
_cell_length_a   11.43233509
_cell_length_b   11.67545416
_cell_length_c   11.79682242
_cell_angle_alpha   118.53779667
_cell_angle_beta   100.17422498
_cell_angle_gamma   103.96551352
_symmetry_Int_Tables_number   1
_chemical_formula_structural   Rb4Zr6FeI18
_chemical_formula_sum   'Rb4 Zr6 Fe1 I18'
_cell_volume   1261.25141419
_cell_formula_units_Z   1
loop_
 _symmetry_equiv_pos_site_id
 _symmetry_equiv_pos_as_xyz
  1  'x, y, z'
loop_
 _atom_site_type_symbol
 _atom_site_label
 _atom_site_symmetry_multiplicity
 _atom_site_fract_x
 _atom_site_fract_y
 _atom_site_fract_z
 _atom_site_occupancy
  Rb  Rb0  1  0.652219  0.538444  0.226826  1
  Rb  Rb1  1  0.347781  0.461556  0.773174  1
  Rb  Rb2  1  0.686870  0.225428  0.565277  1
  Rb  Rb3  1  0.313130  0.774572  0.434723  1
  Zr  Zr4  1  0.144818  0.053724  0.220658  1
  Zr  Zr5  1  0.855182  0.946276  0.779342  1
  Zr  Zr6  1  0.866642  0.121064  0.127233  1
  Zr  Zr7  1  0.133358  0.878936  0.872767  1
  Zr  Zr8  1  0.140796  0.229703  0.044054  1
  Zr  Zr9  1  0.859204  0.770297  0.955946  1
  Fe  Fe10  1  0.000000  0.000000  0.000000  1
  I  I11  1  0.007189  0.405013  0.194439  1
  I  I12  1  0.992811  0.594987  0.805561  1
  I  I13  1  0.327423  0.330892  0.309485  1
  I  I14  1  0.672577  0.669108  0.690515  1
  I  I15  1  0.316411  0.515308  0.098458  1
  I  I16  1  0.683589  0.484692  0.901542  1
  I  I17  1  0.003486  0.797682  0.206527  1
  I  I18  1  0.996514  0.202318  0.793473  1
  I  I19  1  0.704648  0.268978  0.281487  1
  I  I20  1  0.295352  0.731022  0.718513  1
  I  I21  1  0.315304  0.126287  0.904014  1
  I  I22  1  0.684696  0.873713  0.095986  1
  I  I23  1  0.014596  0.202363  0.403303  1
  I  I24  1  0.985404  0.797637  0.596697  1
  I  I25  1  0.319247  0.924094  0.109053  1
  I  I26  1  0.680753  0.075906  0.890947  1
  I  I27  1  0.328165  0.119774  0.494928  1
  I  I28  1  0.671835  0.880226  0.505072  1
