# generated using pymatgen
data_Pa2Fe5(CoP)7
_symmetry_space_group_name_H-M   'P 1'
_cell_length_a   3.66662200
_cell_length_b   8.99077715
_cell_length_c   8.97572030
_cell_angle_alpha   119.84123211
_cell_angle_beta   90.00000000
_cell_angle_gamma   90.00000000
_symmetry_Int_Tables_number   1
_chemical_formula_structural   Pa2Fe5(CoP)7
_chemical_formula_sum   'Pa2 Fe5 Co7 P7'
_cell_volume   256.65864708
_cell_formula_units_Z   1
loop_
 _symmetry_equiv_pos_site_id
 _symmetry_equiv_pos_as_xyz
  1  'x, y, z'
loop_
 _atom_site_type_symbol
 _atom_site_label
 _atom_site_symmetry_multiplicity
 _atom_site_fract_x
 _atom_site_fract_y
 _atom_site_fract_z
 _atom_site_occupancy
  Pa  Pa0  1  0.000000  0.663695  0.331618  1
  Pa  Pa1  1  0.500000  0.334618  0.667097  1
  Fe  Fe2  1  0.500000  0.436634  0.381263  1
  Fe  Fe3  1  0.500000  0.619173  0.055898  1
  Fe  Fe4  1  0.500000  0.121362  0.903024  1
  Fe  Fe5  1  0.500000  0.096226  0.217017  1
  Fe  Fe6  1  0.500000  0.782459  0.879257  1
  Co  Co7  1  0.000000  0.369551  0.932607  1
  Co  Co8  1  0.000000  0.067844  0.438381  1
  Co  Co9  1  0.000000  0.563276  0.630896  1
  Co  Co10  1  0.000000  0.877088  0.724020  1
  Co  Co11  1  0.000000  0.273644  0.151331  1
  Co  Co12  1  0.000000  0.848784  0.123425  1
  Co  Co13  1  0.500000  0.946048  0.563452  1
  P  P14  1  0.000000  0.106473  0.703785  1
  P  P15  1  0.000000  0.298681  0.403126  1
  P  P16  1  0.000000  0.597419  0.896154  1
  P  P17  1  0.500000  0.706557  0.601127  1
  P  P18  1  0.500000  0.398493  0.106466  1
  P  P19  1  0.500000  0.892311  0.290751  1
  P  P20  1  0.000000  0.999663  0.999304  1
