# generated using pymatgen
data_La4Y16Si15As
_symmetry_space_group_name_H-M   'P 1'
_cell_length_a   7.53810594
_cell_length_b   7.78631652
_cell_length_c   14.83760600
_cell_angle_alpha   90.11307112
_cell_angle_beta   89.31042184
_cell_angle_gamma   89.85805649
_symmetry_Int_Tables_number   1
_chemical_formula_structural   La4Y16Si15As
_chemical_formula_sum   'La4 Y16 Si15 As1'
_cell_volume   870.81212342
_cell_formula_units_Z   1
loop_
 _symmetry_equiv_pos_site_id
 _symmetry_equiv_pos_as_xyz
  1  'x, y, z'
loop_
 _atom_site_type_symbol
 _atom_site_label
 _atom_site_symmetry_multiplicity
 _atom_site_fract_x
 _atom_site_fract_y
 _atom_site_fract_z
 _atom_site_occupancy
  La  La0  1  0.227778  0.679929  0.154501  1
  La  La1  1  0.735185  0.819312  0.847317  1
  La  La2  1  0.268629  0.318759  0.655446  1
  La  La3  1  0.771509  0.179141  0.345753  1
  Y  Y4  1  0.922435  0.674082  0.623952  1
  Y  Y5  1  0.429002  0.821719  0.374018  1
  Y  Y6  1  0.569823  0.322318  0.125902  1
  Y  Y7  1  0.079873  0.173181  0.871002  1
  Y  Y8  1  0.577467  0.322038  0.873189  1
  Y  Y9  1  0.073053  0.180529  0.129003  1
  Y  Y10  1  0.928136  0.680391  0.371767  1
  Y  Y11  1  0.420627  0.824504  0.631124  1
  Y  Y12  1  0.093916  0.010587  0.500780  1
  Y  Y13  1  0.594779  0.490112  0.499471  1
  Y  Y14  1  0.406800  0.988946  0.997918  1
  Y  Y15  1  0.904563  0.508672  0.998575  1
  Y  Y16  1  0.277539  0.316553  0.352853  1
  Y  Y17  1  0.764203  0.180887  0.647508  1
  Y  Y18  1  0.229612  0.683087  0.850917  1
  Y  Y19  1  0.721907  0.817332  0.147037  1
  Si  Si20  1  0.599852  0.534355  0.288039  1
  Si  Si21  1  0.401456  0.034668  0.212360  1
  Si  Si22  1  0.905489  0.463372  0.786782  1
  Si  Si23  1  0.423887  0.028900  0.796505  1
  Si  Si24  1  0.886317  0.478233  0.206951  1
  Si  Si25  1  0.113193  0.978221  0.293215  1
  Si  Si26  1  0.605466  0.525428  0.708654  1
  Si  Si27  1  0.977964  0.375621  0.497702  1
  Si  Si28  1  0.476713  0.122921  0.501842  1
  Si  Si29  1  0.521164  0.623475  0.999654  1
  Si  Si30  1  0.024065  0.877471  0.001766  1
  Si  Si31  1  0.222142  0.609029  0.499957  1
  Si  Si32  1  0.717904  0.889332  0.499858  1
  Si  Si33  1  0.276869  0.390111  0.999527  1
  Si  Si34  1  0.783923  0.110396  0.002661  1
  As  As35  1  0.066766  0.966386  0.706493  1
