# generated using pymatgen
data_Zr2TlTe4
_symmetry_space_group_name_H-M   'P 1'
_cell_length_a   6.79449500
_cell_length_b   7.87349500
_cell_length_c   18.02675600
_cell_angle_alpha   90.00000000
_cell_angle_beta   90.00000000
_cell_angle_gamma   90.00000000
_symmetry_Int_Tables_number   1
_chemical_formula_structural   Zr2TlTe4
_chemical_formula_sum   'Zr8 Tl4 Te16'
_cell_volume   964.36695366
_cell_formula_units_Z   4
loop_
 _symmetry_equiv_pos_site_id
 _symmetry_equiv_pos_as_xyz
  1  'x, y, z'
loop_
 _atom_site_type_symbol
 _atom_site_label
 _atom_site_symmetry_multiplicity
 _atom_site_fract_x
 _atom_site_fract_y
 _atom_site_fract_z
 _atom_site_occupancy
  Zr  Zr0  1  0.001433  0.000000  0.249717  1
  Zr  Zr1  1  0.001433  0.000000  0.750283  1
  Zr  Zr2  1  0.998567  0.500000  0.250283  1
  Zr  Zr3  1  0.998567  0.500000  0.749717  1
  Zr  Zr4  1  0.500000  0.250000  0.250000  1
  Zr  Zr5  1  0.500000  0.750000  0.750000  1
  Zr  Zr6  1  0.500000  0.750000  0.250000  1
  Zr  Zr7  1  0.500000  0.250000  0.750000  1
  Tl  Tl8  1  0.347513  0.000000  0.000000  1
  Tl  Tl9  1  0.652487  0.500000  0.500000  1
  Tl  Tl10  1  0.027827  0.000000  0.500000  1
  Tl  Tl11  1  0.972173  0.500000  0.000000  1
  Te  Te12  1  0.834137  0.249743  0.352596  1
  Te  Te13  1  0.834137  0.750257  0.647404  1
  Te  Te14  1  0.165863  0.749743  0.147404  1
  Te  Te15  1  0.165863  0.250257  0.852596  1
  Te  Te16  1  0.165863  0.250257  0.147404  1
  Te  Te17  1  0.165863  0.749743  0.852596  1
  Te  Te18  1  0.834137  0.750257  0.352596  1
  Te  Te19  1  0.834137  0.249743  0.647404  1
  Te  Te20  1  0.668721  0.000000  0.148264  1
  Te  Te21  1  0.668721  0.000000  0.851736  1
  Te  Te22  1  0.331279  0.500000  0.351736  1
  Te  Te23  1  0.331279  0.500000  0.648264  1
  Te  Te24  1  0.336582  0.000000  0.351370  1
  Te  Te25  1  0.336582  0.000000  0.648630  1
  Te  Te26  1  0.663418  0.500000  0.148630  1
  Te  Te27  1  0.663418  0.500000  0.851370  1
