# generated using pymatgen
data_Er3(Fe2Os)2
_symmetry_space_group_name_H-M   'P 1'
_cell_length_a   5.22486575
_cell_length_b   5.20570458
_cell_length_c   12.68664195
_cell_angle_alpha   89.50195401
_cell_angle_beta   90.78093422
_cell_angle_gamma   120.37851251
_symmetry_Int_Tables_number   1
_chemical_formula_structural   Er3(Fe2Os)2
_chemical_formula_sum   'Er6 Fe8 Os4'
_cell_volume   297.66073678
_cell_formula_units_Z   2
loop_
 _symmetry_equiv_pos_site_id
 _symmetry_equiv_pos_as_xyz
  1  'x, y, z'
loop_
 _atom_site_type_symbol
 _atom_site_label
 _atom_site_symmetry_multiplicity
 _atom_site_fract_x
 _atom_site_fract_y
 _atom_site_fract_z
 _atom_site_occupancy
  Er  Er0  1  0.332833  0.665646  0.914637  1
  Er  Er1  1  0.002143  0.002357  0.250950  1
  Er  Er2  1  0.667042  0.332990  0.583846  1
  Er  Er3  1  0.332958  0.667010  0.666154  1
  Er  Er4  1  0.997857  0.997643  0.999050  1
  Er  Er5  1  0.667167  0.334354  0.335363  1
  Fe  Fe6  1  0.166747  0.333507  0.459283  1
  Fe  Fe7  1  0.833253  0.666493  0.790717  1
  Fe  Fe8  1  0.333247  0.665561  0.296343  1
  Fe  Fe9  1  0.000000  0.000000  0.625000  1
  Fe  Fe10  1  0.666753  0.334439  0.953657  1
  Fe  Fe11  1  0.000000  0.500000  0.125000  1
  Fe  Fe12  1  0.667640  0.833736  0.459809  1
  Fe  Fe13  1  0.332360  0.166264  0.790191  1
  Os  Os14  1  0.500000  0.500000  0.125000  1
  Os  Os15  1  0.166558  0.833982  0.459772  1
  Os  Os16  1  0.833442  0.166018  0.790228  1
  Os  Os17  1  0.500000  0.000000  0.125000  1
