# generated using pymatgen
data_NdNiP3Rh4
_symmetry_space_group_name_H-M   'P 1'
_cell_length_a   3.91943200
_cell_length_b   10.80789400
_cell_length_c   12.50755000
_cell_angle_alpha   90.00000000
_cell_angle_beta   90.00000000
_cell_angle_gamma   90.00000000
_symmetry_Int_Tables_number   1
_chemical_formula_structural   NdNiP3Rh4
_chemical_formula_sum   'Nd4 Ni4 P12 Rh16'
_cell_volume   529.82989403
_cell_formula_units_Z   4
loop_
 _symmetry_equiv_pos_site_id
 _symmetry_equiv_pos_as_xyz
  1  'x, y, z'
loop_
 _atom_site_type_symbol
 _atom_site_label
 _atom_site_symmetry_multiplicity
 _atom_site_fract_x
 _atom_site_fract_y
 _atom_site_fract_z
 _atom_site_occupancy
  Nd  Nd0  1  0.250000  0.586760  0.707136  1
  Nd  Nd1  1  0.250000  0.913240  0.207136  1
  Nd  Nd2  1  0.750000  0.413240  0.292864  1
  Nd  Nd3  1  0.750000  0.086760  0.792864  1
  Ni  Ni4  1  0.250000  0.464263  0.936184  1
  Ni  Ni5  1  0.250000  0.035737  0.436184  1
  Ni  Ni6  1  0.750000  0.535737  0.063816  1
  Ni  Ni7  1  0.750000  0.964263  0.563816  1
  P  P8  1  0.250000  0.417499  0.107117  1
  P  P9  1  0.250000  0.082501  0.607117  1
  P  P10  1  0.750000  0.582501  0.892883  1
  P  P11  1  0.750000  0.917499  0.392883  1
  P  P12  1  0.250000  0.273861  0.873163  1
  P  P13  1  0.250000  0.226139  0.373163  1
  P  P14  1  0.750000  0.726139  0.126837  1
  P  P15  1  0.750000  0.773861  0.626837  1
  P  P16  1  0.250000  0.599305  0.387686  1
  P  P17  1  0.250000  0.900695  0.887686  1
  P  P18  1  0.750000  0.400695  0.612314  1
  P  P19  1  0.750000  0.099305  0.112314  1
  Rh  Rh20  1  0.250000  0.710918  0.977002  1
  Rh  Rh21  1  0.250000  0.789082  0.477002  1
  Rh  Rh22  1  0.750000  0.289082  0.022998  1
  Rh  Rh23  1  0.750000  0.210918  0.522998  1
  Rh  Rh24  1  0.250000  0.406750  0.482344  1
  Rh  Rh25  1  0.250000  0.093250  0.982344  1
  Rh  Rh26  1  0.750000  0.593250  0.517656  1
  Rh  Rh27  1  0.750000  0.906750  0.017656  1
  Rh  Rh28  1  0.250000  0.222240  0.180047  1
  Rh  Rh29  1  0.250000  0.277760  0.680047  1
  Rh  Rh30  1  0.750000  0.777760  0.819953  1
  Rh  Rh31  1  0.750000  0.722240  0.319953  1
  Rh  Rh32  1  0.250000  0.886566  0.694145  1
  Rh  Rh33  1  0.250000  0.613434  0.194145  1
  Rh  Rh34  1  0.750000  0.113434  0.305855  1
  Rh  Rh35  1  0.750000  0.386566  0.805855  1
