# generated using pymatgen
data_Dy2SnGe3(AsRh4)3
_symmetry_space_group_name_H-M   'P 1'
_cell_length_a   10.07633600
_cell_length_b   10.07633654
_cell_length_c   3.92145500
_cell_angle_alpha   90.00000000
_cell_angle_beta   90.00000000
_cell_angle_gamma   119.99999910
_symmetry_Int_Tables_number   1
_chemical_formula_structural   Dy2SnGe3(AsRh4)3
_chemical_formula_sum   'Dy2 Sn1 Ge3 As3 Rh12'
_cell_volume   344.81263890
_cell_formula_units_Z   1
loop_
 _symmetry_equiv_pos_site_id
 _symmetry_equiv_pos_as_xyz
  1  'x, y, z'
loop_
 _atom_site_type_symbol
 _atom_site_label
 _atom_site_symmetry_multiplicity
 _atom_site_fract_x
 _atom_site_fract_y
 _atom_site_fract_z
 _atom_site_occupancy
  Dy  Dy0  1  0.333333  0.666667  0.751542  1
  Dy  Dy1  1  0.666667  0.333333  0.243833  1
  Sn  Sn2  1  0.000000  0.000000  0.658573  1
  Ge  Ge3  1  0.882526  0.593882  0.745507  1
  Ge  Ge4  1  0.406118  0.288644  0.745507  1
  Ge  Ge5  1  0.711356  0.117474  0.745507  1
  As  As6  1  0.114245  0.405765  0.249167  1
  As  As7  1  0.594235  0.708480  0.249167  1
  As  As8  1  0.291520  0.885755  0.249167  1
  Rh  Rh9  1  0.618929  0.553485  0.747201  1
  Rh  Rh10  1  0.446515  0.065445  0.747201  1
  Rh  Rh11  1  0.934555  0.381071  0.747201  1
  Rh  Rh12  1  0.385413  0.446507  0.247383  1
  Rh  Rh13  1  0.553493  0.938906  0.247383  1
  Rh  Rh14  1  0.061094  0.614587  0.247383  1
  Rh  Rh15  1  0.129424  0.839467  0.750555  1
  Rh  Rh16  1  0.160533  0.289957  0.750555  1
  Rh  Rh17  1  0.710043  0.870576  0.750555  1
  Rh  Rh18  1  0.883065  0.145432  0.243631  1
  Rh  Rh19  1  0.854568  0.737632  0.243631  1
  Rh  Rh20  1  0.262368  0.116935  0.243631  1
