# generated using pymatgen
data_Yb11Tm9Sn16
_symmetry_space_group_name_H-M   'P 1'
_cell_length_a   7.78511334
_cell_length_b   8.39037744
_cell_length_c   15.87561900
_cell_angle_alpha   90.00000000
_cell_angle_beta   90.00000000
_cell_angle_gamma   89.86767322
_symmetry_Int_Tables_number   1
_chemical_formula_structural   Yb11Tm9Sn16
_chemical_formula_sum   'Yb11 Tm9 Sn16'
_cell_volume   1036.99329137
_cell_formula_units_Z   1
loop_
 _symmetry_equiv_pos_site_id
 _symmetry_equiv_pos_as_xyz
  1  'x, y, z'
loop_
 _atom_site_type_symbol
 _atom_site_label
 _atom_site_symmetry_multiplicity
 _atom_site_fract_x
 _atom_site_fract_y
 _atom_site_fract_z
 _atom_site_occupancy
  Yb  Yb0  1  0.501218  0.687210  0.593373  1
  Yb  Yb1  1  0.001562  0.814854  0.908895  1
  Yb  Yb2  1  0.497221  0.312535  0.091463  1
  Yb  Yb3  1  0.998317  0.187445  0.408724  1
  Yb  Yb4  1  0.497221  0.312535  0.408537  1
  Yb  Yb5  1  0.998317  0.187445  0.091276  1
  Yb  Yb6  1  0.501218  0.687210  0.906627  1
  Yb  Yb7  1  0.001562  0.814854  0.591105  1
  Yb  Yb8  1  0.332302  0.988814  0.750000  1
  Yb  Yb9  1  0.168655  0.487427  0.250000  1
  Yb  Yb10  1  0.668554  0.011098  0.250000  1
  Tm  Tm11  1  0.672540  0.162504  0.622208  1
  Tm  Tm12  1  0.173090  0.335750  0.877229  1
  Tm  Tm13  1  0.328154  0.833871  0.121823  1
  Tm  Tm14  1  0.828283  0.664231  0.378441  1
  Tm  Tm15  1  0.328154  0.833871  0.378177  1
  Tm  Tm16  1  0.828283  0.664231  0.121559  1
  Tm  Tm17  1  0.672540  0.162504  0.877792  1
  Tm  Tm18  1  0.173090  0.335750  0.622771  1
  Tm  Tm19  1  0.833055  0.508848  0.750000  1
  Sn  Sn20  1  0.673456  0.961695  0.459764  1
  Sn  Sn21  1  0.173295  0.537744  0.039546  1
  Sn  Sn22  1  0.326900  0.038198  0.959384  1
  Sn  Sn23  1  0.826021  0.464179  0.543820  1
  Sn  Sn24  1  0.326900  0.038198  0.540616  1
  Sn  Sn25  1  0.826021  0.464179  0.956180  1
  Sn  Sn26  1  0.673456  0.961695  0.040236  1
  Sn  Sn27  1  0.173295  0.537744  0.460454  1
  Sn  Sn28  1  0.472161  0.377716  0.750000  1
  Sn  Sn29  1  0.968428  0.134673  0.750000  1
  Sn  Sn30  1  0.531498  0.629063  0.250000  1
  Sn  Sn31  1  0.031278  0.869316  0.250000  1
  Sn  Sn32  1  0.718823  0.864076  0.750000  1
  Sn  Sn33  1  0.205555  0.630180  0.750000  1
  Sn  Sn34  1  0.284404  0.125687  0.250000  1
  Sn  Sn35  1  0.785172  0.372668  0.250000  1
