# generated using pymatgen
data_Tm6Si2Tc
_symmetry_space_group_name_H-M   'P 1'
_cell_length_a   7.60520600
_cell_length_b   7.60520498
_cell_length_c   4.33044700
_cell_angle_alpha   90.00000000
_cell_angle_beta   90.00000000
_cell_angle_gamma   119.99999572
_symmetry_Int_Tables_number   1
_chemical_formula_structural   Tm6Si2Tc
_chemical_formula_sum   'Tm6 Si2 Tc1'
_cell_volume   216.91285188
_cell_formula_units_Z   1
loop_
 _symmetry_equiv_pos_site_id
 _symmetry_equiv_pos_as_xyz
  1  'x, y, z'
loop_
 _atom_site_type_symbol
 _atom_site_label
 _atom_site_symmetry_multiplicity
 _atom_site_fract_x
 _atom_site_fract_y
 _atom_site_fract_z
 _atom_site_occupancy
  Tm  Tm0  1  0.409476  0.000000  0.000000  1
  Tm  Tm1  1  0.000000  0.409476  0.000000  1
  Tm  Tm2  1  0.590524  0.590523  0.000000  1
  Tm  Tm3  1  0.749195  0.000000  0.500000  1
  Tm  Tm4  1  0.250805  0.250805  0.500000  1
  Tm  Tm5  1  0.000000  0.749196  0.500000  1
  Si  Si6  1  0.666666  0.333334  0.500000  1
  Si  Si7  1  0.333334  0.666667  0.500000  1
  Tc  Tc8  1  0.000000  0.000000  0.000000  1
