# generated using pymatgen
data_YbDy5Si24Os3Ru5
_symmetry_space_group_name_H-M   'P 1'
_cell_length_a   10.13050497
_cell_length_b   10.13050446
_cell_length_c   8.14114201
_cell_angle_alpha   89.99829473
_cell_angle_beta   89.99829372
_cell_angle_gamma   132.56738119
_symmetry_Int_Tables_number   1
_chemical_formula_structural   YbDy5Si24Os3Ru5
_chemical_formula_sum   'Yb1 Dy5 Si24 Os3 Ru5'
_cell_volume   615.33245019
_cell_formula_units_Z   1
loop_
 _symmetry_equiv_pos_site_id
 _symmetry_equiv_pos_as_xyz
  1  'x, y, z'
loop_
 _atom_site_type_symbol
 _atom_site_label
 _atom_site_symmetry_multiplicity
 _atom_site_fract_x
 _atom_site_fract_y
 _atom_site_fract_z
 _atom_site_occupancy
  Yb  Yb0  1  0.500038  0.499962  0.500000  1
  Dy  Dy1  1  0.000013  0.999987  0.000000  1
  Dy  Dy2  1  0.501803  0.002042  0.749864  1
  Dy  Dy3  1  0.997958  0.498197  0.250136  1
  Dy  Dy4  1  0.497979  0.997777  0.249997  1
  Dy  Dy5  1  0.002223  0.502021  0.750003  1
  Si  Si6  1  0.796569  0.203431  0.500000  1
  Si  Si7  1  0.296260  0.703740  0.000000  1
  Si  Si8  1  0.203536  0.796464  0.500000  1
  Si  Si9  1  0.704290  0.295710  0.000000  1
  Si  Si10  1  0.333620  0.333352  0.831967  1
  Si  Si11  1  0.666648  0.666380  0.168033  1
  Si  Si12  1  0.168534  0.168624  0.333946  1
  Si  Si13  1  0.831376  0.831466  0.666054  1
  Si  Si14  1  0.122355  0.889141  0.728084  1
  Si  Si15  1  0.110859  0.877645  0.271916  1
  Si  Si16  1  0.611392  0.378801  0.229041  1
  Si  Si17  1  0.621199  0.388608  0.770959  1
  Si  Si18  1  0.877157  0.110685  0.270924  1
  Si  Si19  1  0.889315  0.122843  0.729076  1
  Si  Si20  1  0.389419  0.621953  0.770543  1
  Si  Si21  1  0.378047  0.610581  0.229457  1
  Si  Si22  1  0.345851  0.114050  0.505733  1
  Si  Si23  1  0.885950  0.654149  0.494267  1
  Si  Si24  1  0.388517  0.155833  0.004702  1
  Si  Si25  1  0.844167  0.611483  0.995298  1
  Si  Si26  1  0.654324  0.886082  0.493993  1
  Si  Si27  1  0.113918  0.345676  0.506007  1
  Si  Si28  1  0.612819  0.845764  0.994475  1
  Si  Si29  1  0.154236  0.387181  0.005525  1
  Os  Os30  1  0.670923  0.329077  0.500000  1
  Os  Os31  1  0.170131  0.829869  0.000000  1
  Os  Os32  1  0.329122  0.670878  0.500000  1
  Ru  Ru33  1  0.829675  0.170325  0.000000  1
  Ru  Ru34  1  0.125674  0.125567  0.627933  1
  Ru  Ru35  1  0.874433  0.874326  0.372067  1
  Ru  Ru36  1  0.372751  0.373081  0.126189  1
  Ru  Ru37  1  0.626919  0.627249  0.873811  1
