# generated using pymatgen
data_Er16MgHg3Rh4
_symmetry_space_group_name_H-M   'P 1'
_cell_length_a   9.53279614
_cell_length_b   9.50789609
_cell_length_c   9.50789500
_cell_angle_alpha   60.00000031
_cell_angle_beta   60.08636835
_cell_angle_gamma   60.08636787
_symmetry_Int_Tables_number   1
_chemical_formula_structural   Er16MgHg3Rh4
_chemical_formula_sum   'Er16 Mg1 Hg3 Rh4'
_cell_volume   610.15451845
_cell_formula_units_Z   1
loop_
 _symmetry_equiv_pos_site_id
 _symmetry_equiv_pos_as_xyz
  1  'x, y, z'
loop_
 _atom_site_type_symbol
 _atom_site_label
 _atom_site_symmetry_multiplicity
 _atom_site_fract_x
 _atom_site_fract_y
 _atom_site_fract_z
 _atom_site_occupancy
  Er  Er0  1  0.601769  0.598933  0.598933  1
  Er  Er1  1  0.601769  0.598933  0.200366  1
  Er  Er2  1  0.601769  0.200366  0.598933  1
  Er  Er3  1  0.188068  0.603977  0.603977  1
  Er  Er4  1  0.061308  0.438982  0.438982  1
  Er  Er5  1  0.435659  0.063636  0.063636  1
  Er  Er6  1  0.435659  0.063636  0.437070  1
  Er  Er7  1  0.061308  0.438982  0.060726  1
  Er  Er8  1  0.435659  0.437070  0.063636  1
  Er  Er9  1  0.061308  0.060726  0.438982  1
  Er  Er10  1  0.184024  0.814293  0.814293  1
  Er  Er11  1  0.812790  0.186275  0.186275  1
  Er  Er12  1  0.812790  0.186275  0.814660  1
  Er  Er13  1  0.184024  0.814293  0.187390  1
  Er  Er14  1  0.812790  0.814660  0.186275  1
  Er  Er15  1  0.184024  0.187390  0.814293  1
  Mg  Mg16  1  0.533268  0.822244  0.822244  1
  Hg  Hg17  1  0.832108  0.836321  0.836321  1
  Hg  Hg18  1  0.832108  0.836321  0.495251  1
  Hg  Hg19  1  0.832108  0.495251  0.836321  1
  Rh  Rh20  1  0.391134  0.394727  0.394727  1
  Rh  Rh21  1  0.391134  0.394727  0.819411  1
  Rh  Rh22  1  0.391134  0.819411  0.394727  1
  Rh  Rh23  1  0.822283  0.392572  0.392572  1
