# generated using pymatgen
data_SrOsRhO6
_symmetry_space_group_name_H-M   'P 1'
_cell_length_a   5.33400300
_cell_length_b   5.33453552
_cell_length_c   10.45205215
_cell_angle_alpha   89.99252842
_cell_angle_beta   90.00129866
_cell_angle_gamma   120.00400707
_symmetry_Int_Tables_number   1
_chemical_formula_structural   SrOsRhO6
_chemical_formula_sum   'Sr2 Os2 Rh2 O12'
_cell_volume   257.55176173
_cell_formula_units_Z   2
loop_
 _symmetry_equiv_pos_site_id
 _symmetry_equiv_pos_as_xyz
  1  'x, y, z'
loop_
 _atom_site_type_symbol
 _atom_site_label
 _atom_site_symmetry_multiplicity
 _atom_site_fract_x
 _atom_site_fract_y
 _atom_site_fract_z
 _atom_site_occupancy
  Sr  Sr0  1  0.999996  0.000009  0.999956  1
  Sr  Sr1  1  0.999973  0.999986  0.500066  1
  Os  Os2  1  0.666649  0.333353  0.750021  1
  Os  Os3  1  0.333301  0.666615  0.249988  1
  Rh  Rh4  1  0.666662  0.333368  0.249988  1
  Rh  Rh5  1  0.333362  0.666657  0.750011  1
  O  O6  1  0.610661  0.622474  0.351429  1
  O  O7  1  0.622723  0.610388  0.851436  1
  O  O8  1  0.011819  0.389309  0.351431  1
  O  O9  1  0.987715  0.377259  0.851436  1
  O  O10  1  0.377475  0.988139  0.351439  1
  O  O11  1  0.389556  0.012245  0.851429  1
  O  O12  1  0.610681  0.988224  0.148552  1
  O  O13  1  0.622725  0.012317  0.648570  1
  O  O14  1  0.377523  0.389394  0.148549  1
  O  O15  1  0.389591  0.377321  0.648583  1
  O  O16  1  0.011847  0.622493  0.148533  1
  O  O17  1  0.987740  0.610449  0.648584  1
