# generated using pymatgen
data_PaNiH3
_symmetry_space_group_name_H-M   'P 1'
_cell_length_a   5.97279964
_cell_length_b   5.97279988
_cell_length_c   4.48929100
_cell_angle_alpha   90.00000000
_cell_angle_beta   90.00000000
_cell_angle_gamma   143.85171112
_symmetry_Int_Tables_number   1
_chemical_formula_structural   PaNiH3
_chemical_formula_sum   'Pa2 Ni2 H6'
_cell_volume   94.47028392
_cell_formula_units_Z   2
loop_
 _symmetry_equiv_pos_site_id
 _symmetry_equiv_pos_as_xyz
  1  'x, y, z'
loop_
 _atom_site_type_symbol
 _atom_site_label
 _atom_site_symmetry_multiplicity
 _atom_site_fract_x
 _atom_site_fract_y
 _atom_site_fract_z
 _atom_site_occupancy
  Pa  Pa0  1  0.862815  0.137185  0.750000  1
  Pa  Pa1  1  0.137185  0.862815  0.250000  1
  Ni  Ni2  1  0.559449  0.440551  0.750000  1
  Ni  Ni3  1  0.440551  0.559449  0.250000  1
  H  H4  1  0.067965  0.932035  0.750000  1
  H  H5  1  0.932035  0.067965  0.250000  1
  H  H6  1  0.688636  0.311364  0.505652  1
  H  H7  1  0.311364  0.688636  0.494348  1
  H  H8  1  0.688636  0.311364  0.994348  1
  H  H9  1  0.311364  0.688636  0.005652  1
