# generated using pymatgen
data_NpSc5(GaRu2)6
_symmetry_space_group_name_H-M   'P 1'
_cell_length_a   4.42957300
_cell_length_b   6.27528700
_cell_length_c   13.29812900
_cell_angle_alpha   90.00000000
_cell_angle_beta   89.99943538
_cell_angle_gamma   90.00000000
_symmetry_Int_Tables_number   1
_chemical_formula_structural   NpSc5(GaRu2)6
_chemical_formula_sum   'Np1 Sc5 Ga6 Ru12'
_cell_volume   369.64598887
_cell_formula_units_Z   1
loop_
 _symmetry_equiv_pos_site_id
 _symmetry_equiv_pos_as_xyz
  1  'x, y, z'
loop_
 _atom_site_type_symbol
 _atom_site_label
 _atom_site_symmetry_multiplicity
 _atom_site_fract_x
 _atom_site_fract_y
 _atom_site_fract_z
 _atom_site_occupancy
  Np  Np0  1  0.000000  0.500001  0.000000  1
  Sc  Sc1  1  0.499996  0.000000  0.170798  1
  Sc  Sc2  1  0.999998  0.500001  0.335909  1
  Sc  Sc3  1  0.500001  0.000000  0.500000  1
  Sc  Sc4  1  0.000002  0.500001  0.664091  1
  Sc  Sc5  1  0.500004  0.000000  0.829202  1
  Ga  Ga6  1  0.000000  0.000000  0.000000  1
  Ga  Ga7  1  0.499996  0.500001  0.176753  1
  Ga  Ga8  1  0.999995  0.000000  0.335575  1
  Ga  Ga9  1  0.500001  0.500001  0.500000  1
  Ga  Ga10  1  0.000005  0.000000  0.664425  1
  Ga  Ga11  1  0.500006  0.500001  0.823247  1
  Ru  Ru12  1  0.500001  0.254047  0.000000  1
  Ru  Ru13  1  0.500001  0.745953  0.000000  1
  Ru  Ru14  1  0.999994  0.261117  0.157589  1
  Ru  Ru15  1  0.999994  0.738883  0.157589  1
  Ru  Ru16  1  0.499993  0.247826  0.333074  1
  Ru  Ru17  1  0.499993  0.752173  0.333074  1
  Ru  Ru18  1  0.000000  0.250497  0.500000  1
  Ru  Ru19  1  0.000000  0.749503  0.500000  1
  Ru  Ru20  1  0.500008  0.247826  0.666926  1
  Ru  Ru21  1  0.500008  0.752173  0.666926  1
  Ru  Ru22  1  0.000006  0.261117  0.842411  1
  Ru  Ru23  1  0.000006  0.738883  0.842411  1
