# generated using pymatgen
data_CaNdGeRh3
_symmetry_space_group_name_H-M   'P 1'
_cell_length_a   5.18213001
_cell_length_b   5.18212970
_cell_length_c   5.18212892
_cell_angle_alpha   66.11347843
_cell_angle_beta   66.11348581
_cell_angle_gamma   66.11347687
_symmetry_Int_Tables_number   1
_chemical_formula_structural   CaNdGeRh3
_chemical_formula_sum   'Ca1 Nd1 Ge1 Rh3'
_cell_volume   111.40817771
_cell_formula_units_Z   1
loop_
 _symmetry_equiv_pos_site_id
 _symmetry_equiv_pos_as_xyz
  1  'x, y, z'
loop_
 _atom_site_type_symbol
 _atom_site_label
 _atom_site_symmetry_multiplicity
 _atom_site_fract_x
 _atom_site_fract_y
 _atom_site_fract_z
 _atom_site_occupancy
  Ca  Ca0  1  0.628534  0.628534  0.628534  1
  Nd  Nd1  1  0.371514  0.371514  0.371514  1
  Ge  Ge2  1  0.000067  0.000067  0.000067  1
  Rh  Rh3  1  0.999544  0.999544  0.500797  1
  Rh  Rh4  1  0.500797  0.999544  0.999544  1
  Rh  Rh5  1  0.999544  0.500797  0.999544  1
