# generated using pymatgen
data_Ho4Al18Ir5Pt
_symmetry_space_group_name_H-M   'P 1'
_cell_length_a   7.56568290
_cell_length_b   7.56568370
_cell_length_c   9.44589494
_cell_angle_alpha   89.95463138
_cell_angle_beta   89.95463407
_cell_angle_gamma   119.65681834
_symmetry_Int_Tables_number   1
_chemical_formula_structural   Ho4Al18Ir5Pt
_chemical_formula_sum   'Ho4 Al18 Ir5 Pt1'
_cell_volume   469.85191426
_cell_formula_units_Z   1
loop_
 _symmetry_equiv_pos_site_id
 _symmetry_equiv_pos_as_xyz
  1  'x, y, z'
loop_
 _atom_site_type_symbol
 _atom_site_label
 _atom_site_symmetry_multiplicity
 _atom_site_fract_x
 _atom_site_fract_y
 _atom_site_fract_z
 _atom_site_occupancy
  Ho  Ho0  1  0.994923  0.670437  0.250616  1
  Ho  Ho1  1  0.004902  0.329656  0.749510  1
  Ho  Ho2  1  0.670344  0.995098  0.250490  1
  Ho  Ho3  1  0.329563  0.005077  0.749384  1
  Al  Al4  1  0.127776  0.126950  0.250548  1
  Al  Al5  1  0.873050  0.872224  0.749452  1
  Al  Al6  1  0.004225  0.335447  0.076523  1
  Al  Al7  1  0.002298  0.668356  0.923382  1
  Al  Al8  1  0.000271  0.665057  0.574684  1
  Al  Al9  1  0.334943  0.999729  0.425316  1
  Al  Al10  1  0.000455  0.334464  0.424839  1
  Al  Al11  1  0.665536  0.999545  0.575161  1
  Al  Al12  1  0.664553  0.995775  0.923477  1
  Al  Al13  1  0.331644  0.997702  0.076618  1
  Al  Al14  1  0.332985  0.332858  0.552325  1
  Al  Al15  1  0.667142  0.667015  0.447675  1
  Al  Al16  1  0.666511  0.669763  0.055725  1
  Al  Al17  1  0.330237  0.333489  0.944275  1
  Al  Al18  1  0.340323  0.549672  0.250388  1
  Al  Al19  1  0.660155  0.453128  0.747369  1
  Al  Al20  1  0.546872  0.339845  0.252631  1
  Al  Al21  1  0.450328  0.659677  0.749612  1
  Ir  Ir22  1  0.328063  0.671937  0.000000  1
  Ir  Ir23  1  0.328310  0.671690  0.500000  1
  Ir  Ir24  1  0.672101  0.327899  0.500000  1
  Ir  Ir25  1  0.999799  0.000201  0.000000  1
  Ir  Ir26  1  0.000334  0.999666  0.500000  1
  Pt  Pt27  1  0.672357  0.327643  0.000000  1
