# generated using pymatgen
data_Pr8Zn8AgIr3Rh4
_symmetry_space_group_name_H-M   'P 1'
_cell_length_a   4.05380400
_cell_length_b   7.41514744
_cell_length_c   16.83195959
_cell_angle_alpha   90.07165465
_cell_angle_beta   90.00000000
_cell_angle_gamma   90.00000000
_symmetry_Int_Tables_number   1
_chemical_formula_structural   Pr8Zn8AgIr3Rh4
_chemical_formula_sum   'Pr8 Zn8 Ag1 Ir3 Rh4'
_cell_volume   505.96080858
_cell_formula_units_Z   1
loop_
 _symmetry_equiv_pos_site_id
 _symmetry_equiv_pos_as_xyz
  1  'x, y, z'
loop_
 _atom_site_type_symbol
 _atom_site_label
 _atom_site_symmetry_multiplicity
 _atom_site_fract_x
 _atom_site_fract_y
 _atom_site_fract_z
 _atom_site_occupancy
  Pr  Pr0  1  0.750000  0.451805  0.213067  1
  Pr  Pr1  1  0.750000  0.949348  0.282268  1
  Pr  Pr2  1  0.750000  0.831612  0.060500  1
  Pr  Pr3  1  0.250000  0.039669  0.725155  1
  Pr  Pr4  1  0.250000  0.170154  0.941129  1
  Pr  Pr5  1  0.250000  0.549302  0.787565  1
  Pr  Pr6  1  0.750000  0.334485  0.428754  1
  Pr  Pr7  1  0.250000  0.676074  0.559407  1
  Zn  Zn8  1  0.250000  0.991593  0.432751  1
  Zn  Zn9  1  0.750000  0.501125  0.940517  1
  Zn  Zn10  1  0.750000  0.993335  0.560192  1
  Zn  Zn11  1  0.250000  0.623676  0.346844  1
  Zn  Zn12  1  0.750000  0.385481  0.660114  1
  Zn  Zn13  1  0.750000  0.875566  0.853553  1
  Zn  Zn14  1  0.250000  0.498759  0.059303  1
  Zn  Zn15  1  0.250000  0.123447  0.149720  1
  Ag  Ag16  1  0.250000  0.243855  0.567395  1
  Ir  Ir17  1  0.750000  0.258415  0.065448  1
  Ir  Ir18  1  0.250000  0.244451  0.313081  1
  Ir  Ir19  1  0.750000  0.253351  0.812452  1
  Rh  Rh20  1  0.250000  0.742591  0.936013  1
  Rh  Rh21  1  0.750000  0.754608  0.684723  1
  Rh  Rh22  1  0.750000  0.757074  0.434651  1
  Rh  Rh23  1  0.250000  0.750227  0.185399  1
