# generated using pymatgen
data_Tb9Lu(Sn3S)2
_symmetry_space_group_name_H-M   'P 1'
_cell_length_a   9.06762700
_cell_length_b   9.06762696
_cell_length_c   6.65440500
_cell_angle_alpha   90.00000000
_cell_angle_beta   90.00000000
_cell_angle_gamma   120.00000379
_symmetry_Int_Tables_number   1
_chemical_formula_structural   Tb9Lu(Sn3S)2
_chemical_formula_sum   'Tb9 Lu1 Sn6 S2'
_cell_volume   473.83499956
_cell_formula_units_Z   1
loop_
 _symmetry_equiv_pos_site_id
 _symmetry_equiv_pos_as_xyz
  1  'x, y, z'
loop_
 _atom_site_type_symbol
 _atom_site_label
 _atom_site_symmetry_multiplicity
 _atom_site_fract_x
 _atom_site_fract_y
 _atom_site_fract_z
 _atom_site_occupancy
  Tb  Tb0  1  0.666667  0.333333  0.000000  1
  Tb  Tb1  1  0.333333  0.666667  0.000000  1
  Tb  Tb2  1  0.333333  0.666667  0.500000  1
  Tb  Tb3  1  0.754686  0.754367  0.749530  1
  Tb  Tb4  1  0.245633  0.000319  0.749530  1
  Tb  Tb5  1  0.999681  0.245314  0.749530  1
  Tb  Tb6  1  0.245633  0.245314  0.250470  1
  Tb  Tb7  1  0.754686  0.000319  0.250470  1
  Tb  Tb8  1  0.999681  0.754367  0.250470  1
  Lu  Lu9  1  0.666667  0.333333  0.500000  1
  Sn  Sn10  1  0.398380  0.397099  0.748768  1
  Sn  Sn11  1  0.602901  0.001281  0.748768  1
  Sn  Sn12  1  0.998719  0.601620  0.748768  1
  Sn  Sn13  1  0.602901  0.601620  0.251232  1
  Sn  Sn14  1  0.398380  0.001281  0.251232  1
  Sn  Sn15  1  0.998719  0.397099  0.251232  1
  S  S16  1  0.000000  0.000000  0.000000  1
  S  S17  1  0.000000  0.000000  0.500000  1
