# generated using pymatgen
data_Zr10Sn5Ge2Bi
_symmetry_space_group_name_H-M   'P 1'
_cell_length_a   8.74210201
_cell_length_b   8.75113776
_cell_length_c   5.94461100
_cell_angle_alpha   90.00000000
_cell_angle_beta   90.00000000
_cell_angle_gamma   120.03420405
_symmetry_Int_Tables_number   1
_chemical_formula_structural   Zr10Sn5Ge2Bi
_chemical_formula_sum   'Zr10 Sn5 Ge2 Bi1'
_cell_volume   393.71745991
_cell_formula_units_Z   1
loop_
 _symmetry_equiv_pos_site_id
 _symmetry_equiv_pos_as_xyz
  1  'x, y, z'
loop_
 _atom_site_type_symbol
 _atom_site_label
 _atom_site_symmetry_multiplicity
 _atom_site_fract_x
 _atom_site_fract_y
 _atom_site_fract_z
 _atom_site_occupancy
  Zr  Zr0  1  0.664032  0.332674  0.998364  1
  Zr  Zr1  1  0.335968  0.668643  0.998364  1
  Zr  Zr2  1  0.335968  0.668643  0.501636  1
  Zr  Zr3  1  0.664032  0.332674  0.501636  1
  Zr  Zr4  1  0.736556  0.736798  0.750000  1
  Zr  Zr5  1  0.263444  0.000243  0.750000  1
  Zr  Zr6  1  0.000000  0.261790  0.750000  1
  Zr  Zr7  1  0.265133  0.260816  0.250000  1
  Zr  Zr8  1  0.734867  0.995683  0.250000  1
  Zr  Zr9  1  0.000000  0.740553  0.250000  1
  Sn  Sn10  1  0.392766  0.392872  0.750000  1
  Sn  Sn11  1  0.607234  0.000105  0.750000  1
  Sn  Sn12  1  0.000000  0.608570  0.750000  1
  Sn  Sn13  1  0.606640  0.606343  0.250000  1
  Sn  Sn14  1  0.393360  0.999702  0.250000  1
  Ge  Ge15  1  0.000000  0.000102  0.999334  1
  Ge  Ge16  1  0.000000  0.000102  0.500666  1
  Bi  Bi17  1  0.000000  0.393688  0.250000  1
