# generated using pymatgen
data_Zn16Cu9Pt
_symmetry_space_group_name_H-M   'P 1'
_cell_length_a   7.64306415
_cell_length_b   7.73914320
_cell_length_c   7.73914344
_cell_angle_alpha   109.72134512
_cell_angle_beta   109.21992669
_cell_angle_gamma   109.21993201
_symmetry_Int_Tables_number   1
_chemical_formula_structural   Zn16Cu9Pt
_chemical_formula_sum   'Zn16 Cu9 Pt1'
_cell_volume   353.48324631
_cell_formula_units_Z   1
loop_
 _symmetry_equiv_pos_site_id
 _symmetry_equiv_pos_as_xyz
  1  'x, y, z'
loop_
 _atom_site_type_symbol
 _atom_site_label
 _atom_site_symmetry_multiplicity
 _atom_site_fract_x
 _atom_site_fract_y
 _atom_site_fract_z
 _atom_site_occupancy
  Zn  Zn0  1  0.220650  0.000000  0.000000  1
  Zn  Zn1  1  0.002084  0.220462  0.000000  1
  Zn  Zn2  1  0.002084  0.000000  0.220462  1
  Zn  Zn3  1  0.781623  0.779538  0.779538  1
  Zn  Zn4  1  0.345189  0.717936  0.000000  1
  Zn  Zn5  1  0.627253  0.282064  0.282064  1
  Zn  Zn6  1  0.345189  0.000000  0.717936  1
  Zn  Zn7  1  0.723550  0.353162  0.000000  1
  Zn  Zn8  1  0.000684  0.348630  0.722428  1
  Zn  Zn9  1  0.278256  0.626202  0.277572  1
  Zn  Zn10  1  0.278256  0.277572  0.626202  1
  Zn  Zn11  1  0.000684  0.722428  0.348630  1
  Zn  Zn12  1  0.723550  0.000000  0.353162  1
  Zn  Zn13  1  0.652054  0.651370  0.373798  1
  Zn  Zn14  1  0.370387  0.646838  0.646838  1
  Zn  Zn15  1  0.652054  0.373798  0.651370  1
  Cu  Cu16  1  0.001211  0.655647  0.000000  1
  Cu  Cu17  1  0.001211  0.000000  0.655647  1
  Cu  Cu18  1  0.345564  0.344353  0.344353  1
  Cu  Cu19  1  0.997139  0.643797  0.643797  1
  Cu  Cu20  1  0.353342  0.000000  0.356203  1
  Cu  Cu21  1  0.353342  0.356203  0.000000  1
  Cu  Cu22  1  0.005266  0.361612  0.361612  1
  Cu  Cu23  1  0.643654  0.000000  0.638388  1
  Cu  Cu24  1  0.643654  0.638388  0.000000  1
  Pt  Pt25  1  0.652070  0.000000  0.000000  1
