# generated using pymatgen
data_Ta8MnTlS16
_symmetry_space_group_name_H-M   'P 1'
_cell_length_a   6.71101802
_cell_length_b   6.71102201
_cell_length_c   14.27406500
_cell_angle_alpha   89.98485436
_cell_angle_beta   90.00392728
_cell_angle_gamma   120.00354025
_symmetry_Int_Tables_number   1
_chemical_formula_structural   Ta8MnTlS16
_chemical_formula_sum   'Ta8 Mn1 Tl1 S16'
_cell_volume   556.72389184
_cell_formula_units_Z   1
loop_
 _symmetry_equiv_pos_site_id
 _symmetry_equiv_pos_as_xyz
  1  'x, y, z'
loop_
 _atom_site_type_symbol
 _atom_site_label
 _atom_site_symmetry_multiplicity
 _atom_site_fract_x
 _atom_site_fract_y
 _atom_site_fract_z
 _atom_site_occupancy
  Ta  Ta0  1  0.504602  0.495576  0.780774  1
  Ta  Ta1  1  0.009108  0.504617  0.219255  1
  Ta  Ta2  1  0.495160  0.990618  0.219265  1
  Ta  Ta3  1  0.504840  0.009382  0.780735  1
  Ta  Ta4  1  0.990892  0.495383  0.780745  1
  Ta  Ta5  1  0.495398  0.504424  0.219226  1
  Ta  Ta6  1  0.000076  0.000221  0.780514  1
  Ta  Ta7  1  0.999924  0.999779  0.219486  1
  Mn  Mn8  1  0.000000  0.000000  0.000000  1
  Tl  Tl9  1  0.000000  0.000000  0.500000  1
  S  S10  1  0.832277  0.167309  0.326769  1
  S  S11  1  0.832212  0.664441  0.326808  1
  S  S12  1  0.335287  0.167450  0.326853  1
  S  S13  1  0.664899  0.832518  0.889643  1
  S  S14  1  0.167788  0.335559  0.673192  1
  S  S15  1  0.167626  0.832572  0.889559  1
  S  S16  1  0.167652  0.335230  0.889586  1
  S  S17  1  0.832374  0.167428  0.110441  1
  S  S18  1  0.335101  0.167482  0.110357  1
  S  S19  1  0.664713  0.832550  0.673147  1
  S  S20  1  0.333357  0.666479  0.108686  1
  S  S21  1  0.666883  0.333510  0.669117  1
  S  S22  1  0.666643  0.333521  0.891314  1
  S  S23  1  0.333117  0.666490  0.330883  1
  S  S24  1  0.832348  0.664770  0.110414  1
  S  S25  1  0.167723  0.832691  0.673231  1
