# generated using pymatgen
data_Er8Ti11Si16Rh
_symmetry_space_group_name_H-M   'P 1'
_cell_length_a   7.01301110
_cell_length_b   7.01301110
_cell_length_c   12.83449210
_cell_angle_alpha   90.11108525
_cell_angle_beta   89.88891475
_cell_angle_gamma   89.82904095
_symmetry_Int_Tables_number   1
_chemical_formula_structural   Er8Ti11Si16Rh
_chemical_formula_sum   'Er8 Ti11 Si16 Rh1'
_cell_volume   631.22496860
_cell_formula_units_Z   1
loop_
 _symmetry_equiv_pos_site_id
 _symmetry_equiv_pos_as_xyz
  1  'x, y, z'
loop_
 _atom_site_type_symbol
 _atom_site_label
 _atom_site_symmetry_multiplicity
 _atom_site_fract_x
 _atom_site_fract_y
 _atom_site_fract_z
 _atom_site_occupancy
  Er  Er0  1  0.340829  0.003265  0.467177  1
  Er  Er1  1  0.497178  0.841586  0.717822  1
  Er  Er2  1  0.500700  0.158943  0.215184  1
  Er  Er3  1  0.841586  0.497178  0.282178  1
  Er  Er4  1  0.158943  0.500700  0.784816  1
  Er  Er5  1  0.657465  0.998659  0.967914  1
  Er  Er6  1  0.003265  0.340829  0.532823  1
  Er  Er7  1  0.998659  0.657465  0.032086  1
  Ti  Ti8  1  0.175253  0.827393  0.248684  1
  Ti  Ti9  1  0.827393  0.175253  0.751316  1
  Ti  Ti10  1  0.673352  0.673352  0.500000  1
  Ti  Ti11  1  0.149423  0.003332  0.875672  1
  Ti  Ti12  1  0.494453  0.654876  0.124549  1
  Ti  Ti13  1  0.506503  0.349603  0.626903  1
  Ti  Ti14  1  0.654876  0.494453  0.875451  1
  Ti  Ti15  1  0.349603  0.506503  0.373097  1
  Ti  Ti16  1  0.849205  0.994247  0.374740  1
  Ti  Ti17  1  0.003332  0.149423  0.124328  1
  Ti  Ti18  1  0.994247  0.849205  0.625260  1
  Si  Si19  1  0.202989  0.133236  0.684458  1
  Si  Si20  1  0.371352  0.704019  0.933401  1
  Si  Si21  1  0.631847  0.294867  0.433330  1
  Si  Si22  1  0.704019  0.371352  0.066599  1
  Si  Si23  1  0.294867  0.631847  0.566670  1
  Si  Si24  1  0.795854  0.868010  0.183484  1
  Si  Si25  1  0.133236  0.202989  0.315542  1
  Si  Si26  1  0.868010  0.795854  0.816516  1
  Si  Si27  1  0.287410  0.950890  0.063899  1
  Si  Si28  1  0.546909  0.792331  0.315418  1
  Si  Si29  1  0.449753  0.209550  0.817156  1
  Si  Si30  1  0.792331  0.546909  0.684582  1
  Si  Si31  1  0.209550  0.449753  0.182844  1
  Si  Si32  1  0.708216  0.047476  0.565427  1
  Si  Si33  1  0.950890  0.287410  0.936101  1
  Si  Si34  1  0.047476  0.708216  0.434573  1
  Rh  Rh35  1  0.329024  0.329024  0.000000  1
