# generated using pymatgen
data_Yb3Y(Ga12Pt)2
_symmetry_space_group_name_H-M   'P 1'
_cell_length_a   6.11119900
_cell_length_b   6.11119997
_cell_length_c   15.76261400
_cell_angle_alpha   90.00000000
_cell_angle_beta   90.00000000
_cell_angle_gamma   89.59328580
_symmetry_Int_Tables_number   1
_chemical_formula_structural   Yb3Y(Ga12Pt)2
_chemical_formula_sum   'Yb3 Y1 Ga24 Pt2'
_cell_volume   588.66771687
_cell_formula_units_Z   1
loop_
 _symmetry_equiv_pos_site_id
 _symmetry_equiv_pos_as_xyz
  1  'x, y, z'
loop_
 _atom_site_type_symbol
 _atom_site_label
 _atom_site_symmetry_multiplicity
 _atom_site_fract_x
 _atom_site_fract_y
 _atom_site_fract_z
 _atom_site_occupancy
  Yb  Yb0  1  0.750000  0.250000  0.245033  1
  Yb  Yb1  1  0.250000  0.750000  0.244291  1
  Yb  Yb2  1  0.250000  0.750000  0.754209  1
  Y  Y3  1  0.750000  0.250000  0.757119  1
  Ga  Ga4  1  0.250000  0.250000  0.189343  1
  Ga  Ga5  1  0.750000  0.750000  0.189343  1
  Ga  Ga6  1  0.750000  0.750000  0.810265  1
  Ga  Ga7  1  0.250000  0.250000  0.810265  1
  Ga  Ga8  1  0.250000  0.250000  0.344969  1
  Ga  Ga9  1  0.750000  0.750000  0.344969  1
  Ga  Ga10  1  0.750000  0.750000  0.655042  1
  Ga  Ga11  1  0.250000  0.250000  0.655042  1
  Ga  Ga12  1  0.498642  0.998642  0.909977  1
  Ga  Ga13  1  0.001223  0.998777  0.909377  1
  Ga  Ga14  1  0.498777  0.501223  0.909377  1
  Ga  Ga15  1  0.001358  0.501358  0.909977  1
  Ga  Ga16  1  0.500700  0.000700  0.090890  1
  Ga  Ga17  1  0.999567  0.000433  0.091685  1
  Ga  Ga18  1  0.500433  0.499567  0.091685  1
  Ga  Ga19  1  0.999300  0.499300  0.090890  1
  Ga  Ga20  1  0.580082  0.080082  0.431573  1
  Ga  Ga21  1  0.080400  0.919600  0.429742  1
  Ga  Ga22  1  0.419600  0.580400  0.429742  1
  Ga  Ga23  1  0.919918  0.419918  0.431573  1
  Ga  Ga24  1  0.418326  0.918326  0.568551  1
  Ga  Ga25  1  0.920206  0.079794  0.568863  1
  Ga  Ga26  1  0.579794  0.420206  0.568863  1
  Ga  Ga27  1  0.081674  0.581674  0.568551  1
  Pt  Pt28  1  0.750000  0.250000  0.998612  1
  Pt  Pt29  1  0.250000  0.750000  0.000175  1
