# generated using pymatgen
data_Er4ZnIn2Cu3
_symmetry_space_group_name_H-M   'P 1'
_cell_length_a   7.60802667
_cell_length_b   7.60802706
_cell_length_c   3.65426000
_cell_angle_alpha   90.00000000
_cell_angle_beta   90.00000000
_cell_angle_gamma   89.74321404
_symmetry_Int_Tables_number   1
_chemical_formula_structural   Er4ZnIn2Cu3
_chemical_formula_sum   'Er4 Zn1 In2 Cu3'
_cell_volume   211.51401901
_cell_formula_units_Z   1
loop_
 _symmetry_equiv_pos_site_id
 _symmetry_equiv_pos_as_xyz
  1  'x, y, z'
loop_
 _atom_site_type_symbol
 _atom_site_label
 _atom_site_symmetry_multiplicity
 _atom_site_fract_x
 _atom_site_fract_y
 _atom_site_fract_z
 _atom_site_occupancy
  Er  Er0  1  0.673346  0.173346  0.500000  1
  Er  Er1  1  0.336501  0.836501  0.500000  1
  Er  Er2  1  0.169587  0.317464  0.500000  1
  Er  Er3  1  0.817464  0.669587  0.500000  1
  Zn  Zn4  1  0.120272  0.620272  0.000000  1
  In  In5  1  0.497832  0.498527  0.000000  1
  In  In6  1  0.998527  0.997832  0.000000  1
  Cu  Cu7  1  0.879977  0.379977  0.000000  1
  Cu  Cu8  1  0.623540  0.882955  0.000000  1
  Cu  Cu9  1  0.382955  0.123540  0.000000  1
