# generated using pymatgen
data_LiHf6Re5Ge6
_symmetry_space_group_name_H-M   'P 1'
_cell_length_a   7.87561898
_cell_length_b   7.86283459
_cell_length_c   7.87757596
_cell_angle_alpha   126.67577677
_cell_angle_beta   127.87405513
_cell_angle_gamma   77.84619649
_symmetry_Int_Tables_number   1
_chemical_formula_structural   LiHf6Re5Ge6
_chemical_formula_sum   'Li1 Hf6 Re5 Ge6'
_cell_volume   299.29033508
_cell_formula_units_Z   1
loop_
 _symmetry_equiv_pos_site_id
 _symmetry_equiv_pos_as_xyz
  1  'x, y, z'
loop_
 _atom_site_type_symbol
 _atom_site_label
 _atom_site_symmetry_multiplicity
 _atom_site_fract_x
 _atom_site_fract_y
 _atom_site_fract_z
 _atom_site_occupancy
  Li  Li0  1  0.629130  0.252947  0.626577  1
  Hf  Hf1  1  0.451079  0.659653  0.707746  1
  Hf  Hf2  1  0.548833  0.254181  0.199479  1
  Hf  Hf3  1  0.749904  0.847436  0.601249  1
  Hf  Hf4  1  0.246304  0.847803  0.097299  1
  Hf  Hf5  1  0.054904  0.254009  0.704570  1
  Hf  Hf6  1  0.951338  0.659015  0.208271  1
  Re  Re7  1  0.497737  0.509194  0.011210  1
  Re  Re8  1  0.999899  0.511119  0.511424  1
  Re  Re9  1  0.126975  0.251909  0.124060  1
  Re  Re10  1  0.870665  0.997477  0.127497  1
  Re  Re11  1  0.369263  0.995267  0.625242  1
  Ge  Ge12  1  0.260529  0.253621  0.502681  1
  Ge  Ge13  1  0.750382  0.253148  0.993785  1
  Ge  Ge14  1  0.330287  0.584535  0.253345  1
  Ge  Ge15  1  0.665613  0.920732  0.255040  1
  Ge  Ge16  1  0.164798  0.921896  0.756440  1
  Ge  Ge17  1  0.832361  0.585660  0.753688  1
