# generated using pymatgen
data_Er5Si12Ir16Ru3
_symmetry_space_group_name_H-M   'P 1'
_cell_length_a   12.75932800
_cell_length_b   12.75932834
_cell_length_c   4.00798000
_cell_angle_alpha   90.00000000
_cell_angle_beta   90.00000000
_cell_angle_gamma   120.00000430
_symmetry_Int_Tables_number   1
_chemical_formula_structural   Er5Si12Ir16Ru3
_chemical_formula_sum   'Er5 Si12 Ir16 Ru3'
_cell_volume   565.08239075
_cell_formula_units_Z   1
loop_
 _symmetry_equiv_pos_site_id
 _symmetry_equiv_pos_as_xyz
  1  'x, y, z'
loop_
 _atom_site_type_symbol
 _atom_site_label
 _atom_site_symmetry_multiplicity
 _atom_site_fract_x
 _atom_site_fract_y
 _atom_site_fract_z
 _atom_site_occupancy
  Er  Er0  1  0.666667  0.333333  0.000000  1
  Er  Er1  1  0.333333  0.666667  0.000000  1
  Er  Er2  1  0.815929  0.815929  0.500000  1
  Er  Er3  1  0.184071  0.000000  0.500000  1
  Er  Er4  1  0.000000  0.184071  0.500000  1
  Si  Si5  1  0.689100  0.166876  0.500000  1
  Si  Si6  1  0.833124  0.522223  0.500000  1
  Si  Si7  1  0.477777  0.310900  0.500000  1
  Si  Si8  1  0.166876  0.689100  0.500000  1
  Si  Si9  1  0.522223  0.833124  0.500000  1
  Si  Si10  1  0.310900  0.477777  0.500000  1
  Si  Si11  1  0.630598  0.630598  0.000000  1
  Si  Si12  1  0.369402  0.000000  0.000000  1
  Si  Si13  1  0.000000  0.369402  0.000000  1
  Si  Si14  1  0.183271  0.183271  0.000000  1
  Si  Si15  1  0.816729  0.000000  0.000000  1
  Si  Si16  1  0.000000  0.816729  0.000000  1
  Ir  Ir17  1  0.807463  0.184100  0.000000  1
  Ir  Ir18  1  0.815900  0.623363  0.000000  1
  Ir  Ir19  1  0.376637  0.192537  0.000000  1
  Ir  Ir20  1  0.184100  0.807463  0.000000  1
  Ir  Ir21  1  0.623363  0.815900  0.000000  1
  Ir  Ir22  1  0.192537  0.376637  0.000000  1
  Ir  Ir23  1  0.445182  0.445182  0.000000  1
  Ir  Ir24  1  0.554818  0.000000  0.000000  1
  Ir  Ir25  1  0.000000  0.554818  0.000000  1
  Ir  Ir26  1  0.873151  0.362295  0.500000  1
  Ir  Ir27  1  0.637705  0.510858  0.500000  1
  Ir  Ir28  1  0.489142  0.126849  0.500000  1
  Ir  Ir29  1  0.362295  0.873151  0.500000  1
  Ir  Ir30  1  0.510858  0.637705  0.500000  1
  Ir  Ir31  1  0.126849  0.489142  0.500000  1
  Ir  Ir32  1  0.000000  0.000000  0.000000  1
  Ru  Ru33  1  0.281404  0.281404  0.500000  1
  Ru  Ru34  1  0.718596  0.000000  0.500000  1
  Ru  Ru35  1  0.000000  0.718596  0.500000  1
