# generated using pymatgen
data_Hf2ZrUI12
_symmetry_space_group_name_H-M   'P 1'
_cell_length_a   6.67461140
_cell_length_b   8.00657393
_cell_length_c   14.03450900
_cell_angle_alpha   90.00000000
_cell_angle_beta   90.00000000
_cell_angle_gamma   90.35826289
_symmetry_Int_Tables_number   1
_chemical_formula_structural   Hf2ZrUI12
_chemical_formula_sum   'Hf2 Zr1 U1 I12'
_cell_volume   750.00030044
_cell_formula_units_Z   1
loop_
 _symmetry_equiv_pos_site_id
 _symmetry_equiv_pos_as_xyz
  1  'x, y, z'
loop_
 _atom_site_type_symbol
 _atom_site_label
 _atom_site_symmetry_multiplicity
 _atom_site_fract_x
 _atom_site_fract_y
 _atom_site_fract_z
 _atom_site_occupancy
  Hf  Hf0  1  0.248615  0.752196  0.500000  1
  Hf  Hf1  1  0.751371  0.752166  0.500000  1
  Zr  Zr2  1  0.750000  0.247866  0.000000  1
  U  U3  1  0.250012  0.247932  0.000000  1
  I  I4  1  0.999455  0.604751  0.646404  1
  I  I5  1  0.001141  0.048373  0.500000  1
  I  I6  1  0.984914  0.093204  0.846276  1
  I  I7  1  0.984914  0.093204  0.153724  1
  I  I8  1  0.500528  0.898857  0.353902  1
  I  I9  1  0.515174  0.402627  0.153730  1
  I  I10  1  0.498833  0.456786  0.500000  1
  I  I11  1  0.500528  0.898857  0.646098  1
  I  I12  1  0.515174  0.402627  0.846270  1
  I  I13  1  0.513643  0.937751  0.000000  1
  I  I14  1  0.986246  0.558053  0.000000  1
  I  I15  1  0.999455  0.604751  0.353596  1
