# generated using pymatgen
data_DyTm3(ZrPb)6
_symmetry_space_group_name_H-M   'P 1'
_cell_length_a   8.81687860
_cell_length_b   8.77757038
_cell_length_c   6.07875300
_cell_angle_alpha   90.00000000
_cell_angle_beta   90.00000000
_cell_angle_gamma   119.75496159
_symmetry_Int_Tables_number   1
_chemical_formula_structural   DyTm3(ZrPb)6
_chemical_formula_sum   'Dy1 Tm3 Zr6 Pb6'
_cell_volume   408.41470440
_cell_formula_units_Z   1
loop_
 _symmetry_equiv_pos_site_id
 _symmetry_equiv_pos_as_xyz
  1  'x, y, z'
loop_
 _atom_site_type_symbol
 _atom_site_label
 _atom_site_symmetry_multiplicity
 _atom_site_fract_x
 _atom_site_fract_y
 _atom_site_fract_z
 _atom_site_occupancy
  Dy  Dy0  1  0.001623  0.761571  0.750000  1
  Tm  Tm1  1  0.757900  0.756602  0.250000  1
  Tm  Tm2  1  0.002709  0.238616  0.250000  1
  Tm  Tm3  1  0.758959  0.001605  0.750000  1
  Zr  Zr4  1  0.330956  0.665945  0.500088  1
  Zr  Zr5  1  0.247761  0.002465  0.250000  1
  Zr  Zr6  1  0.662764  0.331652  0.500363  1
  Zr  Zr7  1  0.330956  0.665945  0.999912  1
  Zr  Zr8  1  0.249144  0.247194  0.750000  1
  Zr  Zr9  1  0.662764  0.331652  0.999637  1
  Pb  Pb10  1  0.601709  0.603277  0.750000  1
  Pb  Pb11  1  0.394804  0.002064  0.750000  1
  Pb  Pb12  1  0.601720  0.999780  0.250000  1
  Pb  Pb13  1  0.002076  0.393560  0.750000  1
  Pb  Pb14  1  0.392412  0.391603  0.250000  1
  Pb  Pb15  1  0.001745  0.606469  0.250000  1
