# generated using pymatgen
data_Hf6Ti4Ga4SiP
_symmetry_space_group_name_H-M   'P 1'
_cell_length_a   7.85445700
_cell_length_b   7.79770953
_cell_length_c   5.36223600
_cell_angle_alpha   90.00000000
_cell_angle_beta   90.00000000
_cell_angle_gamma   120.24103389
_symmetry_Int_Tables_number   1
_chemical_formula_structural   Hf6Ti4Ga4SiP
_chemical_formula_sum   'Hf6 Ti4 Ga4 Si1 P1'
_cell_volume   283.72644820
_cell_formula_units_Z   1
loop_
 _symmetry_equiv_pos_site_id
 _symmetry_equiv_pos_as_xyz
  1  'x, y, z'
loop_
 _atom_site_type_symbol
 _atom_site_label
 _atom_site_symmetry_multiplicity
 _atom_site_fract_x
 _atom_site_fract_y
 _atom_site_fract_z
 _atom_site_occupancy
  Hf  Hf0  1  0.259527  0.000000  0.250000  1
  Hf  Hf1  1  0.740593  0.000000  0.750000  1
  Hf  Hf2  1  0.001390  0.241289  0.250000  1
  Hf  Hf3  1  0.001918  0.760098  0.750000  1
  Hf  Hf4  1  0.760101  0.758711  0.250000  1
  Hf  Hf5  1  0.241820  0.239902  0.750000  1
  Ti  Ti6  1  0.337852  0.678275  0.999795  1
  Ti  Ti7  1  0.659578  0.321725  0.999795  1
  Ti  Ti8  1  0.659578  0.321725  0.500205  1
  Ti  Ti9  1  0.337852  0.678275  0.500205  1
  Ga  Ga10  1  0.997294  0.597020  0.250000  1
  Ga  Ga11  1  0.002328  0.401795  0.750000  1
  Ga  Ga12  1  0.400274  0.402980  0.250000  1
  Ga  Ga13  1  0.600532  0.598205  0.750000  1
  Si  Si14  1  0.611401  0.000000  0.250000  1
  P  P15  1  0.387962  0.000000  0.750000  1
