# generated using pymatgen
data_RbV3P5O19
_symmetry_space_group_name_H-M   'P 1'
_cell_length_a   8.50654017
_cell_length_b   8.50527542
_cell_length_c   6.37021275
_cell_angle_alpha   81.61061156
_cell_angle_beta   81.51811522
_cell_angle_gamma   113.53319056
_symmetry_Int_Tables_number   1
_chemical_formula_structural   RbV3P5O19
_chemical_formula_sum   'Rb1 V3 P5 O19'
_cell_volume   407.13605109
_cell_formula_units_Z   1
loop_
 _symmetry_equiv_pos_site_id
 _symmetry_equiv_pos_as_xyz
  1  'x, y, z'
loop_
 _atom_site_type_symbol
 _atom_site_label
 _atom_site_symmetry_multiplicity
 _atom_site_fract_x
 _atom_site_fract_y
 _atom_site_fract_z
 _atom_site_occupancy
  Rb  Rb0  1  0.098048  0.098249  0.469293  1
  V  V1  1  0.763788  0.763732  0.155562  1
  V  V2  1  0.494466  0.245319  0.820953  1
  V  V3  1  0.245980  0.492396  0.819978  1
  P  P4  1  0.675087  0.675437  0.694754  1
  P  P5  1  0.605828  0.315531  0.273225  1
  P  P6  1  0.315720  0.606230  0.272915  1
  P  P7  1  0.813917  0.184598  0.001010  1
  P  P8  1  0.185071  0.813900  0.000624  1
  O  O9  1  0.783037  0.782446  0.843720  1
  O  O10  1  0.778275  0.777783  0.459233  1
  O  O11  1  0.995360  0.320415  0.878697  1
  O  O12  1  0.320486  0.996666  0.879889  1
  O  O13  1  0.667079  0.488534  0.737747  1
  O  O14  1  0.489486  0.668962  0.737422  1
  O  O15  1  0.516245  0.706868  0.223744  1
  O  O16  1  0.706630  0.515494  0.224035  1
  O  O17  1  0.678270  0.164548  0.860553  1
  O  O18  1  0.166041  0.678912  0.860105  1
  O  O19  1  0.248406  0.756008  0.214077  1
  O  O20  1  0.754777  0.247221  0.214785  1
  O  O21  1  0.516350  0.230289  0.511550  1
  O  O22  1  0.230125  0.518081  0.511290  1
  O  O23  1  0.322450  0.323315  0.811770  1
  O  O24  1  0.013182  0.820654  0.097462  1
  O  O25  1  0.820884  0.013203  0.098161  1
  O  O26  1  0.468106  0.245854  0.137746  1
  O  O27  1  0.246030  0.468479  0.138160  1
