# generated using pymatgen
data_Pr8Ga(Si4Ir)3
_symmetry_space_group_name_H-M   'P 1'
_cell_length_a   8.27224100
_cell_length_b   8.27224224
_cell_length_c   8.62869300
_cell_angle_alpha   90.00000000
_cell_angle_beta   90.00000000
_cell_angle_gamma   119.99999902
_symmetry_Int_Tables_number   1
_chemical_formula_structural   Pr8Ga(Si4Ir)3
_chemical_formula_sum   'Pr8 Ga1 Si12 Ir3'
_cell_volume   511.35449247
_cell_formula_units_Z   1
loop_
 _symmetry_equiv_pos_site_id
 _symmetry_equiv_pos_as_xyz
  1  'x, y, z'
loop_
 _atom_site_type_symbol
 _atom_site_label
 _atom_site_symmetry_multiplicity
 _atom_site_fract_x
 _atom_site_fract_y
 _atom_site_fract_z
 _atom_site_occupancy
  Pr  Pr0  1  0.497639  0.502361  0.754074  1
  Pr  Pr1  1  0.499021  0.500979  0.246151  1
  Pr  Pr2  1  0.004722  0.502361  0.754074  1
  Pr  Pr3  1  0.001959  0.500979  0.246151  1
  Pr  Pr4  1  0.497639  0.995278  0.754074  1
  Pr  Pr5  1  0.499021  0.998041  0.246151  1
  Pr  Pr6  1  0.000000  0.000000  0.751138  1
  Pr  Pr7  1  0.000000  0.000000  0.247473  1
  Ga  Ga8  1  0.666667  0.333333  0.507142  1
  Si  Si9  1  0.832419  0.167581  0.000122  1
  Si  Si10  1  0.167151  0.832849  0.999705  1
  Si  Si11  1  0.335160  0.167581  0.000122  1
  Si  Si12  1  0.169097  0.830903  0.501257  1
  Si  Si13  1  0.665698  0.832849  0.999705  1
  Si  Si14  1  0.838274  0.161726  0.497819  1
  Si  Si15  1  0.832419  0.664840  0.000122  1
  Si  Si16  1  0.661805  0.830903  0.501257  1
  Si  Si17  1  0.167151  0.334302  0.999705  1
  Si  Si18  1  0.323450  0.161726  0.497819  1
  Si  Si19  1  0.169097  0.338195  0.501257  1
  Si  Si20  1  0.838274  0.676550  0.497819  1
  Ir  Ir21  1  0.666667  0.333333  0.997106  1
  Ir  Ir22  1  0.333333  0.666667  0.002800  1
  Ir  Ir23  1  0.333333  0.666667  0.496951  1
