# generated using pymatgen
data_Ce2Ho3Sn3C
_symmetry_space_group_name_H-M   'P 1'
_cell_length_a   9.04497783
_cell_length_b   9.04497732
_cell_length_c   6.50282900
_cell_angle_alpha   90.00000000
_cell_angle_beta   90.00000000
_cell_angle_gamma   120.07298720
_symmetry_Int_Tables_number   1
_chemical_formula_structural   Ce2Ho3Sn3C
_chemical_formula_sum   'Ce4 Ho6 Sn6 C2'
_cell_volume   460.39232520
_cell_formula_units_Z   2
loop_
 _symmetry_equiv_pos_site_id
 _symmetry_equiv_pos_as_xyz
  1  'x, y, z'
loop_
 _atom_site_type_symbol
 _atom_site_label
 _atom_site_symmetry_multiplicity
 _atom_site_fract_x
 _atom_site_fract_y
 _atom_site_fract_z
 _atom_site_occupancy
  Ce  Ce0  1  0.782808  0.782808  0.250000  1
  Ce  Ce1  1  0.215156  0.999033  0.250000  1
  Ce  Ce2  1  0.999033  0.215156  0.250000  1
  Ce  Ce3  1  0.215701  0.215701  0.750000  1
  Ho  Ho4  1  0.667187  0.334043  0.500587  1
  Ho  Ho5  1  0.334043  0.667187  0.500587  1
  Ho  Ho6  1  0.334043  0.667187  0.999413  1
  Ho  Ho7  1  0.667187  0.334043  0.999413  1
  Ho  Ho8  1  0.780589  0.998679  0.750000  1
  Ho  Ho9  1  0.998679  0.780589  0.750000  1
  Sn  Sn10  1  0.408072  0.408072  0.250000  1
  Sn  Sn11  1  0.591406  0.999548  0.250000  1
  Sn  Sn12  1  0.999548  0.591406  0.250000  1
  Sn  Sn13  1  0.598398  0.598398  0.750000  1
  Sn  Sn14  1  0.404387  0.997853  0.750000  1
  Sn  Sn15  1  0.997853  0.404387  0.750000  1
  C  C16  1  0.002955  0.002955  0.499136  1
  C  C17  1  0.002955  0.002955  0.000864  1
