# generated using pymatgen
data_Hf6GaSn5Ru12
_symmetry_space_group_name_H-M   'P 1'
_cell_length_a   4.54724600
_cell_length_b   6.42959200
_cell_length_c   13.61253301
_cell_angle_alpha   90.00000000
_cell_angle_beta   90.00491929
_cell_angle_gamma   90.00000000
_symmetry_Int_Tables_number   1
_chemical_formula_structural   Hf6GaSn5Ru12
_chemical_formula_sum   'Hf6 Ga1 Sn5 Ru12'
_cell_volume   397.98876224
_cell_formula_units_Z   1
loop_
 _symmetry_equiv_pos_site_id
 _symmetry_equiv_pos_as_xyz
  1  'x, y, z'
loop_
 _atom_site_type_symbol
 _atom_site_label
 _atom_site_symmetry_multiplicity
 _atom_site_fract_x
 _atom_site_fract_y
 _atom_site_fract_z
 _atom_site_occupancy
  Hf  Hf0  1  0.000024  0.500000  0.996028  1
  Hf  Hf1  1  0.499991  0.000000  0.164685  1
  Hf  Hf2  1  0.999967  0.500000  0.333339  1
  Hf  Hf3  1  0.499984  0.000000  0.501982  1
  Hf  Hf4  1  0.000026  0.500000  0.670640  1
  Hf  Hf5  1  0.500022  0.000000  0.833338  1
  Ga  Ga6  1  0.500012  0.500000  0.833330  1
  Sn  Sn7  1  0.000031  0.000000  0.998625  1
  Sn  Sn8  1  0.499990  0.500000  0.165406  1
  Sn  Sn9  1  0.999971  0.000000  0.333317  1
  Sn  Sn10  1  0.499978  0.500000  0.501263  1
  Sn  Sn11  1  0.000031  0.000000  0.668047  1
  Ru  Ru12  1  0.500032  0.252677  0.997819  1
  Ru  Ru13  1  0.500032  0.747322  0.997819  1
  Ru  Ru14  1  0.999983  0.249685  0.166389  1
  Ru  Ru15  1  0.999983  0.750315  0.166389  1
  Ru  Ru16  1  0.499960  0.249934  0.333331  1
  Ru  Ru17  1  0.499960  0.750066  0.333331  1
  Ru  Ru18  1  0.999975  0.249676  0.500277  1
  Ru  Ru19  1  0.999975  0.750323  0.500277  1
  Ru  Ru20  1  0.500025  0.252675  0.668850  1
  Ru  Ru21  1  0.500025  0.747325  0.668850  1
  Ru  Ru22  1  0.000012  0.254455  0.833334  1
  Ru  Ru23  1  0.000012  0.745545  0.833334  1
