# generated using pymatgen
data_Nd4Zn2As5
_symmetry_space_group_name_H-M   'P 1'
_cell_length_a   4.27190100
_cell_length_b   4.27190143
_cell_length_c   17.34976900
_cell_angle_alpha   90.00000000
_cell_angle_beta   90.00000000
_cell_angle_gamma   120.00000439
_symmetry_Int_Tables_number   1
_chemical_formula_structural   Nd4Zn2As5
_chemical_formula_sum   'Nd4 Zn2 As5'
_cell_volume   274.19953399
_cell_formula_units_Z   1
loop_
 _symmetry_equiv_pos_site_id
 _symmetry_equiv_pos_as_xyz
  1  'x, y, z'
loop_
 _atom_site_type_symbol
 _atom_site_label
 _atom_site_symmetry_multiplicity
 _atom_site_fract_x
 _atom_site_fract_y
 _atom_site_fract_z
 _atom_site_occupancy
  Nd  Nd0  1  0.666667  0.333333  0.900027  1
  Nd  Nd1  1  0.333333  0.666667  0.099973  1
  Nd  Nd2  1  0.000000  0.000000  0.702077  1
  Nd  Nd3  1  0.000000  0.000000  0.297923  1
  Zn  Zn4  1  0.666667  0.333333  0.443679  1
  Zn  Zn5  1  0.333333  0.666667  0.556321  1
  As  As6  1  0.666667  0.333333  0.593141  1
  As  As7  1  0.333333  0.666667  0.406859  1
  As  As8  1  0.666667  0.333333  0.201685  1
  As  As9  1  0.333333  0.666667  0.798315  1
  As  As10  1  0.000000  0.000000  0.000000  1
