# generated using pymatgen
data_Tb11In9Au4
_symmetry_space_group_name_H-M   'P 1'
_cell_length_a   13.24307793
_cell_length_b   13.24307778
_cell_length_c   3.76437400
_cell_angle_alpha   90.00000000
_cell_angle_beta   90.00000000
_cell_angle_gamma   110.46490024
_symmetry_Int_Tables_number   1
_chemical_formula_structural   Tb11In9Au4
_chemical_formula_sum   'Tb11 In9 Au4'
_cell_volume   618.52553717
_cell_formula_units_Z   1
loop_
 _symmetry_equiv_pos_site_id
 _symmetry_equiv_pos_as_xyz
  1  'x, y, z'
loop_
 _atom_site_type_symbol
 _atom_site_label
 _atom_site_symmetry_multiplicity
 _atom_site_fract_x
 _atom_site_fract_y
 _atom_site_fract_z
 _atom_site_occupancy
  Tb  Tb0  1  0.416518  0.068150  0.000000  1
  Tb  Tb1  1  0.583482  0.931850  0.000000  1
  Tb  Tb2  1  0.068150  0.416518  0.000000  1
  Tb  Tb3  1  0.931850  0.583482  0.000000  1
  Tb  Tb4  1  0.159735  0.840265  0.000000  1
  Tb  Tb5  1  0.840265  0.159735  0.000000  1
  Tb  Tb6  1  0.366944  0.633056  0.000000  1
  Tb  Tb7  1  0.633056  0.366944  0.000000  1
  Tb  Tb8  1  0.302091  0.302091  0.000000  1
  Tb  Tb9  1  0.697909  0.697909  0.000000  1
  Tb  Tb10  1  0.000000  0.000000  0.000000  1
  In  In11  1  0.365899  0.845336  0.500000  1
  In  In12  1  0.634101  0.154664  0.500000  1
  In  In13  1  0.845336  0.365899  0.500000  1
  In  In14  1  0.154664  0.634101  0.500000  1
  In  In15  1  0.214009  0.067243  0.500000  1
  In  In16  1  0.785991  0.932757  0.500000  1
  In  In17  1  0.067243  0.214009  0.500000  1
  In  In18  1  0.932757  0.785991  0.500000  1
  In  In19  1  0.500000  0.500000  0.500000  1
  Au  Au20  1  0.451990  0.250142  0.500000  1
  Au  Au21  1  0.548010  0.749858  0.500000  1
  Au  Au22  1  0.250142  0.451990  0.500000  1
  Au  Au23  1  0.749858  0.548010  0.500000  1
