# generated using pymatgen
data_CaSc3Ga2(B2Rh5)2
_symmetry_space_group_name_H-M   'P 1'
_cell_length_a   9.44451776
_cell_length_b   9.44451776
_cell_length_c   3.06471200
_cell_angle_alpha   90.00000000
_cell_angle_beta   90.00000000
_cell_angle_gamma   89.28906684
_symmetry_Int_Tables_number   1
_chemical_formula_structural   CaSc3Ga2(B2Rh5)2
_chemical_formula_sum   'Ca1 Sc3 Ga2 B4 Rh10'
_cell_volume   273.34794356
_cell_formula_units_Z   1
loop_
 _symmetry_equiv_pos_site_id
 _symmetry_equiv_pos_as_xyz
  1  'x, y, z'
loop_
 _atom_site_type_symbol
 _atom_site_label
 _atom_site_symmetry_multiplicity
 _atom_site_fract_x
 _atom_site_fract_y
 _atom_site_fract_z
 _atom_site_occupancy
  Ca  Ca0  1  0.676393  0.176394  0.000000  1
  Sc  Sc1  1  0.175159  0.326291  0.000000  1
  Sc  Sc2  1  0.826291  0.675158  0.000000  1
  Sc  Sc3  1  0.324252  0.824252  0.000000  1
  Ga  Ga4  1  0.995485  0.001040  0.000000  1
  Ga  Ga5  1  0.501040  0.495485  0.000000  1
  B  B6  1  0.370619  0.121970  0.000000  1
  B  B7  1  0.880365  0.380366  0.000000  1
  B  B8  1  0.126225  0.626225  0.000000  1
  B  B9  1  0.621970  0.870618  0.000000  1
  Rh  Rh10  1  0.493705  0.993705  0.500000  1
  Rh  Rh11  1  0.213664  0.068347  0.500000  1
  Rh  Rh12  1  0.941157  0.223829  0.500000  1
  Rh  Rh13  1  0.418866  0.282297  0.500000  1
  Rh  Rh14  1  0.723829  0.441157  0.500000  1
  Rh  Rh15  1  0.004080  0.504080  0.500000  1
  Rh  Rh16  1  0.284409  0.571848  0.500000  1
  Rh  Rh17  1  0.568346  0.713664  0.500000  1
  Rh  Rh18  1  0.071849  0.784408  0.500000  1
  Rh  Rh19  1  0.782296  0.918866  0.500000  1
