# generated using pymatgen
data_Tb2Fe3Co9P7
_symmetry_space_group_name_H-M   'P 1'
_cell_length_a   3.62053800
_cell_length_b   9.00153198
_cell_length_c   9.00030132
_cell_angle_alpha   120.00354065
_cell_angle_beta   90.00000000
_cell_angle_gamma   90.00000000
_symmetry_Int_Tables_number   1
_chemical_formula_structural   Tb2Fe3Co9P7
_chemical_formula_sum   'Tb2 Fe3 Co9 P7'
_cell_volume   254.01638086
_cell_formula_units_Z   1
loop_
 _symmetry_equiv_pos_site_id
 _symmetry_equiv_pos_as_xyz
  1  'x, y, z'
loop_
 _atom_site_type_symbol
 _atom_site_label
 _atom_site_symmetry_multiplicity
 _atom_site_fract_x
 _atom_site_fract_y
 _atom_site_fract_z
 _atom_site_occupancy
  Tb  Tb0  1  0.000000  0.666656  0.333346  1
  Tb  Tb1  1  0.500000  0.333378  0.666672  1
  Fe  Fe2  1  0.500000  0.123036  0.906039  1
  Fe  Fe3  1  0.500000  0.093929  0.217007  1
  Fe  Fe4  1  0.500000  0.783024  0.876955  1
  Co  Co5  1  0.000000  0.371511  0.940583  1
  Co  Co6  1  0.000000  0.059439  0.430953  1
  Co  Co7  1  0.000000  0.569098  0.628484  1
  Co  Co8  1  0.000000  0.882630  0.726094  1
  Co  Co9  1  0.000000  0.273844  0.156456  1
  Co  Co10  1  0.000000  0.843494  0.117422  1
  Co  Co11  1  0.500000  0.950790  0.566726  1
  Co  Co12  1  0.500000  0.433262  0.384032  1
  Co  Co13  1  0.500000  0.615928  0.049245  1
  P  P14  1  0.000000  0.112256  0.703685  1
  P  P15  1  0.000000  0.296315  0.408499  1
  P  P16  1  0.000000  0.591505  0.887817  1
  P  P17  1  0.500000  0.709846  0.598795  1
  P  P18  1  0.500000  0.401172  0.111042  1
  P  P19  1  0.500000  0.888951  0.290191  1
  P  P20  1  0.000000  0.999937  0.999955  1
