# generated using pymatgen
data_LiTb2Zr2Pd11
_symmetry_space_group_name_H-M   'P 1'
_cell_length_a   5.79048900
_cell_length_b   5.74890642
_cell_length_c   9.43280700
_cell_angle_alpha   90.00000000
_cell_angle_beta   90.00000000
_cell_angle_gamma   120.23954250
_symmetry_Int_Tables_number   1
_chemical_formula_structural   LiTb2Zr2Pd11
_chemical_formula_sum   'Li1 Tb2 Zr2 Pd11'
_cell_volume   271.28057457
_cell_formula_units_Z   1
loop_
 _symmetry_equiv_pos_site_id
 _symmetry_equiv_pos_as_xyz
  1  'x, y, z'
loop_
 _atom_site_type_symbol
 _atom_site_label
 _atom_site_symmetry_multiplicity
 _atom_site_fract_x
 _atom_site_fract_y
 _atom_site_fract_z
 _atom_site_occupancy
  Li  Li0  1  0.800412  0.600825  0.250000  1
  Tb  Tb1  1  0.331393  0.662788  0.250000  1
  Tb  Tb2  1  0.669437  0.338875  0.750000  1
  Zr  Zr3  1  0.005262  0.010524  0.507562  1
  Zr  Zr4  1  0.005262  0.010524  0.992438  1
  Pd  Pd5  1  0.506470  0.508128  0.496569  1
  Pd  Pd6  1  0.502523  0.005047  0.497998  1
  Pd  Pd7  1  0.001658  0.508128  0.496569  1
  Pd  Pd8  1  0.506470  0.508128  0.003431  1
  Pd  Pd9  1  0.502523  0.005047  0.002002  1
  Pd  Pd10  1  0.001658  0.508128  0.003431  1
  Pd  Pd11  1  0.329775  0.159852  0.250000  1
  Pd  Pd12  1  0.830076  0.159852  0.250000  1
  Pd  Pd13  1  0.172296  0.344591  0.750000  1
  Pd  Pd14  1  0.661221  0.834781  0.750000  1
  Pd  Pd15  1  0.173561  0.834781  0.750000  1
