# generated using pymatgen
data_Tb5Sm(RuBr3)2
_symmetry_space_group_name_H-M   'P 1'
_cell_length_a   4.13649600
_cell_length_b   8.61700620
_cell_length_c   11.98042943
_cell_angle_alpha   87.50294048
_cell_angle_beta   90.00000000
_cell_angle_gamma   90.00000000
_symmetry_Int_Tables_number   1
_chemical_formula_structural   Tb5Sm(RuBr3)2
_chemical_formula_sum   'Tb5 Sm1 Ru2 Br6'
_cell_volume   426.62747738
_cell_formula_units_Z   1
loop_
 _symmetry_equiv_pos_site_id
 _symmetry_equiv_pos_as_xyz
  1  'x, y, z'
loop_
 _atom_site_type_symbol
 _atom_site_label
 _atom_site_symmetry_multiplicity
 _atom_site_fract_x
 _atom_site_fract_y
 _atom_site_fract_z
 _atom_site_occupancy
  Tb  Tb0  1  0.250000  0.278569  0.397713  1
  Tb  Tb1  1  0.750000  0.720943  0.604021  1
  Tb  Tb2  1  0.250000  0.865246  0.368298  1
  Tb  Tb3  1  0.750000  0.133786  0.632259  1
  Tb  Tb4  1  0.250000  0.890779  0.824962  1
  Sm  Sm5  1  0.750000  0.109764  0.172245  1
  Ru  Ru6  1  0.250000  0.937205  0.596381  1
  Ru  Ru7  1  0.750000  0.061479  0.403885  1
  Br  Br8  1  0.250000  0.427189  0.629713  1
  Br  Br9  1  0.750000  0.572108  0.371596  1
  Br  Br10  1  0.250000  0.874008  0.103556  1
  Br  Br11  1  0.750000  0.121808  0.893474  1
  Br  Br12  1  0.250000  0.351810  0.143736  1
  Br  Br13  1  0.750000  0.655306  0.858161  1
