# generated using pymatgen
data_Hf5CuSb9
_symmetry_space_group_name_H-M   'P 1'
_cell_length_a   8.93844300
_cell_length_b   8.93844300
_cell_length_c   8.68261100
_cell_angle_alpha   90.00000000
_cell_angle_beta   90.00000000
_cell_angle_gamma   90.00000000
_symmetry_Int_Tables_number   1
_chemical_formula_structural   Hf5CuSb9
_chemical_formula_sum   'Hf10 Cu2 Sb18'
_cell_volume   693.70383297
_cell_formula_units_Z   2
loop_
 _symmetry_equiv_pos_site_id
 _symmetry_equiv_pos_as_xyz
  1  'x, y, z'
loop_
 _atom_site_type_symbol
 _atom_site_label
 _atom_site_symmetry_multiplicity
 _atom_site_fract_x
 _atom_site_fract_y
 _atom_site_fract_z
 _atom_site_occupancy
  Hf  Hf0  1  0.500000  0.000000  0.257463  1
  Hf  Hf1  1  0.000000  0.500000  0.742537  1
  Hf  Hf2  1  0.296888  0.604428  0.266203  1
  Hf  Hf3  1  0.703112  0.395572  0.266203  1
  Hf  Hf4  1  0.796888  0.104428  0.733797  1
  Hf  Hf5  1  0.203112  0.895572  0.733797  1
  Hf  Hf6  1  0.395572  0.296888  0.733797  1
  Hf  Hf7  1  0.604428  0.703112  0.733797  1
  Hf  Hf8  1  0.895572  0.796888  0.266203  1
  Hf  Hf9  1  0.104428  0.203112  0.266203  1
  Cu  Cu10  1  0.500000  0.500000  0.000000  1
  Cu  Cu11  1  0.000000  0.000000  0.000000  1
  Sb  Sb12  1  0.778438  0.587767  0.999790  1
  Sb  Sb13  1  0.221562  0.412233  0.999790  1
  Sb  Sb14  1  0.278438  0.087767  0.000210  1
  Sb  Sb15  1  0.721562  0.912233  0.000210  1
  Sb  Sb16  1  0.412233  0.778438  0.000210  1
  Sb  Sb17  1  0.587767  0.221562  0.000210  1
  Sb  Sb18  1  0.912233  0.278438  0.999790  1
  Sb  Sb19  1  0.087767  0.721562  0.999790  1
  Sb  Sb20  1  0.000000  0.500000  0.388994  1
  Sb  Sb21  1  0.500000  0.000000  0.611006  1
  Sb  Sb22  1  0.198212  0.901194  0.379056  1
  Sb  Sb23  1  0.801788  0.098806  0.379056  1
  Sb  Sb24  1  0.698212  0.401194  0.620944  1
  Sb  Sb25  1  0.301788  0.598806  0.620944  1
  Sb  Sb26  1  0.098806  0.198212  0.620944  1
  Sb  Sb27  1  0.901194  0.801788  0.620944  1
  Sb  Sb28  1  0.598806  0.698212  0.379056  1
  Sb  Sb29  1  0.401194  0.301788  0.379056  1
