# generated using pymatgen
data_Cs4K11RbSn3PbSe16
_symmetry_space_group_name_H-M   'P 1'
_cell_length_a   8.33960840
_cell_length_b   10.63767700
_cell_length_c   15.89011000
_cell_angle_alpha   90.00000000
_cell_angle_beta   90.12358341
_cell_angle_gamma   90.00000000
_symmetry_Int_Tables_number   1
_chemical_formula_structural   Cs4K11RbSn3PbSe16
_chemical_formula_sum   'Cs4 K11 Rb1 Sn3 Pb1 Se16'
_cell_volume   1409.67290009
_cell_formula_units_Z   1
loop_
 _symmetry_equiv_pos_site_id
 _symmetry_equiv_pos_as_xyz
  1  'x, y, z'
loop_
 _atom_site_type_symbol
 _atom_site_label
 _atom_site_symmetry_multiplicity
 _atom_site_fract_x
 _atom_site_fract_y
 _atom_site_fract_z
 _atom_site_occupancy
  Cs  Cs0  1  0.999736  0.999696  0.999606  1
  Cs  Cs1  1  0.501320  0.000801  0.499928  1
  Cs  Cs2  1  0.999736  0.500304  0.999606  1
  Cs  Cs3  1  0.501320  0.499199  0.499928  1
  K  K4  1  0.466751  0.250000  0.071172  1
  K  K5  1  0.035235  0.250000  0.571173  1
  K  K6  1  0.533054  0.750000  0.928141  1
  K  K7  1  0.825343  0.050951  0.260809  1
  K  K8  1  0.324262  0.949725  0.236266  1
  K  K9  1  0.174764  0.550876  0.739477  1
  K  K10  1  0.674714  0.447783  0.763420  1
  K  K11  1  0.174764  0.949124  0.739477  1
  K  K12  1  0.674714  0.052217  0.763420  1
  K  K13  1  0.825343  0.449049  0.260809  1
  K  K14  1  0.324262  0.550275  0.236266  1
  Rb  Rb15  1  0.976002  0.750000  0.426767  1
  Sn  Sn16  1  0.216046  0.250000  0.325834  1
  Sn  Sn17  1  0.711398  0.750000  0.172063  1
  Sn  Sn18  1  0.286325  0.250000  0.827309  1
  Pb  Pb19  1  0.784454  0.750000  0.674744  1
  Se  Se20  1  0.978306  0.250000  0.819037  1
  Se  Se21  1  0.523928  0.250000  0.318139  1
  Se  Se22  1  0.465822  0.750000  0.681737  1
  Se  Se23  1  0.019794  0.750000  0.181532  1
  Se  Se24  1  0.610768  0.555917  0.093628  1
  Se  Se25  1  0.113445  0.442696  0.404293  1
  Se  Se26  1  0.388676  0.056451  0.905876  1
  Se  Se27  1  0.889683  0.951869  0.595504  1
  Se  Se28  1  0.388676  0.443549  0.905876  1
  Se  Se29  1  0.889683  0.548131  0.595504  1
  Se  Se30  1  0.610768  0.944083  0.093628  1
  Se  Se31  1  0.113445  0.057304  0.404293  1
  Se  Se32  1  0.598299  0.750000  0.324228  1
  Se  Se33  1  0.105118  0.250000  0.173147  1
  Se  Se34  1  0.395951  0.250000  0.674407  1
  Se  Se35  1  0.898095  0.750000  0.832958  1
