# generated using pymatgen
data_Tb3Ho9Ni4SnOs
_symmetry_space_group_name_H-M   'P 1'
_cell_length_a   8.30332848
_cell_length_b   8.28847156
_cell_length_c   8.28847000
_cell_angle_alpha   106.79065041
_cell_angle_beta   109.82671075
_cell_angle_gamma   111.75728262
_symmetry_Int_Tables_number   1
_chemical_formula_structural   Tb3Ho9Ni4SnOs
_chemical_formula_sum   'Tb3 Ho9 Ni4 Sn1 Os1'
_cell_volume   438.70067096
_cell_formula_units_Z   1
loop_
 _symmetry_equiv_pos_site_id
 _symmetry_equiv_pos_as_xyz
  1  'x, y, z'
loop_
 _atom_site_type_symbol
 _atom_site_label
 _atom_site_symmetry_multiplicity
 _atom_site_fract_x
 _atom_site_fract_y
 _atom_site_fract_z
 _atom_site_occupancy
  Tb  Tb0  1  0.964372  0.785019  0.179351  1
  Tb  Tb1  1  0.034600  0.214658  0.819942  1
  Tb  Tb2  1  0.395340  0.214934  0.180406  1
  Ho  Ho3  1  0.690655  0.281184  0.972534  1
  Ho  Ho4  1  0.309981  0.718254  0.027754  1
  Ho  Ho5  1  0.690655  0.718122  0.409471  1
  Ho  Ho6  1  0.309981  0.282227  0.591725  1
  Ho  Ho7  1  0.806610  0.126860  0.320522  1
  Ho  Ho8  1  0.806610  0.486087  0.679751  1
  Ho  Ho9  1  0.193834  0.872696  0.679653  1
  Ho  Ho10  1  0.193834  0.514182  0.321138  1
  Ho  Ho11  1  0.603830  0.784104  0.819726  1
  Ni  Ni12  1  0.862261  0.499974  0.362287  1
  Ni  Ni13  1  0.139624  0.501059  0.638564  1
  Ni  Ni14  1  0.997700  0.121980  0.120802  1
  Ni  Ni15  1  0.997700  0.876898  0.875719  1
  Sn  Sn16  1  0.500978  0.000399  0.500579  1
  Os  Os17  1  0.501435  0.501361  0.000073  1
