# generated using pymatgen
data_RbSm2(CoH6)2
_symmetry_space_group_name_H-M   'P 1'
_cell_length_a   4.92422300
_cell_length_b   4.92422393
_cell_length_c   9.06327300
_cell_angle_alpha   90.00000000
_cell_angle_beta   90.00000000
_cell_angle_gamma   120.00000045
_symmetry_Int_Tables_number   1
_chemical_formula_structural   RbSm2(CoH6)2
_chemical_formula_sum   'Rb1 Sm2 Co2 H12'
_cell_volume   190.32296655
_cell_formula_units_Z   1
loop_
 _symmetry_equiv_pos_site_id
 _symmetry_equiv_pos_as_xyz
  1  'x, y, z'
loop_
 _atom_site_type_symbol
 _atom_site_label
 _atom_site_symmetry_multiplicity
 _atom_site_fract_x
 _atom_site_fract_y
 _atom_site_fract_z
 _atom_site_occupancy
  Rb  Rb0  1  0.000000  0.000000  0.000000  1
  Sm  Sm1  1  0.666667  0.333333  0.369006  1
  Sm  Sm2  1  0.333333  0.666667  0.630994  1
  Co  Co3  1  0.666667  0.333333  0.705226  1
  Co  Co4  1  0.333333  0.666667  0.294774  1
  H  H5  1  0.180176  0.819824  0.392403  1
  H  H6  1  0.639647  0.819824  0.392403  1
  H  H7  1  0.180176  0.360353  0.392403  1
  H  H8  1  0.819824  0.180176  0.607597  1
  H  H9  1  0.360353  0.180176  0.607597  1
  H  H10  1  0.819824  0.639647  0.607597  1
  H  H11  1  0.524464  0.048928  0.811809  1
  H  H12  1  0.524464  0.475536  0.811809  1
  H  H13  1  0.951072  0.475536  0.811809  1
  H  H14  1  0.475536  0.951072  0.188191  1
  H  H15  1  0.475536  0.524464  0.188191  1
  H  H16  1  0.048928  0.524464  0.188191  1
