# generated using pymatgen
data_Pr5Nd3Si12(IrRh)2
_symmetry_space_group_name_H-M   'P 1'
_cell_length_a   8.26753300
_cell_length_b   8.26758195
_cell_length_c   8.50113100
_cell_angle_alpha   90.00000000
_cell_angle_beta   90.00000000
_cell_angle_gamma   120.00033952
_symmetry_Int_Tables_number   1
_chemical_formula_structural   Pr5Nd3Si12(IrRh)2
_chemical_formula_sum   'Pr5 Nd3 Si12 Ir2 Rh2'
_cell_volume   503.22278845
_cell_formula_units_Z   1
loop_
 _symmetry_equiv_pos_site_id
 _symmetry_equiv_pos_as_xyz
  1  'x, y, z'
loop_
 _atom_site_type_symbol
 _atom_site_label
 _atom_site_symmetry_multiplicity
 _atom_site_fract_x
 _atom_site_fract_y
 _atom_site_fract_z
 _atom_site_occupancy
  Pr  Pr0  1  0.999997  0.999999  0.750000  1
  Pr  Pr1  1  0.999998  0.000002  0.250000  1
  Pr  Pr2  1  0.500660  0.499340  0.750000  1
  Pr  Pr3  1  0.500655  0.001313  0.750000  1
  Pr  Pr4  1  0.998683  0.499346  0.750000  1
  Nd  Nd5  1  0.500796  0.499195  0.250000  1
  Nd  Nd6  1  0.998410  0.499206  0.250000  1
  Nd  Nd7  1  0.500801  0.001596  0.250000  1
  Si  Si8  1  0.833365  0.166638  0.001182  1
  Si  Si9  1  0.833365  0.666728  0.001185  1
  Si  Si10  1  0.333276  0.166639  0.001184  1
  Si  Si11  1  0.833365  0.166638  0.498818  1
  Si  Si12  1  0.833365  0.666728  0.498815  1
  Si  Si13  1  0.333276  0.166639  0.498816  1
  Si  Si14  1  0.167270  0.832728  0.498833  1
  Si  Si15  1  0.665454  0.832725  0.498833  1
  Si  Si16  1  0.167271  0.334545  0.498831  1
  Si  Si17  1  0.167270  0.832728  0.001167  1
  Si  Si18  1  0.665454  0.832725  0.001167  1
  Si  Si19  1  0.167271  0.334545  0.001169  1
  Ir  Ir20  1  0.666662  0.333329  0.001548  1
  Ir  Ir21  1  0.666662  0.333329  0.498452  1
  Rh  Rh22  1  0.333336  0.666671  0.497367  1
  Rh  Rh23  1  0.333336  0.666671  0.002633  1
