# generated using pymatgen
data_Cu6GeTe8W
_symmetry_space_group_name_H-M   'P 1'
_cell_length_a   8.48091900
_cell_length_b   8.48091935
_cell_length_c   13.90458300
_cell_angle_alpha   90.00000000
_cell_angle_beta   90.00000000
_cell_angle_gamma   119.99999471
_symmetry_Int_Tables_number   1
_chemical_formula_structural   Cu6GeTe8W
_chemical_formula_sum   'Cu12 Ge2 Te16 W2'
_cell_volume   866.11283112
_cell_formula_units_Z   2
loop_
 _symmetry_equiv_pos_site_id
 _symmetry_equiv_pos_as_xyz
  1  'x, y, z'
loop_
 _atom_site_type_symbol
 _atom_site_label
 _atom_site_symmetry_multiplicity
 _atom_site_fract_x
 _atom_site_fract_y
 _atom_site_fract_z
 _atom_site_occupancy
  Cu  Cu0  1  0.831793  0.663587  0.099672  1
  Cu  Cu1  1  0.497221  0.502779  0.358377  1
  Cu  Cu2  1  0.994442  0.497221  0.858377  1
  Cu  Cu3  1  0.831793  0.168207  0.099672  1
  Cu  Cu4  1  0.502779  0.497221  0.858377  1
  Cu  Cu5  1  0.168207  0.336413  0.599672  1
  Cu  Cu6  1  0.497221  0.994442  0.358377  1
  Cu  Cu7  1  0.005558  0.502779  0.358377  1
  Cu  Cu8  1  0.168207  0.831793  0.599672  1
  Cu  Cu9  1  0.502779  0.005558  0.858377  1
  Cu  Cu10  1  0.663587  0.831793  0.599672  1
  Cu  Cu11  1  0.336413  0.168207  0.099672  1
  Ge  Ge12  1  0.000000  0.000000  0.851514  1
  Ge  Ge13  1  0.000000  0.000000  0.351514  1
  Te  Te14  1  0.000000  0.000000  0.042615  1
  Te  Te15  1  0.343620  0.171811  0.288591  1
  Te  Te16  1  0.828189  0.171811  0.288591  1
  Te  Te17  1  0.996592  0.498296  0.542767  1
  Te  Te18  1  0.828189  0.656380  0.288591  1
  Te  Te19  1  0.666667  0.333333  0.792769  1
  Te  Te20  1  0.171811  0.343620  0.788591  1
  Te  Te21  1  0.501704  0.498296  0.542767  1
  Te  Te22  1  0.000000  0.000000  0.542615  1
  Te  Te23  1  0.333333  0.666667  0.292769  1
  Te  Te24  1  0.003408  0.501704  0.042767  1
  Te  Te25  1  0.501704  0.003408  0.542767  1
  Te  Te26  1  0.171811  0.828189  0.788591  1
  Te  Te27  1  0.656380  0.828189  0.788591  1
  Te  Te28  1  0.498296  0.996592  0.042767  1
  Te  Te29  1  0.498296  0.501704  0.042767  1
  W  W30  1  0.333333  0.666667  0.480885  1
  W  W31  1  0.666667  0.333333  0.980885  1
