# generated using pymatgen
data_Nd3Al12(TcPt)2
_symmetry_space_group_name_H-M   'P 1'
_cell_length_a   9.02873716
_cell_length_b   8.92888599
_cell_length_c   9.72454100
_cell_angle_alpha   90.00000000
_cell_angle_beta   90.00000000
_cell_angle_gamma   119.63484182
_symmetry_Int_Tables_number   1
_chemical_formula_structural   Nd3Al12(TcPt)2
_chemical_formula_sum   'Nd6 Al24 Tc4 Pt4'
_cell_volume   681.41285014
_cell_formula_units_Z   2
loop_
 _symmetry_equiv_pos_site_id
 _symmetry_equiv_pos_as_xyz
  1  'x, y, z'
loop_
 _atom_site_type_symbol
 _atom_site_label
 _atom_site_symmetry_multiplicity
 _atom_site_fract_x
 _atom_site_fract_y
 _atom_site_fract_z
 _atom_site_occupancy
  Nd  Nd0  1  0.187425  0.382902  0.250000  1
  Nd  Nd1  1  0.812575  0.617098  0.750000  1
  Nd  Nd2  1  0.621270  0.810635  0.250000  1
  Nd  Nd3  1  0.378730  0.189365  0.750000  1
  Nd  Nd4  1  0.187425  0.804524  0.250000  1
  Nd  Nd5  1  0.812575  0.195476  0.750000  1
  Al  Al6  1  0.328208  0.664105  0.021135  1
  Al  Al7  1  0.671792  0.335895  0.978865  1
  Al  Al8  1  0.671792  0.335895  0.521135  1
  Al  Al9  1  0.328208  0.664105  0.478865  1
  Al  Al10  1  0.158266  0.325449  0.575510  1
  Al  Al11  1  0.841734  0.674551  0.424490  1
  Al  Al12  1  0.676595  0.838297  0.574910  1
  Al  Al13  1  0.841734  0.674551  0.075510  1
  Al  Al14  1  0.323405  0.161703  0.425090  1
  Al  Al15  1  0.158266  0.325449  0.924490  1
  Al  Al16  1  0.158266  0.832818  0.575510  1
  Al  Al17  1  0.323405  0.161703  0.074910  1
  Al  Al18  1  0.841734  0.167182  0.424490  1
  Al  Al19  1  0.676595  0.838297  0.925090  1
  Al  Al20  1  0.841734  0.167182  0.075510  1
  Al  Al21  1  0.158266  0.832818  0.924490  1
  Al  Al22  1  0.564941  0.128336  0.250000  1
  Al  Al23  1  0.435059  0.871664  0.750000  1
  Al  Al24  1  0.872799  0.436399  0.250000  1
  Al  Al25  1  0.127201  0.563601  0.750000  1
  Al  Al26  1  0.564941  0.436605  0.250000  1
  Al  Al27  1  0.435059  0.563395  0.750000  1
  Al  Al28  1  0.996944  0.998472  0.250000  1
  Al  Al29  1  0.003056  0.001528  0.750000  1
  Tc  Tc30  1  0.000000  0.500000  0.000000  1
  Tc  Tc31  1  0.000000  0.500000  0.500000  1
  Tc  Tc32  1  0.000000  0.000000  0.000000  1
  Tc  Tc33  1  0.000000  0.000000  0.500000  1
  Pt  Pt34  1  0.500000  0.000000  0.000000  1
  Pt  Pt35  1  0.500000  0.000000  0.500000  1
  Pt  Pt36  1  0.500000  0.500000  0.000000  1
  Pt  Pt37  1  0.500000  0.500000  0.500000  1
