# generated using pymatgen
data_Lu4Cd3Co2
_symmetry_space_group_name_H-M   'P 1'
_cell_length_a   3.63360100
_cell_length_b   7.23610003
_cell_length_c   7.82903134
_cell_angle_alpha   71.32684124
_cell_angle_beta   90.00000000
_cell_angle_gamma   90.00000000
_symmetry_Int_Tables_number   1
_chemical_formula_structural   Lu4Cd3Co2
_chemical_formula_sum   'Lu4 Cd3 Co2'
_cell_volume   195.01366450
_cell_formula_units_Z   1
loop_
 _symmetry_equiv_pos_site_id
 _symmetry_equiv_pos_as_xyz
  1  'x, y, z'
loop_
 _atom_site_type_symbol
 _atom_site_label
 _atom_site_symmetry_multiplicity
 _atom_site_fract_x
 _atom_site_fract_y
 _atom_site_fract_z
 _atom_site_occupancy
  Lu  Lu0  1  0.500000  0.602336  0.186497  1
  Lu  Lu1  1  0.500000  0.397664  0.813503  1
  Lu  Lu2  1  0.500000  0.095340  0.275202  1
  Lu  Lu3  1  0.500000  0.904660  0.724798  1
  Cd  Cd4  1  0.000000  0.707559  0.502354  1
  Cd  Cd5  1  0.000000  0.000000  0.000000  1
  Cd  Cd6  1  0.000000  0.292441  0.497646  1
  Co  Co7  1  0.000000  0.650347  0.895874  1
  Co  Co8  1  0.000000  0.349653  0.104126  1
