# generated using pymatgen
data_Cs7KY4Hf4(PO4)12
_symmetry_space_group_name_H-M   'P 1'
_cell_length_a   10.48755800
_cell_length_b   10.48755800
_cell_length_c   10.48755800
_cell_angle_alpha   90.00000000
_cell_angle_beta   90.00000000
_cell_angle_gamma   90.00000000
_symmetry_Int_Tables_number   1
_chemical_formula_structural   Cs7KY4Hf4(PO4)12
_chemical_formula_sum   'Cs7 K1 Y4 Hf4 P12 O48'
_cell_volume   1153.51468288
_cell_formula_units_Z   1
loop_
 _symmetry_equiv_pos_site_id
 _symmetry_equiv_pos_as_xyz
  1  'x, y, z'
loop_
 _atom_site_type_symbol
 _atom_site_label
 _atom_site_symmetry_multiplicity
 _atom_site_fract_x
 _atom_site_fract_y
 _atom_site_fract_z
 _atom_site_occupancy
  Cs  Cs0  1  0.574087  0.074067  0.426292  1
  Cs  Cs1  1  0.074067  0.426292  0.574087  1
  Cs  Cs2  1  0.426292  0.574087  0.074067  1
  Cs  Cs3  1  0.924839  0.924839  0.924839  1
  Cs  Cs4  1  0.791328  0.291805  0.208642  1
  Cs  Cs5  1  0.291805  0.208642  0.791328  1
  Cs  Cs6  1  0.208642  0.791328  0.291805  1
  K  K7  1  0.700598  0.700598  0.700598  1
  Y  Y8  1  0.083358  0.583806  0.916080  1
  Y  Y9  1  0.583806  0.916080  0.083358  1
  Y  Y10  1  0.916080  0.083358  0.583806  1
  Y  Y11  1  0.416354  0.416354  0.416354  1
  Hf  Hf12  1  0.354844  0.854564  0.645513  1
  Hf  Hf13  1  0.854564  0.645513  0.354844  1
  Hf  Hf14  1  0.645513  0.354844  0.854564  1
  Hf  Hf15  1  0.145214  0.145214  0.145214  1
  P  P16  1  0.382678  0.544436  0.736715  1
  P  P17  1  0.262810  0.881005  0.956850  1
  P  P18  1  0.042297  0.762831  0.619541  1
  P  P19  1  0.881005  0.956850  0.262810  1
  P  P20  1  0.762831  0.619541  0.042297  1
  P  P21  1  0.544436  0.736715  0.382678  1
  P  P22  1  0.619541  0.042297  0.762831  1
  P  P23  1  0.736715  0.382678  0.544436  1
  P  P24  1  0.956850  0.262810  0.881005  1
  P  P25  1  0.118726  0.456632  0.237009  1
  P  P26  1  0.237009  0.118726  0.456632  1
  P  P27  1  0.456632  0.237009  0.118726  1
  O  O28  1  0.266736  0.521066  0.823039  1
  O  O29  1  0.176246  0.765837  0.982606  1
  O  O30  1  0.013824  0.676686  0.734497  1
  O  O31  1  0.765837  0.982606  0.176246  1
  O  O32  1  0.676686  0.734497  0.013824  1
  O  O33  1  0.521066  0.823039  0.266736  1
  O  O34  1  0.734497  0.013824  0.676686  1
  O  O35  1  0.823039  0.266736  0.521066  1
  O  O36  1  0.982606  0.176246  0.765837  1
  O  O37  1  0.234042  0.482497  0.323534  1
  O  O38  1  0.323534  0.234042  0.482497  1
  O  O39  1  0.482497  0.323534  0.234042  1
  O  O40  1  0.355669  0.496429  0.602007  1
  O  O41  1  0.397620  0.854982  0.005046  1
  O  O42  1  0.996031  0.898350  0.644667  1
  O  O43  1  0.854982  0.005046  0.397620  1
  O  O44  1  0.898350  0.644667  0.996031  1
  O  O45  1  0.496429  0.602007  0.355669  1
  O  O46  1  0.644667  0.996031  0.898350  1
  O  O47  1  0.602007  0.355669  0.496429  1
  O  O48  1  0.005046  0.397620  0.854982  1
  O  O49  1  0.144750  0.504370  0.102058  1
  O  O50  1  0.102058  0.144750  0.504370  1
  O  O51  1  0.504370  0.102058  0.144750  1
  O  O52  1  0.419086  0.688900  0.736035  1
  O  O53  1  0.263293  0.912825  0.811491  1
  O  O54  1  0.188247  0.761837  0.588902  1
  O  O55  1  0.912825  0.811491  0.263293  1
  O  O56  1  0.761837  0.588902  0.188247  1
  O  O57  1  0.688900  0.736035  0.419086  1
  O  O58  1  0.588902  0.188247  0.761837  1
  O  O59  1  0.736035  0.419086  0.688900  1
  O  O60  1  0.811491  0.263293  0.912825  1
  O  O61  1  0.086638  0.311298  0.237041  1
  O  O62  1  0.237041  0.086638  0.311298  1
  O  O63  1  0.311298  0.237041  0.086638  1
  O  O64  1  0.498074  0.470052  0.794208  1
  O  O65  1  0.205829  0.998179  0.028989  1
  O  O66  1  0.970676  0.706148  0.501857  1
  O  O67  1  0.998179  0.028989  0.205829  1
  O  O68  1  0.706148  0.501857  0.970676  1
  O  O69  1  0.470052  0.794208  0.498074  1
  O  O70  1  0.501857  0.970676  0.706148  1
  O  O71  1  0.794208  0.498074  0.470052  1
  O  O72  1  0.028989  0.205829  0.998179  1
  O  O73  1  0.001673  0.529187  0.294023  1
  O  O74  1  0.294023  0.001673  0.529187  1
  O  O75  1  0.529187  0.294023  0.001673  1
