# generated using pymatgen
data_Hf4Co2Hg5
_symmetry_space_group_name_H-M   'P 1'
_cell_length_a   3.22845900
_cell_length_b   7.55940868
_cell_length_c   9.01572183
_cell_angle_alpha   85.99048622
_cell_angle_beta   90.00000000
_cell_angle_gamma   90.00000000
_symmetry_Int_Tables_number   1
_chemical_formula_structural   Hf4Co2Hg5
_chemical_formula_sum   'Hf4 Co2 Hg5'
_cell_volume   219.49232815
_cell_formula_units_Z   1
loop_
 _symmetry_equiv_pos_site_id
 _symmetry_equiv_pos_as_xyz
  1  'x, y, z'
loop_
 _atom_site_type_symbol
 _atom_site_label
 _atom_site_symmetry_multiplicity
 _atom_site_fract_x
 _atom_site_fract_y
 _atom_site_fract_z
 _atom_site_occupancy
  Hf  Hf0  1  0.500000  0.802632  0.438751  1
  Hf  Hf1  1  0.500000  0.174332  0.164730  1
  Hf  Hf2  1  0.500000  0.197368  0.561249  1
  Hf  Hf3  1  0.500000  0.825668  0.835270  1
  Co  Co4  1  0.000000  0.076820  0.366742  1
  Co  Co5  1  0.000000  0.923180  0.633258  1
  Hg  Hg6  1  0.000000  0.541238  0.663269  1
  Hg  Hg7  1  0.000000  0.158572  0.863383  1
  Hg  Hg8  1  0.000000  0.500000  0.000000  1
  Hg  Hg9  1  0.000000  0.841428  0.136617  1
  Hg  Hg10  1  0.000000  0.458762  0.336731  1
