# generated using pymatgen
data_KFe3NiSb12
_symmetry_space_group_name_H-M   'P 1'
_cell_length_a   7.99321998
_cell_length_b   7.99322062
_cell_length_c   8.01727900
_cell_angle_alpha   109.53220043
_cell_angle_beta   109.53220206
_cell_angle_gamma   109.41016880
_symmetry_Int_Tables_number   1
_chemical_formula_structural   KFe3NiSb12
_chemical_formula_sum   'K1 Fe3 Ni1 Sb12'
_cell_volume   394.02274192
_cell_formula_units_Z   1
loop_
 _symmetry_equiv_pos_site_id
 _symmetry_equiv_pos_as_xyz
  1  'x, y, z'
loop_
 _atom_site_type_symbol
 _atom_site_label
 _atom_site_symmetry_multiplicity
 _atom_site_fract_x
 _atom_site_fract_y
 _atom_site_fract_z
 _atom_site_occupancy
  K  K0  1  0.000000  0.000000  0.000000  1
  Fe  Fe1  1  0.500000  0.500000  0.500000  1
  Fe  Fe2  1  0.500000  0.000000  0.000000  1
  Fe  Fe3  1  0.000000  0.500000  0.000000  1
  Ni  Ni4  1  0.000000  0.000000  0.500000  1
  Sb  Sb5  1  0.836479  0.656994  0.500351  1
  Sb  Sb6  1  0.163521  0.343006  0.499649  1
  Sb  Sb7  1  0.162688  0.664053  0.827824  1
  Sb  Sb8  1  0.837312  0.335947  0.172176  1
  Sb  Sb9  1  0.664053  0.501366  0.836228  1
  Sb  Sb10  1  0.335947  0.498634  0.163772  1
  Sb  Sb11  1  0.656994  0.820514  0.156643  1
  Sb  Sb12  1  0.343006  0.179486  0.843357  1
  Sb  Sb13  1  0.501366  0.837312  0.665137  1
  Sb  Sb14  1  0.498634  0.162688  0.334863  1
  Sb  Sb15  1  0.179486  0.836479  0.336128  1
  Sb  Sb16  1  0.820514  0.163521  0.663872  1
