# generated using pymatgen
data_CsRbHfTe3
_symmetry_space_group_name_H-M   'P 1'
_cell_length_a   14.91596400
_cell_length_b   6.96840046
_cell_length_c   10.01273631
_cell_angle_alpha   70.64310618
_cell_angle_beta   90.00000000
_cell_angle_gamma   90.00000000
_symmetry_Int_Tables_number   1
_chemical_formula_structural   CsRbHfTe3
_chemical_formula_sum   'Cs4 Rb4 Hf4 Te12'
_cell_volume   981.89795534
_cell_formula_units_Z   4
loop_
 _symmetry_equiv_pos_site_id
 _symmetry_equiv_pos_as_xyz
  1  'x, y, z'
loop_
 _atom_site_type_symbol
 _atom_site_label
 _atom_site_symmetry_multiplicity
 _atom_site_fract_x
 _atom_site_fract_y
 _atom_site_fract_z
 _atom_site_occupancy
  Cs  Cs0  1  0.951857  0.672973  0.658299  1
  Cs  Cs1  1  0.451857  0.827027  0.341701  1
  Cs  Cs2  1  0.048143  0.327027  0.341701  1
  Cs  Cs3  1  0.548143  0.172973  0.658299  1
  Rb  Rb4  1  0.866122  0.074661  0.901403  1
  Rb  Rb5  1  0.366122  0.425339  0.098597  1
  Rb  Rb6  1  0.133878  0.925339  0.098597  1
  Rb  Rb7  1  0.633878  0.574661  0.901403  1
  Hf  Hf8  1  0.748858  0.665908  0.290345  1
  Hf  Hf9  1  0.248858  0.834092  0.709655  1
  Hf  Hf10  1  0.251142  0.334092  0.709655  1
  Hf  Hf11  1  0.751142  0.165908  0.290345  1
  Te  Te12  1  0.907237  0.899480  0.269910  1
  Te  Te13  1  0.407237  0.600520  0.730090  1
  Te  Te14  1  0.092763  0.100520  0.730090  1
  Te  Te15  1  0.592763  0.399480  0.269910  1
  Te  Te16  1  0.813859  0.284624  0.515982  1
  Te  Te17  1  0.313859  0.215376  0.484018  1
  Te  Te18  1  0.186141  0.715376  0.484018  1
  Te  Te19  1  0.686141  0.784624  0.515982  1
  Te  Te20  1  0.843059  0.490363  0.085962  1
  Te  Te21  1  0.343059  0.009637  0.914038  1
  Te  Te22  1  0.156941  0.509637  0.914038  1
  Te  Te23  1  0.656941  0.990363  0.085962  1
