# generated using pymatgen
data_EuDy2(MgRh)3
_symmetry_space_group_name_H-M   'P 1'
_cell_length_a   7.24251500
_cell_length_b   7.30615460
_cell_length_c   4.14174400
_cell_angle_alpha   90.00000000
_cell_angle_beta   90.00000000
_cell_angle_gamma   119.71228236
_symmetry_Int_Tables_number   1
_chemical_formula_structural   EuDy2(MgRh)3
_chemical_formula_sum   'Eu1 Dy2 Mg3 Rh3'
_cell_volume   190.34609818
_cell_formula_units_Z   1
loop_
 _symmetry_equiv_pos_site_id
 _symmetry_equiv_pos_as_xyz
  1  'x, y, z'
loop_
 _atom_site_type_symbol
 _atom_site_label
 _atom_site_symmetry_multiplicity
 _atom_site_fract_x
 _atom_site_fract_y
 _atom_site_fract_z
 _atom_site_occupancy
  Eu  Eu0  1  0.415414  0.000000  0.500001  1
  Dy  Dy1  1  0.001457  0.411767  0.500001  1
  Dy  Dy2  1  0.589689  0.588232  0.500001  1
  Mg  Mg3  1  0.757507  0.000000  0.000000  1
  Mg  Mg4  1  0.242058  0.243647  0.000000  1
  Mg  Mg5  1  0.998411  0.756352  0.000000  1
  Rh  Rh6  1  0.676532  0.347684  0.000000  1
  Rh  Rh7  1  0.328848  0.652315  0.000000  1
  Rh  Rh8  1  0.990083  0.000000  0.500001  1
