# generated using pymatgen
data_LiDy5Si24Os3Ru5
_symmetry_space_group_name_H-M   'P 1'
_cell_length_a   10.12316836
_cell_length_b   10.12316817
_cell_length_c   8.12581102
_cell_angle_alpha   90.00292416
_cell_angle_beta   90.00293219
_cell_angle_gamma   132.62361181
_symmetry_Int_Tables_number   1
_chemical_formula_structural   LiDy5Si24Os3Ru5
_chemical_formula_sum   'Li1 Dy5 Si24 Os3 Ru5'
_cell_volume   612.73132128
_cell_formula_units_Z   1
loop_
 _symmetry_equiv_pos_site_id
 _symmetry_equiv_pos_as_xyz
  1  'x, y, z'
loop_
 _atom_site_type_symbol
 _atom_site_label
 _atom_site_symmetry_multiplicity
 _atom_site_fract_x
 _atom_site_fract_y
 _atom_site_fract_z
 _atom_site_occupancy
  Li  Li0  1  0.500086  0.499914  0.500000  1
  Dy  Dy1  1  0.000059  0.999941  0.000000  1
  Dy  Dy2  1  0.502051  0.001958  0.749295  1
  Dy  Dy3  1  0.998042  0.497949  0.250705  1
  Dy  Dy4  1  0.499198  0.999131  0.250372  1
  Dy  Dy5  1  0.000869  0.500802  0.749628  1
  Si  Si6  1  0.797268  0.202732  0.500000  1
  Si  Si7  1  0.297170  0.702830  0.000000  1
  Si  Si8  1  0.202675  0.797325  0.500000  1
  Si  Si9  1  0.703467  0.296533  0.000000  1
  Si  Si10  1  0.336883  0.335990  0.827157  1
  Si  Si11  1  0.664010  0.663117  0.172843  1
  Si  Si12  1  0.171994  0.173257  0.336286  1
  Si  Si13  1  0.826743  0.828006  0.663714  1
  Si  Si14  1  0.122829  0.890198  0.728098  1
  Si  Si15  1  0.109802  0.877171  0.271902  1
  Si  Si16  1  0.608613  0.379725  0.233030  1
  Si  Si17  1  0.620275  0.391387  0.766970  1
  Si  Si18  1  0.876463  0.109840  0.271174  1
  Si  Si19  1  0.890160  0.123537  0.728826  1
  Si  Si20  1  0.392817  0.621001  0.766256  1
  Si  Si21  1  0.378999  0.607183  0.233744  1
  Si  Si22  1  0.348598  0.120628  0.507150  1
  Si  Si23  1  0.879372  0.651402  0.492850  1
  Si  Si24  1  0.388736  0.156109  0.005083  1
  Si  Si25  1  0.843891  0.611264  0.994917  1
  Si  Si26  1  0.651698  0.879604  0.493247  1
  Si  Si27  1  0.120396  0.348302  0.506753  1
  Si  Si28  1  0.612550  0.845697  0.993803  1
  Si  Si29  1  0.154303  0.387450  0.006197  1
  Os  Os30  1  0.671566  0.328434  0.500000  1
  Os  Os31  1  0.171114  0.828886  0.000000  1
  Os  Os32  1  0.328025  0.671975  0.500000  1
  Ru  Ru33  1  0.829248  0.170752  0.000000  1
  Ru  Ru34  1  0.123661  0.123637  0.628580  1
  Ru  Ru35  1  0.876363  0.876339  0.371420  1
  Ru  Ru36  1  0.371389  0.371381  0.123773  1
  Ru  Ru37  1  0.628619  0.628611  0.876227  1
