# generated using pymatgen
data_LiSm2Tm4Rh17
_symmetry_space_group_name_H-M   'P 1'
_cell_length_a   5.26834800
_cell_length_b   5.26824484
_cell_length_c   17.33651500
_cell_angle_alpha   90.00000000
_cell_angle_beta   90.00000000
_cell_angle_gamma   120.00204170
_symmetry_Int_Tables_number   1
_chemical_formula_structural   LiSm2Tm4Rh17
_chemical_formula_sum   'Li1 Sm2 Tm4 Rh17'
_cell_volume   416.70038464
_cell_formula_units_Z   1
loop_
 _symmetry_equiv_pos_site_id
 _symmetry_equiv_pos_as_xyz
  1  'x, y, z'
loop_
 _atom_site_type_symbol
 _atom_site_label
 _atom_site_symmetry_multiplicity
 _atom_site_fract_x
 _atom_site_fract_y
 _atom_site_fract_z
 _atom_site_occupancy
  Li  Li0  1  0.333302  0.666644  0.250000  1
  Sm  Sm1  1  0.333348  0.666669  0.750000  1
  Sm  Sm2  1  0.666689  0.333347  0.250000  1
  Tm  Tm3  1  0.333334  0.666671  0.958036  1
  Tm  Tm4  1  0.666650  0.333328  0.040256  1
  Tm  Tm5  1  0.666650  0.333328  0.459744  1
  Tm  Tm6  1  0.333334  0.666671  0.541964  1
  Rh  Rh7  1  0.169309  0.830739  0.374319  1
  Rh  Rh8  1  0.169285  0.338562  0.374323  1
  Rh  Rh9  1  0.661445  0.830737  0.374314  1
  Rh  Rh10  1  0.832743  0.167221  0.623563  1
  Rh  Rh11  1  0.832741  0.665503  0.623555  1
  Rh  Rh12  1  0.334528  0.167256  0.623565  1
  Rh  Rh13  1  0.832743  0.167221  0.876437  1
  Rh  Rh14  1  0.832741  0.665503  0.876445  1
  Rh  Rh15  1  0.334528  0.167256  0.876435  1
  Rh  Rh16  1  0.169309  0.830739  0.125681  1
  Rh  Rh17  1  0.169285  0.338562  0.125677  1
  Rh  Rh18  1  0.661445  0.830737  0.125686  1
  Rh  Rh19  1  0.666573  0.333224  0.750000  1
  Rh  Rh20  1  0.999873  0.999917  0.250000  1
  Rh  Rh21  1  0.000133  0.000145  0.750000  1
  Rh  Rh22  1  0.000008  0.000013  0.497424  1
  Rh  Rh23  1  0.000008  0.000013  0.002576  1
