# generated using pymatgen
data_LiEr2PdPt4
_symmetry_space_group_name_H-M   'P 1'
_cell_length_a   5.83920296
_cell_length_b   5.77483217
_cell_length_c   5.77483257
_cell_angle_alpha   60.73884343
_cell_angle_beta   59.63057083
_cell_angle_gamma   59.63057087
_symmetry_Int_Tables_number   1
_chemical_formula_structural   LiEr2PdPt4
_chemical_formula_sum   'Li1 Er2 Pd1 Pt4'
_cell_volume   137.66011609
_cell_formula_units_Z   1
loop_
 _symmetry_equiv_pos_site_id
 _symmetry_equiv_pos_as_xyz
  1  'x, y, z'
loop_
 _atom_site_type_symbol
 _atom_site_label
 _atom_site_symmetry_multiplicity
 _atom_site_fract_x
 _atom_site_fract_y
 _atom_site_fract_z
 _atom_site_occupancy
  Li  Li0  1  0.000000  0.000000  0.000000  1
  Er  Er1  1  0.000000  0.500000  0.500000  1
  Er  Er2  1  0.500000  0.000000  0.000000  1
  Pd  Pd3  1  0.500000  0.500000  0.500000  1
  Pt  Pt4  1  0.000000  0.000000  0.500000  1
  Pt  Pt5  1  0.500000  0.000000  0.500000  1
  Pt  Pt6  1  0.500000  0.500000  0.000000  1
  Pt  Pt7  1  0.000000  0.500000  0.000000  1
