# generated using pymatgen
data_BeNb2B2Ru5
_symmetry_space_group_name_H-M   'P 1'
_cell_length_a   9.17064600
_cell_length_b   9.17064600
_cell_length_c   2.96974300
_cell_angle_alpha   90.00000000
_cell_angle_beta   90.00000000
_cell_angle_gamma   90.00000000
_symmetry_Int_Tables_number   1
_chemical_formula_structural   BeNb2B2Ru5
_chemical_formula_sum   'Be2 Nb4 B4 Ru10'
_cell_volume   249.75760784
_cell_formula_units_Z   2
loop_
 _symmetry_equiv_pos_site_id
 _symmetry_equiv_pos_as_xyz
  1  'x, y, z'
loop_
 _atom_site_type_symbol
 _atom_site_label
 _atom_site_symmetry_multiplicity
 _atom_site_fract_x
 _atom_site_fract_y
 _atom_site_fract_z
 _atom_site_occupancy
  Be  Be0  1  0.000000  0.000000  0.000000  1
  Be  Be1  1  0.500000  0.500000  0.000000  1
  Nb  Nb2  1  0.675679  0.175679  0.000000  1
  Nb  Nb3  1  0.324321  0.824321  0.000000  1
  Nb  Nb4  1  0.175679  0.324321  0.000000  1
  Nb  Nb5  1  0.824321  0.675679  0.000000  1
  B  B6  1  0.128728  0.628728  0.000000  1
  B  B7  1  0.871272  0.371272  0.000000  1
  B  B8  1  0.628728  0.871272  0.000000  1
  B  B9  1  0.371272  0.128728  0.000000  1
  Ru  Ru10  1  0.207835  0.065187  0.500000  1
  Ru  Ru11  1  0.792165  0.934813  0.500000  1
  Ru  Ru12  1  0.065187  0.792165  0.500000  1
  Ru  Ru13  1  0.707835  0.434813  0.500000  1
  Ru  Ru14  1  0.934813  0.207835  0.500000  1
  Ru  Ru15  1  0.292165  0.565187  0.500000  1
  Ru  Ru16  1  0.565187  0.707835  0.500000  1
  Ru  Ru17  1  0.434813  0.292165  0.500000  1
  Ru  Ru18  1  0.500000  0.000000  0.500000  1
  Ru  Ru19  1  0.000000  0.500000  0.500000  1
