# generated using pymatgen
data_Ce4FeReOs6
_symmetry_space_group_name_H-M   'P 1'
_cell_length_a   5.21282579
_cell_length_b   5.21282565
_cell_length_c   8.98805000
_cell_angle_alpha   90.00000000
_cell_angle_beta   90.00000000
_cell_angle_gamma   115.97442036
_symmetry_Int_Tables_number   1
_chemical_formula_structural   Ce4FeReOs6
_chemical_formula_sum   'Ce4 Fe1 Re1 Os6'
_cell_volume   219.56675866
_cell_formula_units_Z   1
loop_
 _symmetry_equiv_pos_site_id
 _symmetry_equiv_pos_as_xyz
  1  'x, y, z'
loop_
 _atom_site_type_symbol
 _atom_site_label
 _atom_site_symmetry_multiplicity
 _atom_site_fract_x
 _atom_site_fract_y
 _atom_site_fract_z
 _atom_site_occupancy
  Ce  Ce0  1  0.331626  0.668374  0.437147  1
  Ce  Ce1  1  0.664798  0.335202  0.571265  1
  Ce  Ce2  1  0.664798  0.335202  0.928735  1
  Ce  Ce3  1  0.331626  0.668374  0.062853  1
  Fe  Fe4  1  0.168594  0.831406  0.750000  1
  Re  Re5  1  0.835736  0.164264  0.250000  1
  Os  Os6  1  0.996186  0.003814  0.503061  1
  Os  Os7  1  0.996186  0.003814  0.996939  1
  Os  Os8  1  0.832758  0.654392  0.250000  1
  Os  Os9  1  0.345608  0.167242  0.250000  1
  Os  Os10  1  0.170977  0.338894  0.750000  1
  Os  Os11  1  0.661106  0.829023  0.750000  1
