# generated using pymatgen
data_HfSc6Ta3Al12Os7
_symmetry_space_group_name_H-M   'P 1'
_cell_length_a   8.90356767
_cell_length_b   8.90356864
_cell_length_c   8.90671432
_cell_angle_alpha   60.01168495
_cell_angle_beta   60.01167990
_cell_angle_gamma   59.99999969
_symmetry_Int_Tables_number   1
_chemical_formula_structural   HfSc6Ta3Al12Os7
_chemical_formula_sum   'Hf1 Sc6 Ta3 Al12 Os7'
_cell_volume   499.35265592
_cell_formula_units_Z   1
loop_
 _symmetry_equiv_pos_site_id
 _symmetry_equiv_pos_as_xyz
  1  'x, y, z'
loop_
 _atom_site_type_symbol
 _atom_site_label
 _atom_site_symmetry_multiplicity
 _atom_site_fract_x
 _atom_site_fract_y
 _atom_site_fract_z
 _atom_site_occupancy
  Hf  Hf0  1  0.880235  0.880235  0.359293  1
  Sc  Sc1  1  0.711230  0.711230  0.289095  1
  Sc  Sc2  1  0.288445  0.711230  0.289095  1
  Sc  Sc3  1  0.711230  0.288445  0.289095  1
  Sc  Sc4  1  0.288471  0.288471  0.711528  1
  Sc  Sc5  1  0.711530  0.288471  0.711528  1
  Sc  Sc6  1  0.288471  0.711530  0.711528  1
  Ta  Ta7  1  0.878588  0.362924  0.879899  1
  Ta  Ta8  1  0.362924  0.878588  0.879899  1
  Ta  Ta9  1  0.878588  0.878588  0.879899  1
  Al  Al10  1  0.121313  0.121313  0.636061  1
  Al  Al11  1  0.121284  0.636492  0.120942  1
  Al  Al12  1  0.636492  0.121284  0.120942  1
  Al  Al13  1  0.121284  0.121284  0.120942  1
  Al  Al14  1  0.662061  0.662061  0.013820  1
  Al  Al15  1  0.662993  0.011246  0.662770  1
  Al  Al16  1  0.011246  0.662993  0.662770  1
  Al  Al17  1  0.662993  0.662993  0.662770  1
  Al  Al18  1  0.335388  0.335388  0.993835  1
  Al  Al19  1  0.335132  0.994898  0.334838  1
  Al  Al20  1  0.994898  0.335132  0.334838  1
  Al  Al21  1  0.335132  0.335132  0.334838  1
  Os  Os22  1  0.002744  0.002744  0.991769  1
  Os  Os23  1  0.998246  0.998246  0.505750  1
  Os  Os24  1  0.497760  0.998246  0.505750  1
  Os  Os25  1  0.998246  0.497760  0.505750  1
  Os  Os26  1  0.502852  0.502852  0.996920  1
  Os  Os27  1  0.997375  0.502852  0.996920  1
  Os  Os28  1  0.502852  0.997375  0.996920  1
