# generated using pymatgen
data_Tm7LuSc12Si15Ge
_symmetry_space_group_name_H-M   'P 1'
_cell_length_a   7.05820325
_cell_length_b   7.34788729
_cell_length_c   13.91254206
_cell_angle_alpha   89.99430845
_cell_angle_beta   89.86955380
_cell_angle_gamma   90.01016556
_symmetry_Int_Tables_number   1
_chemical_formula_structural   Tm7LuSc12Si15Ge
_chemical_formula_sum   'Tm7 Lu1 Sc12 Si15 Ge1'
_cell_volume   721.54264166
_cell_formula_units_Z   1
loop_
 _symmetry_equiv_pos_site_id
 _symmetry_equiv_pos_as_xyz
  1  'x, y, z'
loop_
 _atom_site_type_symbol
 _atom_site_label
 _atom_site_symmetry_multiplicity
 _atom_site_fract_x
 _atom_site_fract_y
 _atom_site_fract_z
 _atom_site_occupancy
  Tm  Tm0  1  0.987910  0.823696  0.903681  1
  Tm  Tm1  1  0.488207  0.676572  0.903631  1
  Tm  Tm2  1  0.987381  0.824507  0.596596  1
  Tm  Tm3  1  0.512082  0.323432  0.096580  1
  Tm  Tm4  1  0.010865  0.175867  0.402959  1
  Tm  Tm5  1  0.512603  0.322110  0.402572  1
  Tm  Tm6  1  0.490913  0.678146  0.596925  1
  Lu  Lu7  1  0.012395  0.176563  0.096575  1
  Sc  Sc8  1  0.161103  0.503489  0.751176  1
  Sc  Sc9  1  0.838898  0.496459  0.249975  1
  Sc  Sc10  1  0.338940  0.003428  0.249882  1
  Sc  Sc11  1  0.661045  0.996523  0.750064  1
  Sc  Sc12  1  0.332779  0.174528  0.626077  1
  Sc  Sc13  1  0.668341  0.823635  0.374328  1
  Sc  Sc14  1  0.167912  0.677665  0.374168  1
  Sc  Sc15  1  0.668979  0.823044  0.125185  1
  Sc  Sc16  1  0.829864  0.323040  0.625406  1
  Sc  Sc17  1  0.331056  0.176788  0.874813  1
  Sc  Sc18  1  0.831175  0.322837  0.874817  1
  Sc  Sc19  1  0.168769  0.677192  0.125256  1
  Si  Si20  1  0.032943  0.114207  0.750191  1
  Si  Si21  1  0.967153  0.886713  0.249479  1
  Si  Si22  1  0.466867  0.614089  0.249703  1
  Si  Si23  1  0.532578  0.386389  0.750278  1
  Si  Si24  1  0.285044  0.870370  0.750265  1
  Si  Si25  1  0.715176  0.129077  0.249468  1
  Si  Si26  1  0.214499  0.370601  0.249803  1
  Si  Si27  1  0.785665  0.629209  0.750095  1
  Si  Si28  1  0.835131  0.535770  0.459817  1
  Si  Si29  1  0.339965  0.965292  0.460452  1
  Si  Si30  1  0.840784  0.534315  0.039510  1
  Si  Si31  1  0.659864  0.035033  0.539374  1
  Si  Si32  1  0.159186  0.465234  0.960807  1
  Si  Si33  1  0.659391  0.034645  0.960571  1
  Si  Si34  1  0.340300  0.965536  0.039563  1
  Ge  Ge35  1  0.164239  0.464001  0.539958  1
