# generated using pymatgen
data_Nd5GeIrO12
_symmetry_space_group_name_H-M   'P 1'
_cell_length_a   7.05519631
_cell_length_b   7.05519518
_cell_length_c   7.56467445
_cell_angle_alpha   74.50304593
_cell_angle_beta   74.50304698
_cell_angle_gamma   50.87873366
_symmetry_Int_Tables_number   1
_chemical_formula_structural   Nd5GeIrO12
_chemical_formula_sum   'Nd5 Ge1 Ir1 O12'
_cell_volume   279.04320242
_cell_formula_units_Z   1
loop_
 _symmetry_equiv_pos_site_id
 _symmetry_equiv_pos_as_xyz
  1  'x, y, z'
loop_
 _atom_site_type_symbol
 _atom_site_label
 _atom_site_symmetry_multiplicity
 _atom_site_fract_x
 _atom_site_fract_y
 _atom_site_fract_z
 _atom_site_occupancy
  Nd  Nd0  1  0.310597  0.299453  0.358248  1
  Nd  Nd1  1  0.700547  0.689403  0.641752  1
  Nd  Nd2  1  0.692165  0.695893  0.165848  1
  Nd  Nd3  1  0.304107  0.307835  0.834152  1
  Nd  Nd4  1  0.999674  0.000326  0.500000  1
  Ge  Ge5  1  0.756198  0.243802  0.000000  1
  Ir  Ir6  1  0.243686  0.756314  0.000000  1
  O  O7  1  0.097130  0.597495  0.576184  1
  O  O8  1  0.991678  0.007015  0.171637  1
  O  O9  1  0.402505  0.902870  0.423816  1
  O  O10  1  0.506354  0.494574  0.171647  1
  O  O11  1  0.099261  0.583212  0.078910  1
  O  O12  1  0.905975  0.403768  0.421600  1
  O  O13  1  0.992985  0.008322  0.828363  1
  O  O14  1  0.596232  0.094024  0.578400  1
  O  O15  1  0.505426  0.493646  0.828353  1
  O  O16  1  0.581944  0.103253  0.077610  1
  O  O17  1  0.416788  0.900739  0.921090  1
  O  O18  1  0.896747  0.418056  0.922390  1
