# generated using pymatgen
data_Sc22FeCoOs6
_symmetry_space_group_name_H-M   'P 1'
_cell_length_a   9.42971188
_cell_length_b   9.42971303
_cell_length_c   9.42971200
_cell_angle_alpha   60.00000360
_cell_angle_beta   59.99999957
_cell_angle_gamma   60.00000577
_symmetry_Int_Tables_number   1
_chemical_formula_structural   Sc22FeCoOs6
_chemical_formula_sum   'Sc22 Fe1 Co1 Os6'
_cell_volume   592.89851095
_cell_formula_units_Z   1
loop_
 _symmetry_equiv_pos_site_id
 _symmetry_equiv_pos_as_xyz
  1  'x, y, z'
loop_
 _atom_site_type_symbol
 _atom_site_label
 _atom_site_symmetry_multiplicity
 _atom_site_fract_x
 _atom_site_fract_y
 _atom_site_fract_z
 _atom_site_occupancy
  Sc  Sc0  1  0.843210  0.843210  0.843210  1
  Sc  Sc1  1  0.529629  0.156790  0.156790  1
  Sc  Sc2  1  0.156790  0.156790  0.529629  1
  Sc  Sc3  1  0.156790  0.529629  0.156790  1
  Sc  Sc4  1  0.843210  0.843210  0.470371  1
  Sc  Sc5  1  0.843210  0.470371  0.843210  1
  Sc  Sc6  1  0.470371  0.843210  0.843210  1
  Sc  Sc7  1  0.156790  0.156790  0.156790  1
  Sc  Sc8  1  0.192981  0.807019  0.192981  1
  Sc  Sc9  1  0.192981  0.807019  0.807019  1
  Sc  Sc10  1  0.807019  0.192981  0.192981  1
  Sc  Sc11  1  0.807019  0.807019  0.192981  1
  Sc  Sc12  1  0.192981  0.192981  0.807019  1
  Sc  Sc13  1  0.807019  0.192981  0.807019  1
  Sc  Sc14  1  0.384456  0.384456  0.384456  1
  Sc  Sc15  1  0.153370  0.615544  0.615544  1
  Sc  Sc16  1  0.615544  0.153370  0.615544  1
  Sc  Sc17  1  0.615544  0.615544  0.153370  1
  Sc  Sc18  1  0.384456  0.846630  0.384456  1
  Sc  Sc19  1  0.384456  0.384456  0.846630  1
  Sc  Sc20  1  0.846630  0.384456  0.384456  1
  Sc  Sc21  1  0.615544  0.615544  0.615544  1
  Fe  Fe22  1  0.000000  0.000000  0.000000  1
  Co  Co23  1  0.500000  0.500000  0.500000  1
  Os  Os24  1  0.500000  0.500000  0.000000  1
  Os  Os25  1  0.000000  0.000000  0.500000  1
  Os  Os26  1  0.500000  0.000000  0.500000  1
  Os  Os27  1  0.000000  0.500000  0.500000  1
  Os  Os28  1  0.500000  0.000000  0.000000  1
  Os  Os29  1  0.000000  0.500000  0.000000  1
