# generated using pymatgen
data_CsLiUS3
_symmetry_space_group_name_H-M   'P 1'
_cell_length_a   4.12049400
_cell_length_b   7.91311377
_cell_length_c   10.56109300
_cell_angle_alpha   89.99992189
_cell_angle_beta   90.00000000
_cell_angle_gamma   74.90865292
_symmetry_Int_Tables_number   1
_chemical_formula_structural   CsLiUS3
_chemical_formula_sum   'Cs2 Li2 U2 S6'
_cell_volume   332.47823588
_cell_formula_units_Z   2
loop_
 _symmetry_equiv_pos_site_id
 _symmetry_equiv_pos_as_xyz
  1  'x, y, z'
loop_
 _atom_site_type_symbol
 _atom_site_label
 _atom_site_symmetry_multiplicity
 _atom_site_fract_x
 _atom_site_fract_y
 _atom_site_fract_z
 _atom_site_occupancy
  Cs  Cs0  1  0.739632  0.520739  0.250027  1
  Cs  Cs1  1  0.260369  0.479261  0.749973  1
  Li  Li2  1  0.466466  0.067070  0.250045  1
  Li  Li3  1  0.533535  0.932931  0.749955  1
  U  U4  1  0.000000  0.000000  0.000000  1
  U  U5  1  0.000000  0.000000  0.500000  1
  S  S6  1  0.389785  0.220431  0.051206  1
  S  S7  1  0.047955  0.904090  0.249992  1
  S  S8  1  0.389821  0.220359  0.448827  1
  S  S9  1  0.610180  0.779641  0.551173  1
  S  S10  1  0.952046  0.095910  0.750008  1
  S  S11  1  0.610216  0.779569  0.948794  1
