# generated using pymatgen
data_Ti12VTc5Ir6
_symmetry_space_group_name_H-M   'P 1'
_cell_length_a   4.38370100
_cell_length_b   6.20227700
_cell_length_c   13.17192400
_cell_angle_alpha   90.00007610
_cell_angle_beta   89.99832399
_cell_angle_gamma   90.00013002
_symmetry_Int_Tables_number   1
_chemical_formula_structural   Ti12VTc5Ir6
_chemical_formula_sum   'Ti12 V1 Tc5 Ir6'
_cell_volume   358.13049169
_cell_formula_units_Z   1
loop_
 _symmetry_equiv_pos_site_id
 _symmetry_equiv_pos_as_xyz
  1  'x, y, z'
loop_
 _atom_site_type_symbol
 _atom_site_label
 _atom_site_symmetry_multiplicity
 _atom_site_fract_x
 _atom_site_fract_y
 _atom_site_fract_z
 _atom_site_occupancy
  Ti  Ti0  1  0.499999  0.249563  0.000001  1
  Ti  Ti1  1  0.500001  0.750438  0.999999  1
  Ti  Ti2  1  0.000095  0.249618  0.166157  1
  Ti  Ti3  1  0.000095  0.750382  0.166157  1
  Ti  Ti4  1  0.500094  0.250422  0.332756  1
  Ti  Ti5  1  0.500095  0.749579  0.332756  1
  Ti  Ti6  1  0.000000  0.249267  0.499999  1
  Ti  Ti7  1  0.000000  0.750732  0.500001  1
  Ti  Ti8  1  0.499904  0.250422  0.667244  1
  Ti  Ti9  1  0.499905  0.749579  0.667244  1
  Ti  Ti10  1  0.999905  0.249618  0.833842  1
  Ti  Ti11  1  0.999905  0.750382  0.833842  1
  V  V12  1  0.000000  0.000000  0.000000  1
  Tc  Tc13  1  0.500110  0.499999  0.167697  1
  Tc  Tc14  1  0.000114  0.000002  0.333902  1
  Tc  Tc15  1  0.500000  0.500000  0.500000  1
  Tc  Tc16  1  0.999886  0.999998  0.666097  1
  Tc  Tc17  1  0.499890  0.500001  0.832302  1
  Ir  Ir18  1  0.000000  0.500000  0.000000  1
  Ir  Ir19  1  0.500059  0.000001  0.166066  1
  Ir  Ir20  1  0.000055  0.499999  0.333538  1
  Ir  Ir21  1  0.500000  0.000000  0.500000  1
  Ir  Ir22  1  0.999944  0.500001  0.666463  1
  Ir  Ir23  1  0.499941  0.999999  0.833934  1
