# generated using pymatgen
data_Zr10Si2SnBi2Pb3
_symmetry_space_group_name_H-M   'P 1'
_cell_length_a   8.83128938
_cell_length_b   8.81349572
_cell_length_c   5.94727100
_cell_angle_alpha   90.00000000
_cell_angle_beta   90.00000000
_cell_angle_gamma   119.93336591
_symmetry_Int_Tables_number   1
_chemical_formula_structural   Zr10Si2SnBi2Pb3
_chemical_formula_sum   'Zr10 Si2 Sn1 Bi2 Pb3'
_cell_volume   401.15470422
_cell_formula_units_Z   1
loop_
 _symmetry_equiv_pos_site_id
 _symmetry_equiv_pos_as_xyz
  1  'x, y, z'
loop_
 _atom_site_type_symbol
 _atom_site_label
 _atom_site_symmetry_multiplicity
 _atom_site_fract_x
 _atom_site_fract_y
 _atom_site_fract_z
 _atom_site_occupancy
  Zr  Zr0  1  0.669477  0.333111  0.003724  1
  Zr  Zr1  1  0.330523  0.663635  0.003724  1
  Zr  Zr2  1  0.330523  0.663635  0.496276  1
  Zr  Zr3  1  0.669477  0.333111  0.496276  1
  Zr  Zr4  1  0.748816  0.746912  0.750000  1
  Zr  Zr5  1  0.251184  0.998096  0.750000  1
  Zr  Zr6  1  0.000000  0.254916  0.750000  1
  Zr  Zr7  1  0.254104  0.259935  0.250000  1
  Zr  Zr8  1  0.745896  0.005830  0.250000  1
  Zr  Zr9  1  0.000000  0.740134  0.250000  1
  Si  Si10  1  0.000000  0.999783  0.002285  1
  Si  Si11  1  0.000000  0.999783  0.497715  1
  Sn  Sn12  1  0.000000  0.394413  0.250000  1
  Bi  Bi13  1  0.397924  0.396032  0.750000  1
  Bi  Bi14  1  0.602076  0.998108  0.750000  1
  Pb  Pb15  1  0.000000  0.602420  0.750000  1
  Pb  Pb16  1  0.610524  0.610334  0.250000  1
  Pb  Pb17  1  0.389476  0.999810  0.250000  1
