# generated using pymatgen
data_Rb4SiTe4
_symmetry_space_group_name_H-M   'P 1'
_cell_length_a   9.14051000
_cell_length_b   11.14613400
_cell_length_c   16.30949600
_cell_angle_alpha   90.00000000
_cell_angle_beta   90.00000000
_cell_angle_gamma   90.00000000
_symmetry_Int_Tables_number   1
_chemical_formula_structural   Rb4SiTe4
_chemical_formula_sum   'Rb16 Si4 Te16'
_cell_volume   1661.63345869
_cell_formula_units_Z   4
loop_
 _symmetry_equiv_pos_site_id
 _symmetry_equiv_pos_as_xyz
  1  'x, y, z'
loop_
 _atom_site_type_symbol
 _atom_site_label
 _atom_site_symmetry_multiplicity
 _atom_site_fract_x
 _atom_site_fract_y
 _atom_site_fract_z
 _atom_site_occupancy
  Rb  Rb0  1  0.500000  0.500000  0.500000  1
  Rb  Rb1  1  0.164255  0.458626  0.271464  1
  Rb  Rb2  1  0.164255  0.041374  0.271464  1
  Rb  Rb3  1  0.008041  0.750000  0.417231  1
  Rb  Rb4  1  0.991959  0.250000  0.582769  1
  Rb  Rb5  1  0.664255  0.958626  0.228536  1
  Rb  Rb6  1  0.335745  0.041374  0.771464  1
  Rb  Rb7  1  0.835745  0.958626  0.728536  1
  Rb  Rb8  1  0.335745  0.458626  0.771464  1
  Rb  Rb9  1  0.000000  0.500000  0.000000  1
  Rb  Rb10  1  0.508041  0.250000  0.082769  1
  Rb  Rb11  1  0.664255  0.541374  0.228536  1
  Rb  Rb12  1  0.491959  0.750000  0.917231  1
  Rb  Rb13  1  0.000000  0.000000  0.000000  1
  Rb  Rb14  1  0.835745  0.541374  0.728536  1
  Rb  Rb15  1  0.500000  0.000000  0.500000  1
  Si  Si16  1  0.730093  0.250000  0.835522  1
  Si  Si17  1  0.769907  0.250000  0.335522  1
  Si  Si18  1  0.230093  0.750000  0.664478  1
  Si  Si19  1  0.269907  0.750000  0.164478  1
  Te  Te20  1  0.511297  0.750000  0.672342  1
  Te  Te21  1  0.488703  0.250000  0.327658  1
  Te  Te22  1  0.373888  0.750000  0.311092  1
  Te  Te23  1  0.126112  0.750000  0.811092  1
  Te  Te24  1  0.011297  0.250000  0.827658  1
  Te  Te25  1  0.988703  0.750000  0.172342  1
  Te  Te26  1  0.626112  0.250000  0.688908  1
  Te  Te27  1  0.873888  0.250000  0.188908  1
  Te  Te28  1  0.856425  0.434331  0.413754  1
  Te  Te29  1  0.643575  0.065669  0.913754  1
  Te  Te30  1  0.356425  0.934331  0.086246  1
  Te  Te31  1  0.356425  0.565669  0.086246  1
  Te  Te32  1  0.143575  0.565669  0.586246  1
  Te  Te33  1  0.856425  0.065669  0.413754  1
  Te  Te34  1  0.143575  0.934331  0.586246  1
  Te  Te35  1  0.643575  0.434331  0.913754  1
