# generated using pymatgen
data_Ho7Tm(Si4W3)4
_symmetry_space_group_name_H-M   'P 1'
_cell_length_a   6.75922853
_cell_length_b   6.92780226
_cell_length_c   12.89094060
_cell_angle_alpha   90.03682880
_cell_angle_beta   89.99439682
_cell_angle_gamma   90.01449130
_symmetry_Int_Tables_number   1
_chemical_formula_structural   Ho7Tm(Si4W3)4
_chemical_formula_sum   'Ho7 Tm1 Si16 W12'
_cell_volume   603.63875531
_cell_formula_units_Z   1
loop_
 _symmetry_equiv_pos_site_id
 _symmetry_equiv_pos_as_xyz
  1  'x, y, z'
loop_
 _atom_site_type_symbol
 _atom_site_label
 _atom_site_symmetry_multiplicity
 _atom_site_fract_x
 _atom_site_fract_y
 _atom_site_fract_z
 _atom_site_occupancy
  Ho  Ho0  1  0.495251  0.667823  0.593329  1
  Ho  Ho1  1  0.995533  0.832285  0.906727  1
  Ho  Ho2  1  0.504901  0.332251  0.093484  1
  Ho  Ho3  1  0.004445  0.168131  0.407255  1
  Ho  Ho4  1  0.504287  0.331949  0.407270  1
  Ho  Ho5  1  0.004499  0.167962  0.093457  1
  Ho  Ho6  1  0.495314  0.667988  0.905881  1
  Tm  Tm7  1  0.994135  0.831529  0.593299  1
  Si  Si8  1  0.662201  0.958046  0.453809  1
  Si  Si9  1  0.162211  0.541858  0.046744  1
  Si  Si10  1  0.338576  0.042309  0.952681  1
  Si  Si11  1  0.838096  0.458689  0.547001  1
  Si  Si12  1  0.336273  0.040970  0.546907  1
  Si  Si13  1  0.837881  0.457924  0.952869  1
  Si  Si14  1  0.661908  0.957775  0.046828  1
  Si  Si15  1  0.162161  0.542719  0.453711  1
  Si  Si16  1  0.463782  0.370769  0.749806  1
  Si  Si17  1  0.964239  0.127813  0.749188  1
  Si  Si18  1  0.536622  0.628984  0.250249  1
  Si  Si19  1  0.036401  0.871510  0.250225  1
  Si  Si20  1  0.697795  0.865700  0.749518  1
  Si  Si21  1  0.196186  0.634573  0.749402  1
  Si  Si22  1  0.302891  0.134446  0.250349  1
  Si  Si23  1  0.803182  0.366148  0.250638  1
  W  W24  1  0.667851  0.163187  0.625431  1
  W  W25  1  0.167393  0.336066  0.873892  1
  W  W26  1  0.332060  0.836778  0.125351  1
  W  W27  1  0.832357  0.664241  0.375097  1
  W  W28  1  0.332096  0.836492  0.374620  1
  W  W29  1  0.832482  0.663738  0.125664  1
  W  W30  1  0.668803  0.163119  0.874240  1
  W  W31  1  0.168183  0.336458  0.625205  1
  W  W32  1  0.833558  0.500062  0.749601  1
  W  W33  1  0.333537  0.999332  0.749372  1
  W  W34  1  0.166621  0.500357  0.250340  1
  W  W35  1  0.666283  0.000020  0.250557  1
