# generated using pymatgen
data_Na2LaNdTe4
_symmetry_space_group_name_H-M   'P 1'
_cell_length_a   9.26535781
_cell_length_b   9.20917013
_cell_length_c   9.20916987
_cell_angle_alpha   59.60725497
_cell_angle_beta   59.79796005
_cell_angle_gamma   59.79796500
_symmetry_Int_Tables_number   1
_chemical_formula_structural   Na2LaNdTe4
_chemical_formula_sum   'Na4 La2 Nd2 Te8'
_cell_volume   552.27752968
_cell_formula_units_Z   2
loop_
 _symmetry_equiv_pos_site_id
 _symmetry_equiv_pos_as_xyz
  1  'x, y, z'
loop_
 _atom_site_type_symbol
 _atom_site_label
 _atom_site_symmetry_multiplicity
 _atom_site_fract_x
 _atom_site_fract_y
 _atom_site_fract_z
 _atom_site_occupancy
  Na  Na0  1  0.125000  0.625000  0.125000  1
  Na  Na1  1  0.125000  0.125000  0.625000  1
  Na  Na2  1  0.625000  0.125000  0.125000  1
  Na  Na3  1  0.125000  0.125000  0.125000  1
  La  La4  1  0.625000  0.625000  0.625000  1
  La  La5  1  0.125000  0.625000  0.625000  1
  Nd  Nd6  1  0.625000  0.125000  0.625000  1
  Nd  Nd7  1  0.625000  0.625000  0.125000  1
  Te  Te8  1  0.379301  0.867214  0.374183  1
  Te  Te9  1  0.870699  0.382786  0.875817  1
  Te  Te10  1  0.870699  0.875817  0.382786  1
  Te  Te11  1  0.868430  0.873408  0.873408  1
  Te  Te12  1  0.865244  0.376592  0.376592  1
  Te  Te13  1  0.379301  0.374183  0.867214  1
  Te  Te14  1  0.381570  0.376592  0.376592  1
  Te  Te15  1  0.384756  0.873408  0.873408  1
