# generated using pymatgen
data_YbY3(Al3Ir)2
_symmetry_space_group_name_H-M   'P 1'
_cell_length_a   5.55465300
_cell_length_b   5.55465309
_cell_length_c   8.69084400
_cell_angle_alpha   90.00000000
_cell_angle_beta   90.00000000
_cell_angle_gamma   119.99999351
_symmetry_Int_Tables_number   1
_chemical_formula_structural   YbY3(Al3Ir)2
_chemical_formula_sum   'Yb1 Y3 Al6 Ir2'
_cell_volume   232.22367252
_cell_formula_units_Z   1
loop_
 _symmetry_equiv_pos_site_id
 _symmetry_equiv_pos_as_xyz
  1  'x, y, z'
loop_
 _atom_site_type_symbol
 _atom_site_label
 _atom_site_symmetry_multiplicity
 _atom_site_fract_x
 _atom_site_fract_y
 _atom_site_fract_z
 _atom_site_occupancy
  Yb  Yb0  1  0.333333  0.666666  0.944777  1
  Y  Y1  1  0.666666  0.333334  0.051913  1
  Y  Y2  1  0.666666  0.333334  0.446970  1
  Y  Y3  1  0.333333  0.666666  0.554293  1
  Al  Al4  1  0.161704  0.323409  0.251102  1
  Al  Al5  1  0.161705  0.838296  0.251102  1
  Al  Al6  1  0.676592  0.838296  0.251102  1
  Al  Al7  1  0.324407  0.162202  0.749351  1
  Al  Al8  1  0.837795  0.162202  0.749351  1
  Al  Al9  1  0.837796  0.675593  0.749351  1
  Ir  Ir10  1  0.000000  0.000000  0.999322  1
  Ir  Ir11  1  0.000000  0.000000  0.501365  1
