# generated using pymatgen
data_Hf6Zn22GeAu
_symmetry_space_group_name_H-M   'P 1'
_cell_length_a   8.76383824
_cell_length_b   8.76383837
_cell_length_c   8.76384600
_cell_angle_alpha   59.99990326
_cell_angle_beta   59.99990128
_cell_angle_gamma   59.99992708
_symmetry_Int_Tables_number   1
_chemical_formula_structural   Hf6Zn22GeAu
_chemical_formula_sum   'Hf6 Zn22 Ge1 Au1'
_cell_volume   475.95683816
_cell_formula_units_Z   1
loop_
 _symmetry_equiv_pos_site_id
 _symmetry_equiv_pos_as_xyz
  1  'x, y, z'
loop_
 _atom_site_type_symbol
 _atom_site_label
 _atom_site_symmetry_multiplicity
 _atom_site_fract_x
 _atom_site_fract_y
 _atom_site_fract_z
 _atom_site_occupancy
  Hf  Hf0  1  0.712140  0.287860  0.287860  1
  Hf  Hf1  1  0.287860  0.712140  0.712140  1
  Hf  Hf2  1  0.287860  0.712140  0.287860  1
  Hf  Hf3  1  0.712140  0.287860  0.712140  1
  Hf  Hf4  1  0.287860  0.287860  0.712140  1
  Hf  Hf5  1  0.712140  0.712140  0.287860  1
  Zn  Zn6  1  0.124842  0.124842  0.124842  1
  Zn  Zn7  1  0.875158  0.875158  0.875158  1
  Zn  Zn8  1  0.124841  0.124841  0.625476  1
  Zn  Zn9  1  0.124841  0.625476  0.124841  1
  Zn  Zn10  1  0.875159  0.875159  0.374524  1
  Zn  Zn11  1  0.875159  0.374524  0.875159  1
  Zn  Zn12  1  0.625476  0.124841  0.124841  1
  Zn  Zn13  1  0.374524  0.875159  0.875159  1
  Zn  Zn14  1  0.500000  0.000000  0.000000  1
  Zn  Zn15  1  0.000000  0.500000  0.500000  1
  Zn  Zn16  1  0.000000  0.500000  0.000000  1
  Zn  Zn17  1  0.500000  0.000000  0.500000  1
  Zn  Zn18  1  0.000000  0.000000  0.500000  1
  Zn  Zn19  1  0.500000  0.500000  0.000000  1
  Zn  Zn20  1  0.337224  0.337224  0.337224  1
  Zn  Zn21  1  0.662776  0.662776  0.662776  1
  Zn  Zn22  1  0.337223  0.337223  0.988332  1
  Zn  Zn23  1  0.337222  0.988331  0.337223  1
  Zn  Zn24  1  0.662777  0.662777  0.011668  1
  Zn  Zn25  1  0.662778  0.011669  0.662777  1
  Zn  Zn26  1  0.988331  0.337222  0.337223  1
  Zn  Zn27  1  0.011669  0.662778  0.662777  1
  Ge  Ge28  1  0.500000  0.500000  0.500000  1
  Au  Au29  1  0.000000  0.000000  0.000000  1
