# generated using pymatgen
data_Ce3Al3ZnIr2
_symmetry_space_group_name_H-M   'P 1'
_cell_length_a   7.05853600
_cell_length_b   7.05853558
_cell_length_c   4.24964900
_cell_angle_alpha   90.00000000
_cell_angle_beta   90.00000000
_cell_angle_gamma   120.00000199
_symmetry_Int_Tables_number   1
_chemical_formula_structural   Ce3Al3ZnIr2
_chemical_formula_sum   'Ce3 Al3 Zn1 Ir2'
_cell_volume   183.36351515
_cell_formula_units_Z   1
loop_
 _symmetry_equiv_pos_site_id
 _symmetry_equiv_pos_as_xyz
  1  'x, y, z'
loop_
 _atom_site_type_symbol
 _atom_site_label
 _atom_site_symmetry_multiplicity
 _atom_site_fract_x
 _atom_site_fract_y
 _atom_site_fract_z
 _atom_site_occupancy
  Ce  Ce0  1  0.422691  0.009738  0.500000  1
  Ce  Ce1  1  0.990262  0.412953  0.500000  1
  Ce  Ce2  1  0.587047  0.577309  0.500000  1
  Al  Al3  1  0.773708  0.008744  0.000000  1
  Al  Al4  1  0.991256  0.764964  0.000000  1
  Al  Al5  1  0.235036  0.226292  0.000000  1
  Zn  Zn6  1  0.333333  0.666667  0.000000  1
  Ir  Ir7  1  0.666667  0.333333  0.000000  1
  Ir  Ir8  1  0.000000  0.000000  0.500000  1
