# generated using pymatgen
data_Sr5CaOs3O16
_symmetry_space_group_name_H-M   'P 1'
_cell_length_a   5.79262994
_cell_length_b   5.81355577
_cell_length_c   10.55786488
_cell_angle_alpha   93.72860541
_cell_angle_beta   94.03119829
_cell_angle_gamma   90.17474125
_symmetry_Int_Tables_number   1
_chemical_formula_structural   Sr5CaOs3O16
_chemical_formula_sum   'Sr5 Ca1 Os3 O16'
_cell_volume   353.90355892
_cell_formula_units_Z   1
loop_
 _symmetry_equiv_pos_site_id
 _symmetry_equiv_pos_as_xyz
  1  'x, y, z'
loop_
 _atom_site_type_symbol
 _atom_site_label
 _atom_site_symmetry_multiplicity
 _atom_site_fract_x
 _atom_site_fract_y
 _atom_site_fract_z
 _atom_site_occupancy
  Sr  Sr0  1  0.508639  0.031422  0.209810  1
  Sr  Sr1  1  0.031909  0.502355  0.217345  1
  Sr  Sr2  1  0.999964  0.999915  0.499965  1
  Sr  Sr3  1  0.968085  0.497681  0.782650  1
  Sr  Sr4  1  0.491377  0.968521  0.790203  1
  Ca  Ca5  1  0.500009  0.499998  0.999996  1
  Os  Os6  1  0.999994  0.000013  0.000019  1
  Os  Os7  1  0.558497  0.559761  0.391717  1
  Os  Os8  1  0.441485  0.440241  0.608323  1
  O  O9  1  0.712117  0.162506  0.004687  1
  O  O10  1  0.843990  0.721411  0.030463  1
  O  O11  1  0.060174  0.064100  0.175015  1
  O  O12  1  0.462094  0.465238  0.209379  1
  O  O13  1  0.766837  0.768697  0.329211  1
  O  O14  1  0.309091  0.759134  0.377669  1
  O  O15  1  0.759332  0.311487  0.377453  1
  O  O16  1  0.316767  0.318226  0.437978  1
  O  O17  1  0.683225  0.681772  0.562028  1
  O  O18  1  0.240802  0.688410  0.622534  1
  O  O19  1  0.690772  0.240987  0.622281  1
  O  O20  1  0.233238  0.231391  0.670766  1
  O  O21  1  0.537941  0.534769  0.790590  1
  O  O22  1  0.939828  0.935894  0.825012  1
  O  O23  1  0.155977  0.278596  0.969573  1
  O  O24  1  0.287855  0.837463  0.995345  1
