# generated using pymatgen
data_Ho2Th2Ga24Pd5Pt4
_symmetry_space_group_name_H-M   'P 1'
_cell_length_a   7.60234956
_cell_length_b   7.61764770
_cell_length_c   13.21514800
_cell_angle_alpha   84.50873628
_cell_angle_beta   78.91947871
_cell_angle_gamma   59.96206493
_symmetry_Int_Tables_number   1
_chemical_formula_structural   Ho2Th2Ga24Pd5Pt4
_chemical_formula_sum   'Ho2 Th2 Ga24 Pd5 Pt4'
_cell_volume   650.17857761
_cell_formula_units_Z   1
loop_
 _symmetry_equiv_pos_site_id
 _symmetry_equiv_pos_as_xyz
  1  'x, y, z'
loop_
 _atom_site_type_symbol
 _atom_site_label
 _atom_site_symmetry_multiplicity
 _atom_site_fract_x
 _atom_site_fract_y
 _atom_site_fract_z
 _atom_site_occupancy
  Ho  Ho0  1  0.732276  0.498486  0.807950  1
  Ho  Ho1  1  0.267724  0.501514  0.192050  1
  Th  Th2  1  0.396868  0.167164  0.807171  1
  Th  Th3  1  0.603132  0.832836  0.192829  1
  Ga  Ga4  1  0.688546  0.829096  0.939315  1
  Ga  Ga5  1  0.311454  0.170904  0.060685  1
  Ga  Ga6  1  0.146027  0.833737  0.561527  1
  Ga  Ga7  1  0.853973  0.166263  0.438473  1
  Ga  Ga8  1  0.480269  0.168075  0.556934  1
  Ga  Ga9  1  0.519731  0.831925  0.443066  1
  Ga  Ga10  1  0.212819  0.171168  0.330177  1
  Ga  Ga11  1  0.787181  0.828832  0.669823  1
  Ga  Ga12  1  0.437215  0.509314  0.671262  1
  Ga  Ga13  1  0.562785  0.490686  0.328738  1
  Ga  Ga14  1  0.105516  0.163798  0.670822  1
  Ga  Ga15  1  0.894484  0.836202  0.329178  1
  Ga  Ga16  1  0.355923  0.500917  0.941624  1
  Ga  Ga17  1  0.644077  0.499083  0.058376  1
  Ga  Ga18  1  0.014126  0.170471  0.945614  1
  Ga  Ga19  1  0.985874  0.829529  0.054386  1
  Ga  Ga20  1  0.185228  0.500411  0.441598  1
  Ga  Ga21  1  0.814772  0.499589  0.558402  1
  Ga  Ga22  1  0.735686  0.168965  0.181891  1
  Ga  Ga23  1  0.264314  0.831035  0.818109  1
  Ga  Ga24  1  0.058204  0.632343  0.815683  1
  Ga  Ga25  1  0.941796  0.367657  0.184317  1
  Ga  Ga26  1  0.860972  0.039713  0.817285  1
  Ga  Ga27  1  0.139028  0.960287  0.182715  1
  Pd  Pd28  1  0.121518  0.493070  0.638398  1
  Pd  Pd29  1  0.878482  0.506930  0.361602  1
  Pd  Pd30  1  0.659235  0.168482  0.000040  1
  Pd  Pd31  1  0.340765  0.831518  0.999960  1
  Pd  Pd32  1  0.000000  0.500000  0.000000  1
  Pt  Pt33  1  0.538808  0.165525  0.360141  1
  Pt  Pt34  1  0.461192  0.834475  0.639859  1
  Pt  Pt35  1  0.778992  0.173482  0.638036  1
  Pt  Pt36  1  0.221008  0.826518  0.361964  1
