# generated using pymatgen
data_Tb3Er(ZnSi)4
_symmetry_space_group_name_H-M   'P 1'
_cell_length_a   4.17648100
_cell_length_b   4.17648119
_cell_length_c   15.67864000
_cell_angle_alpha   90.00000000
_cell_angle_beta   90.00000000
_cell_angle_gamma   120.00002224
_symmetry_Int_Tables_number   1
_chemical_formula_structural   Tb3Er(ZnSi)4
_chemical_formula_sum   'Tb3 Er1 Zn4 Si4'
_cell_volume   236.84267780
_cell_formula_units_Z   1
loop_
 _symmetry_equiv_pos_site_id
 _symmetry_equiv_pos_as_xyz
  1  'x, y, z'
loop_
 _atom_site_type_symbol
 _atom_site_label
 _atom_site_symmetry_multiplicity
 _atom_site_fract_x
 _atom_site_fract_y
 _atom_site_fract_z
 _atom_site_occupancy
  Tb  Tb0  1  0.000000  0.000000  0.250000  1
  Tb  Tb1  1  0.000000  0.000000  0.997590  1
  Tb  Tb2  1  0.000000  0.000000  0.502410  1
  Er  Er3  1  0.000000  0.000000  0.750000  1
  Zn  Zn4  1  0.333333  0.666667  0.137991  1
  Zn  Zn5  1  0.666667  0.333333  0.856226  1
  Zn  Zn6  1  0.666667  0.333333  0.643774  1
  Zn  Zn7  1  0.333333  0.666667  0.362009  1
  Si  Si8  1  0.333333  0.666667  0.619828  1
  Si  Si9  1  0.666667  0.333333  0.383293  1
  Si  Si10  1  0.666667  0.333333  0.116707  1
  Si  Si11  1  0.333333  0.666667  0.880172  1
