# generated using pymatgen
data_Pr2Al20CrRh3
_symmetry_space_group_name_H-M   'P 1'
_cell_length_a   6.88220278
_cell_length_b   6.90885784
_cell_length_c   9.24295804
_cell_angle_alpha   90.27742624
_cell_angle_beta   90.24055250
_cell_angle_gamma   97.08029356
_symmetry_Int_Tables_number   1
_chemical_formula_structural   Pr2Al20CrRh3
_chemical_formula_sum   'Pr2 Al20 Cr1 Rh3'
_cell_volume   436.12410370
_cell_formula_units_Z   1
loop_
 _symmetry_equiv_pos_site_id
 _symmetry_equiv_pos_as_xyz
  1  'x, y, z'
loop_
 _atom_site_type_symbol
 _atom_site_label
 _atom_site_symmetry_multiplicity
 _atom_site_fract_x
 _atom_site_fract_y
 _atom_site_fract_z
 _atom_site_occupancy
  Pr  Pr0  1  0.870322  0.121674  0.748204  1
  Pr  Pr1  1  0.129678  0.878326  0.251796  1
  Al  Al2  1  0.617825  0.373510  0.547913  1
  Al  Al3  1  0.382175  0.626490  0.452087  1
  Al  Al4  1  0.379450  0.621730  0.050328  1
  Al  Al5  1  0.620550  0.378270  0.949672  1
  Al  Al6  1  0.229251  0.223429  0.498325  1
  Al  Al7  1  0.770749  0.776571  0.501675  1
  Al  Al8  1  0.774505  0.775269  0.000604  1
  Al  Al9  1  0.225495  0.224731  0.999396  1
  Al  Al10  1  0.841266  0.160606  0.104345  1
  Al  Al11  1  0.158734  0.839394  0.895655  1
  Al  Al12  1  0.163391  0.842811  0.601014  1
  Al  Al13  1  0.836609  0.157189  0.398986  1
  Al  Al14  1  0.859072  0.592763  0.749359  1
  Al  Al15  1  0.140928  0.407237  0.250641  1
  Al  Al16  1  0.408852  0.139221  0.746823  1
  Al  Al17  1  0.591148  0.860779  0.253177  1
  Al  Al18  1  0.224201  0.481115  0.751454  1
  Al  Al19  1  0.775799  0.518885  0.248546  1
  Al  Al20  1  0.517343  0.778382  0.744564  1
  Al  Al21  1  0.482657  0.221618  0.255436  1
  Cr  Cr22  1  0.500000  0.000000  0.500000  1
  Rh  Rh23  1  0.000000  0.500000  0.500000  1
  Rh  Rh24  1  0.000000  0.500000  0.000000  1
  Rh  Rh25  1  0.500000  0.000000  0.000000  1
