# generated using pymatgen
data_Nd3ScZn2Pt3
_symmetry_space_group_name_H-M   'P 1'
_cell_length_a   7.49004979
_cell_length_b   7.38940573
_cell_length_c   4.13862300
_cell_angle_alpha   90.00000000
_cell_angle_beta   90.00000000
_cell_angle_gamma   119.55649129
_symmetry_Int_Tables_number   1
_chemical_formula_structural   Nd3ScZn2Pt3
_chemical_formula_sum   'Nd3 Sc1 Zn2 Pt3'
_cell_volume   199.25274809
_cell_formula_units_Z   1
loop_
 _symmetry_equiv_pos_site_id
 _symmetry_equiv_pos_as_xyz
  1  'x, y, z'
loop_
 _atom_site_type_symbol
 _atom_site_label
 _atom_site_symmetry_multiplicity
 _atom_site_fract_x
 _atom_site_fract_y
 _atom_site_fract_z
 _atom_site_occupancy
  Nd  Nd0  1  0.000000  0.616088  0.500000  1
  Nd  Nd1  1  0.566550  0.981873  0.500000  1
  Nd  Nd2  1  0.433450  0.415323  0.500000  1
  Sc  Sc3  1  0.000000  0.232122  0.000000  1
  Zn  Zn4  1  0.244615  0.002639  0.000000  1
  Zn  Zn5  1  0.755385  0.758024  0.000000  1
  Pt  Pt6  1  0.000000  0.009765  0.500000  1
  Pt  Pt7  1  0.680427  0.332295  0.000000  1
  Pt  Pt8  1  0.319573  0.651869  0.000000  1
