# generated using pymatgen
data_TiCd3Pd2
_symmetry_space_group_name_H-M   'P 1'
_cell_length_a   8.59285023
_cell_length_b   8.59305402
_cell_length_c   8.59286300
_cell_angle_alpha   60.00178514
_cell_angle_beta   60.00075895
_cell_angle_gamma   60.00131142
_symmetry_Int_Tables_number   1
_chemical_formula_structural   TiCd3Pd2
_chemical_formula_sum   'Ti4 Cd12 Pd8'
_cell_volume   448.66307506
_cell_formula_units_Z   4
loop_
 _symmetry_equiv_pos_site_id
 _symmetry_equiv_pos_as_xyz
  1  'x, y, z'
loop_
 _atom_site_type_symbol
 _atom_site_label
 _atom_site_symmetry_multiplicity
 _atom_site_fract_x
 _atom_site_fract_y
 _atom_site_fract_z
 _atom_site_occupancy
  Ti  Ti0  1  0.125000  0.625000  0.625000  1
  Ti  Ti1  1  0.625000  0.125000  0.625000  1
  Ti  Ti2  1  0.625000  0.625000  0.125000  1
  Ti  Ti3  1  0.625000  0.625000  0.625000  1
  Cd  Cd4  1  0.808470  0.808497  0.191475  1
  Cd  Cd5  1  0.191513  0.191526  0.808508  1
  Cd  Cd6  1  0.808458  0.191494  0.808503  1
  Cd  Cd7  1  0.191529  0.808500  0.191508  1
  Cd  Cd8  1  0.191492  0.808469  0.808485  1
  Cd  Cd9  1  0.808499  0.191523  0.191491  1
  Cd  Cd10  1  0.441530  0.441503  0.058525  1
  Cd  Cd11  1  0.058487  0.058474  0.441492  1
  Cd  Cd12  1  0.441542  0.058506  0.441497  1
  Cd  Cd13  1  0.058471  0.441500  0.058492  1
  Cd  Cd14  1  0.058508  0.441531  0.441515  1
  Cd  Cd15  1  0.441501  0.058477  0.058509  1
  Pd  Pd16  1  0.755021  0.414986  0.414973  1
  Pd  Pd17  1  0.414958  0.754988  0.415005  1
  Pd  Pd18  1  0.414942  0.415003  0.755022  1
  Pd  Pd19  1  0.414986  0.415043  0.415032  1
  Pd  Pd20  1  0.494979  0.835014  0.835027  1
  Pd  Pd21  1  0.835042  0.495012  0.834995  1
  Pd  Pd22  1  0.835058  0.834997  0.494978  1
  Pd  Pd23  1  0.835014  0.834957  0.834968  1
