# generated using pymatgen
data_Cs12LuScSe8
_symmetry_space_group_name_H-M   'P 1'
_cell_length_a   11.57013100
_cell_length_b   11.57013129
_cell_length_c   8.78250100
_cell_angle_alpha   90.00000000
_cell_angle_beta   90.00000000
_cell_angle_gamma   119.99999630
_symmetry_Int_Tables_number   1
_chemical_formula_structural   Cs12LuScSe8
_chemical_formula_sum   'Cs12 Lu1 Sc1 Se8'
_cell_volume   1018.18200973
_cell_formula_units_Z   1
loop_
 _symmetry_equiv_pos_site_id
 _symmetry_equiv_pos_as_xyz
  1  'x, y, z'
loop_
 _atom_site_type_symbol
 _atom_site_label
 _atom_site_symmetry_multiplicity
 _atom_site_fract_x
 _atom_site_fract_y
 _atom_site_fract_z
 _atom_site_occupancy
  Cs  Cs0  1  0.133854  0.866146  0.546336  1
  Cs  Cs1  1  0.268623  0.134312  0.045550  1
  Cs  Cs2  1  0.865688  0.731377  0.045550  1
  Cs  Cs3  1  0.133854  0.267708  0.546336  1
  Cs  Cs4  1  0.732292  0.866146  0.546336  1
  Cs  Cs5  1  0.865688  0.134312  0.045550  1
  Cs  Cs6  1  0.532487  0.467513  0.360610  1
  Cs  Cs7  1  0.062027  0.531014  0.859500  1
  Cs  Cs8  1  0.468986  0.937973  0.859500  1
  Cs  Cs9  1  0.532487  0.064974  0.360610  1
  Cs  Cs10  1  0.935026  0.467513  0.360610  1
  Cs  Cs11  1  0.468986  0.531014  0.859500  1
  Lu  Lu12  1  0.333333  0.666667  0.257381  1
  Sc  Sc13  1  0.666667  0.333333  0.757913  1
  Se  Se14  1  0.333333  0.666667  0.563711  1
  Se  Se15  1  0.666667  0.333333  0.055466  1
  Se  Se16  1  0.206589  0.793411  0.157043  1
  Se  Se17  1  0.420544  0.210272  0.659272  1
  Se  Se18  1  0.789728  0.579456  0.659272  1
  Se  Se19  1  0.206589  0.413179  0.157043  1
  Se  Se20  1  0.586821  0.793411  0.157043  1
  Se  Se21  1  0.789728  0.210272  0.659272  1
