# generated using pymatgen
data_Ba2CrFe3P4(O7F2)2
_symmetry_space_group_name_H-M   'P 1'
_cell_length_a   4.66892600
_cell_length_b   6.93008000
_cell_length_c   12.04696200
_cell_angle_alpha   90.00000000
_cell_angle_beta   90.00000000
_cell_angle_gamma   90.00000000
_symmetry_Int_Tables_number   1
_chemical_formula_structural   Ba2CrFe3P4(O7F2)2
_chemical_formula_sum   'Ba2 Cr1 Fe3 P4 O14 F4'
_cell_volume   389.79187224
_cell_formula_units_Z   1
loop_
 _symmetry_equiv_pos_site_id
 _symmetry_equiv_pos_as_xyz
  1  'x, y, z'
loop_
 _atom_site_type_symbol
 _atom_site_label
 _atom_site_symmetry_multiplicity
 _atom_site_fract_x
 _atom_site_fract_y
 _atom_site_fract_z
 _atom_site_occupancy
  Ba  Ba0  1  0.392238  0.246212  0.750950  1
  Ba  Ba1  1  0.607762  0.753788  0.249050  1
  Cr  Cr2  1  0.000000  0.500000  0.500000  1
  Fe  Fe3  1  0.000000  0.500000  0.000000  1
  Fe  Fe4  1  0.000000  0.000000  0.500000  1
  Fe  Fe5  1  0.000000  0.000000  0.000000  1
  P  P6  1  0.510213  0.252702  0.374270  1
  P  P7  1  0.487237  0.749010  0.873847  1
  P  P8  1  0.489787  0.747298  0.625730  1
  P  P9  1  0.512763  0.250990  0.126153  1
  O  O10  1  0.626343  0.748673  0.749623  1
  O  O11  1  0.373657  0.251327  0.250377  1
  O  O12  1  0.750706  0.749967  0.949279  1
  O  O13  1  0.249294  0.250033  0.050721  1
  O  O14  1  0.244712  0.257265  0.449654  1
  O  O15  1  0.755288  0.742735  0.550346  1
  O  O16  1  0.310463  0.933938  0.883820  1
  O  O17  1  0.682837  0.067217  0.386567  1
  O  O18  1  0.311223  0.562731  0.616435  1
  O  O19  1  0.689537  0.066062  0.116180  1
  O  O20  1  0.688777  0.437269  0.383565  1
  O  O21  1  0.688809  0.435998  0.116100  1
  O  O22  1  0.311191  0.564002  0.883900  1
  O  O23  1  0.317163  0.932783  0.613433  1
  F  F24  1  0.130238  0.777534  0.378165  1
  F  F25  1  0.128653  0.749721  0.111978  1
  F  F26  1  0.869762  0.222466  0.621835  1
  F  F27  1  0.871347  0.250279  0.888022  1
