# generated using pymatgen
data_ErZrMn3Ni9P7
_symmetry_space_group_name_H-M   'P 1'
_cell_length_a   9.05167600
_cell_length_b   9.05167619
_cell_length_c   3.61568100
_cell_angle_alpha   90.00000000
_cell_angle_beta   90.00000000
_cell_angle_gamma   120.00000663
_symmetry_Int_Tables_number   1
_chemical_formula_structural   ErZrMn3Ni9P7
_chemical_formula_sum   'Er1 Zr1 Mn3 Ni9 P7'
_cell_volume   256.55395798
_cell_formula_units_Z   1
loop_
 _symmetry_equiv_pos_site_id
 _symmetry_equiv_pos_as_xyz
  1  'x, y, z'
loop_
 _atom_site_type_symbol
 _atom_site_label
 _atom_site_symmetry_multiplicity
 _atom_site_fract_x
 _atom_site_fract_y
 _atom_site_fract_z
 _atom_site_occupancy
  Er  Er0  1  0.000000  0.000000  0.500000  1
  Zr  Zr1  1  0.333333  0.666667  0.000000  1
  Mn  Mn2  1  0.791410  0.235745  0.500000  1
  Mn  Mn3  1  0.764255  0.555665  0.500000  1
  Mn  Mn4  1  0.444335  0.208590  0.500000  1
  Ni  Ni5  1  0.043329  0.273789  0.000000  1
  Ni  Ni6  1  0.726211  0.769538  0.000000  1
  Ni  Ni7  1  0.230462  0.956671  0.000000  1
  Ni  Ni8  1  0.542023  0.053816  0.000000  1
  Ni  Ni9  1  0.946184  0.488208  0.000000  1
  Ni  Ni10  1  0.511792  0.457977  0.000000  1
  Ni  Ni11  1  0.610376  0.894917  0.500000  1
  Ni  Ni12  1  0.105083  0.715459  0.500000  1
  Ni  Ni13  1  0.284541  0.389624  0.500000  1
  P  P14  1  0.782186  0.041997  0.000000  1
  P  P15  1  0.958003  0.740188  0.000000  1
  P  P16  1  0.259812  0.217814  0.000000  1
  P  P17  1  0.373671  0.922549  0.500000  1
  P  P18  1  0.077451  0.451123  0.500000  1
  P  P19  1  0.548877  0.626329  0.500000  1
  P  P20  1  0.666667  0.333333  0.000000  1
