# generated using pymatgen
data_Tb2Y6Sc12Si15As
_symmetry_space_group_name_H-M   'P 1'
_cell_length_a   7.13411773
_cell_length_b   7.38014444
_cell_length_c   14.01865631
_cell_angle_alpha   90.05283415
_cell_angle_beta   88.88544923
_cell_angle_gamma   90.10138425
_symmetry_Int_Tables_number   1
_chemical_formula_structural   Tb2Y6Sc12Si15As
_chemical_formula_sum   'Tb2 Y6 Sc12 Si15 As1'
_cell_volume   737.95264983
_cell_formula_units_Z   1
loop_
 _symmetry_equiv_pos_site_id
 _symmetry_equiv_pos_as_xyz
  1  'x, y, z'
loop_
 _atom_site_type_symbol
 _atom_site_label
 _atom_site_symmetry_multiplicity
 _atom_site_fract_x
 _atom_site_fract_y
 _atom_site_fract_z
 _atom_site_occupancy
  Tb  Tb0  1  0.504516  0.321942  0.402081  1
  Tb  Tb1  1  0.499752  0.676876  0.597761  1
  Y  Y2  1  0.012258  0.176094  0.097241  1
  Y  Y3  1  0.988219  0.824436  0.902332  1
  Y  Y4  1  0.488545  0.675593  0.902356  1
  Y  Y5  1  0.993054  0.822109  0.596009  1
  Y  Y6  1  0.511894  0.325160  0.097548  1
  Y  Y7  1  0.005391  0.177692  0.403773  1
  Sc  Sc8  1  0.164862  0.500414  0.749819  1
  Sc  Sc9  1  0.834946  0.499309  0.252953  1
  Sc  Sc10  1  0.335346  0.000682  0.251251  1
  Sc  Sc11  1  0.664863  0.999436  0.749158  1
  Sc  Sc12  1  0.340452  0.170661  0.626865  1
  Sc  Sc13  1  0.660737  0.827585  0.373651  1
  Sc  Sc14  1  0.158717  0.672433  0.376903  1
  Sc  Sc15  1  0.668498  0.823720  0.125571  1
  Sc  Sc16  1  0.838271  0.328589  0.622904  1
  Sc  Sc17  1  0.331301  0.175761  0.873970  1
  Sc  Sc18  1  0.832397  0.323236  0.874385  1
  Sc  Sc19  1  0.167763  0.676928  0.125088  1
  Si  Si20  1  0.036228  0.117700  0.749422  1
  Si  Si21  1  0.963265  0.882974  0.249551  1
  Si  Si22  1  0.459555  0.618175  0.248937  1
  Si  Si23  1  0.539110  0.381880  0.750792  1
  Si  Si24  1  0.288968  0.871598  0.750192  1
  Si  Si25  1  0.712310  0.126644  0.249269  1
  Si  Si26  1  0.210169  0.374920  0.249670  1
  Si  Si27  1  0.791564  0.626146  0.750372  1
  Si  Si28  1  0.813494  0.540611  0.457148  1
  Si  Si29  1  0.331953  0.961985  0.460889  1
  Si  Si30  1  0.843840  0.535611  0.039304  1
  Si  Si31  1  0.667860  0.037851  0.540074  1
  Si  Si32  1  0.155921  0.465047  0.960108  1
  Si  Si33  1  0.655183  0.035022  0.959667  1
  Si  Si34  1  0.344904  0.965717  0.040022  1
  As  As35  1  0.183895  0.459461  0.542965  1
