# generated using pymatgen
data_Y10Ho5Lu5Sn16
_symmetry_space_group_name_H-M   'P 1'
_cell_length_a   7.98397409
_cell_length_b   8.12263915
_cell_length_c   15.36798044
_cell_angle_alpha   90.03517574
_cell_angle_beta   90.00923312
_cell_angle_gamma   89.96598368
_symmetry_Int_Tables_number   1
_chemical_formula_structural   Y10Ho5Lu5Sn16
_chemical_formula_sum   'Y10 Ho5 Lu5 Sn16'
_cell_volume   996.62760856
_cell_formula_units_Z   1
loop_
 _symmetry_equiv_pos_site_id
 _symmetry_equiv_pos_as_xyz
  1  'x, y, z'
loop_
 _atom_site_type_symbol
 _atom_site_label
 _atom_site_symmetry_multiplicity
 _atom_site_fract_x
 _atom_site_fract_y
 _atom_site_fract_z
 _atom_site_occupancy
  Y  Y0  1  0.865349  0.662099  0.877190  1
  Y  Y1  1  0.519786  0.321531  0.903232  1
  Y  Y2  1  0.019851  0.178454  0.597023  1
  Y  Y3  1  0.480742  0.678636  0.404407  1
  Y  Y4  1  0.979896  0.820777  0.096078  1
  Y  Y5  1  0.481905  0.679453  0.095050  1
  Y  Y6  1  0.981287  0.819803  0.405073  1
  Y  Y7  1  0.519307  0.321938  0.597095  1
  Y  Y8  1  0.019650  0.178051  0.902364  1
  Y  Y9  1  0.303827  0.002921  0.249559  1
  Ho  Ho10  1  0.635820  0.162736  0.378280  1
  Ho  Ho11  1  0.135130  0.337984  0.121468  1
  Ho  Ho12  1  0.634999  0.163248  0.122924  1
  Ho  Ho13  1  0.134291  0.337429  0.377546  1
  Ho  Ho14  1  0.365770  0.837904  0.623515  1
  Lu  Lu15  1  0.364491  0.838301  0.874476  1
  Lu  Lu16  1  0.864287  0.661586  0.624599  1
  Lu  Lu17  1  0.196392  0.504298  0.749972  1
  Lu  Lu18  1  0.696236  0.995857  0.749569  1
  Lu  Lu19  1  0.803431  0.495741  0.250687  1
  Sn  Sn20  1  0.296114  0.037156  0.039145  1
  Sn  Sn21  1  0.796129  0.462774  0.459985  1
  Sn  Sn22  1  0.706281  0.959273  0.542768  1
  Sn  Sn23  1  0.207544  0.540670  0.957111  1
  Sn  Sn24  1  0.700277  0.962720  0.957264  1
  Sn  Sn25  1  0.201267  0.538966  0.542897  1
  Sn  Sn26  1  0.295724  0.038568  0.458960  1
  Sn  Sn27  1  0.795634  0.461776  0.042697  1
  Sn  Sn28  1  0.561247  0.619193  0.749588  1
  Sn  Sn29  1  0.061193  0.880670  0.749658  1
  Sn  Sn30  1  0.438093  0.382526  0.250271  1
  Sn  Sn31  1  0.936836  0.119651  0.249820  1
  Sn  Sn32  1  0.330300  0.150316  0.750133  1
  Sn  Sn33  1  0.829638  0.350052  0.749547  1
  Sn  Sn34  1  0.671832  0.849561  0.250135  1
  Sn  Sn35  1  0.169444  0.647384  0.249910  1
