# generated using pymatgen
data_Eu2CuN2
_symmetry_space_group_name_H-M   'P 1'
_cell_length_a   3.64048567
_cell_length_b   3.64066120
_cell_length_c   6.67598668
_cell_angle_alpha   105.82311144
_cell_angle_beta   105.82232556
_cell_angle_gamma   90.00000105
_symmetry_Int_Tables_number   1
_chemical_formula_structural   Eu2CuN2
_chemical_formula_sum   'Eu2 Cu1 N2'
_cell_volume   81.63928798
_cell_formula_units_Z   1
loop_
 _symmetry_equiv_pos_site_id
 _symmetry_equiv_pos_as_xyz
  1  'x, y, z'
loop_
 _atom_site_type_symbol
 _atom_site_label
 _atom_site_symmetry_multiplicity
 _atom_site_fract_x
 _atom_site_fract_y
 _atom_site_fract_z
 _atom_site_occupancy
  Eu  Eu0  1  0.152612  0.152612  0.805223  1
  Eu  Eu1  1  0.847388  0.847388  0.194777  1
  Cu  Cu2  1  0.500000  0.500000  0.500000  1
  N  N3  1  0.652225  0.652225  0.804451  1
  N  N4  1  0.347775  0.347775  0.195549  1
