# generated using pymatgen
data_ZrU(Ni2Rh)2
_symmetry_space_group_name_H-M   'P 1'
_cell_length_a   3.92401800
_cell_length_b   3.82804900
_cell_length_c   7.65885000
_cell_angle_alpha   90.00000000
_cell_angle_beta   90.00000000
_cell_angle_gamma   90.00000000
_symmetry_Int_Tables_number   1
_chemical_formula_structural   ZrU(Ni2Rh)2
_chemical_formula_sum   'Zr1 U1 Ni4 Rh2'
_cell_volume   115.04613763
_cell_formula_units_Z   1
loop_
 _symmetry_equiv_pos_site_id
 _symmetry_equiv_pos_as_xyz
  1  'x, y, z'
loop_
 _atom_site_type_symbol
 _atom_site_label
 _atom_site_symmetry_multiplicity
 _atom_site_fract_x
 _atom_site_fract_y
 _atom_site_fract_z
 _atom_site_occupancy
  Zr  Zr0  1  0.000000  0.000000  0.500000  1
  U  U1  1  0.000000  0.000000  0.000000  1
  Ni  Ni2  1  0.500000  0.500000  0.000000  1
  Ni  Ni3  1  0.500000  0.500000  0.500000  1
  Ni  Ni4  1  0.500000  0.000000  0.246596  1
  Ni  Ni5  1  0.500000  0.000000  0.753404  1
  Rh  Rh6  1  0.000000  0.500000  0.244522  1
  Rh  Rh7  1  0.000000  0.500000  0.755478  1
