# generated using pymatgen
data_Ba6Sn8AsSe
_symmetry_space_group_name_H-M   'P 1'
_cell_length_a   9.23504824
_cell_length_b   9.23504840
_cell_length_c   9.27445928
_cell_angle_alpha   119.85954226
_cell_angle_beta   119.85953132
_cell_angle_gamma   90.00000176
_symmetry_Int_Tables_number   1
_chemical_formula_structural   Ba6Sn8AsSe
_chemical_formula_sum   'Ba6 Sn8 As1 Se1'
_cell_volume   561.67573017
_cell_formula_units_Z   1
loop_
 _symmetry_equiv_pos_site_id
 _symmetry_equiv_pos_as_xyz
  1  'x, y, z'
loop_
 _atom_site_type_symbol
 _atom_site_label
 _atom_site_symmetry_multiplicity
 _atom_site_fract_x
 _atom_site_fract_y
 _atom_site_fract_z
 _atom_site_occupancy
  Ba  Ba0  1  0.249721  0.249721  0.499441  1
  Ba  Ba1  1  0.750279  0.750279  0.500559  1
  Ba  Ba2  1  0.668482  0.172457  0.000000  1
  Ba  Ba3  1  0.331518  0.827543  0.000000  1
  Ba  Ba4  1  0.827543  0.668482  0.000000  1
  Ba  Ba5  1  0.172457  0.331518  0.000000  1
  Sn  Sn6  1  0.336902  0.833899  0.389998  1
  Sn  Sn7  1  0.663098  0.166101  0.610002  1
  Sn  Sn8  1  0.053097  0.556099  0.389998  1
  Sn  Sn9  1  0.556099  0.336902  0.389998  1
  Sn  Sn10  1  0.166101  0.946903  0.610002  1
  Sn  Sn11  1  0.946903  0.443901  0.610002  1
  Sn  Sn12  1  0.443901  0.663098  0.610002  1
  Sn  Sn13  1  0.833899  0.053097  0.389998  1
  As  As14  1  0.500000  0.500000  0.000000  1
  Se  Se15  1  0.000000  0.000000  0.000000  1
