# generated using pymatgen
data_AlV12Zn7(CN)2
_symmetry_space_group_name_H-M   'P 1'
_cell_length_a   6.61096416
_cell_length_b   6.61420112
_cell_length_c   6.61302595
_cell_angle_alpha   89.85333821
_cell_angle_beta   89.99960968
_cell_angle_gamma   90.03237414
_symmetry_Int_Tables_number   1
_chemical_formula_structural   AlV12Zn7(CN)2
_chemical_formula_sum   'Al1 V12 Zn7 C2 N2'
_cell_volume   289.16180930
_cell_formula_units_Z   1
loop_
 _symmetry_equiv_pos_site_id
 _symmetry_equiv_pos_as_xyz
  1  'x, y, z'
loop_
 _atom_site_type_symbol
 _atom_site_label
 _atom_site_symmetry_multiplicity
 _atom_site_fract_x
 _atom_site_fract_y
 _atom_site_fract_z
 _atom_site_occupancy
  Al  Al0  1  0.177207  0.823529  0.321893  1
  V  V1  1  0.788561  0.963484  0.377803  1
  V  V2  1  0.712487  0.039092  0.872818  1
  V  V3  1  0.212300  0.461492  0.128485  1
  V  V4  1  0.287594  0.535876  0.620789  1
  V  V5  1  0.961610  0.372762  0.786519  1
  V  V6  1  0.037386  0.877712  0.710607  1
  V  V7  1  0.462108  0.124829  0.214331  1
  V  V8  1  0.536703  0.624135  0.289675  1
  V  V9  1  0.373837  0.788459  0.962447  1
  V  V10  1  0.876899  0.712589  0.037440  1
  V  V11  1  0.124486  0.211889  0.462450  1
  V  V12  1  0.625431  0.287666  0.537527  1
  Zn  Zn13  1  0.322811  0.178693  0.823042  1
  Zn  Zn14  1  0.821613  0.322406  0.176688  1
  Zn  Zn15  1  0.677769  0.677347  0.679212  1
  Zn  Zn16  1  0.571936  0.428533  0.927874  1
  Zn  Zn17  1  0.429485  0.927830  0.574893  1
  Zn  Zn18  1  0.925200  0.571021  0.428428  1
  Zn  Zn19  1  0.071243  0.074296  0.070205  1
  C  C20  1  0.626665  0.875191  0.124737  1
  C  C21  1  0.125860  0.622542  0.872301  1
  N  N22  1  0.874324  0.126671  0.624575  1
  N  N23  1  0.376484  0.371956  0.375262  1
