# generated using pymatgen
data_Er2Co3Si7Ru9
_symmetry_space_group_name_H-M   'P 1'
_cell_length_a   3.83369900
_cell_length_b   9.49477258
_cell_length_c   9.49477200
_cell_angle_alpha   119.99999102
_cell_angle_beta   90.00000000
_cell_angle_gamma   90.00000000
_symmetry_Int_Tables_number   1
_chemical_formula_structural   Er2Co3Si7Ru9
_chemical_formula_sum   'Er2 Co3 Si7 Ru9'
_cell_volume   299.30763118
_cell_formula_units_Z   1
loop_
 _symmetry_equiv_pos_site_id
 _symmetry_equiv_pos_as_xyz
  1  'x, y, z'
loop_
 _atom_site_type_symbol
 _atom_site_label
 _atom_site_symmetry_multiplicity
 _atom_site_fract_x
 _atom_site_fract_y
 _atom_site_fract_z
 _atom_site_occupancy
  Er  Er0  1  0.000000  0.666667  0.333333  1
  Er  Er1  1  0.500000  0.333333  0.666667  1
  Co  Co2  1  0.000000  0.876125  0.146938  1
  Co  Co3  1  0.000000  0.270813  0.123875  1
  Co  Co4  1  0.000000  0.853062  0.729187  1
  Si  Si5  1  0.000000  0.000000  0.000000  1
  Si  Si6  1  0.500000  0.715322  0.107157  1
  Si  Si7  1  0.500000  0.391835  0.284678  1
  Si  Si8  1  0.500000  0.892843  0.608165  1
  Si  Si9  1  0.000000  0.602376  0.708860  1
  Si  Si10  1  0.000000  0.106484  0.397624  1
  Si  Si11  1  0.000000  0.291140  0.893516  1
  Ru  Ru12  1  0.000000  0.571693  0.942212  1
  Ru  Ru13  1  0.000000  0.370518  0.428307  1
  Ru  Ru14  1  0.000000  0.057788  0.629482  1
  Ru  Ru15  1  0.500000  0.796450  0.902528  1
  Ru  Ru16  1  0.500000  0.106079  0.203550  1
  Ru  Ru17  1  0.500000  0.097472  0.893921  1
  Ru  Ru18  1  0.500000  0.943938  0.378507  1
  Ru  Ru19  1  0.500000  0.434566  0.056062  1
  Ru  Ru20  1  0.500000  0.621493  0.565434  1
