# generated using pymatgen
data_PuU(BIr)8
_symmetry_space_group_name_H-M   'P 1'
_cell_length_a   3.95216600
_cell_length_b   7.69192400
_cell_length_c   7.69192400
_cell_angle_alpha   90.00000000
_cell_angle_beta   90.00000000
_cell_angle_gamma   90.00000000
_symmetry_Int_Tables_number   1
_chemical_formula_structural   PuU(BIr)8
_chemical_formula_sum   'Pu1 U1 B8 Ir8'
_cell_volume   233.83264744
_cell_formula_units_Z   1
loop_
 _symmetry_equiv_pos_site_id
 _symmetry_equiv_pos_as_xyz
  1  'x, y, z'
loop_
 _atom_site_type_symbol
 _atom_site_label
 _atom_site_symmetry_multiplicity
 _atom_site_fract_x
 _atom_site_fract_y
 _atom_site_fract_z
 _atom_site_occupancy
  Pu  Pu0  1  0.750000  0.750000  0.750000  1
  U  U1  1  0.250000  0.250000  0.250000  1
  B  B2  1  0.362310  0.906604  0.025268  1
  B  B3  1  0.362310  0.593396  0.474732  1
  B  B4  1  0.860786  0.527182  0.092706  1
  B  B5  1  0.860786  0.972818  0.407294  1
  B  B6  1  0.639214  0.092706  0.972818  1
  B  B7  1  0.639214  0.407294  0.527182  1
  B  B8  1  0.137690  0.474732  0.906604  1
  B  B9  1  0.137690  0.025268  0.593396  1
  Ir  Ir10  1  0.140270  0.409271  0.641045  1
  Ir  Ir11  1  0.140270  0.090729  0.858955  1
  Ir  Ir12  1  0.636109  0.141071  0.587252  1
  Ir  Ir13  1  0.636109  0.358929  0.912748  1
  Ir  Ir14  1  0.863891  0.587252  0.358929  1
  Ir  Ir15  1  0.863891  0.912748  0.141071  1
  Ir  Ir16  1  0.359730  0.858955  0.409271  1
  Ir  Ir17  1  0.359730  0.641045  0.090729  1
