# generated using pymatgen
data_Pr3PaIn2IrRh2
_symmetry_space_group_name_H-M   'P 1'
_cell_length_a   7.57338174
_cell_length_b   7.57338156
_cell_length_c   4.40767900
_cell_angle_alpha   90.00000000
_cell_angle_beta   90.00000000
_cell_angle_gamma   121.04057346
_symmetry_Int_Tables_number   1
_chemical_formula_structural   Pr3PaIn2IrRh2
_chemical_formula_sum   'Pr3 Pa1 In2 Ir1 Rh2'
_cell_volume   216.60590998
_cell_formula_units_Z   1
loop_
 _symmetry_equiv_pos_site_id
 _symmetry_equiv_pos_as_xyz
  1  'x, y, z'
loop_
 _atom_site_type_symbol
 _atom_site_label
 _atom_site_symmetry_multiplicity
 _atom_site_fract_x
 _atom_site_fract_y
 _atom_site_fract_z
 _atom_site_occupancy
  Pr  Pr0  1  0.027821  0.594915  0.500000  1
  Pr  Pr1  1  0.375154  0.375154  0.500000  1
  Pr  Pr2  1  0.594915  0.027821  0.500000  1
  Pa  Pa3  1  0.729989  0.729989  0.000000  1
  In  In4  1  0.998125  0.249692  0.000000  1
  In  In5  1  0.249692  0.998125  0.000000  1
  Ir  Ir6  1  0.969081  0.969081  0.500000  1
  Rh  Rh7  1  0.374132  0.681093  0.000000  1
  Rh  Rh8  1  0.681093  0.374132  0.000000  1
