# generated using pymatgen
data_Ho3TmTh6(Ge5Rh2)4
_symmetry_space_group_name_H-M   'P 1'
_cell_length_a   13.11283101
_cell_length_b   13.11280001
_cell_length_c   4.37649200
_cell_angle_alpha   90.00000000
_cell_angle_beta   90.00000000
_cell_angle_gamma   89.99569172
_symmetry_Int_Tables_number   1
_chemical_formula_structural   Ho3TmTh6(Ge5Rh2)4
_chemical_formula_sum   'Ho3 Tm1 Th6 Ge20 Rh8'
_cell_volume   752.51998749
_cell_formula_units_Z   1
loop_
 _symmetry_equiv_pos_site_id
 _symmetry_equiv_pos_as_xyz
  1  'x, y, z'
loop_
 _atom_site_type_symbol
 _atom_site_label
 _atom_site_symmetry_multiplicity
 _atom_site_fract_x
 _atom_site_fract_y
 _atom_site_fract_z
 _atom_site_occupancy
  Ho  Ho0  1  0.325440  0.825450  0.500000  1
  Ho  Ho1  1  0.825420  0.674564  0.500000  1
  Ho  Ho2  1  0.174562  0.325416  0.500000  1
  Tm  Tm3  1  0.674429  0.174421  0.500000  1
  Th  Th4  1  0.112642  0.612648  0.500000  1
  Th  Th5  1  0.612703  0.887429  0.500000  1
  Th  Th6  1  0.387431  0.112705  0.500000  1
  Th  Th7  1  0.887267  0.387265  0.500000  1
  Th  Th8  1  0.500014  0.499993  0.000000  1
  Th  Th9  1  0.999988  0.000011  0.000000  1
  Ge  Ge10  1  0.337737  0.495819  0.500000  1
  Ge  Ge11  1  0.662252  0.504212  0.500000  1
  Ge  Ge12  1  0.504353  0.337625  0.500000  1
  Ge  Ge13  1  0.495829  0.662254  0.500000  1
  Ge  Ge14  1  0.995819  0.837738  0.500000  1
  Ge  Ge15  1  0.837623  0.004353  0.500000  1
  Ge  Ge16  1  0.162252  0.995826  0.500000  1
  Ge  Ge17  1  0.004212  0.162253  0.500000  1
  Ge  Ge18  1  0.337284  0.300748  0.000000  1
  Ge  Ge19  1  0.662747  0.699241  0.000000  1
  Ge  Ge20  1  0.699135  0.337001  0.000000  1
  Ge  Ge21  1  0.300772  0.662746  0.000000  1
  Ge  Ge22  1  0.800747  0.837284  0.000000  1
  Ge  Ge23  1  0.836999  0.199131  0.000000  1
  Ge  Ge24  1  0.162745  0.800770  0.000000  1
  Ge  Ge25  1  0.199241  0.162749  0.000000  1
  Ge  Ge26  1  0.433238  0.933237  0.000000  1
  Ge  Ge27  1  0.933193  0.566801  0.000000  1
  Ge  Ge28  1  0.567044  0.067040  0.000000  1
  Ge  Ge29  1  0.066802  0.433193  0.000000  1
  Rh  Rh30  1  0.244387  0.977683  0.000000  1
  Rh  Rh31  1  0.755458  0.022603  0.000000  1
  Rh  Rh32  1  0.022258  0.244363  0.000000  1
  Rh  Rh33  1  0.977703  0.755625  0.000000  1
  Rh  Rh34  1  0.477686  0.744384  0.000000  1
  Rh  Rh35  1  0.744360  0.522251  0.000000  1
  Rh  Rh36  1  0.255625  0.477702  0.000000  1
  Rh  Rh37  1  0.522600  0.255467  0.000000  1
