# generated using pymatgen
data_Ir2Os2Pb4O13
_symmetry_space_group_name_H-M   'P 1'
_cell_length_a   7.37482075
_cell_length_b   7.37482172
_cell_length_c   7.37482075
_cell_angle_alpha   120.16913143
_cell_angle_beta   90.08328179
_cell_angle_gamma   119.73520003
_symmetry_Int_Tables_number   1
_chemical_formula_structural   Ir2Os2Pb4O13
_chemical_formula_sum   'Ir2 Os2 Pb4 O13'
_cell_volume   283.82136606
_cell_formula_units_Z   1
loop_
 _symmetry_equiv_pos_site_id
 _symmetry_equiv_pos_as_xyz
  1  'x, y, z'
loop_
 _atom_site_type_symbol
 _atom_site_label
 _atom_site_symmetry_multiplicity
 _atom_site_fract_x
 _atom_site_fract_y
 _atom_site_fract_z
 _atom_site_occupancy
  Ir  Ir0  1  0.624613  0.750600  0.375215  1
  Ir  Ir1  1  0.624614  0.249399  0.874013  1
  Os  Os2  1  0.624598  0.249603  0.374995  1
  Os  Os3  1  0.125392  0.750396  0.374995  1
  Pb  Pb4  1  0.123011  0.245840  0.368851  1
  Pb  Pb5  1  0.123787  0.246667  0.877119  1
  Pb  Pb6  1  0.123011  0.754159  0.877170  1
  Pb  Pb7  1  0.630452  0.753332  0.877119  1
  O  O8  1  0.547411  0.101848  0.054459  1
  O  O9  1  0.544204  0.500001  0.044204  1
  O  O10  1  0.952611  0.507049  0.054460  1
  O  O11  1  0.310592  0.000000  0.310592  1
  O  O12  1  0.700003  0.008451  0.309225  1
  O  O13  1  0.300774  0.609220  0.309225  1
  O  O14  1  0.942748  0.500001  0.442747  1
  O  O15  1  0.952611  0.898151  0.445562  1
  O  O16  1  0.547411  0.492953  0.445563  1
  O  O17  1  0.300774  0.991549  0.691553  1
  O  O18  1  0.702979  0.000000  0.702979  1
  O  O19  1  0.700003  0.390779  0.691553  1
  O  O20  1  0.248405  0.500001  0.748406  1
