# generated using pymatgen
data_Nd19Pa(IrRh3)4
_symmetry_space_group_name_H-M   'P 1'
_cell_length_a   7.57192997
_cell_length_b   7.71383392
_cell_length_c   14.98359566
_cell_angle_alpha   90.20031145
_cell_angle_beta   90.19254337
_cell_angle_gamma   90.08359590
_symmetry_Int_Tables_number   1
_chemical_formula_structural   Nd19Pa(IrRh3)4
_chemical_formula_sum   'Nd19 Pa1 Ir4 Rh12'
_cell_volume   875.15976321
_cell_formula_units_Z   1
loop_
 _symmetry_equiv_pos_site_id
 _symmetry_equiv_pos_as_xyz
  1  'x, y, z'
loop_
 _atom_site_type_symbol
 _atom_site_label
 _atom_site_symmetry_multiplicity
 _atom_site_fract_x
 _atom_site_fract_y
 _atom_site_fract_z
 _atom_site_occupancy
  Nd  Nd0  1  0.164092  0.334566  0.877350  1
  Nd  Nd1  1  0.337949  0.833538  0.122726  1
  Nd  Nd2  1  0.838147  0.668146  0.379896  1
  Nd  Nd3  1  0.337862  0.835956  0.379560  1
  Nd  Nd4  1  0.836714  0.667900  0.122819  1
  Nd  Nd5  1  0.662853  0.164337  0.877824  1
  Nd  Nd6  1  0.158786  0.335104  0.619608  1
  Nd  Nd7  1  0.511594  0.681074  0.592931  1
  Nd  Nd8  1  0.018019  0.813664  0.910800  1
  Nd  Nd9  1  0.484857  0.317679  0.091582  1
  Nd  Nd10  1  0.987289  0.184599  0.406320  1
  Nd  Nd11  1  0.490053  0.321743  0.408669  1
  Nd  Nd12  1  0.988874  0.181984  0.092048  1
  Nd  Nd13  1  0.510952  0.684160  0.908555  1
  Nd  Nd14  1  0.009517  0.819483  0.592183  1
  Nd  Nd15  1  0.825718  0.513391  0.750351  1
  Nd  Nd16  1  0.316225  0.988232  0.751814  1
  Nd  Nd17  1  0.176145  0.490770  0.249477  1
  Nd  Nd18  1  0.676583  0.012200  0.250986  1
  Pa  Pa19  1  0.661300  0.161505  0.622706  1
  Ir  Ir20  1  0.690160  0.975144  0.471627  1
  Ir  Ir21  1  0.175834  0.531676  0.041497  1
  Ir  Ir22  1  0.322559  0.031297  0.957572  1
  Ir  Ir23  1  0.804523  0.446147  0.542294  1
  Rh  Rh24  1  0.346723  0.039890  0.548334  1
  Rh  Rh25  1  0.822649  0.471161  0.956911  1
  Rh  Rh26  1  0.677384  0.968765  0.041715  1
  Rh  Rh27  1  0.169498  0.533131  0.458050  1
  Rh  Rh28  1  0.470557  0.374385  0.738662  1
  Rh  Rh29  1  0.940927  0.114057  0.737815  1
  Rh  Rh30  1  0.542351  0.604056  0.253206  1
  Rh  Rh31  1  0.041513  0.901095  0.251614  1
  Rh  Rh32  1  0.688540  0.864610  0.742569  1
  Rh  Rh33  1  0.213166  0.633088  0.748670  1
  Rh  Rh34  1  0.302039  0.144542  0.250980  1
  Rh  Rh35  1  0.798048  0.356923  0.250278  1
