# generated using pymatgen
data_Rb5VO5
_symmetry_space_group_name_H-M   'P 1'
_cell_length_a   8.28672353
_cell_length_b   8.28672340
_cell_length_c   9.59669600
_cell_angle_alpha   76.86548760
_cell_angle_beta   76.86549492
_cell_angle_gamma   95.83097314
_symmetry_Int_Tables_number   1
_chemical_formula_structural   Rb5VO5
_chemical_formula_sum   'Rb10 V2 O10'
_cell_volume   616.76225708
_cell_formula_units_Z   2
loop_
 _symmetry_equiv_pos_site_id
 _symmetry_equiv_pos_as_xyz
  1  'x, y, z'
loop_
 _atom_site_type_symbol
 _atom_site_label
 _atom_site_symmetry_multiplicity
 _atom_site_fract_x
 _atom_site_fract_y
 _atom_site_fract_z
 _atom_site_occupancy
  Rb  Rb0  1  0.406294  0.406294  0.376799  1
  Rb  Rb1  1  0.593706  0.593706  0.623201  1
  Rb  Rb2  1  0.668554  0.668554  0.012993  1
  Rb  Rb3  1  0.331446  0.331446  0.987007  1
  Rb  Rb4  1  0.919350  0.919350  0.198637  1
  Rb  Rb5  1  0.080650  0.080650  0.801363  1
  Rb  Rb6  1  0.545540  0.102556  0.752603  1
  Rb  Rb7  1  0.897444  0.454460  0.247397  1
  Rb  Rb8  1  0.454460  0.897444  0.247397  1
  Rb  Rb9  1  0.102556  0.545540  0.752603  1
  V  V10  1  0.756734  0.243266  0.000000  1
  V  V11  1  0.243266  0.756734  0.000000  1
  O  O12  1  0.664769  0.664769  0.315629  1
  O  O13  1  0.335231  0.335231  0.684371  1
  O  O14  1  0.720727  0.038107  0.981416  1
  O  O15  1  0.961893  0.279273  0.018584  1
  O  O16  1  0.279273  0.961893  0.018584  1
  O  O17  1  0.038107  0.720727  0.981416  1
  O  O18  1  0.385839  0.736964  0.841596  1
  O  O19  1  0.263036  0.614161  0.158403  1
  O  O20  1  0.614161  0.263036  0.158403  1
  O  O21  1  0.736964  0.385839  0.841596  1
