# generated using pymatgen
data_Tm12ZnCo4Hg
_symmetry_space_group_name_H-M   'P 1'
_cell_length_a   8.16553754
_cell_length_b   8.16553621
_cell_length_c   8.16553756
_cell_angle_alpha   111.87133427
_cell_angle_beta   110.23499117
_cell_angle_gamma   106.35602786
_symmetry_Int_Tables_number   1
_chemical_formula_structural   Tm12ZnCo4Hg
_chemical_formula_sum   'Tm12 Zn1 Co4 Hg1'
_cell_volume   418.10100005
_cell_formula_units_Z   1
loop_
 _symmetry_equiv_pos_site_id
 _symmetry_equiv_pos_as_xyz
  1  'x, y, z'
loop_
 _atom_site_type_symbol
 _atom_site_label
 _atom_site_symmetry_multiplicity
 _atom_site_fract_x
 _atom_site_fract_y
 _atom_site_fract_z
 _atom_site_occupancy
  Tm  Tm0  1  0.431671  0.234502  0.197169  1
  Tm  Tm1  1  0.568329  0.765498  0.802831  1
  Tm  Tm2  1  0.037333  0.234502  0.802831  1
  Tm  Tm3  1  0.962667  0.765498  0.197169  1
  Tm  Tm4  1  0.181314  0.280660  0.461974  1
  Tm  Tm5  1  0.818686  0.719340  0.538026  1
  Tm  Tm6  1  0.181314  0.719340  0.900652  1
  Tm  Tm7  1  0.818686  0.280660  0.099348  1
  Tm  Tm8  1  0.324453  0.635709  0.311255  1
  Tm  Tm9  1  0.675547  0.364291  0.688745  1
  Tm  Tm10  1  0.324453  0.013198  0.688745  1
  Tm  Tm11  1  0.675547  0.986802  0.311255  1
  Zn  Zn12  1  0.000000  0.000000  0.000000  1
  Co  Co13  1  0.343284  0.000000  0.343284  1
  Co  Co14  1  0.656716  0.000000  0.656716  1
  Co  Co15  1  0.115308  0.615308  0.500000  1
  Co  Co16  1  0.884692  0.384692  0.500000  1
  Hg  Hg17  1  0.500000  0.500000  0.000000  1
