# generated using pymatgen
data_Pr3Dy2Si9P3Ir19
_symmetry_space_group_name_H-M   'P 1'
_cell_length_a   12.89024000
_cell_length_b   12.89024061
_cell_length_c   3.97912400
_cell_angle_alpha   90.00000000
_cell_angle_beta   90.00000000
_cell_angle_gamma   119.99999845
_symmetry_Int_Tables_number   1
_chemical_formula_structural   Pr3Dy2Si9P3Ir19
_chemical_formula_sum   'Pr3 Dy2 Si9 P3 Ir19'
_cell_volume   572.58522713
_cell_formula_units_Z   1
loop_
 _symmetry_equiv_pos_site_id
 _symmetry_equiv_pos_as_xyz
  1  'x, y, z'
loop_
 _atom_site_type_symbol
 _atom_site_label
 _atom_site_symmetry_multiplicity
 _atom_site_fract_x
 _atom_site_fract_y
 _atom_site_fract_z
 _atom_site_occupancy
  Pr  Pr0  1  0.000000  0.813760  0.000000  1
  Pr  Pr1  1  0.186240  0.186240  0.000000  1
  Pr  Pr2  1  0.813760  0.000000  0.000000  1
  Dy  Dy3  1  0.333333  0.666667  0.500000  1
  Dy  Dy4  1  0.666667  0.333333  0.500000  1
  Si  Si5  1  0.000000  0.630751  0.500000  1
  Si  Si6  1  0.369249  0.369249  0.500000  1
  Si  Si7  1  0.630751  0.000000  0.500000  1
  Si  Si8  1  0.517515  0.686686  0.000000  1
  Si  Si9  1  0.313314  0.830829  0.000000  1
  Si  Si10  1  0.169171  0.482485  0.000000  1
  Si  Si11  1  0.482485  0.169171  0.000000  1
  Si  Si12  1  0.686686  0.517515  0.000000  1
  Si  Si13  1  0.830829  0.313314  0.000000  1
  P  P14  1  0.000000  0.181929  0.500000  1
  P  P15  1  0.818071  0.818071  0.500000  1
  P  P16  1  0.181929  0.000000  0.500000  1
  Ir  Ir17  1  0.511893  0.872602  0.000000  1
  Ir  Ir18  1  0.127398  0.639291  0.000000  1
  Ir  Ir19  1  0.360709  0.488107  0.000000  1
  Ir  Ir20  1  0.488107  0.360709  0.000000  1
  Ir  Ir21  1  0.872602  0.511893  0.000000  1
  Ir  Ir22  1  0.639291  0.127398  0.000000  1
  Ir  Ir23  1  0.000000  0.446962  0.500000  1
  Ir  Ir24  1  0.553038  0.553038  0.500000  1
  Ir  Ir25  1  0.446962  0.000000  0.500000  1
  Ir  Ir26  1  0.000000  0.282392  0.000000  1
  Ir  Ir27  1  0.717608  0.717608  0.000000  1
  Ir  Ir28  1  0.282392  0.000000  0.000000  1
  Ir  Ir29  1  0.623125  0.803367  0.500000  1
  Ir  Ir30  1  0.196633  0.819759  0.500000  1
  Ir  Ir31  1  0.180241  0.376875  0.500000  1
  Ir  Ir32  1  0.376875  0.180241  0.500000  1
  Ir  Ir33  1  0.803367  0.623125  0.500000  1
  Ir  Ir34  1  0.819759  0.196633  0.500000  1
  Ir  Ir35  1  0.000000  0.000000  0.500000  1
