# generated using pymatgen
data_Tm11In9CoNi3
_symmetry_space_group_name_H-M   'P 1'
_cell_length_a   3.58522600
_cell_length_b   12.90337862
_cell_length_c   12.89411772
_cell_angle_alpha   112.37414011
_cell_angle_beta   90.00000000
_cell_angle_gamma   90.00000000
_symmetry_Int_Tables_number   1
_chemical_formula_structural   Tm11In9CoNi3
_chemical_formula_sum   'Tm11 In9 Co1 Ni3'
_cell_volume   551.59572103
_cell_formula_units_Z   1
loop_
 _symmetry_equiv_pos_site_id
 _symmetry_equiv_pos_as_xyz
  1  'x, y, z'
loop_
 _atom_site_type_symbol
 _atom_site_label
 _atom_site_symmetry_multiplicity
 _atom_site_fract_x
 _atom_site_fract_y
 _atom_site_fract_z
 _atom_site_occupancy
  Tm  Tm0  1  0.000000  0.917119  0.581865  1
  Tm  Tm1  1  0.000000  0.081449  0.417878  1
  Tm  Tm2  1  0.000000  0.582204  0.918349  1
  Tm  Tm3  1  0.000000  0.417780  0.081266  1
  Tm  Tm4  1  0.000000  0.159483  0.840631  1
  Tm  Tm5  1  0.000000  0.840810  0.160306  1
  Tm  Tm6  1  0.000000  0.374860  0.625988  1
  Tm  Tm7  1  0.000000  0.628642  0.378524  1
  Tm  Tm8  1  0.000000  0.688432  0.683690  1
  Tm  Tm9  1  0.000000  0.313163  0.312707  1
  Tm  Tm10  1  0.000000  0.999616  0.999356  1
  In  In11  1  0.500000  0.156383  0.632774  1
  In  In12  1  0.500000  0.842010  0.368186  1
  In  In13  1  0.500000  0.632257  0.156831  1
  In  In14  1  0.500000  0.367396  0.843285  1
  In  In15  1  0.500000  0.921607  0.778865  1
  In  In16  1  0.500000  0.075864  0.219012  1
  In  In17  1  0.500000  0.780213  0.923587  1
  In  In18  1  0.500000  0.219199  0.076194  1
  In  In19  1  0.500000  0.500679  0.499946  1
  Co  Co20  1  0.500000  0.753913  0.550482  1
  Ni  Ni21  1  0.500000  0.248188  0.450513  1
  Ni  Ni22  1  0.500000  0.549111  0.751964  1
  Ni  Ni23  1  0.500000  0.449624  0.247802  1
