# generated using pymatgen
data_DyY3Pa2(Co3P2)6
_symmetry_space_group_name_H-M   'P 1'
_cell_length_a   3.71760300
_cell_length_b   10.52706201
_cell_length_c   12.15069201
_cell_angle_alpha   89.99452736
_cell_angle_beta   90.00000000
_cell_angle_gamma   90.00000000
_symmetry_Int_Tables_number   1
_chemical_formula_structural   DyY3Pa2(Co3P2)6
_chemical_formula_sum   'Dy1 Y3 Pa2 Co18 P12'
_cell_volume   475.52264350
_cell_formula_units_Z   1
loop_
 _symmetry_equiv_pos_site_id
 _symmetry_equiv_pos_as_xyz
  1  'x, y, z'
loop_
 _atom_site_type_symbol
 _atom_site_label
 _atom_site_symmetry_multiplicity
 _atom_site_fract_x
 _atom_site_fract_y
 _atom_site_fract_z
 _atom_site_occupancy
  Dy  Dy0  1  0.000000  0.315167  0.794875  1
  Y  Y1  1  0.500000  0.815128  0.205142  1
  Y  Y2  1  0.500000  0.184884  0.205105  1
  Y  Y3  1  0.000000  0.684813  0.794800  1
  Pa  Pa4  1  0.000000  0.499951  0.528895  1
  Pa  Pa5  1  0.500000  0.000001  0.471196  1
  Co  Co6  1  0.500000  0.499976  0.158264  1
  Co  Co7  1  0.000000  0.000040  0.841736  1
  Co  Co8  1  0.500000  0.499799  0.696138  1
  Co  Co9  1  0.000000  0.000004  0.303952  1
  Co  Co10  1  0.000000  0.499918  0.984956  1
  Co  Co11  1  0.500000  0.000055  0.014882  1
  Co  Co12  1  0.500000  0.333996  0.993911  1
  Co  Co13  1  0.500000  0.665961  0.993982  1
  Co  Co14  1  0.000000  0.166020  0.005870  1
  Co  Co15  1  0.000000  0.834052  0.005973  1
  Co  Co16  1  0.500000  0.301527  0.431825  1
  Co  Co17  1  0.500000  0.698463  0.431815  1
  Co  Co18  1  0.000000  0.198603  0.568289  1
  Co  Co19  1  0.000000  0.801456  0.568225  1
  Co  Co20  1  0.500000  0.880509  0.710532  1
  Co  Co21  1  0.500000  0.119677  0.710594  1
  Co  Co22  1  0.000000  0.619503  0.289516  1
  Co  Co23  1  0.000000  0.380490  0.289516  1
  P  P24  1  0.500000  0.499781  0.879325  1
  P  P25  1  0.000000  0.000016  0.120579  1
  P  P26  1  0.500000  0.500005  0.343520  1
  P  P27  1  0.000000  0.000016  0.656516  1
  P  P28  1  0.500000  0.306617  0.616860  1
  P  P29  1  0.500000  0.693358  0.616716  1
  P  P30  1  0.000000  0.193406  0.383295  1
  P  P31  1  0.000000  0.806592  0.383284  1
  P  P32  1  0.500000  0.847771  0.894702  1
  P  P33  1  0.500000  0.152454  0.894622  1
  P  P34  1  0.000000  0.652221  0.105305  1
  P  P35  1  0.000000  0.347769  0.105287  1
