# generated using pymatgen
data_DyYNp8O20
_symmetry_space_group_name_H-M   'P 1'
_cell_length_a   6.58627954
_cell_length_b   7.61218997
_cell_length_c   8.50891027
_cell_angle_alpha   102.89612901
_cell_angle_beta   97.34254100
_cell_angle_gamma   106.83720719
_symmetry_Int_Tables_number   1
_chemical_formula_structural   DyYNp8O20
_chemical_formula_sum   'Dy1 Y1 Np8 O20'
_cell_volume   389.45657899
_cell_formula_units_Z   1
loop_
 _symmetry_equiv_pos_site_id
 _symmetry_equiv_pos_as_xyz
  1  'x, y, z'
loop_
 _atom_site_type_symbol
 _atom_site_label
 _atom_site_symmetry_multiplicity
 _atom_site_fract_x
 _atom_site_fract_y
 _atom_site_fract_z
 _atom_site_occupancy
  Dy  Dy0  1  0.800683  0.601450  0.601750  1
  Y  Y1  1  0.999087  0.998295  0.997982  1
  Np  Np2  1  0.600482  0.200402  0.200503  1
  Np  Np3  1  0.000605  0.500476  0.999135  1
  Np  Np4  1  0.799191  0.099557  0.600856  1
  Np  Np5  1  0.199784  0.399808  0.399636  1
  Np  Np6  1  0.601905  0.700227  0.200622  1
  Np  Np7  1  0.399638  0.299947  0.799930  1
  Np  Np8  1  0.198683  0.899773  0.399422  1
  Np  Np9  1  0.399797  0.799931  0.799968  1
  O  O10  1  0.850866  0.318699  0.449395  1
  O  O11  1  0.644018  0.923278  0.054299  1
  O  O12  1  0.441795  0.520988  0.651142  1
  O  O13  1  0.949178  0.769178  0.152524  1
  O  O14  1  0.852061  0.830757  0.447969  1
  O  O15  1  0.745562  0.369294  0.753048  1
  O  O16  1  0.254147  0.126233  0.255134  1
  O  O17  1  0.649699  0.426371  0.049706  1
  O  O18  1  0.949010  0.281934  0.151619  1
  O  O19  1  0.445669  0.025807  0.647304  1
  O  O20  1  0.549060  0.973719  0.352166  1
  O  O21  1  0.057701  0.720918  0.851048  1
  O  O22  1  0.741437  0.878218  0.748082  1
  O  O23  1  0.252401  0.626565  0.248213  1
  O  O24  1  0.353805  0.573937  0.952185  1
  O  O25  1  0.052827  0.230851  0.846682  1
  O  O26  1  0.547517  0.474451  0.345447  1
  O  O27  1  0.149728  0.173540  0.550259  1
  O  O28  1  0.357897  0.078835  0.948274  1
  O  O29  1  0.155768  0.676560  0.545699  1
