# generated using pymatgen
data_TbY3Ho4(CdPd)2
_symmetry_space_group_name_H-M   'P 1'
_cell_length_a   9.68133479
_cell_length_b   9.68133520
_cell_length_c   9.68749400
_cell_angle_alpha   59.97895403
_cell_angle_beta   59.97895263
_cell_angle_gamma   59.97113376
_symmetry_Int_Tables_number   1
_chemical_formula_structural   TbY3Ho4(CdPd)2
_chemical_formula_sum   'Tb2 Y6 Ho8 Cd4 Pd4'
_cell_volume   641.70280811
_cell_formula_units_Z   2
loop_
 _symmetry_equiv_pos_site_id
 _symmetry_equiv_pos_as_xyz
  1  'x, y, z'
loop_
 _atom_site_type_symbol
 _atom_site_label
 _atom_site_symmetry_multiplicity
 _atom_site_fract_x
 _atom_site_fract_y
 _atom_site_fract_z
 _atom_site_occupancy
  Tb  Tb0  1  0.353970  0.353970  0.352748  1
  Tb  Tb1  1  0.353970  0.353970  0.939310  1
  Y  Y2  1  0.934832  0.564930  0.565407  1
  Y  Y3  1  0.564930  0.934832  0.934831  1
  Y  Y4  1  0.564930  0.934832  0.565407  1
  Y  Y5  1  0.934832  0.564930  0.934831  1
  Y  Y6  1  0.565620  0.565620  0.934380  1
  Y  Y7  1  0.935280  0.935280  0.564720  1
  Ho  Ho8  1  0.355089  0.937372  0.353769  1
  Ho  Ho9  1  0.937372  0.355089  0.353769  1
  Ho  Ho10  1  0.811483  0.188730  0.189038  1
  Ho  Ho11  1  0.188730  0.811483  0.810749  1
  Ho  Ho12  1  0.188730  0.811483  0.189038  1
  Ho  Ho13  1  0.811483  0.188730  0.810749  1
  Ho  Ho14  1  0.189113  0.189113  0.810887  1
  Ho  Ho15  1  0.811311  0.811311  0.188689  1
  Cd  Cd16  1  0.582079  0.582079  0.581914  1
  Cd  Cd17  1  0.582079  0.582079  0.253930  1
  Cd  Cd18  1  0.582188  0.253592  0.582111  1
  Cd  Cd19  1  0.253592  0.582188  0.582111  1
  Pd  Pd20  1  0.143957  0.143957  0.145908  1
  Pd  Pd21  1  0.143957  0.143957  0.566176  1
  Pd  Pd22  1  0.142929  0.567545  0.144762  1
  Pd  Pd23  1  0.567545  0.142929  0.144762  1
