# generated using pymatgen
data_Th4PdPt10Rh
_symmetry_space_group_name_H-M   'P 1'
_cell_length_a   5.99602835
_cell_length_b   5.96310372
_cell_length_c   9.79159169
_cell_angle_alpha   89.92986161
_cell_angle_beta   89.29401964
_cell_angle_gamma   120.05917280
_symmetry_Int_Tables_number   1
_chemical_formula_structural   Th4PdPt10Rh
_chemical_formula_sum   'Th4 Pd1 Pt10 Rh1'
_cell_volume   302.97854551
_cell_formula_units_Z   1
loop_
 _symmetry_equiv_pos_site_id
 _symmetry_equiv_pos_as_xyz
  1  'x, y, z'
loop_
 _atom_site_type_symbol
 _atom_site_label
 _atom_site_symmetry_multiplicity
 _atom_site_fract_x
 _atom_site_fract_y
 _atom_site_fract_z
 _atom_site_occupancy
  Th  Th0  1  0.000000  0.000000  0.500000  1
  Th  Th1  1  0.000000  0.000000  0.000000  1
  Th  Th2  1  0.326191  0.662947  0.254557  1
  Th  Th3  1  0.673809  0.337053  0.745443  1
  Pd  Pd4  1  0.500000  0.000000  0.000000  1
  Pt  Pt5  1  0.500000  0.500000  0.500000  1
  Pt  Pt6  1  0.500000  0.000000  0.500000  1
  Pt  Pt7  1  0.500000  0.500000  0.000000  1
  Pt  Pt8  1  0.000000  0.500000  0.000000  1
  Pt  Pt9  1  0.821465  0.647685  0.249154  1
  Pt  Pt10  1  0.350727  0.175216  0.248248  1
  Pt  Pt11  1  0.821985  0.172906  0.249451  1
  Pt  Pt12  1  0.178535  0.352315  0.750846  1
  Pt  Pt13  1  0.649273  0.824784  0.751752  1
  Pt  Pt14  1  0.178015  0.827094  0.750549  1
  Rh  Rh15  1  0.000000  0.500000  0.500000  1
