# generated using pymatgen
data_TbNd4(BiPb)2
_symmetry_space_group_name_H-M   'P 1'
_cell_length_a   8.38338100
_cell_length_b   8.42635100
_cell_length_c   16.11100800
_cell_angle_alpha   90.00000000
_cell_angle_beta   90.00000000
_cell_angle_gamma   90.00000000
_symmetry_Int_Tables_number   1
_chemical_formula_structural   TbNd4(BiPb)2
_chemical_formula_sum   'Tb4 Nd16 Bi8 Pb8'
_cell_volume   1138.10272460
_cell_formula_units_Z   4
loop_
 _symmetry_equiv_pos_site_id
 _symmetry_equiv_pos_as_xyz
  1  'x, y, z'
loop_
 _atom_site_type_symbol
 _atom_site_label
 _atom_site_symmetry_multiplicity
 _atom_site_fract_x
 _atom_site_fract_y
 _atom_site_fract_z
 _atom_site_occupancy
  Tb  Tb0  1  0.217479  0.496881  0.750000  1
  Tb  Tb1  1  0.717479  0.003119  0.750000  1
  Tb  Tb2  1  0.782521  0.503119  0.250000  1
  Tb  Tb3  1  0.282521  0.996881  0.250000  1
  Nd  Nd4  1  0.387626  0.839103  0.880917  1
  Nd  Nd5  1  0.887626  0.660897  0.619083  1
  Nd  Nd6  1  0.612374  0.160897  0.380917  1
  Nd  Nd7  1  0.112374  0.339103  0.119083  1
  Nd  Nd8  1  0.612374  0.160897  0.119083  1
  Nd  Nd9  1  0.112374  0.339103  0.380917  1
  Nd  Nd10  1  0.387626  0.839103  0.619083  1
  Nd  Nd11  1  0.887626  0.660897  0.880917  1
  Nd  Nd12  1  0.551409  0.327533  0.893773  1
  Nd  Nd13  1  0.051409  0.172467  0.606227  1
  Nd  Nd14  1  0.448591  0.672467  0.393773  1
  Nd  Nd15  1  0.948591  0.827533  0.106227  1
  Nd  Nd16  1  0.448591  0.672467  0.106227  1
  Nd  Nd17  1  0.948591  0.827533  0.393773  1
  Nd  Nd18  1  0.551409  0.327533  0.606227  1
  Nd  Nd19  1  0.051409  0.172467  0.893773  1
  Bi  Bi20  1  0.269709  0.019720  0.047687  1
  Bi  Bi21  1  0.769709  0.480280  0.452313  1
  Bi  Bi22  1  0.730291  0.980280  0.547687  1
  Bi  Bi23  1  0.230291  0.519720  0.952313  1
  Bi  Bi24  1  0.730291  0.980280  0.952313  1
  Bi  Bi25  1  0.230291  0.519720  0.547687  1
  Bi  Bi26  1  0.269709  0.019720  0.452313  1
  Bi  Bi27  1  0.769709  0.480280  0.047687  1
  Pb  Pb28  1  0.583185  0.628338  0.750000  1
  Pb  Pb29  1  0.083185  0.871662  0.750000  1
  Pb  Pb30  1  0.416815  0.371662  0.250000  1
  Pb  Pb31  1  0.916815  0.128338  0.250000  1
  Pb  Pb32  1  0.357943  0.145513  0.750000  1
  Pb  Pb33  1  0.857943  0.354487  0.750000  1
  Pb  Pb34  1  0.642057  0.854487  0.250000  1
  Pb  Pb35  1  0.142057  0.645513  0.250000  1
