# generated using pymatgen
data_Zr3Ga3FeNi2
_symmetry_space_group_name_H-M   'P 1'
_cell_length_a   6.96687800
_cell_length_b   6.96687821
_cell_length_c   3.38768400
_cell_angle_alpha   90.00000000
_cell_angle_beta   90.00000000
_cell_angle_gamma   120.00000849
_symmetry_Int_Tables_number   1
_chemical_formula_structural   Zr3Ga3FeNi2
_chemical_formula_sum   'Zr3 Ga3 Fe1 Ni2'
_cell_volume   142.39997454
_cell_formula_units_Z   1
loop_
 _symmetry_equiv_pos_site_id
 _symmetry_equiv_pos_as_xyz
  1  'x, y, z'
loop_
 _atom_site_type_symbol
 _atom_site_label
 _atom_site_symmetry_multiplicity
 _atom_site_fract_x
 _atom_site_fract_y
 _atom_site_fract_z
 _atom_site_occupancy
  Zr  Zr0  1  0.401408  0.990748  0.500000  1
  Zr  Zr1  1  0.009252  0.410660  0.500000  1
  Zr  Zr2  1  0.589340  0.598592  0.500000  1
  Ga  Ga3  1  0.740519  0.001854  0.000000  1
  Ga  Ga4  1  0.998146  0.738665  0.000000  1
  Ga  Ga5  1  0.261335  0.259481  0.000000  1
  Fe  Fe6  1  0.333333  0.666667  0.000000  1
  Ni  Ni7  1  0.666667  0.333333  0.000000  1
  Ni  Ni8  1  0.000000  0.000000  0.500000  1
