# generated using pymatgen
data_DyYFe3Ni7P6
_symmetry_space_group_name_H-M   'P 1'
_cell_length_a   3.69934700
_cell_length_b   10.30212400
_cell_length_c   11.88719500
_cell_angle_alpha   90.00000000
_cell_angle_beta   90.00000000
_cell_angle_gamma   90.00000000
_symmetry_Int_Tables_number   1
_chemical_formula_structural   DyYFe3Ni7P6
_chemical_formula_sum   'Dy2 Y2 Fe6 Ni14 P12'
_cell_volume   453.03445197
_cell_formula_units_Z   2
loop_
 _symmetry_equiv_pos_site_id
 _symmetry_equiv_pos_as_xyz
  1  'x, y, z'
loop_
 _atom_site_type_symbol
 _atom_site_label
 _atom_site_symmetry_multiplicity
 _atom_site_fract_x
 _atom_site_fract_y
 _atom_site_fract_z
 _atom_site_occupancy
  Dy  Dy0  1  0.250000  0.575983  0.704498  1
  Dy  Dy1  1  0.250000  0.924017  0.204498  1
  Y  Y2  1  0.750000  0.419210  0.295347  1
  Y  Y3  1  0.750000  0.080790  0.795347  1
  Fe  Fe4  1  0.750000  0.125331  0.298824  1
  Fe  Fe5  1  0.750000  0.374669  0.798824  1
  Fe  Fe6  1  0.250000  0.465140  0.932414  1
  Fe  Fe7  1  0.250000  0.034860  0.432414  1
  Fe  Fe8  1  0.750000  0.539301  0.068794  1
  Fe  Fe9  1  0.750000  0.960699  0.568794  1
  Ni  Ni10  1  0.250000  0.716759  0.998073  1
  Ni  Ni11  1  0.250000  0.783241  0.498073  1
  Ni  Ni12  1  0.750000  0.288856  0.007989  1
  Ni  Ni13  1  0.750000  0.211144  0.507989  1
  Ni  Ni14  1  0.250000  0.406260  0.485367  1
  Ni  Ni15  1  0.250000  0.093740  0.985367  1
  Ni  Ni16  1  0.750000  0.590024  0.511838  1
  Ni  Ni17  1  0.750000  0.909976  0.011838  1
  Ni  Ni18  1  0.250000  0.226612  0.171868  1
  Ni  Ni19  1  0.250000  0.273388  0.671868  1
  Ni  Ni20  1  0.750000  0.773126  0.824355  1
  Ni  Ni21  1  0.750000  0.726874  0.324355  1
  Ni  Ni22  1  0.250000  0.874711  0.702973  1
  Ni  Ni23  1  0.250000  0.625289  0.202973  1
  P  P24  1  0.250000  0.429594  0.111183  1
  P  P25  1  0.250000  0.070406  0.611183  1
  P  P26  1  0.750000  0.568908  0.886975  1
  P  P27  1  0.750000  0.931092  0.386975  1
  P  P28  1  0.250000  0.272862  0.864013  1
  P  P29  1  0.250000  0.227138  0.364013  1
  P  P30  1  0.750000  0.733970  0.131752  1
  P  P31  1  0.750000  0.766030  0.631752  1
  P  P32  1  0.250000  0.604146  0.393274  1
  P  P33  1  0.250000  0.895854  0.893274  1
  P  P34  1  0.750000  0.393026  0.610463  1
  P  P35  1  0.750000  0.106974  0.110463  1
