# generated using pymatgen
data_Li3Dy4Co10Ni7P12
_symmetry_space_group_name_H-M   'P 1'
_cell_length_a   3.70460600
_cell_length_b   10.30796727
_cell_length_c   11.90738491
_cell_angle_alpha   90.37666175
_cell_angle_beta   90.00000000
_cell_angle_gamma   90.00000000
_symmetry_Int_Tables_number   1
_chemical_formula_structural   Li3Dy4Co10Ni7P12
_chemical_formula_sum   'Li3 Dy4 Co10 Ni7 P12'
_cell_volume   454.69697437
_cell_formula_units_Z   1
loop_
 _symmetry_equiv_pos_site_id
 _symmetry_equiv_pos_as_xyz
  1  'x, y, z'
loop_
 _atom_site_type_symbol
 _atom_site_label
 _atom_site_symmetry_multiplicity
 _atom_site_fract_x
 _atom_site_fract_y
 _atom_site_fract_z
 _atom_site_occupancy
  Li  Li0  1  0.250000  0.702061  0.991652  1
  Li  Li1  1  0.250000  0.798403  0.491632  1
  Li  Li2  1  0.750000  0.297406  0.007195  1
  Dy  Dy3  1  0.250000  0.579991  0.704149  1
  Dy  Dy4  1  0.250000  0.918770  0.204328  1
  Dy  Dy5  1  0.750000  0.419282  0.294760  1
  Dy  Dy6  1  0.750000  0.080357  0.795616  1
  Co  Co7  1  0.250000  0.275352  0.671927  1
  Co  Co8  1  0.750000  0.720251  0.326798  1
  Co  Co9  1  0.250000  0.880668  0.698943  1
  Co  Co10  1  0.250000  0.620506  0.198504  1
  Co  Co11  1  0.750000  0.119295  0.303548  1
  Co  Co12  1  0.750000  0.377721  0.797771  1
  Co  Co13  1  0.250000  0.465720  0.931099  1
  Co  Co14  1  0.250000  0.033589  0.433138  1
  Co  Co15  1  0.750000  0.532702  0.066861  1
  Co  Co16  1  0.750000  0.967626  0.566383  1
  Ni  Ni17  1  0.750000  0.210043  0.510840  1
  Ni  Ni18  1  0.250000  0.407453  0.484327  1
  Ni  Ni19  1  0.250000  0.095013  0.988721  1
  Ni  Ni20  1  0.750000  0.592312  0.514201  1
  Ni  Ni21  1  0.750000  0.906694  0.013384  1
  Ni  Ni22  1  0.250000  0.221204  0.176080  1
  Ni  Ni23  1  0.750000  0.779014  0.827248  1
  P  P24  1  0.250000  0.425715  0.113604  1
  P  P25  1  0.250000  0.075861  0.612945  1
  P  P26  1  0.750000  0.572812  0.884942  1
  P  P27  1  0.750000  0.922289  0.385280  1
  P  P28  1  0.250000  0.271803  0.858613  1
  P  P29  1  0.250000  0.227981  0.365560  1
  P  P30  1  0.750000  0.726815  0.140510  1
  P  P31  1  0.750000  0.774635  0.640092  1
  P  P32  1  0.250000  0.604423  0.387359  1
  P  P33  1  0.250000  0.901065  0.891146  1
  P  P34  1  0.750000  0.394088  0.608970  1
  P  P35  1  0.750000  0.101080  0.111876  1
