# generated using pymatgen
data_Sc6Ta3NbAl12Os7
_symmetry_space_group_name_H-M   'P 1'
_cell_length_a   8.88832094
_cell_length_b   8.88832091
_cell_length_c   8.88947004
_cell_angle_alpha   60.00427786
_cell_angle_beta   60.00427681
_cell_angle_gamma   60.00000439
_symmetry_Int_Tables_number   1
_chemical_formula_structural   Sc6Ta3NbAl12Os7
_chemical_formula_sum   'Sc6 Ta3 Nb1 Al12 Os7'
_cell_volume   496.62481475
_cell_formula_units_Z   1
loop_
 _symmetry_equiv_pos_site_id
 _symmetry_equiv_pos_as_xyz
  1  'x, y, z'
loop_
 _atom_site_type_symbol
 _atom_site_label
 _atom_site_symmetry_multiplicity
 _atom_site_fract_x
 _atom_site_fract_y
 _atom_site_fract_z
 _atom_site_occupancy
  Sc  Sc0  1  0.710886  0.710886  0.289225  1
  Sc  Sc1  1  0.289004  0.710886  0.289225  1
  Sc  Sc2  1  0.710886  0.289004  0.289225  1
  Sc  Sc3  1  0.289226  0.289226  0.710736  1
  Sc  Sc4  1  0.710813  0.289226  0.710736  1
  Sc  Sc5  1  0.289226  0.710813  0.710736  1
  Ta  Ta6  1  0.879194  0.362495  0.879116  1
  Ta  Ta7  1  0.362495  0.879194  0.879116  1
  Ta  Ta8  1  0.879194  0.879194  0.879116  1
  Nb  Nb9  1  0.879198  0.879198  0.362405  1
  Al  Al10  1  0.121289  0.121289  0.636134  1
  Al  Al11  1  0.121390  0.635992  0.121229  1
  Al  Al12  1  0.635992  0.121390  0.121229  1
  Al  Al13  1  0.121390  0.121390  0.121229  1
  Al  Al14  1  0.661789  0.661789  0.014635  1
  Al  Al15  1  0.661773  0.014567  0.661890  1
  Al  Al16  1  0.014567  0.661773  0.661890  1
  Al  Al17  1  0.661773  0.661773  0.661890  1
  Al  Al18  1  0.335245  0.335245  0.994265  1
  Al  Al19  1  0.335260  0.994240  0.335241  1
  Al  Al20  1  0.994240  0.335260  0.335241  1
  Al  Al21  1  0.335260  0.335260  0.335241  1
  Os  Os22  1  0.000238  0.000238  0.999286  1
  Os  Os23  1  0.997153  0.997153  0.503460  1
  Os  Os24  1  0.502234  0.997153  0.503460  1
  Os  Os25  1  0.997153  0.502234  0.503460  1
  Os  Os26  1  0.503119  0.503119  0.996863  1
  Os  Os27  1  0.996900  0.503119  0.996863  1
  Os  Os28  1  0.503119  0.996900  0.996863  1
