# generated using pymatgen
data_Ho2Mn2Co9P7W
_symmetry_space_group_name_H-M   'P 1'
_cell_length_a   9.05616493
_cell_length_b   9.00440831
_cell_length_c   3.65274400
_cell_angle_alpha   90.00000000
_cell_angle_beta   90.00000000
_cell_angle_gamma   120.13797908
_symmetry_Int_Tables_number   1
_chemical_formula_structural   Ho2Mn2Co9P7W
_chemical_formula_sum   'Ho2 Mn2 Co9 P7 W1'
_cell_volume   257.59881491
_cell_formula_units_Z   1
loop_
 _symmetry_equiv_pos_site_id
 _symmetry_equiv_pos_as_xyz
  1  'x, y, z'
loop_
 _atom_site_type_symbol
 _atom_site_label
 _atom_site_symmetry_multiplicity
 _atom_site_fract_x
 _atom_site_fract_y
 _atom_site_fract_z
 _atom_site_occupancy
  Ho  Ho0  1  0.665138  0.334795  0.000000  1
  Ho  Ho1  1  0.332999  0.667006  0.500000  1
  Mn  Mn2  1  0.780450  0.878796  0.500000  1
  Mn  Mn3  1  0.128821  0.904520  0.500000  1
  Co  Co4  1  0.061789  0.432734  0.000000  1
  Co  Co5  1  0.567407  0.630555  0.000000  1
  Co  Co6  1  0.370101  0.939195  0.000000  1
  Co  Co7  1  0.277346  0.155749  0.000000  1
  Co  Co8  1  0.839950  0.119354  0.000000  1
  Co  Co9  1  0.880655  0.721122  0.000000  1
  Co  Co10  1  0.438864  0.383674  0.500000  1
  Co  Co11  1  0.612373  0.048767  0.500000  1
  Co  Co12  1  0.951085  0.566460  0.500000  1
  P  P13  1  0.303017  0.414128  0.000000  1
  P  P14  1  0.588538  0.887341  0.000000  1
  P  P15  1  0.112303  0.703470  0.000000  1
  P  P16  1  0.404714  0.112655  0.500000  1
  P  P17  1  0.879577  0.290767  0.500000  1
  P  P18  1  0.711257  0.598111  0.500000  1
  P  P19  1  0.995983  0.993403  0.000000  1
  W  W20  1  0.097631  0.217397  0.500000  1
