# generated using pymatgen
data_Yb6DyLu(Si4Mo3)4
_symmetry_space_group_name_H-M   'P 1'
_cell_length_a   6.72485501
_cell_length_b   6.93087590
_cell_length_c   13.00281368
_cell_angle_alpha   89.82658641
_cell_angle_beta   90.00179639
_cell_angle_gamma   89.97385688
_symmetry_Int_Tables_number   1
_chemical_formula_structural   Yb6DyLu(Si4Mo3)4
_chemical_formula_sum   'Yb6 Dy1 Lu1 Si16 Mo12'
_cell_volume   606.04706520
_cell_formula_units_Z   1
loop_
 _symmetry_equiv_pos_site_id
 _symmetry_equiv_pos_as_xyz
  1  'x, y, z'
loop_
 _atom_site_type_symbol
 _atom_site_label
 _atom_site_symmetry_multiplicity
 _atom_site_fract_x
 _atom_site_fract_y
 _atom_site_fract_z
 _atom_site_occupancy
  Yb  Yb0  1  0.498249  0.334410  0.090576  1
  Yb  Yb1  1  0.998200  0.165451  0.409475  1
  Yb  Yb2  1  0.501346  0.667860  0.592767  1
  Yb  Yb3  1  0.001010  0.831619  0.907780  1
  Yb  Yb4  1  0.501175  0.666913  0.908875  1
  Yb  Yb5  1  0.001520  0.833385  0.591634  1
  Dy  Dy6  1  0.499652  0.331767  0.406798  1
  Lu  Lu7  1  0.998559  0.169414  0.093256  1
  Si  Si8  1  0.658570  0.041761  0.545437  1
  Si  Si9  1  0.158574  0.457163  0.955398  1
  Si  Si10  1  0.339349  0.958306  0.045643  1
  Si  Si11  1  0.841628  0.543771  0.454535  1
  Si  Si12  1  0.341081  0.955647  0.454817  1
  Si  Si13  1  0.841428  0.541983  0.045220  1
  Si  Si14  1  0.660118  0.041798  0.955189  1
  Si  Si15  1  0.159188  0.458161  0.545579  1
  Si  Si16  1  0.535429  0.372855  0.750890  1
  Si  Si17  1  0.035295  0.126762  0.749569  1
  Si  Si18  1  0.464706  0.631768  0.248831  1
  Si  Si19  1  0.965138  0.870009  0.249988  1
  Si  Si20  1  0.800744  0.629553  0.750154  1
  Si  Si21  1  0.300589  0.869992  0.750339  1
  Si  Si22  1  0.196990  0.368651  0.249075  1
  Si  Si23  1  0.699037  0.130609  0.249123  1
  Mo  Mo24  1  0.833575  0.331562  0.627139  1
  Mo  Mo25  1  0.333410  0.168346  0.873380  1
  Mo  Mo26  1  0.165813  0.667363  0.126389  1
  Mo  Mo27  1  0.665978  0.833327  0.372845  1
  Mo  Mo28  1  0.167699  0.666202  0.372370  1
  Mo  Mo29  1  0.668645  0.834327  0.126665  1
  Mo  Mo30  1  0.836051  0.329529  0.873849  1
  Mo  Mo31  1  0.335625  0.169444  0.626906  1
  Mo  Mo32  1  0.661678  0.008938  0.750241  1
  Mo  Mo33  1  0.161643  0.490580  0.750285  1
  Mo  Mo34  1  0.335738  0.995545  0.249811  1
  Mo  Mo35  1  0.836572  0.505227  0.249172  1
