# generated using pymatgen
data_Zr2Cr5P4Os3
_symmetry_space_group_name_H-M   'P 1'
_cell_length_a   7.12739960
_cell_length_b   7.04176089
_cell_length_c   3.82975100
_cell_angle_alpha   90.00000000
_cell_angle_beta   90.00000000
_cell_angle_gamma   89.67073394
_symmetry_Int_Tables_number   1
_chemical_formula_structural   Zr2Cr5P4Os3
_chemical_formula_sum   'Zr2 Cr5 P4 Os3'
_cell_volume   192.20989856
_cell_formula_units_Z   1
loop_
 _symmetry_equiv_pos_site_id
 _symmetry_equiv_pos_as_xyz
  1  'x, y, z'
loop_
 _atom_site_type_symbol
 _atom_site_label
 _atom_site_symmetry_multiplicity
 _atom_site_fract_x
 _atom_site_fract_y
 _atom_site_fract_z
 _atom_site_occupancy
  Zr  Zr0  1  0.499443  0.504316  0.000000  1
  Zr  Zr1  1  0.998590  0.996712  0.500000  1
  Cr  Cr2  1  0.907916  0.654532  0.000000  1
  Cr  Cr3  1  0.150899  0.586841  0.500000  1
  Cr  Cr4  1  0.849174  0.424515  0.500000  1
  Cr  Cr5  1  0.347326  0.076073  0.000000  1
  Cr  Cr6  1  0.661726  0.911428  0.000000  1
  P  P7  1  0.719543  0.717988  0.500000  1
  P  P8  1  0.286306  0.286599  0.500000  1
  P  P9  1  0.200327  0.783983  0.000000  1
  P  P10  1  0.786970  0.217762  0.000000  1
  Os  Os11  1  0.590006  0.168065  0.500000  1
  Os  Os12  1  0.411402  0.836693  0.500000  1
  Os  Os13  1  0.090373  0.334492  0.000000  1
