# generated using pymatgen
data_Er2Ga9Ir2Pt
_symmetry_space_group_name_H-M   'P 1'
_cell_length_a   7.61209010
_cell_length_b   7.61209052
_cell_length_c   9.45364400
_cell_angle_alpha   90.00000000
_cell_angle_beta   90.00000000
_cell_angle_gamma   119.96997907
_symmetry_Int_Tables_number   1
_chemical_formula_structural   Er2Ga9Ir2Pt
_chemical_formula_sum   'Er4 Ga18 Ir4 Pt2'
_cell_volume   474.53586225
_cell_formula_units_Z   2
loop_
 _symmetry_equiv_pos_site_id
 _symmetry_equiv_pos_as_xyz
  1  'x, y, z'
loop_
 _atom_site_type_symbol
 _atom_site_label
 _atom_site_symmetry_multiplicity
 _atom_site_fract_x
 _atom_site_fract_y
 _atom_site_fract_z
 _atom_site_occupancy
  Er  Er0  1  0.996733  0.668261  0.750000  1
  Er  Er1  1  0.003267  0.331739  0.250000  1
  Er  Er2  1  0.668261  0.996733  0.750000  1
  Er  Er3  1  0.331739  0.003267  0.250000  1
  Ga  Ga4  1  0.129805  0.129805  0.750000  1
  Ga  Ga5  1  0.870195  0.870195  0.250000  1
  Ga  Ga6  1  0.998103  0.336955  0.581661  1
  Ga  Ga7  1  0.001897  0.663045  0.418339  1
  Ga  Ga8  1  0.001897  0.663045  0.081661  1
  Ga  Ga9  1  0.336955  0.998103  0.918339  1
  Ga  Ga10  1  0.998103  0.336955  0.918339  1
  Ga  Ga11  1  0.663045  0.001897  0.081661  1
  Ga  Ga12  1  0.663045  0.001897  0.418339  1
  Ga  Ga13  1  0.336955  0.998103  0.581661  1
  Ga  Ga14  1  0.334970  0.334970  0.068110  1
  Ga  Ga15  1  0.665030  0.665030  0.931890  1
  Ga  Ga16  1  0.665030  0.665030  0.568110  1
  Ga  Ga17  1  0.334970  0.334970  0.431890  1
  Ga  Ga18  1  0.337885  0.546688  0.750000  1
  Ga  Ga19  1  0.662115  0.453312  0.250000  1
  Ga  Ga20  1  0.546688  0.337885  0.750000  1
  Ga  Ga21  1  0.453312  0.662115  0.250000  1
  Ir  Ir22  1  0.671413  0.328587  0.500000  1
  Ir  Ir23  1  0.328587  0.671413  0.500000  1
  Ir  Ir24  1  0.328587  0.671413  0.000000  1
  Ir  Ir25  1  0.671413  0.328587  0.000000  1
  Pt  Pt26  1  0.000000  0.000000  0.500000  1
  Pt  Pt27  1  0.000000  0.000000  0.000000  1
