# generated using pymatgen
data_SrMg2(H6Ir)2
_symmetry_space_group_name_H-M   'P 1'
_cell_length_a   4.74794700
_cell_length_b   4.74794836
_cell_length_c   8.01077500
_cell_angle_alpha   90.00000000
_cell_angle_beta   90.00000000
_cell_angle_gamma   119.99999749
_symmetry_Int_Tables_number   1
_chemical_formula_structural   SrMg2(H6Ir)2
_chemical_formula_sum   'Sr1 Mg2 H12 Ir2'
_cell_volume   156.39289743
_cell_formula_units_Z   1
loop_
 _symmetry_equiv_pos_site_id
 _symmetry_equiv_pos_as_xyz
  1  'x, y, z'
loop_
 _atom_site_type_symbol
 _atom_site_label
 _atom_site_symmetry_multiplicity
 _atom_site_fract_x
 _atom_site_fract_y
 _atom_site_fract_z
 _atom_site_occupancy
  Sr  Sr0  1  0.000000  0.000000  0.000000  1
  Mg  Mg1  1  0.666667  0.333333  0.370596  1
  Mg  Mg2  1  0.333333  0.666667  0.629404  1
  H  H3  1  0.163941  0.836059  0.384704  1
  H  H4  1  0.672119  0.836059  0.384704  1
  H  H5  1  0.163941  0.327881  0.384704  1
  H  H6  1  0.836059  0.163941  0.615296  1
  H  H7  1  0.327881  0.163941  0.615296  1
  H  H8  1  0.836059  0.672119  0.615296  1
  H  H9  1  0.501671  0.003342  0.851705  1
  H  H10  1  0.501671  0.498329  0.851705  1
  H  H11  1  0.996658  0.498329  0.851705  1
  H  H12  1  0.498329  0.996658  0.148295  1
  H  H13  1  0.498329  0.501671  0.148295  1
  H  H14  1  0.003342  0.501671  0.148295  1
  Ir  Ir15  1  0.666667  0.333333  0.727585  1
  Ir  Ir16  1  0.333333  0.666667  0.272415  1
