# generated using pymatgen
data_CsMnBe3F9
_symmetry_space_group_name_H-M   'P 1'
_cell_length_a   6.97174400
_cell_length_b   6.97174364
_cell_length_c   10.05569000
_cell_angle_alpha   90.00000000
_cell_angle_beta   90.00000000
_cell_angle_gamma   120.00000170
_symmetry_Int_Tables_number   1
_chemical_formula_structural   CsMnBe3F9
_chemical_formula_sum   'Cs2 Mn2 Be6 F18'
_cell_volume   423.27765404
_cell_formula_units_Z   2
loop_
 _symmetry_equiv_pos_site_id
 _symmetry_equiv_pos_as_xyz
  1  'x, y, z'
loop_
 _atom_site_type_symbol
 _atom_site_label
 _atom_site_symmetry_multiplicity
 _atom_site_fract_x
 _atom_site_fract_y
 _atom_site_fract_z
 _atom_site_occupancy
  Cs  Cs0  1  0.333333  0.666667  0.500000  1
  Cs  Cs1  1  0.333333  0.666667  0.000000  1
  Mn  Mn2  1  0.000000  0.000000  0.500000  1
  Mn  Mn3  1  0.000000  0.000000  0.000000  1
  Be  Be4  1  0.870679  0.267120  0.250000  1
  Be  Be5  1  0.870679  0.603559  0.750000  1
  Be  Be6  1  0.396441  0.267120  0.750000  1
  Be  Be7  1  0.732880  0.129321  0.750000  1
  Be  Be8  1  0.732880  0.603559  0.250000  1
  Be  Be9  1  0.396441  0.129321  0.250000  1
  F  F10  1  0.758363  0.018640  0.623389  1
  F  F11  1  0.260276  0.241637  0.623389  1
  F  F12  1  0.981360  0.739724  0.623389  1
  F  F13  1  0.981360  0.241637  0.376611  1
  F  F14  1  0.900769  0.511295  0.250000  1
  F  F15  1  0.610526  0.099231  0.250000  1
  F  F16  1  0.488705  0.389474  0.250000  1
  F  F17  1  0.488705  0.099231  0.750000  1
  F  F18  1  0.610526  0.511295  0.750000  1
  F  F19  1  0.900769  0.389474  0.750000  1
  F  F20  1  0.981360  0.241637  0.123389  1
  F  F21  1  0.260276  0.018640  0.376611  1
  F  F22  1  0.758363  0.739724  0.376611  1
  F  F23  1  0.758363  0.739724  0.123389  1
  F  F24  1  0.260276  0.018640  0.123389  1
  F  F25  1  0.758363  0.018640  0.876611  1
  F  F26  1  0.260276  0.241637  0.876611  1
  F  F27  1  0.981360  0.739724  0.876611  1
