# generated using pymatgen
data_La4Tb2OsBr10
_symmetry_space_group_name_H-M   'P 1'
_cell_length_a   7.75098794
_cell_length_b   9.54748401
_cell_length_c   9.51399300
_cell_angle_alpha   106.56801116
_cell_angle_beta   97.05257909
_cell_angle_gamma   106.89932888
_symmetry_Int_Tables_number   1
_chemical_formula_structural   La4Tb2OsBr10
_chemical_formula_sum   'La4 Tb2 Os1 Br10'
_cell_volume   629.23959418
_cell_formula_units_Z   1
loop_
 _symmetry_equiv_pos_site_id
 _symmetry_equiv_pos_as_xyz
  1  'x, y, z'
loop_
 _atom_site_type_symbol
 _atom_site_label
 _atom_site_symmetry_multiplicity
 _atom_site_fract_x
 _atom_site_fract_y
 _atom_site_fract_z
 _atom_site_occupancy
  La  La0  1  0.873016  0.145921  0.688526  1
  La  La1  1  0.126984  0.854079  0.311474  1
  La  La2  1  0.375913  0.948441  0.734352  1
  La  La3  1  0.624087  0.051559  0.265648  1
  Tb  Tb4  1  0.468809  0.300337  0.589555  1
  Tb  Tb5  1  0.531191  0.699663  0.410445  1
  Os  Os6  1  0.500000  0.000000  0.500000  1
  Br  Br7  1  0.421220  0.622781  0.664677  1
  Br  Br8  1  0.578780  0.377219  0.335323  1
  Br  Br9  1  0.304463  0.262988  0.837880  1
  Br  Br10  1  0.695537  0.737012  0.162120  1
  Br  Br11  1  0.833441  0.457225  0.767676  1
  Br  Br12  1  0.166559  0.542775  0.232324  1
  Br  Br13  1  0.051889  0.180110  0.417911  1
  Br  Br14  1  0.247994  0.916625  0.042767  1
  Br  Br15  1  0.752006  0.083375  0.957233  1
  Br  Br16  1  0.948111  0.819890  0.582089  1
