# generated using pymatgen
data_Er2Ga2CuIr
_symmetry_space_group_name_H-M   'P 1'
_cell_length_a   4.33534100
_cell_length_b   6.83669700
_cell_length_c   7.56555000
_cell_angle_alpha   90.00000000
_cell_angle_beta   90.00000000
_cell_angle_gamma   90.00000000
_symmetry_Int_Tables_number   1
_chemical_formula_structural   Er2Ga2CuIr
_chemical_formula_sum   'Er4 Ga4 Cu2 Ir2'
_cell_volume   224.23845957
_cell_formula_units_Z   2
loop_
 _symmetry_equiv_pos_site_id
 _symmetry_equiv_pos_as_xyz
  1  'x, y, z'
loop_
 _atom_site_type_symbol
 _atom_site_label
 _atom_site_symmetry_multiplicity
 _atom_site_fract_x
 _atom_site_fract_y
 _atom_site_fract_z
 _atom_site_occupancy
  Er  Er0  1  0.250000  0.989247  0.297491  1
  Er  Er1  1  0.250000  0.489247  0.202509  1
  Er  Er2  1  0.750000  0.022729  0.688519  1
  Er  Er3  1  0.750000  0.522729  0.811481  1
  Ga  Ga4  1  0.250000  0.326864  0.579940  1
  Ga  Ga5  1  0.250000  0.826864  0.920060  1
  Ga  Ga6  1  0.750000  0.672401  0.433014  1
  Ga  Ga7  1  0.750000  0.172401  0.066986  1
  Cu  Cu8  1  0.250000  0.215539  0.898523  1
  Cu  Cu9  1  0.250000  0.715539  0.601477  1
  Ir  Ir10  1  0.750000  0.773219  0.102189  1
  Ir  Ir11  1  0.750000  0.273219  0.397811  1
