# generated using pymatgen
data_TaNb5Al4(RhC)2
_symmetry_space_group_name_H-M   'P 1'
_cell_length_a   8.34252209
_cell_length_b   8.34268875
_cell_length_c   8.34252200
_cell_angle_alpha   59.99934214
_cell_angle_beta   60.00131786
_cell_angle_gamma   59.99933901
_symmetry_Int_Tables_number   1
_chemical_formula_structural   TaNb5Al4(RhC)2
_chemical_formula_sum   'Ta2 Nb10 Al8 Rh4 C4'
_cell_volume   410.56863194
_cell_formula_units_Z   2
loop_
 _symmetry_equiv_pos_site_id
 _symmetry_equiv_pos_as_xyz
  1  'x, y, z'
loop_
 _atom_site_type_symbol
 _atom_site_label
 _atom_site_symmetry_multiplicity
 _atom_site_fract_x
 _atom_site_fract_y
 _atom_site_fract_z
 _atom_site_occupancy
  Ta  Ta0  1  0.685555  0.314445  0.685555  1
  Ta  Ta1  1  0.935555  0.564445  0.935555  1
  Nb  Nb2  1  0.563985  0.936015  0.563985  1
  Nb  Nb3  1  0.314281  0.685662  0.686037  1
  Nb  Nb4  1  0.686037  0.314019  0.314281  1
  Nb  Nb5  1  0.313985  0.686015  0.313985  1
  Nb  Nb6  1  0.686037  0.685662  0.314281  1
  Nb  Nb7  1  0.314281  0.314019  0.686037  1
  Nb  Nb8  1  0.564338  0.563963  0.935981  1
  Nb  Nb9  1  0.935981  0.563963  0.564338  1
  Nb  Nb10  1  0.564338  0.935719  0.935981  1
  Nb  Nb11  1  0.935981  0.935719  0.564338  1
  Al  Al12  1  0.916806  0.916859  0.916806  1
  Al  Al13  1  0.000471  0.333194  0.333141  1
  Al  Al14  1  0.333230  0.000294  0.333230  1
  Al  Al15  1  0.333141  0.333194  0.000471  1
  Al  Al16  1  0.916806  0.249529  0.916806  1
  Al  Al17  1  0.916755  0.916770  0.249706  1
  Al  Al18  1  0.249706  0.916770  0.916755  1
  Al  Al19  1  0.333230  0.333245  0.333230  1
  Rh  Rh20  1  0.124365  0.126665  0.124365  1
  Rh  Rh21  1  0.625394  0.125635  0.123335  1
  Rh  Rh22  1  0.124365  0.624606  0.124365  1
  Rh  Rh23  1  0.123335  0.125635  0.625394  1
  C  C24  1  0.625510  0.623238  0.625510  1
  C  C25  1  0.124258  0.624490  0.626762  1
  C  C26  1  0.625510  0.125742  0.625510  1
  C  C27  1  0.626762  0.624490  0.124258  1
