# generated using pymatgen
data_Eu4NiMo3O14
_symmetry_space_group_name_H-M   'P 1'
_cell_length_a   7.51951854
_cell_length_b   7.51951814
_cell_length_c   7.34659614
_cell_angle_alpha   59.21826769
_cell_angle_beta   59.21826562
_cell_angle_gamma   60.00000576
_symmetry_Int_Tables_number   1
_chemical_formula_structural   Eu4NiMo3O14
_chemical_formula_sum   'Eu4 Ni1 Mo3 O14'
_cell_volume   290.21329055
_cell_formula_units_Z   1
loop_
 _symmetry_equiv_pos_site_id
 _symmetry_equiv_pos_as_xyz
  1  'x, y, z'
loop_
 _atom_site_type_symbol
 _atom_site_label
 _atom_site_symmetry_multiplicity
 _atom_site_fract_x
 _atom_site_fract_y
 _atom_site_fract_z
 _atom_site_occupancy
  Eu  Eu0  1  0.125000  0.625000  0.125000  1
  Eu  Eu1  1  0.125000  0.125000  0.625000  1
  Eu  Eu2  1  0.625000  0.125000  0.125000  1
  Eu  Eu3  1  0.125000  0.125000  0.125000  1
  Ni  Ni4  1  0.625000  0.625000  0.125000  1
  Mo  Mo5  1  0.625000  0.625000  0.625000  1
  Mo  Mo6  1  0.125000  0.625000  0.625000  1
  Mo  Mo7  1  0.625000  0.125000  0.625000  1
  O  O8  1  0.296901  0.709447  0.696752  1
  O  O9  1  0.547931  0.961409  0.942728  1
  O  O10  1  0.702069  0.702069  0.307272  1
  O  O11  1  0.296901  0.296901  0.696752  1
  O  O12  1  0.997757  0.997757  0.006728  1
  O  O13  1  0.288591  0.702069  0.307272  1
  O  O14  1  0.709447  0.296901  0.696752  1
  O  O15  1  0.961409  0.547931  0.942728  1
  O  O16  1  0.547931  0.547931  0.942728  1
  O  O17  1  0.953099  0.953099  0.553248  1
  O  O18  1  0.252243  0.252243  0.243272  1
  O  O19  1  0.540553  0.953099  0.553248  1
  O  O20  1  0.702069  0.288591  0.307272  1
  O  O21  1  0.953099  0.540553  0.553248  1
