# generated using pymatgen
data_Cs7Ti(SO4)6
_symmetry_space_group_name_H-M   'P 1'
_cell_length_a   10.21856782
_cell_length_b   10.21856883
_cell_length_c   10.21856860
_cell_angle_alpha   110.05054099
_cell_angle_beta   110.05053987
_cell_angle_gamma   110.05052977
_symmetry_Int_Tables_number   1
_chemical_formula_structural   Cs7Ti(SO4)6
_chemical_formula_sum   'Cs7 Ti1 S6 O24'
_cell_volume   803.28763205
_cell_formula_units_Z   1
loop_
 _symmetry_equiv_pos_site_id
 _symmetry_equiv_pos_as_xyz
  1  'x, y, z'
loop_
 _atom_site_type_symbol
 _atom_site_label
 _atom_site_symmetry_multiplicity
 _atom_site_fract_x
 _atom_site_fract_y
 _atom_site_fract_z
 _atom_site_occupancy
  Cs  Cs0  1  0.500000  0.500000  0.500000  1
  Cs  Cs1  1  0.671010  0.168721  0.327838  1
  Cs  Cs2  1  0.327838  0.671010  0.168721  1
  Cs  Cs3  1  0.168721  0.327838  0.671010  1
  Cs  Cs4  1  0.328990  0.831279  0.672162  1
  Cs  Cs5  1  0.672162  0.328990  0.831279  1
  Cs  Cs6  1  0.831279  0.672162  0.328990  1
  Ti  Ti7  1  0.000000  0.000000  0.000000  1
  S  S8  1  0.235997  0.026053  0.351735  1
  S  S9  1  0.351735  0.235997  0.026053  1
  S  S10  1  0.026053  0.351735  0.235997  1
  S  S11  1  0.764003  0.973947  0.648265  1
  S  S12  1  0.648265  0.764003  0.973947  1
  S  S13  1  0.973947  0.648265  0.764003  1
  O  O14  1  0.097209  0.616517  0.849917  1
  O  O15  1  0.849917  0.097209  0.616517  1
  O  O16  1  0.616517  0.849917  0.097209  1
  O  O17  1  0.902791  0.383483  0.150083  1
  O  O18  1  0.150083  0.902791  0.383483  1
  O  O19  1  0.383483  0.150083  0.902791  1
  O  O20  1  0.007912  0.699452  0.655089  1
  O  O21  1  0.655089  0.007912  0.699452  1
  O  O22  1  0.699452  0.655089  0.007912  1
  O  O23  1  0.992088  0.300548  0.344911  1
  O  O24  1  0.344911  0.992088  0.300548  1
  O  O25  1  0.300548  0.344911  0.992088  1
  O  O26  1  0.022105  0.214956  0.106950  1
  O  O27  1  0.106950  0.022105  0.214956  1
  O  O28  1  0.498808  0.329025  0.192234  1
  O  O29  1  0.329025  0.192234  0.498808  1
  O  O30  1  0.192234  0.498808  0.329025  1
  O  O31  1  0.501192  0.670975  0.807766  1
  O  O32  1  0.670975  0.807766  0.501192  1
  O  O33  1  0.807766  0.501192  0.670975  1
  O  O34  1  0.785044  0.893050  0.977895  1
  O  O35  1  0.893050  0.977895  0.785044  1
  O  O36  1  0.977895  0.785044  0.893050  1
  O  O37  1  0.214956  0.106950  0.022105  1
