# generated using pymatgen
data_HfZr2ZnFe8
_symmetry_space_group_name_H-M   'P 1'
_cell_length_a   8.52540999
_cell_length_b   8.52541039
_cell_length_c   8.52541077
_cell_angle_alpha   33.43631433
_cell_angle_beta   33.43630710
_cell_angle_gamma   33.43631157
_symmetry_Int_Tables_number   1
_chemical_formula_structural   HfZr2ZnFe8
_chemical_formula_sum   'Hf1 Zr2 Zn1 Fe8'
_cell_volume   167.54097747
_cell_formula_units_Z   1
loop_
 _symmetry_equiv_pos_site_id
 _symmetry_equiv_pos_as_xyz
  1  'x, y, z'
loop_
 _atom_site_type_symbol
 _atom_site_label
 _atom_site_symmetry_multiplicity
 _atom_site_fract_x
 _atom_site_fract_y
 _atom_site_fract_z
 _atom_site_occupancy
  Hf  Hf0  1  0.624132  0.624132  0.624132  1
  Zr  Zr1  1  0.004192  0.004192  0.004192  1
  Zr  Zr2  1  0.496618  0.496618  0.496618  1
  Zn  Zn3  1  0.126226  0.126226  0.126226  1
  Fe  Fe4  1  0.564187  0.060023  0.564187  1
  Fe  Fe5  1  0.062526  0.560825  0.062526  1
  Fe  Fe6  1  0.060023  0.564187  0.564187  1
  Fe  Fe7  1  0.560825  0.062526  0.062526  1
  Fe  Fe8  1  0.812291  0.812291  0.812291  1
  Fe  Fe9  1  0.312267  0.312267  0.312267  1
  Fe  Fe10  1  0.564187  0.564187  0.060023  1
  Fe  Fe11  1  0.062526  0.062526  0.560825  1
