# generated using pymatgen
data_KHfScSe4
_symmetry_space_group_name_H-M   'P 1'
_cell_length_a   3.88907900
_cell_length_b   8.40743602
_cell_length_c   6.65992914
_cell_angle_alpha   74.33019771
_cell_angle_beta   90.00000000
_cell_angle_gamma   90.00000000
_symmetry_Int_Tables_number   1
_chemical_formula_structural   KHfScSe4
_chemical_formula_sum   'K1 Hf1 Sc1 Se4'
_cell_volume   209.66766910
_cell_formula_units_Z   1
loop_
 _symmetry_equiv_pos_site_id
 _symmetry_equiv_pos_as_xyz
  1  'x, y, z'
loop_
 _atom_site_type_symbol
 _atom_site_label
 _atom_site_symmetry_multiplicity
 _atom_site_fract_x
 _atom_site_fract_y
 _atom_site_fract_z
 _atom_site_occupancy
  K  K0  1  0.500000  0.496760  0.654409  1
  Hf  Hf1  1  0.000000  0.997453  0.002680  1
  Sc  Sc2  1  0.500000  0.003820  0.501553  1
  Se  Se3  1  0.000000  0.812268  0.397609  1
  Se  Se4  1  0.500000  0.809955  0.903066  1
  Se  Se5  1  0.000000  0.191059  0.608339  1
  Se  Se6  1  0.500000  0.187805  0.099301  1
