# generated using pymatgen
data_Er5MgRu4
_symmetry_space_group_name_H-M   'P 1'
_cell_length_a   3.38398600
_cell_length_b   3.38398600
_cell_length_c   18.11380500
_cell_angle_alpha   90.00000000
_cell_angle_beta   90.00000000
_cell_angle_gamma   90.00000000
_symmetry_Int_Tables_number   1
_chemical_formula_structural   Er5MgRu4
_chemical_formula_sum   'Er5 Mg1 Ru4'
_cell_volume   207.42772463
_cell_formula_units_Z   1
loop_
 _symmetry_equiv_pos_site_id
 _symmetry_equiv_pos_as_xyz
  1  'x, y, z'
loop_
 _atom_site_type_symbol
 _atom_site_label
 _atom_site_symmetry_multiplicity
 _atom_site_fract_x
 _atom_site_fract_y
 _atom_site_fract_z
 _atom_site_occupancy
  Er  Er0  1  0.000000  0.000000  0.869802  1
  Er  Er1  1  0.000000  0.000000  0.130198  1
  Er  Er2  1  0.000000  0.000000  0.312540  1
  Er  Er3  1  0.000000  0.000000  0.500000  1
  Er  Er4  1  0.000000  0.000000  0.687460  1
  Mg  Mg5  1  0.500000  0.500000  0.000000  1
  Ru  Ru6  1  0.500000  0.500000  0.215823  1
  Ru  Ru7  1  0.500000  0.500000  0.405718  1
  Ru  Ru8  1  0.500000  0.500000  0.594282  1
  Ru  Ru9  1  0.500000  0.500000  0.784177  1
