# generated using pymatgen
data_Tm4Lu16Bi11Sb
_symmetry_space_group_name_H-M   'P 1'
_cell_length_a   8.11561771
_cell_length_b   9.37537300
_cell_length_c   11.79580602
_cell_angle_alpha   90.00000000
_cell_angle_beta   89.95918118
_cell_angle_gamma   90.00000000
_symmetry_Int_Tables_number   1
_chemical_formula_structural   Tm4Lu16Bi11Sb
_chemical_formula_sum   'Tm4 Lu16 Bi11 Sb1'
_cell_volume   897.50659501
_cell_formula_units_Z   1
loop_
 _symmetry_equiv_pos_site_id
 _symmetry_equiv_pos_as_xyz
  1  'x, y, z'
loop_
 _atom_site_type_symbol
 _atom_site_label
 _atom_site_symmetry_multiplicity
 _atom_site_fract_x
 _atom_site_fract_y
 _atom_site_fract_z
 _atom_site_occupancy
  Tm  Tm0  1  0.189513  0.250000  0.780259  1
  Tm  Tm1  1  0.812095  0.750000  0.217633  1
  Tm  Tm2  1  0.312554  0.750000  0.282414  1
  Tm  Tm3  1  0.682815  0.250000  0.714684  1
  Lu  Lu4  1  0.027999  0.250000  0.511098  1
  Lu  Lu5  1  0.976717  0.750000  0.489525  1
  Lu  Lu6  1  0.475542  0.750000  0.011076  1
  Lu  Lu7  1  0.524930  0.250000  0.988768  1
  Lu  Lu8  1  0.355986  0.250000  0.285677  1
  Lu  Lu9  1  0.645221  0.750000  0.717490  1
  Lu  Lu10  1  0.145000  0.750000  0.781897  1
  Lu  Lu11  1  0.855078  0.250000  0.217829  1
  Lu  Lu12  1  0.193569  0.066716  0.060297  1
  Lu  Lu13  1  0.806538  0.933633  0.940022  1
  Lu  Lu14  1  0.307959  0.937437  0.559677  1
  Lu  Lu15  1  0.806538  0.566367  0.940022  1
  Lu  Lu16  1  0.690611  0.068800  0.441620  1
  Lu  Lu17  1  0.193569  0.433284  0.060297  1
  Lu  Lu18  1  0.690611  0.431200  0.441620  1
  Lu  Lu19  1  0.307959  0.562563  0.559677  1
  Bi  Bi20  1  0.595529  0.750000  0.457813  1
  Bi  Bi21  1  0.094995  0.750000  0.042033  1
  Bi  Bi22  1  0.905766  0.250000  0.956963  1
  Bi  Bi23  1  0.066419  0.003989  0.325813  1
  Bi  Bi24  1  0.932863  0.996407  0.674266  1
  Bi  Bi25  1  0.433233  0.995655  0.825716  1
  Bi  Bi26  1  0.932863  0.503593  0.674266  1
  Bi  Bi27  1  0.566728  0.004470  0.174506  1
  Bi  Bi28  1  0.066419  0.496011  0.325813  1
  Bi  Bi29  1  0.566728  0.495530  0.174506  1
  Bi  Bi30  1  0.433233  0.504345  0.825716  1
  Sb  Sb31  1  0.404428  0.250000  0.541009  1
