# generated using pymatgen
data_Hf16Nb3Ni4Ru
_symmetry_space_group_name_H-M   'P 1'
_cell_length_a   8.72938795
_cell_length_b   8.72938700
_cell_length_c   8.72938759
_cell_angle_alpha   60.35939947
_cell_angle_beta   60.35940287
_cell_angle_gamma   60.35940308
_symmetry_Int_Tables_number   1
_chemical_formula_structural   Hf16Nb3Ni4Ru
_chemical_formula_sum   'Hf16 Nb3 Ni4 Ru1'
_cell_volume   474.19044942
_cell_formula_units_Z   1
loop_
 _symmetry_equiv_pos_site_id
 _symmetry_equiv_pos_as_xyz
  1  'x, y, z'
loop_
 _atom_site_type_symbol
 _atom_site_label
 _atom_site_symmetry_multiplicity
 _atom_site_fract_x
 _atom_site_fract_y
 _atom_site_fract_z
 _atom_site_occupancy
  Hf  Hf0  1  0.696778  0.101320  0.101320  1
  Hf  Hf1  1  0.101320  0.696778  0.101320  1
  Hf  Hf2  1  0.101320  0.101320  0.696778  1
  Hf  Hf3  1  0.101592  0.101592  0.101592  1
  Hf  Hf4  1  0.314713  0.314713  0.681533  1
  Hf  Hf5  1  0.684842  0.684842  0.315117  1
  Hf  Hf6  1  0.314713  0.681533  0.314713  1
  Hf  Hf7  1  0.684842  0.315117  0.684842  1
  Hf  Hf8  1  0.681533  0.314713  0.314713  1
  Hf  Hf9  1  0.315117  0.684842  0.684842  1
  Hf  Hf10  1  0.949974  0.949974  0.549377  1
  Hf  Hf11  1  0.550709  0.550709  0.949905  1
  Hf  Hf12  1  0.949974  0.549377  0.949974  1
  Hf  Hf13  1  0.550709  0.949905  0.550709  1
  Hf  Hf14  1  0.549377  0.949974  0.949974  1
  Hf  Hf15  1  0.949905  0.550709  0.550709  1
  Nb  Nb16  1  0.000013  0.334334  0.334334  1
  Nb  Nb17  1  0.334334  0.000013  0.334334  1
  Nb  Nb18  1  0.334334  0.334334  0.000013  1
  Ni  Ni19  1  0.324819  0.890452  0.890452  1
  Ni  Ni20  1  0.890452  0.324819  0.890452  1
  Ni  Ni21  1  0.890452  0.890452  0.324819  1
  Ni  Ni22  1  0.891691  0.891691  0.891691  1
  Ru  Ru23  1  0.336484  0.336484  0.336484  1
