# generated using pymatgen
data_Nd8Si12Ni3Au
_symmetry_space_group_name_H-M   'P 1'
_cell_length_a   8.14761800
_cell_length_b   8.14761872
_cell_length_c   8.57940700
_cell_angle_alpha   90.00000000
_cell_angle_beta   90.00000000
_cell_angle_gamma   119.99999708
_symmetry_Int_Tables_number   1
_chemical_formula_structural   Nd8Si12Ni3Au
_chemical_formula_sum   'Nd8 Si12 Ni3 Au1'
_cell_volume   493.22975883
_cell_formula_units_Z   1
loop_
 _symmetry_equiv_pos_site_id
 _symmetry_equiv_pos_as_xyz
  1  'x, y, z'
loop_
 _atom_site_type_symbol
 _atom_site_label
 _atom_site_symmetry_multiplicity
 _atom_site_fract_x
 _atom_site_fract_y
 _atom_site_fract_z
 _atom_site_occupancy
  Nd  Nd0  1  0.497877  0.502123  0.753490  1
  Nd  Nd1  1  0.497908  0.502092  0.246446  1
  Nd  Nd2  1  0.004246  0.502123  0.753490  1
  Nd  Nd3  1  0.004185  0.502092  0.246446  1
  Nd  Nd4  1  0.497877  0.995754  0.753490  1
  Nd  Nd5  1  0.497908  0.995815  0.246446  1
  Nd  Nd6  1  0.000000  0.000000  0.752701  1
  Nd  Nd7  1  0.000000  0.000000  0.247473  1
  Si  Si8  1  0.828435  0.171565  0.999679  1
  Si  Si9  1  0.170796  0.829204  0.000337  1
  Si  Si10  1  0.343130  0.171565  0.999679  1
  Si  Si11  1  0.173197  0.826803  0.499724  1
  Si  Si12  1  0.658407  0.829204  0.000337  1
  Si  Si13  1  0.838816  0.161184  0.500325  1
  Si  Si14  1  0.828435  0.656870  0.999679  1
  Si  Si15  1  0.653607  0.826803  0.499724  1
  Si  Si16  1  0.170796  0.341593  0.000337  1
  Si  Si17  1  0.322367  0.161184  0.500325  1
  Si  Si18  1  0.173197  0.346393  0.499724  1
  Si  Si19  1  0.838816  0.677633  0.500325  1
  Ni  Ni20  1  0.666667  0.333333  0.000307  1
  Ni  Ni21  1  0.333333  0.666667  0.999754  1
  Ni  Ni22  1  0.333333  0.666667  0.500162  1
  Au  Au23  1  0.666667  0.333333  0.499604  1
