# generated using pymatgen
data_Er8TaTi8Si16W3
_symmetry_space_group_name_H-M   'P 1'
_cell_length_a   6.96562687
_cell_length_b   6.96562741
_cell_length_c   12.81322013
_cell_angle_alpha   90.01941398
_cell_angle_beta   89.98058658
_cell_angle_gamma   90.01121463
_symmetry_Int_Tables_number   1
_chemical_formula_structural   Er8TaTi8Si16W3
_chemical_formula_sum   'Er8 Ta1 Ti8 Si16 W3'
_cell_volume   621.69686305
_cell_formula_units_Z   1
loop_
 _symmetry_equiv_pos_site_id
 _symmetry_equiv_pos_as_xyz
  1  'x, y, z'
loop_
 _atom_site_type_symbol
 _atom_site_label
 _atom_site_symmetry_multiplicity
 _atom_site_fract_x
 _atom_site_fract_y
 _atom_site_fract_z
 _atom_site_occupancy
  Er  Er0  1  0.340569  0.001518  0.467007  1
  Er  Er1  1  0.498903  0.841817  0.718225  1
  Er  Er2  1  0.500104  0.158558  0.216682  1
  Er  Er3  1  0.841817  0.498903  0.281775  1
  Er  Er4  1  0.158558  0.500104  0.783318  1
  Er  Er5  1  0.658996  0.999551  0.967275  1
  Er  Er6  1  0.001518  0.340569  0.532993  1
  Er  Er7  1  0.999551  0.658996  0.032725  1
  Ta  Ta8  1  0.673230  0.673230  0.500000  1
  Ti  Ti9  1  0.152331  0.008722  0.875811  1
  Ti  Ti10  1  0.491390  0.652699  0.124782  1
  Ti  Ti11  1  0.507797  0.347438  0.626275  1
  Ti  Ti12  1  0.652699  0.491390  0.875218  1
  Ti  Ti13  1  0.347438  0.507797  0.373725  1
  Ti  Ti14  1  0.847911  0.991565  0.375060  1
  Ti  Ti15  1  0.008722  0.152331  0.124189  1
  Ti  Ti16  1  0.991565  0.847911  0.624940  1
  Si  Si17  1  0.201598  0.131222  0.684082  1
  Si  Si18  1  0.368685  0.701163  0.933818  1
  Si  Si19  1  0.631725  0.296896  0.433880  1
  Si  Si20  1  0.701163  0.368685  0.066182  1
  Si  Si21  1  0.296896  0.631725  0.566120  1
  Si  Si22  1  0.798635  0.868653  0.183735  1
  Si  Si23  1  0.131222  0.201598  0.315918  1
  Si  Si24  1  0.868653  0.798635  0.816265  1
  Si  Si25  1  0.292341  0.953219  0.064903  1
  Si  Si26  1  0.545470  0.792662  0.313925  1
  Si  Si27  1  0.453172  0.208078  0.815383  1
  Si  Si28  1  0.792662  0.545470  0.686075  1
  Si  Si29  1  0.208078  0.453172  0.184617  1
  Si  Si30  1  0.707227  0.048296  0.565859  1
  Si  Si31  1  0.953219  0.292341  0.935097  1
  Si  Si32  1  0.048296  0.707227  0.434141  1
  W  W33  1  0.326895  0.326895  0.000000  1
  W  W34  1  0.173699  0.827266  0.249113  1
  W  W35  1  0.827266  0.173699  0.750887  1
