# generated using pymatgen
data_Ho6Al24GaRu7
_symmetry_space_group_name_H-M   'P 1'
_cell_length_a   8.83890485
_cell_length_b   8.83890544
_cell_length_c   9.53852508
_cell_angle_alpha   90.12061330
_cell_angle_beta   89.87938734
_cell_angle_gamma   119.84611628
_symmetry_Int_Tables_number   1
_chemical_formula_structural   Ho6Al24GaRu7
_chemical_formula_sum   'Ho6 Al24 Ga1 Ru7'
_cell_volume   646.36653730
_cell_formula_units_Z   1
loop_
 _symmetry_equiv_pos_site_id
 _symmetry_equiv_pos_as_xyz
  1  'x, y, z'
loop_
 _atom_site_type_symbol
 _atom_site_label
 _atom_site_symmetry_multiplicity
 _atom_site_fract_x
 _atom_site_fract_y
 _atom_site_fract_z
 _atom_site_occupancy
  Ho  Ho0  1  0.192734  0.385761  0.246431  1
  Ho  Ho1  1  0.807266  0.614239  0.753569  1
  Ho  Ho2  1  0.614239  0.807266  0.246431  1
  Ho  Ho3  1  0.385761  0.192734  0.753569  1
  Ho  Ho4  1  0.194371  0.805629  0.254695  1
  Ho  Ho5  1  0.805629  0.194371  0.745305  1
  Al  Al6  1  0.327024  0.672976  0.020949  1
  Al  Al7  1  0.672976  0.327024  0.979051  1
  Al  Al8  1  0.666365  0.333635  0.516947  1
  Al  Al9  1  0.333635  0.666365  0.483053  1
  Al  Al10  1  0.161692  0.323809  0.575123  1
  Al  Al11  1  0.838308  0.676191  0.424877  1
  Al  Al12  1  0.676191  0.838308  0.575123  1
  Al  Al13  1  0.853563  0.679665  0.082547  1
  Al  Al14  1  0.323809  0.161692  0.424877  1
  Al  Al15  1  0.146437  0.320335  0.917453  1
  Al  Al16  1  0.162510  0.837490  0.578446  1
  Al  Al17  1  0.320335  0.146437  0.082547  1
  Al  Al18  1  0.837490  0.162510  0.421554  1
  Al  Al19  1  0.679665  0.853563  0.917453  1
  Al  Al20  1  0.837649  0.162351  0.079733  1
  Al  Al21  1  0.162351  0.837649  0.920267  1
  Al  Al22  1  0.561322  0.120827  0.249010  1
  Al  Al23  1  0.438678  0.879173  0.750990  1
  Al  Al24  1  0.879173  0.438678  0.249010  1
  Al  Al25  1  0.120827  0.561322  0.750990  1
  Al  Al26  1  0.565232  0.434768  0.258398  1
  Al  Al27  1  0.434768  0.565232  0.741602  1
  Al  Al28  1  0.998815  0.001185  0.250670  1
  Al  Al29  1  0.001185  0.998815  0.749330  1
  Ga  Ga30  1  0.500000  0.500000  0.000000  1
  Ru  Ru31  1  0.500000  0.000000  0.000000  1
  Ru  Ru32  1  0.000000  0.500000  0.000000  1
  Ru  Ru33  1  0.500000  0.000000  0.500000  1
  Ru  Ru34  1  0.000000  0.500000  0.500000  1
  Ru  Ru35  1  0.500000  0.500000  0.500000  1
  Ru  Ru36  1  0.000000  0.000000  0.000000  1
  Ru  Ru37  1  0.000000  0.000000  0.500000  1
