# generated using pymatgen
data_Dy12GaTc3
_symmetry_space_group_name_H-M   'P 1'
_cell_length_a   6.33532532
_cell_length_b   7.48129160
_cell_length_c   9.20291400
_cell_angle_alpha   90.00000000
_cell_angle_beta   90.00000000
_cell_angle_gamma   90.00046578
_symmetry_Int_Tables_number   1
_chemical_formula_structural   Dy12GaTc3
_chemical_formula_sum   'Dy12 Ga1 Tc3'
_cell_volume   436.18514137
_cell_formula_units_Z   1
loop_
 _symmetry_equiv_pos_site_id
 _symmetry_equiv_pos_as_xyz
  1  'x, y, z'
loop_
 _atom_site_type_symbol
 _atom_site_label
 _atom_site_symmetry_multiplicity
 _atom_site_fract_x
 _atom_site_fract_y
 _atom_site_fract_z
 _atom_site_occupancy
  Dy  Dy0  1  0.328395  0.674419  0.066432  1
  Dy  Dy1  1  0.164424  0.181133  0.434522  1
  Dy  Dy2  1  0.664300  0.310486  0.556915  1
  Dy  Dy3  1  0.846832  0.832435  0.939638  1
  Dy  Dy4  1  0.664300  0.310486  0.943085  1
  Dy  Dy5  1  0.846832  0.832435  0.560362  1
  Dy  Dy6  1  0.328395  0.674419  0.433568  1
  Dy  Dy7  1  0.164424  0.181133  0.065478  1
  Dy  Dy8  1  0.866024  0.544352  0.250000  1
  Dy  Dy9  1  0.626946  0.037671  0.250000  1
  Dy  Dy10  1  0.116550  0.452340  0.750000  1
  Dy  Dy11  1  0.372590  0.973654  0.750000  1
  Ga  Ga12  1  0.553704  0.610530  0.750000  1
  Tc  Tc13  1  0.039338  0.885890  0.250000  1
  Tc  Tc14  1  0.465969  0.383750  0.250000  1
  Tc  Tc15  1  0.950973  0.114867  0.750000  1
