# generated using pymatgen
data_LaBeH5
_symmetry_space_group_name_H-M   'P 1'
_cell_length_a   4.26936100
_cell_length_b   4.78883400
_cell_length_c   11.88851800
_cell_angle_alpha   90.00000000
_cell_angle_beta   90.00000000
_cell_angle_gamma   90.00000000
_symmetry_Int_Tables_number   1
_chemical_formula_structural   LaBeH5
_chemical_formula_sum   'La4 Be4 H20'
_cell_volume   243.06385478
_cell_formula_units_Z   4
loop_
 _symmetry_equiv_pos_site_id
 _symmetry_equiv_pos_as_xyz
  1  'x, y, z'
loop_
 _atom_site_type_symbol
 _atom_site_label
 _atom_site_symmetry_multiplicity
 _atom_site_fract_x
 _atom_site_fract_y
 _atom_site_fract_z
 _atom_site_occupancy
  La  La0  1  0.302224  0.142217  0.651667  1
  La  La1  1  0.802224  0.357783  0.348333  1
  La  La2  1  0.197776  0.857783  0.151667  1
  La  La3  1  0.697776  0.642217  0.848333  1
  Be  Be4  1  0.298803  0.133491  0.916583  1
  Be  Be5  1  0.798803  0.366509  0.083417  1
  Be  Be6  1  0.201197  0.866509  0.416583  1
  Be  Be7  1  0.701197  0.633491  0.583417  1
  H  H8  1  0.545472  0.399954  0.515957  1
  H  H9  1  0.045472  0.100046  0.484043  1
  H  H10  1  0.954528  0.600046  0.015957  1
  H  H11  1  0.454528  0.899954  0.984043  1
  H  H12  1  0.184054  0.903696  0.828518  1
  H  H13  1  0.684054  0.596304  0.171482  1
  H  H14  1  0.315946  0.096304  0.328518  1
  H  H15  1  0.815946  0.403696  0.671482  1
  H  H16  1  0.194229  0.384269  0.839581  1
  H  H17  1  0.694229  0.115731  0.160419  1
  H  H18  1  0.305771  0.615731  0.339581  1
  H  H19  1  0.805771  0.884269  0.660419  1
  H  H20  1  0.602737  0.138297  0.831297  1
  H  H21  1  0.102737  0.361703  0.168703  1
  H  H22  1  0.897263  0.861703  0.331297  1
  H  H23  1  0.397263  0.638297  0.668703  1
  H  H24  1  0.005018  0.127226  0.000479  1
  H  H25  1  0.505018  0.372774  0.999521  1
  H  H26  1  0.494982  0.872774  0.500479  1
  H  H27  1  0.994982  0.627226  0.499521  1
