# generated using pymatgen
data_K16ErPaBi8
_symmetry_space_group_name_H-M   'P 1'
_cell_length_a   12.07500295
_cell_length_b   12.07500186
_cell_length_c   12.07500200
_cell_angle_alpha   59.99999413
_cell_angle_beta   59.99999712
_cell_angle_gamma   59.99999509
_symmetry_Int_Tables_number   1
_chemical_formula_structural   K16ErPaBi8
_chemical_formula_sum   'K16 Er1 Pa1 Bi8'
_cell_volume   1244.93483817
_cell_formula_units_Z   1
loop_
 _symmetry_equiv_pos_site_id
 _symmetry_equiv_pos_as_xyz
  1  'x, y, z'
loop_
 _atom_site_type_symbol
 _atom_site_label
 _atom_site_symmetry_multiplicity
 _atom_site_fract_x
 _atom_site_fract_y
 _atom_site_fract_z
 _atom_site_occupancy
  K  K0  1  0.622138  0.133586  0.622138  1
  K  K1  1  0.622138  0.622138  0.133586  1
  K  K2  1  0.133586  0.622138  0.622138  1
  K  K3  1  0.622138  0.622138  0.622138  1
  K  K4  1  0.034274  0.034274  0.465726  1
  K  K5  1  0.773246  0.226754  0.226754  1
  K  K6  1  0.226754  0.773246  0.773246  1
  K  K7  1  0.773246  0.773246  0.226754  1
  K  K8  1  0.773246  0.226754  0.773246  1
  K  K9  1  0.226754  0.773246  0.226754  1
  K  K10  1  0.465726  0.034274  0.465726  1
  K  K11  1  0.465726  0.034274  0.034274  1
  K  K12  1  0.034274  0.465726  0.465726  1
  K  K13  1  0.034274  0.465726  0.034274  1
  K  K14  1  0.226754  0.226754  0.773246  1
  K  K15  1  0.465726  0.465726  0.034274  1
  Er  Er16  1  0.500000  0.500000  0.500000  1
  Pa  Pa17  1  0.750000  0.750000  0.750000  1
  Bi  Bi18  1  0.394475  0.816578  0.394475  1
  Bi  Bi19  1  0.853091  0.853091  0.440726  1
  Bi  Bi20  1  0.440726  0.853091  0.853091  1
  Bi  Bi21  1  0.853091  0.853091  0.853091  1
  Bi  Bi22  1  0.816578  0.394475  0.394475  1
  Bi  Bi23  1  0.394475  0.394475  0.394475  1
  Bi  Bi24  1  0.394475  0.394475  0.816578  1
  Bi  Bi25  1  0.853091  0.440726  0.853091  1
