# generated using pymatgen
data_HfFe(BO3)2
_symmetry_space_group_name_H-M   'P 1'
_cell_length_a   4.82195841
_cell_length_b   4.83086530
_cell_length_c   5.84700923
_cell_angle_alpha   114.09301007
_cell_angle_beta   65.64214036
_cell_angle_gamma   120.34722144
_symmetry_Int_Tables_number   1
_chemical_formula_structural   HfFe(BO3)2
_chemical_formula_sum   'Hf1 Fe1 B2 O6'
_cell_volume   103.55945290
_cell_formula_units_Z   1
loop_
 _symmetry_equiv_pos_site_id
 _symmetry_equiv_pos_as_xyz
  1  'x, y, z'
loop_
 _atom_site_type_symbol
 _atom_site_label
 _atom_site_symmetry_multiplicity
 _atom_site_fract_x
 _atom_site_fract_y
 _atom_site_fract_z
 _atom_site_occupancy
  Hf  Hf0  1  0.499999  0.500000  0.500000  1
  Fe  Fe1  1  0.000001  0.000000  0.000000  1
  B  B2  1  0.249543  0.752094  0.253939  1
  B  B3  1  0.750457  0.247906  0.746060  1
  O  O4  1  0.532056  0.742627  0.255798  1
  O  O5  1  0.261545  0.046795  0.257703  1
  O  O6  1  0.046374  0.528606  0.742106  1
  O  O7  1  0.467944  0.257373  0.744203  1
  O  O8  1  0.738456  0.953205  0.742297  1
  O  O9  1  0.953626  0.471394  0.257893  1
