# generated using pymatgen
data_HoTh3Al14(Ga2Ir3)2
_symmetry_space_group_name_H-M   'P 1'
_cell_length_a   7.61480996
_cell_length_b   7.61869145
_cell_length_c   9.57374900
_cell_angle_alpha   90.00000000
_cell_angle_beta   90.00000000
_cell_angle_gamma   119.48597785
_symmetry_Int_Tables_number   1
_chemical_formula_structural   HoTh3Al14(Ga2Ir3)2
_chemical_formula_sum   'Ho1 Th3 Al14 Ga4 Ir6'
_cell_volume   483.47985649
_cell_formula_units_Z   1
loop_
 _symmetry_equiv_pos_site_id
 _symmetry_equiv_pos_as_xyz
  1  'x, y, z'
loop_
 _atom_site_type_symbol
 _atom_site_label
 _atom_site_symmetry_multiplicity
 _atom_site_fract_x
 _atom_site_fract_y
 _atom_site_fract_z
 _atom_site_occupancy
  Ho  Ho0  1  0.326379  0.005076  0.750000  1
  Th  Th1  1  0.994754  0.671122  0.250000  1
  Th  Th2  1  0.002819  0.326337  0.750000  1
  Th  Th3  1  0.670539  0.994347  0.250000  1
  Al  Al4  1  0.006020  0.336070  0.073228  1
  Al  Al5  1  0.000368  0.668791  0.923193  1
  Al  Al6  1  0.000368  0.668791  0.576807  1
  Al  Al7  1  0.335349  0.004410  0.433015  1
  Al  Al8  1  0.006020  0.336070  0.426772  1
  Al  Al9  1  0.658741  0.995786  0.576433  1
  Al  Al10  1  0.658741  0.995786  0.923567  1
  Al  Al11  1  0.335349  0.004410  0.066985  1
  Al  Al12  1  0.336801  0.333079  0.558738  1
  Al  Al13  1  0.663455  0.663451  0.455719  1
  Al  Al14  1  0.663455  0.663451  0.044281  1
  Al  Al15  1  0.336801  0.333079  0.941262  1
  Al  Al16  1  0.658639  0.449728  0.750000  1
  Al  Al17  1  0.452663  0.664936  0.750000  1
  Ga  Ga18  1  0.137691  0.134490  0.250000  1
  Ga  Ga19  1  0.866104  0.863865  0.750000  1
  Ga  Ga20  1  0.343530  0.544460  0.250000  1
  Ga  Ga21  1  0.544384  0.339924  0.250000  1
  Ir  Ir22  1  0.673563  0.328963  0.997737  1
  Ir  Ir23  1  0.327479  0.671006  0.997871  1
  Ir  Ir24  1  0.327479  0.671006  0.502129  1
  Ir  Ir25  1  0.673563  0.328963  0.502263  1
  Ir  Ir26  1  0.999474  0.001302  0.000325  1
  Ir  Ir27  1  0.999474  0.001302  0.499675  1
