# generated using pymatgen
data_Sc2SbWO8
_symmetry_space_group_name_H-M   'P 1'
_cell_length_a   4.79263960
_cell_length_b   5.75994905
_cell_length_c   5.75994767
_cell_angle_alpha   67.33926836
_cell_angle_beta   91.63752363
_cell_angle_gamma   91.63752910
_symmetry_Int_Tables_number   1
_chemical_formula_structural   Sc2SbWO8
_chemical_formula_sum   'Sc2 Sb1 W1 O8'
_cell_volume   146.64406242
_cell_formula_units_Z   1
loop_
 _symmetry_equiv_pos_site_id
 _symmetry_equiv_pos_as_xyz
  1  'x, y, z'
loop_
 _atom_site_type_symbol
 _atom_site_label
 _atom_site_symmetry_multiplicity
 _atom_site_fract_x
 _atom_site_fract_y
 _atom_site_fract_z
 _atom_site_occupancy
  Sc  Sc0  1  0.500000  0.499998  0.000000  1
  Sc  Sc1  1  0.500000  0.999998  0.500002  1
  Sb  Sb2  1  0.000000  0.500001  0.500000  1
  W  W3  1  0.000000  0.000001  0.000000  1
  O  O4  1  0.291892  0.146017  0.146020  1
  O  O5  1  0.298612  0.649060  0.649056  1
  O  O6  1  0.701387  0.350941  0.350943  1
  O  O7  1  0.708108  0.853984  0.853981  1
  O  O8  1  0.813266  0.842121  0.344931  1
  O  O9  1  0.813265  0.344932  0.842120  1
  O  O10  1  0.186734  0.157880  0.655068  1
  O  O11  1  0.186735  0.655069  0.157879  1
