# generated using pymatgen
data_Ho3Er5Si8PdPt7
_symmetry_space_group_name_H-M   'P 1'
_cell_length_a   4.26199800
_cell_length_b   7.46998384
_cell_length_c   13.95880500
_cell_angle_alpha   89.95048555
_cell_angle_beta   90.00000000
_cell_angle_gamma   90.00000000
_symmetry_Int_Tables_number   1
_chemical_formula_structural   Ho3Er5Si8PdPt7
_chemical_formula_sum   'Ho3 Er5 Si8 Pd1 Pt7'
_cell_volume   444.40709289
_cell_formula_units_Z   1
loop_
 _symmetry_equiv_pos_site_id
 _symmetry_equiv_pos_as_xyz
  1  'x, y, z'
loop_
 _atom_site_type_symbol
 _atom_site_label
 _atom_site_symmetry_multiplicity
 _atom_site_fract_x
 _atom_site_fract_y
 _atom_site_fract_z
 _atom_site_occupancy
  Ho  Ho0  1  0.000000  0.300605  0.999825  1
  Ho  Ho1  1  0.500000  0.699942  0.499785  1
  Ho  Ho2  1  0.000000  0.293910  0.500070  1
  Er  Er3  1  0.500000  0.705213  0.000255  1
  Er  Er4  1  0.000000  0.203941  0.249501  1
  Er  Er5  1  0.500000  0.795840  0.250142  1
  Er  Er6  1  0.000000  0.203365  0.750166  1
  Er  Er7  1  0.500000  0.795591  0.750178  1
  Si  Si8  1  0.000000  0.907369  0.591932  1
  Si  Si9  1  0.500000  0.094489  0.907040  1
  Si  Si10  1  0.000000  0.906301  0.407363  1
  Si  Si11  1  0.500000  0.093926  0.092511  1
  Si  Si12  1  0.000000  0.593932  0.146937  1
  Si  Si13  1  0.500000  0.405978  0.351745  1
  Si  Si14  1  0.000000  0.594192  0.856014  1
  Si  Si15  1  0.500000  0.403404  0.645843  1
  Pd  Pd16  1  0.000000  0.580768  0.656951  1
  Pt  Pt17  1  0.500000  0.074560  0.608576  1
  Pt  Pt18  1  0.000000  0.924035  0.891188  1
  Pt  Pt19  1  0.500000  0.075932  0.391299  1
  Pt  Pt20  1  0.000000  0.923844  0.108447  1
  Pt  Pt21  1  0.500000  0.420455  0.155303  1
  Pt  Pt22  1  0.000000  0.579987  0.346516  1
  Pt  Pt23  1  0.500000  0.422418  0.842413  1
