# generated using pymatgen
data_Y2Lu3IrRu
_symmetry_space_group_name_H-M   'P 1'
_cell_length_a   6.29112086
_cell_length_b   7.26800431
_cell_length_c   8.38823643
_cell_angle_alpha   97.33192715
_cell_angle_beta   112.50367597
_cell_angle_gamma   89.90446368
_symmetry_Int_Tables_number   1
_chemical_formula_structural   Y2Lu3IrRu
_chemical_formula_sum   'Y4 Lu6 Ir2 Ru2'
_cell_volume   350.97458248
_cell_formula_units_Z   2
loop_
 _symmetry_equiv_pos_site_id
 _symmetry_equiv_pos_as_xyz
  1  'x, y, z'
loop_
 _atom_site_type_symbol
 _atom_site_label
 _atom_site_symmetry_multiplicity
 _atom_site_fract_x
 _atom_site_fract_y
 _atom_site_fract_z
 _atom_site_occupancy
  Y  Y0  1  0.522619  0.080337  0.810062  1
  Y  Y1  1  0.477381  0.919663  0.189938  1
  Y  Y2  1  0.715129  0.417171  0.191002  1
  Y  Y3  1  0.284871  0.582829  0.808998  1
  Lu  Lu4  1  0.299099  0.314194  0.434773  1
  Lu  Lu5  1  0.700901  0.685806  0.565227  1
  Lu  Lu6  1  0.866981  0.184535  0.565642  1
  Lu  Lu7  1  0.133019  0.815465  0.434358  1
  Lu  Lu8  1  0.078415  0.249175  0.999542  1
  Lu  Lu9  1  0.921585  0.750825  0.000458  1
  Ir  Ir10  1  0.314998  0.575993  0.224248  1
  Ir  Ir11  1  0.685002  0.424007  0.775752  1
  Ru  Ru12  1  0.092637  0.923691  0.777927  1
  Ru  Ru13  1  0.907363  0.076309  0.222073  1
