# generated using pymatgen
data_Mg4ScV(SbPt)6
_symmetry_space_group_name_H-M   'P 1'
_cell_length_a   7.71212075
_cell_length_b   7.71671178
_cell_length_c   7.72138500
_cell_angle_alpha   99.62550360
_cell_angle_beta   99.62715880
_cell_angle_gamma   119.94578463
_symmetry_Int_Tables_number   1
_chemical_formula_structural   Mg4ScV(SbPt)6
_chemical_formula_sum   'Mg4 Sc1 V1 Sb6 Pt6'
_cell_volume   375.28069030
_cell_formula_units_Z   1
loop_
 _symmetry_equiv_pos_site_id
 _symmetry_equiv_pos_as_xyz
  1  'x, y, z'
loop_
 _atom_site_type_symbol
 _atom_site_label
 _atom_site_symmetry_multiplicity
 _atom_site_fract_x
 _atom_site_fract_y
 _atom_site_fract_z
 _atom_site_occupancy
  Mg  Mg0  1  0.331631  0.165586  0.499739  1
  Mg  Mg1  1  0.000260  0.501684  0.500225  1
  Mg  Mg2  1  0.164326  0.330451  0.998841  1
  Mg  Mg3  1  0.502957  0.999452  0.999201  1
  Sc  Sc4  1  0.832741  0.669471  0.999595  1
  V  V5  1  0.667613  0.833676  0.500717  1
  Sb  Sb6  1  0.918122  0.087693  0.249536  1
  Sb  Sb7  1  0.252087  0.750021  0.250629  1
  Sb  Sb8  1  0.581131  0.413594  0.251847  1
  Sb  Sb9  1  0.092853  0.916979  0.746909  1
  Sb  Sb10  1  0.748988  0.255937  0.747922  1
  Sb  Sb11  1  0.407149  0.575661  0.754911  1
  Pt  Pt12  1  0.207050  0.038783  0.123339  1
  Pt  Pt13  1  0.875154  0.378656  0.124117  1
  Pt  Pt14  1  0.548208  0.712433  0.139666  1
  Pt  Pt15  1  0.023376  0.190658  0.619963  1
  Pt  Pt16  1  0.390580  0.872324  0.619931  1
  Pt  Pt17  1  0.705768  0.556940  0.622912  1
