# generated using pymatgen
data_YErZr4(SnRh)6
_symmetry_space_group_name_H-M   'P 1'
_cell_length_a   7.51407803
_cell_length_b   7.51454838
_cell_length_c   7.36912900
_cell_angle_alpha   90.00000000
_cell_angle_beta   90.00000000
_cell_angle_gamma   120.00549238
_symmetry_Int_Tables_number   1
_chemical_formula_structural   YErZr4(SnRh)6
_chemical_formula_sum   'Y1 Er1 Zr4 Sn6 Rh6'
_cell_volume   360.33075995
_cell_formula_units_Z   1
loop_
 _symmetry_equiv_pos_site_id
 _symmetry_equiv_pos_as_xyz
  1  'x, y, z'
loop_
 _atom_site_type_symbol
 _atom_site_label
 _atom_site_symmetry_multiplicity
 _atom_site_fract_x
 _atom_site_fract_y
 _atom_site_fract_z
 _atom_site_occupancy
  Y  Y0  1  0.404506  0.402498  0.250000  1
  Er  Er1  1  0.595766  0.998365  0.250000  1
  Zr  Zr2  1  0.609823  0.003687  0.750000  1
  Zr  Zr3  1  0.390024  0.394407  0.750000  1
  Zr  Zr4  1  0.000326  0.603408  0.750000  1
  Zr  Zr5  1  0.000946  0.600676  0.250000  1
  Sn  Sn6  1  0.267503  0.999539  0.992420  1
  Sn  Sn7  1  0.732918  0.732322  0.507669  1
  Sn  Sn8  1  0.999397  0.268038  0.496109  1
  Sn  Sn9  1  0.999397  0.268038  0.003891  1
  Sn  Sn10  1  0.732918  0.732322  0.992331  1
  Sn  Sn11  1  0.267503  0.999539  0.507580  1
  Rh  Rh12  1  0.671096  0.336457  0.972897  1
  Rh  Rh13  1  0.671096  0.336457  0.527103  1
  Rh  Rh14  1  0.328853  0.666375  0.973851  1
  Rh  Rh15  1  0.328853  0.666375  0.526149  1
  Rh  Rh16  1  0.999880  0.004306  0.750000  1
  Rh  Rh17  1  0.999193  0.987193  0.250000  1
