# generated using pymatgen
data_Pr6TcBr10
_symmetry_space_group_name_H-M   'P 1'
_cell_length_a   7.69224061
_cell_length_b   9.75940102
_cell_length_c   9.64895309
_cell_angle_alpha   109.16456291
_cell_angle_beta   106.25791287
_cell_angle_gamma   97.42961677
_symmetry_Int_Tables_number   1
_chemical_formula_structural   Pr6TcBr10
_chemical_formula_sum   'Pr6 Tc1 Br10'
_cell_volume   637.01243227
_cell_formula_units_Z   1
loop_
 _symmetry_equiv_pos_site_id
 _symmetry_equiv_pos_as_xyz
  1  'x, y, z'
loop_
 _atom_site_type_symbol
 _atom_site_label
 _atom_site_symmetry_multiplicity
 _atom_site_fract_x
 _atom_site_fract_y
 _atom_site_fract_z
 _atom_site_occupancy
  Pr  Pr0  1  0.367036  0.185811  0.140342  1
  Pr  Pr1  1  0.023094  0.900737  0.697618  1
  Pr  Pr2  1  0.126173  0.755785  0.046798  1
  Pr  Pr3  1  0.632964  0.814189  0.859658  1
  Pr  Pr4  1  0.873827  0.244215  0.953202  1
  Pr  Pr5  1  0.976906  0.099263  0.302382  1
  Tc  Tc6  1  0.000000  0.000000  0.000000  1
  Br  Br7  1  0.450990  0.077678  0.825391  1
  Br  Br8  1  0.746420  0.548020  0.916050  1
  Br  Br9  1  0.253580  0.451980  0.083950  1
  Br  Br10  1  0.909665  0.165012  0.633701  1
  Br  Br11  1  0.635769  0.722634  0.540294  1
  Br  Br12  1  0.549010  0.922322  0.174609  1
  Br  Br13  1  0.090335  0.834988  0.366299  1
  Br  Br14  1  0.804445  0.352034  0.260600  1
  Br  Br15  1  0.195555  0.647966  0.739400  1
  Br  Br16  1  0.364231  0.277366  0.459706  1
