# generated using pymatgen
data_Ho9Er3(TcRu)2
_symmetry_space_group_name_H-M   'P 1'
_cell_length_a   6.26413707
_cell_length_b   7.35325904
_cell_length_c   9.08624407
_cell_angle_alpha   89.99525189
_cell_angle_beta   90.01389147
_cell_angle_gamma   90.01019086
_symmetry_Int_Tables_number   1
_chemical_formula_structural   Ho9Er3(TcRu)2
_chemical_formula_sum   'Ho9 Er3 Tc2 Ru2'
_cell_volume   418.52894153
_cell_formula_units_Z   1
loop_
 _symmetry_equiv_pos_site_id
 _symmetry_equiv_pos_as_xyz
  1  'x, y, z'
loop_
 _atom_site_type_symbol
 _atom_site_label
 _atom_site_symmetry_multiplicity
 _atom_site_fract_x
 _atom_site_fract_y
 _atom_site_fract_z
 _atom_site_occupancy
  Ho  Ho0  1  0.334010  0.676338  0.063340  1
  Ho  Ho1  1  0.165881  0.176276  0.436708  1
  Ho  Ho2  1  0.664448  0.324086  0.562414  1
  Ho  Ho3  1  0.835660  0.824087  0.937483  1
  Ho  Ho4  1  0.664472  0.323972  0.937573  1
  Ho  Ho5  1  0.874330  0.539394  0.250083  1
  Ho  Ho6  1  0.625733  0.039274  0.250039  1
  Ho  Ho7  1  0.131478  0.457529  0.749944  1
  Ho  Ho8  1  0.368509  0.957419  0.749942  1
  Er  Er9  1  0.835560  0.823999  0.562480  1
  Er  Er10  1  0.334097  0.676373  0.436791  1
  Er  Er11  1  0.165879  0.176312  0.063242  1
  Tc  Tc12  1  0.038661  0.885909  0.250158  1
  Tc  Tc13  1  0.461213  0.385922  0.249958  1
  Ru  Ru14  1  0.960719  0.116440  0.750076  1
  Ru  Ru15  1  0.539349  0.616672  0.749767  1
