# generated using pymatgen
data_Hf3Al2PdC
_symmetry_space_group_name_H-M   'P 1'
_cell_length_a   8.61020502
_cell_length_b   8.61018873
_cell_length_c   8.61021300
_cell_angle_alpha   59.99997530
_cell_angle_beta   60.00002287
_cell_angle_gamma   59.99993209
_symmetry_Int_Tables_number   1
_chemical_formula_structural   Hf3Al2PdC
_chemical_formula_sum   'Hf12 Al8 Pd4 C4'
_cell_volume   451.36183278
_cell_formula_units_Z   4
loop_
 _symmetry_equiv_pos_site_id
 _symmetry_equiv_pos_as_xyz
  1  'x, y, z'
loop_
 _atom_site_type_symbol
 _atom_site_label
 _atom_site_symmetry_multiplicity
 _atom_site_fract_x
 _atom_site_fract_y
 _atom_site_fract_z
 _atom_site_occupancy
  Hf  Hf0  1  0.561137  0.938864  0.561137  1
  Hf  Hf1  1  0.311136  0.688864  0.688863  1
  Hf  Hf2  1  0.688865  0.311136  0.311136  1
  Hf  Hf3  1  0.311136  0.688865  0.311136  1
  Hf  Hf4  1  0.688863  0.688864  0.311137  1
  Hf  Hf5  1  0.311136  0.311136  0.688865  1
  Hf  Hf6  1  0.561137  0.561136  0.938863  1
  Hf  Hf7  1  0.938864  0.561136  0.561137  1
  Hf  Hf8  1  0.561135  0.938864  0.938864  1
  Hf  Hf9  1  0.938864  0.938864  0.561135  1
  Hf  Hf10  1  0.688863  0.311136  0.688863  1
  Hf  Hf11  1  0.938864  0.561135  0.938864  1
  Al  Al12  1  0.918825  0.918826  0.918824  1
  Al  Al13  1  0.006474  0.331174  0.331176  1
  Al  Al14  1  0.331174  0.006475  0.331175  1
  Al  Al15  1  0.331175  0.331174  0.006474  1
  Al  Al16  1  0.918826  0.243525  0.918825  1
  Al  Al17  1  0.918825  0.918826  0.243526  1
  Al  Al18  1  0.243526  0.918826  0.918824  1
  Al  Al19  1  0.331175  0.331174  0.331176  1
  Pd  Pd20  1  0.125000  0.125000  0.125000  1
  Pd  Pd21  1  0.625000  0.125000  0.125000  1
  Pd  Pd22  1  0.125000  0.625000  0.125000  1
  Pd  Pd23  1  0.125000  0.125000  0.625000  1
  C  C24  1  0.625000  0.625000  0.625000  1
  C  C25  1  0.125000  0.625000  0.625000  1
  C  C26  1  0.625000  0.125000  0.625000  1
  C  C27  1  0.625000  0.625000  0.125000  1
