# generated using pymatgen
data_Hg4PtRh3O14
_symmetry_space_group_name_H-M   'P 1'
_cell_length_a   7.29458480
_cell_length_b   7.30866502
_cell_length_c   7.30866500
_cell_angle_alpha   59.99999555
_cell_angle_beta   59.93612352
_cell_angle_gamma   59.93613100
_symmetry_Int_Tables_number   1
_chemical_formula_structural   Hg4PtRh3O14
_chemical_formula_sum   'Hg4 Pt1 Rh3 O14'
_cell_volume   275.25912121
_cell_formula_units_Z   1
loop_
 _symmetry_equiv_pos_site_id
 _symmetry_equiv_pos_as_xyz
  1  'x, y, z'
loop_
 _atom_site_type_symbol
 _atom_site_label
 _atom_site_symmetry_multiplicity
 _atom_site_fract_x
 _atom_site_fract_y
 _atom_site_fract_z
 _atom_site_occupancy
  Hg  Hg0  1  0.125000  0.125000  0.125000  1
  Hg  Hg1  1  0.625000  0.125000  0.125000  1
  Hg  Hg2  1  0.125000  0.625000  0.125000  1
  Hg  Hg3  1  0.125000  0.125000  0.625000  1
  Pt  Pt4  1  0.125000  0.625000  0.625000  1
  Rh  Rh5  1  0.625000  0.625000  0.125000  1
  Rh  Rh6  1  0.625000  0.625000  0.625000  1
  Rh  Rh7  1  0.625000  0.125000  0.625000  1
  O  O8  1  0.695477  0.303226  0.303226  1
  O  O9  1  0.695477  0.303226  0.698070  1
  O  O10  1  0.994397  0.001868  0.001868  1
  O  O11  1  0.298444  0.702388  0.296781  1
  O  O12  1  0.695477  0.698070  0.303226  1
  O  O13  1  0.951556  0.547612  0.547612  1
  O  O14  1  0.298444  0.702388  0.702388  1
  O  O15  1  0.255603  0.248132  0.248132  1
  O  O16  1  0.951556  0.547612  0.953219  1
  O  O17  1  0.554523  0.946774  0.551930  1
  O  O18  1  0.554523  0.551930  0.946774  1
  O  O19  1  0.951556  0.953219  0.547612  1
  O  O20  1  0.554523  0.946774  0.946774  1
  O  O21  1  0.298444  0.296781  0.702388  1
