# generated using pymatgen
data_Pr4Al4OsPt3
_symmetry_space_group_name_H-M   'P 1'
_cell_length_a   4.47091200
_cell_length_b   7.15599932
_cell_length_c   8.00740247
_cell_angle_alpha   90.51140296
_cell_angle_beta   90.00000000
_cell_angle_gamma   90.00000000
_symmetry_Int_Tables_number   1
_chemical_formula_structural   Pr4Al4OsPt3
_chemical_formula_sum   'Pr4 Al4 Os1 Pt3'
_cell_volume   256.17737452
_cell_formula_units_Z   1
loop_
 _symmetry_equiv_pos_site_id
 _symmetry_equiv_pos_as_xyz
  1  'x, y, z'
loop_
 _atom_site_type_symbol
 _atom_site_label
 _atom_site_symmetry_multiplicity
 _atom_site_fract_x
 _atom_site_fract_y
 _atom_site_fract_z
 _atom_site_occupancy
  Pr  Pr0  1  0.250000  0.533771  0.821618  1
  Pr  Pr1  1  0.250000  0.029488  0.680188  1
  Pr  Pr2  1  0.750000  0.970708  0.311380  1
  Pr  Pr3  1  0.750000  0.477161  0.182785  1
  Al  Al4  1  0.250000  0.136898  0.063749  1
  Al  Al5  1  0.750000  0.356846  0.564912  1
  Al  Al6  1  0.250000  0.647333  0.432818  1
  Al  Al7  1  0.750000  0.852525  0.937783  1
  Os  Os8  1  0.250000  0.776167  0.117322  1
  Pt  Pt9  1  0.250000  0.283795  0.388173  1
  Pt  Pt10  1  0.750000  0.718385  0.613947  1
  Pt  Pt11  1  0.750000  0.216925  0.885325  1
