# generated using pymatgen
data_Er5Co16(P4Rh)3
_symmetry_space_group_name_H-M   'P 1'
_cell_length_a   12.02643100
_cell_length_b   12.02643009
_cell_length_c   3.69880300
_cell_angle_alpha   90.00000000
_cell_angle_beta   90.00000000
_cell_angle_gamma   119.99999975
_symmetry_Int_Tables_number   1
_chemical_formula_structural   Er5Co16(P4Rh)3
_chemical_formula_sum   'Er5 Co16 P12 Rh3'
_cell_volume   463.30323101
_cell_formula_units_Z   1
loop_
 _symmetry_equiv_pos_site_id
 _symmetry_equiv_pos_as_xyz
  1  'x, y, z'
loop_
 _atom_site_type_symbol
 _atom_site_label
 _atom_site_symmetry_multiplicity
 _atom_site_fract_x
 _atom_site_fract_y
 _atom_site_fract_z
 _atom_site_occupancy
  Er  Er0  1  0.816208  0.000000  0.500000  1
  Er  Er1  1  0.000000  0.816208  0.500000  1
  Er  Er2  1  0.183792  0.183792  0.500000  1
  Er  Er3  1  0.333333  0.666667  0.000000  1
  Er  Er4  1  0.666667  0.333333  0.000000  1
  Co  Co5  1  0.283495  0.000000  0.500000  1
  Co  Co6  1  0.000000  0.283495  0.500000  1
  Co  Co7  1  0.716505  0.716505  0.500000  1
  Co  Co8  1  0.624339  0.804160  0.000000  1
  Co  Co9  1  0.195840  0.820179  0.000000  1
  Co  Co10  1  0.179821  0.375661  0.000000  1
  Co  Co11  1  0.375661  0.179821  0.000000  1
  Co  Co12  1  0.804160  0.624339  0.000000  1
  Co  Co13  1  0.820179  0.195840  0.000000  1
  Co  Co14  1  0.516015  0.873962  0.500000  1
  Co  Co15  1  0.126038  0.642053  0.500000  1
  Co  Co16  1  0.357947  0.483985  0.500000  1
  Co  Co17  1  0.483985  0.357947  0.500000  1
  Co  Co18  1  0.873962  0.516015  0.500000  1
  Co  Co19  1  0.642053  0.126038  0.500000  1
  Co  Co20  1  0.000000  0.000000  0.000000  1
  P  P21  1  0.179896  0.000000  0.000000  1
  P  P22  1  0.000000  0.179896  0.000000  1
  P  P23  1  0.820104  0.820104  0.000000  1
  P  P24  1  0.520679  0.689071  0.500000  1
  P  P25  1  0.310929  0.831608  0.500000  1
  P  P26  1  0.168392  0.479321  0.500000  1
  P  P27  1  0.479321  0.168392  0.500000  1
  P  P28  1  0.689071  0.520679  0.500000  1
  P  P29  1  0.831608  0.310929  0.500000  1
  P  P30  1  0.639184  0.000000  0.000000  1
  P  P31  1  0.000000  0.639184  0.000000  1
  P  P32  1  0.360816  0.360816  0.000000  1
  Rh  Rh33  1  0.448526  0.000000  0.000000  1
  Rh  Rh34  1  0.000000  0.448526  0.000000  1
  Rh  Rh35  1  0.551474  0.551474  0.000000  1
