# generated using pymatgen
data_Hf9Th8Nb3Si16
_symmetry_space_group_name_H-M   'P 1'
_cell_length_a   7.35182582
_cell_length_b   7.35182554
_cell_length_c   13.53972127
_cell_angle_alpha   90.09763581
_cell_angle_beta   90.09763892
_cell_angle_gamma   90.03547868
_symmetry_Int_Tables_number   1
_chemical_formula_structural   Hf9Th8Nb3Si16
_chemical_formula_sum   'Hf9 Th8 Nb3 Si16'
_cell_volume   731.81074236
_cell_formula_units_Z   1
loop_
 _symmetry_equiv_pos_site_id
 _symmetry_equiv_pos_as_xyz
  1  'x, y, z'
loop_
 _atom_site_type_symbol
 _atom_site_label
 _atom_site_symmetry_multiplicity
 _atom_site_fract_x
 _atom_site_fract_y
 _atom_site_fract_z
 _atom_site_occupancy
  Hf  Hf0  1  0.673735  0.326265  0.750000  1
  Hf  Hf1  1  0.150767  0.994223  0.373908  1
  Hf  Hf2  1  0.849606  0.003533  0.876091  1
  Hf  Hf3  1  0.505262  0.653280  0.622716  1
  Hf  Hf4  1  0.346720  0.494738  0.877284  1
  Hf  Hf5  1  0.494460  0.349144  0.124891  1
  Hf  Hf6  1  0.650856  0.505540  0.375109  1
  Hf  Hf7  1  0.996467  0.150394  0.623909  1
  Hf  Hf8  1  0.005777  0.849233  0.126092  1
  Th  Th9  1  0.998925  0.343116  0.216022  1
  Th  Th10  1  0.003394  0.658207  0.716132  1
  Th  Th11  1  0.157131  0.499227  0.465867  1
  Th  Th12  1  0.500773  0.842869  0.034133  1
  Th  Th13  1  0.843426  0.502694  0.966947  1
  Th  Th14  1  0.497306  0.156574  0.533053  1
  Th  Th15  1  0.341793  0.996606  0.783868  1
  Th  Th16  1  0.656884  0.001075  0.283978  1
  Nb  Nb17  1  0.173751  0.172930  0.000671  1
  Nb  Nb18  1  0.827070  0.826249  0.499329  1
  Nb  Nb19  1  0.326405  0.673595  0.250000  1
  Si  Si20  1  0.366562  0.298545  0.315579  1
  Si  Si21  1  0.633494  0.702436  0.815584  1
  Si  Si22  1  0.201979  0.866140  0.565816  1
  Si  Si23  1  0.133860  0.798021  0.934184  1
  Si  Si24  1  0.798397  0.133615  0.066100  1
  Si  Si25  1  0.866385  0.201603  0.433900  1
  Si  Si26  1  0.297564  0.366506  0.684416  1
  Si  Si27  1  0.701455  0.633438  0.184421  1
  Si  Si28  1  0.291707  0.047968  0.185192  1
  Si  Si29  1  0.708749  0.951945  0.684509  1
  Si  Si30  1  0.452159  0.791313  0.434589  1
  Si  Si31  1  0.208687  0.547841  0.065411  1
  Si  Si32  1  0.546083  0.207674  0.935424  1
  Si  Si33  1  0.792326  0.453917  0.564576  1
  Si  Si34  1  0.048055  0.291251  0.815491  1
  Si  Si35  1  0.952032  0.708293  0.314808  1
