# generated using pymatgen
data_Tb5Dy9(HoBi2)6
_symmetry_space_group_name_H-M   'P 1'
_cell_length_a   8.28197249
_cell_length_b   9.53106608
_cell_length_c   12.06719809
_cell_angle_alpha   89.99340233
_cell_angle_beta   90.02730335
_cell_angle_gamma   90.00061633
_symmetry_Int_Tables_number   1
_chemical_formula_structural   Tb5Dy9(HoBi2)6
_chemical_formula_sum   'Tb5 Dy9 Ho6 Bi12'
_cell_volume   952.53656118
_cell_formula_units_Z   1
loop_
 _symmetry_equiv_pos_site_id
 _symmetry_equiv_pos_as_xyz
  1  'x, y, z'
loop_
 _atom_site_type_symbol
 _atom_site_label
 _atom_site_symmetry_multiplicity
 _atom_site_fract_x
 _atom_site_fract_y
 _atom_site_fract_z
 _atom_site_occupancy
  Tb  Tb0  1  0.193197  0.563734  0.441228  1
  Tb  Tb1  1  0.312642  0.250013  0.219023  1
  Tb  Tb2  1  0.812765  0.249962  0.280969  1
  Tb  Tb3  1  0.687322  0.750049  0.781054  1
  Tb  Tb4  1  0.187341  0.750153  0.719144  1
  Dy  Dy5  1  0.353071  0.750259  0.215598  1
  Dy  Dy6  1  0.852561  0.750268  0.284105  1
  Dy  Dy7  1  0.647353  0.249964  0.784298  1
  Dy  Dy8  1  0.147258  0.250105  0.715690  1
  Dy  Dy9  1  0.693294  0.564329  0.058774  1
  Dy  Dy10  1  0.193175  0.935811  0.441160  1
  Dy  Dy11  1  0.306672  0.064253  0.941241  1
  Dy  Dy12  1  0.806913  0.435585  0.558717  1
  Dy  Dy13  1  0.306741  0.435673  0.941230  1
  Ho  Ho14  1  0.806575  0.064348  0.558825  1
  Ho  Ho15  1  0.693351  0.935644  0.058742  1
  Ho  Ho16  1  0.475085  0.250017  0.488140  1
  Ho  Ho17  1  0.974830  0.250142  0.011755  1
  Ho  Ho18  1  0.525488  0.750068  0.511932  1
  Ho  Ho19  1  0.025117  0.749946  0.988188  1
  Bi  Bi20  1  0.407505  0.750045  0.957795  1
  Bi  Bi21  1  0.907025  0.750501  0.542386  1
  Bi  Bi22  1  0.592623  0.249819  0.042222  1
  Bi  Bi23  1  0.092128  0.248926  0.457985  1
  Bi  Bi24  1  0.565156  0.994941  0.325496  1
  Bi  Bi25  1  0.065009  0.505180  0.174249  1
  Bi  Bi26  1  0.434869  0.494892  0.674608  1
  Bi  Bi27  1  0.934786  0.005246  0.825577  1
  Bi  Bi28  1  0.434936  0.005233  0.674451  1
  Bi  Bi29  1  0.934731  0.494870  0.825633  1
  Bi  Bi30  1  0.565418  0.505132  0.325415  1
  Bi  Bi31  1  0.065065  0.994892  0.174370  1
