# generated using pymatgen
data_Al8Bi(SbO6)3
_symmetry_space_group_name_H-M   'P 1'
_cell_length_a   5.75302400
_cell_length_b   7.83508500
_cell_length_c   8.08098371
_cell_angle_alpha   90.13282605
_cell_angle_beta   90.00000000
_cell_angle_gamma   90.00000000
_symmetry_Int_Tables_number   1
_chemical_formula_structural   Al8Bi(SbO6)3
_chemical_formula_sum   'Al8 Bi1 Sb3 O18'
_cell_volume   364.25285318
_cell_formula_units_Z   1
loop_
 _symmetry_equiv_pos_site_id
 _symmetry_equiv_pos_as_xyz
  1  'x, y, z'
loop_
 _atom_site_type_symbol
 _atom_site_label
 _atom_site_symmetry_multiplicity
 _atom_site_fract_x
 _atom_site_fract_y
 _atom_site_fract_z
 _atom_site_occupancy
  Al  Al0  1  0.500000  0.152530  0.840988  1
  Al  Al1  1  0.500000  0.851803  0.160219  1
  Al  Al2  1  0.500000  0.648945  0.659859  1
  Al  Al3  1  0.500000  0.350301  0.339866  1
  Al  Al4  1  0.261195  0.999849  0.502099  1
  Al  Al5  1  0.738223  0.499839  0.001340  1
  Al  Al6  1  0.738805  0.999849  0.502099  1
  Al  Al7  1  0.261777  0.499839  0.001340  1
  Bi  Bi8  1  0.000000  0.170065  0.161897  1
  Sb  Sb9  1  0.000000  0.313614  0.668266  1
  Sb  Sb10  1  0.000000  0.682523  0.327144  1
  Sb  Sb11  1  0.000000  0.812740  0.827263  1
  O  O12  1  0.000000  0.358484  0.925286  1
  O  O13  1  0.000000  0.642069  0.071786  1
  O  O14  1  0.000000  0.855224  0.573479  1
  O  O15  1  0.000000  0.138689  0.435765  1
  O  O16  1  0.500000  0.368005  0.907972  1
  O  O17  1  0.500000  0.638763  0.087264  1
  O  O18  1  0.500000  0.864156  0.588897  1
  O  O19  1  0.500000  0.134459  0.411302  1
  O  O20  1  0.245914  0.869585  0.293372  1
  O  O21  1  0.248999  0.131796  0.707289  1
  O  O22  1  0.746730  0.370946  0.203607  1
  O  O23  1  0.750957  0.633072  0.795405  1
  O  O24  1  0.500000  0.008159  0.005823  1
  O  O25  1  0.500000  0.499296  0.500705  1
  O  O26  1  0.253270  0.370946  0.203607  1
  O  O27  1  0.249043  0.633072  0.795405  1
  O  O28  1  0.754086  0.869585  0.293372  1
  O  O29  1  0.751001  0.131796  0.707289  1
