# generated using pymatgen
data_HoMnBr
_symmetry_space_group_name_H-M   'P 1'
_cell_length_a   3.80438000
_cell_length_b   3.80437887
_cell_length_c   11.97768600
_cell_angle_alpha   90.00000000
_cell_angle_beta   90.00000000
_cell_angle_gamma   119.99999242
_symmetry_Int_Tables_number   1
_chemical_formula_structural   HoMnBr
_chemical_formula_sum   'Ho2 Mn2 Br2'
_cell_volume   150.13129802
_cell_formula_units_Z   2
loop_
 _symmetry_equiv_pos_site_id
 _symmetry_equiv_pos_as_xyz
  1  'x, y, z'
loop_
 _atom_site_type_symbol
 _atom_site_label
 _atom_site_symmetry_multiplicity
 _atom_site_fract_x
 _atom_site_fract_y
 _atom_site_fract_z
 _atom_site_occupancy
  Ho  Ho0  1  0.000000  0.000000  0.173326  1
  Ho  Ho1  1  0.000000  0.000000  0.826674  1
  Mn  Mn2  1  0.666667  0.333334  0.005884  1
  Mn  Mn3  1  0.333334  0.666668  0.994116  1
  Br  Br4  1  0.333334  0.666668  0.334230  1
  Br  Br5  1  0.666667  0.333334  0.665770  1
