# generated using pymatgen
data_Y4Ho12Cd4Co3Ru
_symmetry_space_group_name_H-M   'P 1'
_cell_length_a   9.55691824
_cell_length_b   9.52032427
_cell_length_c   9.51860934
_cell_angle_alpha   59.78286085
_cell_angle_beta   59.82376900
_cell_angle_gamma   59.83176143
_symmetry_Int_Tables_number   1
_chemical_formula_structural   Y4Ho12Cd4Co3Ru
_chemical_formula_sum   'Y4 Ho12 Cd4 Co3 Ru1'
_cell_volume   609.78753376
_cell_formula_units_Z   1
loop_
 _symmetry_equiv_pos_site_id
 _symmetry_equiv_pos_as_xyz
  1  'x, y, z'
loop_
 _atom_site_type_symbol
 _atom_site_label
 _atom_site_symmetry_multiplicity
 _atom_site_fract_x
 _atom_site_fract_y
 _atom_site_fract_z
 _atom_site_occupancy
  Y  Y0  1  0.937606  0.938056  0.562709  1
  Y  Y1  1  0.813484  0.188652  0.188624  1
  Y  Y2  1  0.938682  0.562096  0.562030  1
  Y  Y3  1  0.937581  0.562705  0.938135  1
  Ho  Ho4  1  0.814863  0.808173  0.186150  1
  Ho  Ho5  1  0.341303  0.348090  0.348387  1
  Ho  Ho6  1  0.561353  0.940418  0.940399  1
  Ho  Ho7  1  0.562007  0.939892  0.558934  1
  Ho  Ho8  1  0.188777  0.811247  0.810961  1
  Ho  Ho9  1  0.189921  0.186823  0.809928  1
  Ho  Ho10  1  0.342197  0.350043  0.959832  1
  Ho  Ho11  1  0.342042  0.959979  0.350214  1
  Ho  Ho12  1  0.815075  0.186127  0.807979  1
  Ho  Ho13  1  0.561963  0.558955  0.939892  1
  Ho  Ho14  1  0.189947  0.810073  0.186833  1
  Ho  Ho15  1  0.963942  0.346715  0.347129  1
  Cd  Cd16  1  0.580889  0.580643  0.257374  1
  Cd  Cd17  1  0.258243  0.580431  0.580425  1
  Cd  Cd18  1  0.580636  0.579956  0.579963  1
  Cd  Cd19  1  0.580885  0.257390  0.580632  1
  Co  Co20  1  0.141324  0.140756  0.140768  1
  Co  Co21  1  0.140334  0.579035  0.142303  1
  Co  Co22  1  0.140376  0.142303  0.579008  1
  Ru  Ru23  1  0.576575  0.141447  0.141395  1
