# generated using pymatgen
data_CeEr(TmSb5)2
_symmetry_space_group_name_H-M   'P 1'
_cell_length_a   4.20315200
_cell_length_b   13.17007919
_cell_length_c   14.60014500
_cell_angle_alpha   78.38582410
_cell_angle_beta   90.00000000
_cell_angle_gamma   90.00000000
_symmetry_Int_Tables_number   1
_chemical_formula_structural   CeEr(TmSb5)2
_chemical_formula_sum   'Ce2 Er2 Tm4 Sb20'
_cell_volume   791.65577459
_cell_formula_units_Z   2
loop_
 _symmetry_equiv_pos_site_id
 _symmetry_equiv_pos_as_xyz
  1  'x, y, z'
loop_
 _atom_site_type_symbol
 _atom_site_label
 _atom_site_symmetry_multiplicity
 _atom_site_fract_x
 _atom_site_fract_y
 _atom_site_fract_z
 _atom_site_occupancy
  Ce  Ce0  1  0.250000  0.953399  0.359862  1
  Ce  Ce1  1  0.750000  0.046601  0.640138  1
  Er  Er2  1  0.250000  0.664847  0.577099  1
  Er  Er3  1  0.750000  0.335153  0.422901  1
  Tm  Tm4  1  0.250000  0.395587  0.771218  1
  Tm  Tm5  1  0.750000  0.604413  0.228782  1
  Tm  Tm6  1  0.250000  0.660190  0.856914  1
  Tm  Tm7  1  0.750000  0.339810  0.143086  1
  Sb  Sb8  1  0.250000  0.145889  0.780611  1
  Sb  Sb9  1  0.750000  0.854111  0.219389  1
  Sb  Sb10  1  0.250000  0.147364  0.481128  1
  Sb  Sb11  1  0.750000  0.852636  0.518872  1
  Sb  Sb12  1  0.250000  0.153904  0.170086  1
  Sb  Sb13  1  0.750000  0.846096  0.829914  1
  Sb  Sb14  1  0.250000  0.420616  0.975703  1
  Sb  Sb15  1  0.750000  0.579384  0.024297  1
  Sb  Sb16  1  0.750000  0.030397  0.908320  1
  Sb  Sb17  1  0.250000  0.969603  0.091680  1
  Sb  Sb18  1  0.750000  0.145691  0.319747  1
  Sb  Sb19  1  0.250000  0.854309  0.680253  1
  Sb  Sb20  1  0.750000  0.278552  0.936963  1
  Sb  Sb21  1  0.250000  0.721448  0.063037  1
  Sb  Sb22  1  0.750000  0.286879  0.653792  1
  Sb  Sb23  1  0.250000  0.713121  0.346208  1
  Sb  Sb24  1  0.750000  0.575801  0.735105  1
  Sb  Sb25  1  0.250000  0.424199  0.264895  1
  Sb  Sb26  1  0.750000  0.572237  0.446884  1
  Sb  Sb27  1  0.250000  0.427763  0.553116  1
