# generated using pymatgen
data_ScCo3Ni2P3
_symmetry_space_group_name_H-M   'P 1'
_cell_length_a   3.60322600
_cell_length_b   10.11595500
_cell_length_c   11.74144400
_cell_angle_alpha   90.00000000
_cell_angle_beta   90.00000000
_cell_angle_gamma   90.00000000
_symmetry_Int_Tables_number   1
_chemical_formula_structural   ScCo3Ni2P3
_chemical_formula_sum   'Sc4 Co12 Ni8 P12'
_cell_volume   427.97648002
_cell_formula_units_Z   4
loop_
 _symmetry_equiv_pos_site_id
 _symmetry_equiv_pos_as_xyz
  1  'x, y, z'
loop_
 _atom_site_type_symbol
 _atom_site_label
 _atom_site_symmetry_multiplicity
 _atom_site_fract_x
 _atom_site_fract_y
 _atom_site_fract_z
 _atom_site_occupancy
  Sc  Sc0  1  0.250000  0.579782  0.705098  1
  Sc  Sc1  1  0.250000  0.920218  0.205098  1
  Sc  Sc2  1  0.750000  0.420218  0.294902  1
  Sc  Sc3  1  0.750000  0.079782  0.794902  1
  Co  Co4  1  0.250000  0.222550  0.176115  1
  Co  Co5  1  0.250000  0.277451  0.676115  1
  Co  Co6  1  0.750000  0.777451  0.823885  1
  Co  Co7  1  0.750000  0.722549  0.323885  1
  Co  Co8  1  0.250000  0.880018  0.699198  1
  Co  Co9  1  0.250000  0.619982  0.199198  1
  Co  Co10  1  0.750000  0.119982  0.300802  1
  Co  Co11  1  0.750000  0.380018  0.800802  1
  Co  Co12  1  0.250000  0.465273  0.931944  1
  Co  Co13  1  0.250000  0.034727  0.431944  1
  Co  Co14  1  0.750000  0.534727  0.068056  1
  Co  Co15  1  0.750000  0.965273  0.568056  1
  Ni  Ni16  1  0.250000  0.715897  0.991155  1
  Ni  Ni17  1  0.250000  0.784103  0.491155  1
  Ni  Ni18  1  0.750000  0.284103  0.008845  1
  Ni  Ni19  1  0.750000  0.215897  0.508845  1
  Ni  Ni20  1  0.250000  0.409621  0.482285  1
  Ni  Ni21  1  0.250000  0.090379  0.982285  1
  Ni  Ni22  1  0.750000  0.590379  0.517715  1
  Ni  Ni23  1  0.750000  0.909621  0.017715  1
  P  P24  1  0.250000  0.421341  0.115441  1
  P  P25  1  0.250000  0.078659  0.615441  1
  P  P26  1  0.750000  0.578659  0.884559  1
  P  P27  1  0.750000  0.921341  0.384559  1
  P  P28  1  0.250000  0.265990  0.864234  1
  P  P29  1  0.250000  0.234010  0.364234  1
  P  P30  1  0.750000  0.734010  0.135766  1
  P  P31  1  0.750000  0.765990  0.635766  1
  P  P32  1  0.250000  0.601824  0.386266  1
  P  P33  1  0.250000  0.898176  0.886266  1
  P  P34  1  0.750000  0.398176  0.613734  1
  P  P35  1  0.750000  0.101824  0.113734  1
