# generated using pymatgen
data_Li6Cd11SnPd6
_symmetry_space_group_name_H-M   'P 1'
_cell_length_a   4.69778401
_cell_length_b   6.45338100
_cell_length_c   14.03514203
_cell_angle_alpha   90.00016156
_cell_angle_beta   89.99269560
_cell_angle_gamma   90.00033944
_symmetry_Int_Tables_number   1
_chemical_formula_structural   Li6Cd11SnPd6
_chemical_formula_sum   'Li6 Cd11 Sn1 Pd6'
_cell_volume   425.49764398
_cell_formula_units_Z   1
loop_
 _symmetry_equiv_pos_site_id
 _symmetry_equiv_pos_as_xyz
  1  'x, y, z'
loop_
 _atom_site_type_symbol
 _atom_site_label
 _atom_site_symmetry_multiplicity
 _atom_site_fract_x
 _atom_site_fract_y
 _atom_site_fract_z
 _atom_site_occupancy
  Li  Li0  1  0.000001  0.995289  0.999999  1
  Li  Li1  1  0.499529  0.502414  0.167554  1
  Li  Li2  1  0.999539  0.999312  0.332811  1
  Li  Li3  1  0.500000  0.501511  0.500001  1
  Li  Li4  1  0.000465  0.999314  0.667191  1
  Li  Li5  1  0.500475  0.502418  0.832446  1
  Cd  Cd6  1  0.500001  0.744690  0.999998  1
  Cd  Cd7  1  0.999617  0.251002  0.170706  1
  Cd  Cd8  1  0.999605  0.748011  0.164052  1
  Cd  Cd9  1  0.499620  0.250229  0.333438  1
  Cd  Cd10  1  0.499588  0.752124  0.331121  1
  Cd  Cd11  1  0.000001  0.252048  0.500001  1
  Cd  Cd12  1  0.000001  0.749303  0.500001  1
  Cd  Cd13  1  0.500381  0.250228  0.666563  1
  Cd  Cd14  1  0.500414  0.752127  0.668882  1
  Cd  Cd15  1  0.000385  0.251005  0.829294  1
  Cd  Cd16  1  0.000399  0.748007  0.835947  1
  Sn  Sn17  1  0.499972  0.250597  0.999998  1
  Pd  Pd18  1  0.000000  0.482443  0.999999  1
  Pd  Pd19  1  0.499608  0.007540  0.161778  1
  Pd  Pd20  1  0.999610  0.501158  0.333375  1
  Pd  Pd21  1  0.500001  0.000543  0.500002  1
  Pd  Pd22  1  0.000392  0.501159  0.666626  1
  Pd  Pd23  1  0.500395  0.007535  0.838219  1
