# generated using pymatgen
data_Tb2Er8TlIn7(PdAu)2
_symmetry_space_group_name_H-M   'P 1'
_cell_length_a   3.62880900
_cell_length_b   8.14589912
_cell_length_c   18.28703700
_cell_angle_alpha   89.99037087
_cell_angle_beta   90.00000000
_cell_angle_gamma   90.00000000
_symmetry_Int_Tables_number   1
_chemical_formula_structural   Tb2Er8TlIn7(PdAu)2
_chemical_formula_sum   'Tb2 Er8 Tl1 In7 Pd2 Au2'
_cell_volume   540.56319722
_cell_formula_units_Z   1
loop_
 _symmetry_equiv_pos_site_id
 _symmetry_equiv_pos_as_xyz
  1  'x, y, z'
loop_
 _atom_site_type_symbol
 _atom_site_label
 _atom_site_symmetry_multiplicity
 _atom_site_fract_x
 _atom_site_fract_y
 _atom_site_fract_z
 _atom_site_occupancy
  Tb  Tb0  1  0.000000  0.499954  0.500003  1
  Tb  Tb1  1  0.000000  0.000596  0.000103  1
  Er  Er2  1  0.000000  0.745849  0.282437  1
  Er  Er3  1  0.000000  0.254060  0.717479  1
  Er  Er4  1  0.000000  0.767483  0.779067  1
  Er  Er5  1  0.000000  0.232608  0.220861  1
  Er  Er6  1  0.000000  0.617796  0.080731  1
  Er  Er7  1  0.000000  0.381273  0.919745  1
  Er  Er8  1  0.000000  0.886311  0.582620  1
  Er  Er9  1  0.000000  0.113638  0.417356  1
  Tl  Tl10  1  0.500000  0.711867  0.932445  1
  In  In11  1  0.500000  0.288991  0.067995  1
  In  In12  1  0.500000  0.791008  0.432398  1
  In  In13  1  0.500000  0.208815  0.567676  1
  In  In14  1  0.500000  0.584301  0.647784  1
  In  In15  1  0.500000  0.415839  0.352118  1
  In  In16  1  0.500000  0.920708  0.148919  1
  In  In17  1  0.500000  0.080746  0.850840  1
  Pd  Pd18  1  0.500000  0.975122  0.696061  1
  Pd  Pd19  1  0.500000  0.024634  0.304031  1
  Au  Au20  1  0.500000  0.526135  0.197100  1
  Au  Au21  1  0.500000  0.472265  0.802231  1
