# generated using pymatgen
data_Dy3InC3
_symmetry_space_group_name_H-M   'P 1'
_cell_length_a   3.57732600
_cell_length_b   7.10515400
_cell_length_c   10.34204900
_cell_angle_alpha   90.00000000
_cell_angle_beta   90.00000000
_cell_angle_gamma   90.00000000
_symmetry_Int_Tables_number   1
_chemical_formula_structural   Dy3InC3
_chemical_formula_sum   'Dy6 In2 C6'
_cell_volume   262.86853547
_cell_formula_units_Z   2
loop_
 _symmetry_equiv_pos_site_id
 _symmetry_equiv_pos_as_xyz
  1  'x, y, z'
loop_
 _atom_site_type_symbol
 _atom_site_label
 _atom_site_symmetry_multiplicity
 _atom_site_fract_x
 _atom_site_fract_y
 _atom_site_fract_z
 _atom_site_occupancy
  Dy  Dy0  1  0.500000  0.514239  0.210517  1
  Dy  Dy1  1  0.500000  0.485761  0.789483  1
  Dy  Dy2  1  0.500000  0.985761  0.210517  1
  Dy  Dy3  1  0.500000  0.014239  0.789483  1
  Dy  Dy4  1  0.000000  0.750000  0.460845  1
  Dy  Dy5  1  0.000000  0.250000  0.539155  1
  In  In6  1  0.000000  0.750000  0.994831  1
  In  In7  1  0.000000  0.250000  0.005169  1
  C  C8  1  0.500000  0.507516  0.563892  1
  C  C9  1  0.500000  0.492484  0.436108  1
  C  C10  1  0.500000  0.992484  0.563892  1
  C  C11  1  0.500000  0.007516  0.436108  1
  C  C12  1  0.000000  0.750000  0.220292  1
  C  C13  1  0.000000  0.250000  0.779708  1
