# generated using pymatgen
data_Ho2Er2OsRuC4
_symmetry_space_group_name_H-M   'P 1'
_cell_length_a   5.08237500
_cell_length_b   6.42537460
_cell_length_c   9.72818611
_cell_angle_alpha   89.78528701
_cell_angle_beta   90.00000000
_cell_angle_gamma   90.00000000
_symmetry_Int_Tables_number   1
_chemical_formula_structural   Ho2Er2OsRuC4
_chemical_formula_sum   'Ho4 Er4 Os2 Ru2 C8'
_cell_volume   317.68300279
_cell_formula_units_Z   2
loop_
 _symmetry_equiv_pos_site_id
 _symmetry_equiv_pos_as_xyz
  1  'x, y, z'
loop_
 _atom_site_type_symbol
 _atom_site_label
 _atom_site_symmetry_multiplicity
 _atom_site_fract_x
 _atom_site_fract_y
 _atom_site_fract_z
 _atom_site_occupancy
  Ho  Ho0  1  0.250000  0.527159  0.216796  1
  Ho  Ho1  1  0.750000  0.472841  0.783204  1
  Ho  Ho2  1  0.750000  0.973800  0.718851  1
  Ho  Ho3  1  0.250000  0.026200  0.281149  1
  Er  Er4  1  0.250000  0.681690  0.553933  1
  Er  Er5  1  0.750000  0.318310  0.446067  1
  Er  Er6  1  0.750000  0.822820  0.054322  1
  Er  Er7  1  0.250000  0.177180  0.945678  1
  Os  Os8  1  0.750000  0.777299  0.366461  1
  Os  Os9  1  0.250000  0.222701  0.633539  1
  Ru  Ru10  1  0.250000  0.721241  0.866771  1
  Ru  Ru11  1  0.750000  0.278759  0.133229  1
  C  C12  1  0.250000  0.457187  0.756072  1
  C  C13  1  0.750000  0.542813  0.243928  1
  C  C14  1  0.750000  0.041732  0.259460  1
  C  C15  1  0.250000  0.958268  0.740540  1
  C  C16  1  0.250000  0.828756  0.055276  1
  C  C17  1  0.750000  0.171244  0.944724  1
  C  C18  1  0.750000  0.673524  0.555143  1
  C  C19  1  0.250000  0.326476  0.444857  1
