# generated using pymatgen
data_Hf18TaTiMnRe6P
_symmetry_space_group_name_H-M   'P 1'
_cell_length_a   8.60572400
_cell_length_b   8.60572484
_cell_length_c   8.51383500
_cell_angle_alpha   90.00000000
_cell_angle_beta   90.00000000
_cell_angle_gamma   120.00000444
_symmetry_Int_Tables_number   1
_chemical_formula_structural   Hf18TaTiMnRe6P
_chemical_formula_sum   'Hf18 Ta1 Ti1 Mn1 Re6 P1'
_cell_volume   546.04786190
_cell_formula_units_Z   1
loop_
 _symmetry_equiv_pos_site_id
 _symmetry_equiv_pos_as_xyz
  1  'x, y, z'
loop_
 _atom_site_type_symbol
 _atom_site_label
 _atom_site_symmetry_multiplicity
 _atom_site_fract_x
 _atom_site_fract_y
 _atom_site_fract_z
 _atom_site_occupancy
  Hf  Hf0  1  0.202881  0.797119  0.442267  1
  Hf  Hf1  1  0.202881  0.405760  0.442267  1
  Hf  Hf2  1  0.594240  0.797119  0.442267  1
  Hf  Hf3  1  0.802806  0.197194  0.549565  1
  Hf  Hf4  1  0.802806  0.605612  0.549565  1
  Hf  Hf5  1  0.394388  0.197194  0.549565  1
  Hf  Hf6  1  0.804046  0.195954  0.949970  1
  Hf  Hf7  1  0.804046  0.608092  0.949970  1
  Hf  Hf8  1  0.391908  0.195954  0.949970  1
  Hf  Hf9  1  0.201205  0.798795  0.057071  1
  Hf  Hf10  1  0.201205  0.402407  0.057071  1
  Hf  Hf11  1  0.597593  0.798795  0.057071  1
  Hf  Hf12  1  0.540053  0.459947  0.249376  1
  Hf  Hf13  1  0.540053  0.080106  0.249376  1
  Hf  Hf14  1  0.919894  0.459947  0.249376  1
  Hf  Hf15  1  0.458977  0.541023  0.750473  1
  Hf  Hf16  1  0.458977  0.917953  0.750473  1
  Hf  Hf17  1  0.082047  0.541023  0.750473  1
  Ta  Ta18  1  0.000000  0.000000  0.499522  1
  Ti  Ti19  1  0.000000  0.000000  0.001106  1
  Mn  Mn20  1  0.333333  0.666667  0.249565  1
  Re  Re21  1  0.886537  0.113463  0.248938  1
  Re  Re22  1  0.886537  0.773074  0.248938  1
  Re  Re23  1  0.226926  0.113463  0.248938  1
  Re  Re24  1  0.112446  0.887554  0.751924  1
  Re  Re25  1  0.112446  0.224894  0.751924  1
  Re  Re26  1  0.775106  0.887554  0.751924  1
  P  P27  1  0.666667  0.333333  0.751054  1
