# generated using pymatgen
data_La6HgIrI6
_symmetry_space_group_name_H-M   'P 1'
_cell_length_a   11.29372958
_cell_length_b   11.29372904
_cell_length_c   11.00355081
_cell_angle_alpha   109.41836146
_cell_angle_beta   109.41835685
_cell_angle_gamma   110.61935048
_symmetry_Int_Tables_number   1
_chemical_formula_structural   La6HgIrI6
_chemical_formula_sum   'La12 Hg2 Ir2 I12'
_cell_volume   1066.16038223
_cell_formula_units_Z   2
loop_
 _symmetry_equiv_pos_site_id
 _symmetry_equiv_pos_as_xyz
  1  'x, y, z'
loop_
 _atom_site_type_symbol
 _atom_site_label
 _atom_site_symmetry_multiplicity
 _atom_site_fract_x
 _atom_site_fract_y
 _atom_site_fract_z
 _atom_site_occupancy
  La  La0  1  0.464773  0.491309  0.223981  1
  La  La1  1  0.767327  0.240791  0.276019  1
  La  La2  1  0.770988  0.029232  0.494073  1
  La  La3  1  0.223085  0.464842  0.494073  1
  La  La4  1  0.259209  0.732673  0.223981  1
  La  La5  1  0.035158  0.276915  0.005927  1
  La  La6  1  0.008691  0.035227  0.276019  1
  La  La7  1  0.470768  0.729012  0.005927  1
  La  La8  1  0.491046  0.241046  0.482093  1
  La  La9  1  0.020928  0.479072  0.750000  1
  La  La10  1  0.258954  0.008954  0.017907  1
  La  La11  1  0.229072  0.270928  0.750000  1
  Hg  Hg12  1  0.250259  0.249741  0.250000  1
  Hg  Hg13  1  0.499741  0.000259  0.250000  1
  Ir  Ir14  1  0.000648  0.250648  0.501296  1
  Ir  Ir15  1  0.249352  0.499352  0.998704  1
  I  I16  1  0.251265  0.760269  0.743298  1
  I  I17  1  0.516970  0.507967  0.756702  1
  I  I18  1  0.986587  0.744087  0.994106  1
  I  I19  1  0.739731  0.248735  0.756702  1
  I  I20  1  0.992033  0.983030  0.743298  1
  I  I21  1  0.249982  0.992481  0.505894  1
  I  I22  1  0.755913  0.513413  0.505894  1
  I  I23  1  0.507519  0.250018  0.994106  1
  I  I24  1  0.758349  0.741651  0.250000  1
  I  I25  1  0.743318  0.993318  0.986637  1
  I  I26  1  0.991651  0.508349  0.250000  1
  I  I27  1  0.506682  0.756682  0.513363  1
