# generated using pymatgen
data_Hf12Ta3I16
_symmetry_space_group_name_H-M   'P 1'
_cell_length_a   9.03309533
_cell_length_b   12.25849801
_cell_length_c   12.97647067
_cell_angle_alpha   117.11459205
_cell_angle_beta   100.95029906
_cell_angle_gamma   100.19975800
_symmetry_Int_Tables_number   1
_chemical_formula_structural   Hf12Ta3I16
_chemical_formula_sum   'Hf12 Ta3 I16'
_cell_volume   1197.18957933
_cell_formula_units_Z   1
loop_
 _symmetry_equiv_pos_site_id
 _symmetry_equiv_pos_as_xyz
  1  'x, y, z'
loop_
 _atom_site_type_symbol
 _atom_site_label
 _atom_site_symmetry_multiplicity
 _atom_site_fract_x
 _atom_site_fract_y
 _atom_site_fract_z
 _atom_site_occupancy
  Hf  Hf0  1  0.090319  0.272524  0.360349  1
  Hf  Hf1  1  0.909681  0.727476  0.639651  1
  Hf  Hf2  1  0.776905  0.536592  0.332132  1
  Hf  Hf3  1  0.223095  0.463408  0.667868  1
  Hf  Hf4  1  0.275835  0.727732  0.638998  1
  Hf  Hf5  1  0.724165  0.272268  0.361002  1
  Hf  Hf6  1  0.149369  0.536689  0.331704  1
  Hf  Hf7  1  0.850631  0.463311  0.668296  1
  Hf  Hf8  1  0.408395  0.363589  0.283767  1
  Hf  Hf9  1  0.591605  0.636411  0.716233  1
  Hf  Hf10  1  0.459656  0.312561  0.518013  1
  Hf  Hf11  1  0.540344  0.687439  0.481987  1
  Ta  Ta12  1  0.000000  0.500000  0.500000  1
  Ta  Ta13  1  0.336775  0.500087  0.499867  1
  Ta  Ta14  1  0.663226  0.499913  0.500133  1
  I  I15  1  0.393548  0.736501  0.880026  1
  I  I16  1  0.606452  0.263499  0.119974  1
  I  I17  1  0.187567  0.961530  0.781470  1
  I  I18  1  0.812433  0.038470  0.218530  1
  I  I19  1  0.336154  0.096097  0.252925  1
  I  I20  1  0.663846  0.903903  0.747075  1
  I  I21  1  0.565516  0.435466  0.794914  1
  I  I22  1  0.434484  0.564534  0.205086  1
  I  I23  1  0.303400  0.827418  0.464256  1
  I  I24  1  0.696600  0.172582  0.535744  1
  I  I25  1  0.164582  0.173565  0.535199  1
  I  I26  1  0.835418  0.826435  0.464801  1
  I  I27  1  0.925218  0.576239  0.161735  1
  I  I28  1  0.074782  0.423761  0.838265  1
  I  I29  1  0.926820  0.736543  0.880655  1
  I  I30  1  0.073180  0.263457  0.119345  1
