# generated using pymatgen
data_Na5Mn3(P3Ir4)4
_symmetry_space_group_name_H-M   'P 1'
_cell_length_a   12.56442800
_cell_length_b   12.56442728
_cell_length_c   3.97676300
_cell_angle_alpha   90.00000000
_cell_angle_beta   90.00000000
_cell_angle_gamma   120.00000190
_symmetry_Int_Tables_number   1
_chemical_formula_structural   Na5Mn3(P3Ir4)4
_chemical_formula_sum   'Na5 Mn3 P12 Ir16'
_cell_volume   543.68299785
_cell_formula_units_Z   1
loop_
 _symmetry_equiv_pos_site_id
 _symmetry_equiv_pos_as_xyz
  1  'x, y, z'
loop_
 _atom_site_type_symbol
 _atom_site_label
 _atom_site_symmetry_multiplicity
 _atom_site_fract_x
 _atom_site_fract_y
 _atom_site_fract_z
 _atom_site_occupancy
  Na  Na0  1  0.333333  0.666667  0.500000  1
  Na  Na1  1  0.666667  0.333333  0.500000  1
  Na  Na2  1  0.000000  0.818039  0.000000  1
  Na  Na3  1  0.181961  0.181961  0.000000  1
  Na  Na4  1  0.818039  0.000000  0.000000  1
  Mn  Mn5  1  0.000000  0.456483  0.500000  1
  Mn  Mn6  1  0.543517  0.543517  0.500000  1
  Mn  Mn7  1  0.456483  0.000000  0.500000  1
  P  P8  1  0.000000  0.633318  0.500000  1
  P  P9  1  0.366682  0.366682  0.500000  1
  P  P10  1  0.633318  0.000000  0.500000  1
  P  P11  1  0.516107  0.688327  0.000000  1
  P  P12  1  0.311673  0.827780  0.000000  1
  P  P13  1  0.172220  0.483893  0.000000  1
  P  P14  1  0.483893  0.172220  0.000000  1
  P  P15  1  0.688327  0.516107  0.000000  1
  P  P16  1  0.827780  0.311673  0.000000  1
  P  P17  1  0.000000  0.180541  0.500000  1
  P  P18  1  0.819459  0.819459  0.500000  1
  P  P19  1  0.180541  0.000000  0.500000  1
  Ir  Ir20  1  0.509646  0.871858  0.000000  1
  Ir  Ir21  1  0.128142  0.637789  0.000000  1
  Ir  Ir22  1  0.362211  0.490354  0.000000  1
  Ir  Ir23  1  0.490354  0.362211  0.000000  1
  Ir  Ir24  1  0.871858  0.509646  0.000000  1
  Ir  Ir25  1  0.637789  0.128142  0.000000  1
  Ir  Ir26  1  0.000000  0.284188  0.000000  1
  Ir  Ir27  1  0.715812  0.715812  0.000000  1
  Ir  Ir28  1  0.284188  0.000000  0.000000  1
  Ir  Ir29  1  0.621497  0.802379  0.500000  1
  Ir  Ir30  1  0.197621  0.819118  0.500000  1
  Ir  Ir31  1  0.180882  0.378503  0.500000  1
  Ir  Ir32  1  0.378503  0.180882  0.500000  1
  Ir  Ir33  1  0.802379  0.621497  0.500000  1
  Ir  Ir34  1  0.819118  0.197621  0.500000  1
  Ir  Ir35  1  0.000000  0.000000  0.500000  1
