# generated using pymatgen
data_TbTm2Co(P3Rh4)2
_symmetry_space_group_name_H-M   'P 1'
_cell_length_a   3.85462500
_cell_length_b   11.12220300
_cell_length_c   12.77740800
_cell_angle_alpha   90.00000000
_cell_angle_beta   90.00000000
_cell_angle_gamma   90.00000000
_symmetry_Int_Tables_number   1
_chemical_formula_structural   TbTm2Co(P3Rh4)2
_chemical_formula_sum   'Tb2 Tm4 Co2 P12 Rh16'
_cell_volume   547.79203580
_cell_formula_units_Z   2
loop_
 _symmetry_equiv_pos_site_id
 _symmetry_equiv_pos_as_xyz
  1  'x, y, z'
loop_
 _atom_site_type_symbol
 _atom_site_label
 _atom_site_symmetry_multiplicity
 _atom_site_fract_x
 _atom_site_fract_y
 _atom_site_fract_z
 _atom_site_occupancy
  Tb  Tb0  1  0.000000  0.500000  0.522044  1
  Tb  Tb1  1  0.500000  0.000000  0.477956  1
  Tm  Tm2  1  0.500000  0.814788  0.201782  1
  Tm  Tm3  1  0.500000  0.185212  0.201782  1
  Tm  Tm4  1  0.000000  0.685212  0.798218  1
  Tm  Tm5  1  0.000000  0.314788  0.798218  1
  Co  Co6  1  0.000000  0.500000  0.978452  1
  Co  Co7  1  0.500000  0.000000  0.021548  1
  P  P8  1  0.500000  0.500000  0.881134  1
  P  P9  1  0.000000  0.000000  0.118866  1
  P  P10  1  0.500000  0.500000  0.350973  1
  P  P11  1  0.000000  0.000000  0.649027  1
  P  P12  1  0.500000  0.315750  0.620366  1
  P  P13  1  0.500000  0.684250  0.620366  1
  P  P14  1  0.000000  0.184250  0.379634  1
  P  P15  1  0.000000  0.815750  0.379634  1
  P  P16  1  0.500000  0.852885  0.895951  1
  P  P17  1  0.500000  0.147115  0.895951  1
  P  P18  1  0.000000  0.647115  0.104049  1
  P  P19  1  0.000000  0.352885  0.104049  1
  Rh  Rh20  1  0.500000  0.500000  0.167586  1
  Rh  Rh21  1  0.000000  0.000000  0.832414  1
  Rh  Rh22  1  0.500000  0.500000  0.704349  1
  Rh  Rh23  1  0.000000  0.000000  0.295651  1
  Rh  Rh24  1  0.500000  0.336247  0.993114  1
  Rh  Rh25  1  0.500000  0.663753  0.993114  1
  Rh  Rh26  1  0.000000  0.163753  0.006886  1
  Rh  Rh27  1  0.000000  0.836247  0.006886  1
  Rh  Rh28  1  0.500000  0.293683  0.429855  1
  Rh  Rh29  1  0.500000  0.706317  0.429855  1
  Rh  Rh30  1  0.000000  0.206317  0.570145  1
  Rh  Rh31  1  0.000000  0.793683  0.570145  1
  Rh  Rh32  1  0.500000  0.872583  0.713045  1
  Rh  Rh33  1  0.500000  0.127417  0.713045  1
  Rh  Rh34  1  0.000000  0.627417  0.286955  1
  Rh  Rh35  1  0.000000  0.372583  0.286955  1
