# generated using pymatgen
data_Ce10In3Hg5Rh4
_symmetry_space_group_name_H-M   'P 1'
_cell_length_a   3.67915600
_cell_length_b   7.94473607
_cell_length_c   18.13349400
_cell_angle_alpha   89.86494466
_cell_angle_beta   90.00000000
_cell_angle_gamma   90.00000000
_symmetry_Int_Tables_number   1
_chemical_formula_structural   Ce10In3Hg5Rh4
_chemical_formula_sum   'Ce10 In3 Hg5 Rh4'
_cell_volume   530.03916782
_cell_formula_units_Z   1
loop_
 _symmetry_equiv_pos_site_id
 _symmetry_equiv_pos_as_xyz
  1  'x, y, z'
loop_
 _atom_site_type_symbol
 _atom_site_label
 _atom_site_symmetry_multiplicity
 _atom_site_fract_x
 _atom_site_fract_y
 _atom_site_fract_z
 _atom_site_occupancy
  Ce  Ce0  1  0.000000  0.497274  0.499985  1
  Ce  Ce1  1  0.000000  0.998319  0.000545  1
  Ce  Ce2  1  0.000000  0.747702  0.280095  1
  Ce  Ce3  1  0.000000  0.255738  0.719268  1
  Ce  Ce4  1  0.000000  0.751456  0.778274  1
  Ce  Ce5  1  0.000000  0.248644  0.219819  1
  Ce  Ce6  1  0.000000  0.624939  0.078453  1
  Ce  Ce7  1  0.000000  0.377011  0.921380  1
  Ce  Ce8  1  0.000000  0.873231  0.580715  1
  Ce  Ce9  1  0.000000  0.123230  0.420484  1
  In  In10  1  0.500000  0.426120  0.348935  1
  In  In11  1  0.500000  0.926257  0.151185  1
  In  In12  1  0.500000  0.073985  0.849466  1
  Hg  Hg13  1  0.500000  0.712789  0.927971  1
  Hg  Hg14  1  0.500000  0.288762  0.071071  1
  Hg  Hg15  1  0.500000  0.787794  0.429489  1
  Hg  Hg16  1  0.500000  0.207093  0.569842  1
  Hg  Hg17  1  0.500000  0.569643  0.649382  1
  Rh  Rh18  1  0.500000  0.542098  0.197001  1
  Rh  Rh19  1  0.500000  0.458241  0.805602  1
  Rh  Rh20  1  0.500000  0.968423  0.697993  1
  Rh  Rh21  1  0.500000  0.041251  0.303046  1
