# generated using pymatgen
data_Nd2TmGaGe
_symmetry_space_group_name_H-M   'P 1'
_cell_length_a   7.71082100
_cell_length_b   7.73733600
_cell_length_c   4.45263700
_cell_angle_alpha   90.00000000
_cell_angle_beta   90.00000000
_cell_angle_gamma   90.00000000
_symmetry_Int_Tables_number   1
_chemical_formula_structural   Nd2TmGaGe
_chemical_formula_sum   'Nd4 Tm2 Ga2 Ge2'
_cell_volume   265.64972408
_cell_formula_units_Z   2
loop_
 _symmetry_equiv_pos_site_id
 _symmetry_equiv_pos_as_xyz
  1  'x, y, z'
loop_
 _atom_site_type_symbol
 _atom_site_label
 _atom_site_symmetry_multiplicity
 _atom_site_fract_x
 _atom_site_fract_y
 _atom_site_fract_z
 _atom_site_occupancy
  Nd  Nd0  1  0.324763  0.176629  0.500000  1
  Nd  Nd1  1  0.824763  0.323370  0.500000  1
  Nd  Nd2  1  0.174993  0.675271  0.500000  1
  Nd  Nd3  1  0.674993  0.824728  0.500000  1
  Tm  Tm4  1  0.997374  0.001622  0.000000  1
  Tm  Tm5  1  0.497374  0.498378  0.000000  1
  Ga  Ga6  1  0.880589  0.620079  0.000000  1
  Ga  Ga7  1  0.380588  0.879921  0.000000  1
  Ge  Ge8  1  0.622281  0.122047  0.000000  1
  Ge  Ge9  1  0.122281  0.377952  0.000000  1
