# generated using pymatgen
data_Pr9U(Al2Ru3)2
_symmetry_space_group_name_H-M   'P 1'
_cell_length_a   8.66325272
_cell_length_b   8.53979600
_cell_length_c   8.53979633
_cell_angle_alpha   108.06893822
_cell_angle_beta   110.80165812
_cell_angle_gamma   108.95796156
_symmetry_Int_Tables_number   1
_chemical_formula_structural   Pr9U(Al2Ru3)2
_chemical_formula_sum   'Pr9 U1 Al4 Ru6'
_cell_volume   489.61751184
_cell_formula_units_Z   1
loop_
 _symmetry_equiv_pos_site_id
 _symmetry_equiv_pos_as_xyz
  1  'x, y, z'
loop_
 _atom_site_type_symbol
 _atom_site_label
 _atom_site_symmetry_multiplicity
 _atom_site_fract_x
 _atom_site_fract_y
 _atom_site_fract_z
 _atom_site_occupancy
  Pr  Pr0  1  0.750000  0.812878  0.062878  1
  Pr  Pr1  1  0.438847  0.251217  0.688640  1
  Pr  Pr2  1  0.687449  0.439502  0.248838  1
  Pr  Pr3  1  0.061153  0.749792  0.812370  1
  Pr  Pr4  1  0.812551  0.061389  0.752053  1
  Pr  Pr5  1  0.220015  0.222808  0.222713  1
  Pr  Pr6  1  0.506831  0.002597  0.287731  1
  Pr  Pr7  1  0.279985  0.502698  0.002793  1
  Pr  Pr8  1  0.993169  0.280899  0.495765  1
  U  U9  1  0.250000  0.695906  0.445906  1
  Al  Al10  1  0.596969  0.596477  0.587200  1
  Al  Al11  1  0.497860  0.005993  0.906610  1
  Al  Al12  1  0.903031  0.490230  0.999509  1
  Al  Al13  1  0.002140  0.908750  0.508133  1
  Ru  Ru14  1  0.250000  0.125914  0.875914  1
  Ru  Ru15  1  0.750000  0.382558  0.632558  1
  Ru  Ru16  1  0.867476  0.242680  0.122215  1
  Ru  Ru17  1  0.135195  0.835276  0.272891  1
  Ru  Ru18  1  0.632523  0.754739  0.375203  1
  Ru  Ru19  1  0.364805  0.637695  0.700082  1
