# generated using pymatgen
data_HoLu5(CdHg2)6
_symmetry_space_group_name_H-M   'P 1'
_cell_length_a   5.07860700
_cell_length_b   7.00932100
_cell_length_c   15.45414200
_cell_angle_alpha   90.00000000
_cell_angle_beta   89.99758570
_cell_angle_gamma   90.00000000
_symmetry_Int_Tables_number   1
_chemical_formula_structural   HoLu5(CdHg2)6
_chemical_formula_sum   'Ho1 Lu5 Cd6 Hg12'
_cell_volume   550.13015965
_cell_formula_units_Z   1
loop_
 _symmetry_equiv_pos_site_id
 _symmetry_equiv_pos_as_xyz
  1  'x, y, z'
loop_
 _atom_site_type_symbol
 _atom_site_label
 _atom_site_symmetry_multiplicity
 _atom_site_fract_x
 _atom_site_fract_y
 _atom_site_fract_z
 _atom_site_occupancy
  Ho  Ho0  1  0.500100  0.500000  0.833309  1
  Lu  Lu1  1  0.999994  0.000000  0.000195  1
  Lu  Lu2  1  0.499915  0.500000  0.166558  1
  Lu  Lu3  1  0.999912  0.000000  0.333358  1
  Lu  Lu4  1  0.499996  0.500000  0.500189  1
  Lu  Lu5  1  0.000083  0.000000  0.666436  1
  Cd  Cd6  1  0.000011  0.500000  0.000086  1
  Cd  Cd7  1  0.499903  0.000000  0.166777  1
  Cd  Cd8  1  0.999978  0.500000  0.333216  1
  Cd  Cd9  1  0.499994  0.000000  0.499944  1
  Cd  Cd10  1  0.000041  0.500000  0.666672  1
  Cd  Cd11  1  0.500080  0.000000  0.833254  1
  Hg  Hg12  1  0.499983  0.250203  0.001438  1
  Hg  Hg13  1  0.499983  0.749796  0.001438  1
  Hg  Hg14  1  0.999888  0.247813  0.166758  1
  Hg  Hg15  1  0.999888  0.752188  0.166758  1
  Hg  Hg16  1  0.499905  0.251772  0.333281  1
  Hg  Hg17  1  0.499905  0.748229  0.333281  1
  Hg  Hg18  1  0.000019  0.247914  0.499875  1
  Hg  Hg19  1  0.000019  0.752087  0.499875  1
  Hg  Hg20  1  0.500084  0.250266  0.665295  1
  Hg  Hg21  1  0.500084  0.749735  0.665295  1
  Hg  Hg22  1  0.000117  0.243971  0.833355  1
  Hg  Hg23  1  0.000117  0.756030  0.833355  1
