# generated using pymatgen
data_TbPr2Ho3CoBr10
_symmetry_space_group_name_H-M   'P 1'
_cell_length_a   7.45370524
_cell_length_b   9.32744746
_cell_length_c   9.32181897
_cell_angle_alpha   108.58706216
_cell_angle_beta   96.96704920
_cell_angle_gamma   103.87281913
_symmetry_Int_Tables_number   1
_chemical_formula_structural   TbPr2Ho3CoBr10
_chemical_formula_sum   'Tb1 Pr2 Ho3 Co1 Br10'
_cell_volume   582.43809353
_cell_formula_units_Z   1
loop_
 _symmetry_equiv_pos_site_id
 _symmetry_equiv_pos_as_xyz
  1  'x, y, z'
loop_
 _atom_site_type_symbol
 _atom_site_label
 _atom_site_symmetry_multiplicity
 _atom_site_fract_x
 _atom_site_fract_y
 _atom_site_fract_z
 _atom_site_occupancy
  Tb  Tb0  1  0.646670  0.872271  0.322265  1
  Pr  Pr1  1  0.034806  0.713291  0.409085  1
  Pr  Pr2  1  0.966426  0.287149  0.591748  1
  Ho  Ho3  1  0.880537  0.957221  0.744137  1
  Ho  Ho4  1  0.120998  0.043706  0.256593  1
  Ho  Ho5  1  0.350650  0.126454  0.676044  1
  Co  Co6  1  0.000056  0.000079  0.499939  1
  Br  Br7  1  0.463152  0.828474  0.587139  1
  Br  Br8  1  0.536528  0.173664  0.415599  1
  Br  Br9  1  0.909544  0.641269  0.681114  1
  Br  Br10  1  0.090622  0.359043  0.319247  1
  Br  Br11  1  0.244803  0.083358  0.954788  1
  Br  Br12  1  0.757824  0.917905  0.044049  1
  Br  Br13  1  0.360120  0.441945  0.771863  1
  Br  Br14  1  0.641800  0.555438  0.228644  1
  Br  Br15  1  0.769138  0.242948  0.849511  1
  Br  Br16  1  0.226326  0.755785  0.148235  1
