# generated using pymatgen
data_Tm20Ni2(BiSb)5
_symmetry_space_group_name_H-M   'P 1'
_cell_length_a   7.90721668
_cell_length_b   9.17986790
_cell_length_c   11.83309132
_cell_angle_alpha   90.00789789
_cell_angle_beta   89.91451629
_cell_angle_gamma   89.90923955
_symmetry_Int_Tables_number   1
_chemical_formula_structural   Tm20Ni2(BiSb)5
_chemical_formula_sum   'Tm20 Ni2 Bi5 Sb5'
_cell_volume   858.92897867
_cell_formula_units_Z   1
loop_
 _symmetry_equiv_pos_site_id
 _symmetry_equiv_pos_as_xyz
  1  'x, y, z'
loop_
 _atom_site_type_symbol
 _atom_site_label
 _atom_site_symmetry_multiplicity
 _atom_site_fract_x
 _atom_site_fract_y
 _atom_site_fract_z
 _atom_site_occupancy
  Tm  Tm0  1  0.431382  0.182136  0.566433  1
  Tm  Tm1  1  0.566863  0.818681  0.063014  1
  Tm  Tm2  1  0.072306  0.720427  0.433549  1
  Tm  Tm3  1  0.929813  0.278923  0.932807  1
  Tm  Tm4  1  0.069844  0.280278  0.438616  1
  Tm  Tm5  1  0.930976  0.720057  0.938494  1
  Tm  Tm6  1  0.430227  0.819970  0.563300  1
  Tm  Tm7  1  0.568742  0.180912  0.061239  1
  Tm  Tm8  1  0.573893  0.492120  0.775212  1
  Tm  Tm9  1  0.422957  0.504117  0.274612  1
  Tm  Tm10  1  0.911126  0.996476  0.203056  1
  Tm  Tm11  1  0.090545  0.006528  0.704993  1
  Tm  Tm12  1  0.266837  0.500046  0.994036  1
  Tm  Tm13  1  0.734057  0.497316  0.495819  1
  Tm  Tm14  1  0.201270  0.999809  0.998373  1
  Tm  Tm15  1  0.800639  0.002219  0.501011  1
  Tm  Tm16  1  0.093749  0.493786  0.714643  1
  Tm  Tm17  1  0.908785  0.503359  0.213497  1
  Tm  Tm18  1  0.374876  0.996602  0.304371  1
  Tm  Tm19  1  0.621630  0.006171  0.804262  1
  Ni  Ni20  1  0.168410  0.000232  0.486265  1
  Ni  Ni21  1  0.831938  0.000064  0.985395  1
  Bi  Bi22  1  0.815281  0.740315  0.674399  1
  Bi  Bi23  1  0.184838  0.259125  0.173591  1
  Bi  Bi24  1  0.680522  0.241456  0.324218  1
  Bi  Bi25  1  0.319171  0.757923  0.824188  1
  Bi  Bi26  1  0.681074  0.758862  0.326149  1
  Sb  Sb27  1  0.317115  0.241805  0.826928  1
  Sb  Sb28  1  0.814478  0.259226  0.672235  1
  Sb  Sb29  1  0.185895  0.740737  0.171434  1
  Sb  Sb30  1  0.346015  0.500518  0.526855  1
  Sb  Sb31  1  0.654746  0.499805  0.027006  1
