# generated using pymatgen
data_Dy4Y2TcBi2
_symmetry_space_group_name_H-M   'P 1'
_cell_length_a   8.33046326
_cell_length_b   8.33046286
_cell_length_c   4.29048900
_cell_angle_alpha   90.00000000
_cell_angle_beta   90.00000000
_cell_angle_gamma   120.22640395
_symmetry_Int_Tables_number   1
_chemical_formula_structural   Dy4Y2TcBi2
_chemical_formula_sum   'Dy4 Y2 Tc1 Bi2'
_cell_volume   257.26480964
_cell_formula_units_Z   1
loop_
 _symmetry_equiv_pos_site_id
 _symmetry_equiv_pos_as_xyz
  1  'x, y, z'
loop_
 _atom_site_type_symbol
 _atom_site_label
 _atom_site_symmetry_multiplicity
 _atom_site_fract_x
 _atom_site_fract_y
 _atom_site_fract_z
 _atom_site_occupancy
  Dy  Dy0  1  0.231998  0.000490  0.500000  1
  Dy  Dy1  1  0.000490  0.231998  0.500000  1
  Dy  Dy2  1  0.767754  0.767754  0.500000  1
  Dy  Dy3  1  0.391879  0.391879  0.000000  1
  Y  Y4  1  0.607191  0.000141  0.000000  1
  Y  Y5  1  0.000141  0.607191  0.000000  1
  Tc  Tc6  1  0.000678  0.000678  0.000000  1
  Bi  Bi7  1  0.333216  0.666653  0.500000  1
  Bi  Bi8  1  0.666653  0.333216  0.500000  1
