# generated using pymatgen
data_YbY3(Si5Os3)2
_symmetry_space_group_name_H-M   'P 1'
_cell_length_a   8.14862376
_cell_length_b   8.15746480
_cell_length_c   5.79147666
_cell_angle_alpha   70.41497449
_cell_angle_beta   70.51520265
_cell_angle_gamma   94.00629674
_symmetry_Int_Tables_number   1
_chemical_formula_structural   YbY3(Si5Os3)2
_chemical_formula_sum   'Yb1 Y3 Si10 Os6'
_cell_volume   334.69796586
_cell_formula_units_Z   1
loop_
 _symmetry_equiv_pos_site_id
 _symmetry_equiv_pos_as_xyz
  1  'x, y, z'
loop_
 _atom_site_type_symbol
 _atom_site_label
 _atom_site_symmetry_multiplicity
 _atom_site_fract_x
 _atom_site_fract_y
 _atom_site_fract_z
 _atom_site_occupancy
  Yb  Yb0  1  0.601450  0.868676  0.256960  1
  Y  Y1  1  0.868027  0.602905  0.752141  1
  Y  Y2  1  0.398610  0.132398  0.746065  1
  Y  Y3  1  0.131679  0.396790  0.247624  1
  Si  Si4  1  0.066422  0.261765  0.834287  1
  Si  Si5  1  0.736989  0.933128  0.669500  1
  Si  Si6  1  0.931311  0.739441  0.164752  1
  Si  Si7  1  0.262321  0.066395  0.333937  1
  Si  Si8  1  0.206845  0.792483  0.749956  1
  Si  Si9  1  0.792016  0.205597  0.250489  1
  Si  Si10  1  0.513153  0.488515  0.747632  1
  Si  Si11  1  0.490531  0.514028  0.247913  1
  Si  Si12  1  0.773355  0.224130  0.752243  1
  Si  Si13  1  0.225899  0.774081  0.248292  1
  Os  Os14  1  0.255794  0.543259  0.629498  1
  Os  Os15  1  0.455947  0.742248  0.870175  1
  Os  Os16  1  0.745270  0.455986  0.369037  1
  Os  Os17  1  0.542681  0.256888  0.130901  1
  Os  Os18  1  0.003159  0.998818  0.748617  1
  Os  Os19  1  0.998543  0.002469  0.249978  1
