# generated using pymatgen
data_Gd8ErPt6
_symmetry_space_group_name_H-M   'P 1'
_cell_length_a   7.61047936
_cell_length_b   7.61047924
_cell_length_c   7.61047900
_cell_angle_alpha   71.72336740
_cell_angle_beta   71.72336772
_cell_angle_gamma   71.72336955
_symmetry_Int_Tables_number   1
_chemical_formula_structural   Gd8ErPt6
_chemical_formula_sum   'Gd8 Er1 Pt6'
_cell_volume   385.95071410
_cell_formula_units_Z   1
loop_
 _symmetry_equiv_pos_site_id
 _symmetry_equiv_pos_as_xyz
  1  'x, y, z'
loop_
 _atom_site_type_symbol
 _atom_site_label
 _atom_site_symmetry_multiplicity
 _atom_site_fract_x
 _atom_site_fract_y
 _atom_site_fract_z
 _atom_site_occupancy
  Gd  Gd0  1  0.799425  0.799425  0.799425  1
  Gd  Gd1  1  0.200575  0.200575  0.200575  1
  Gd  Gd2  1  0.327304  0.608555  0.840084  1
  Gd  Gd3  1  0.840084  0.327304  0.608555  1
  Gd  Gd4  1  0.608555  0.840084  0.327304  1
  Gd  Gd5  1  0.672696  0.391445  0.159916  1
  Gd  Gd6  1  0.159916  0.672696  0.391445  1
  Gd  Gd7  1  0.391445  0.159916  0.672696  1
  Er  Er8  1  0.000000  0.000000  0.000000  1
  Pt  Pt9  1  0.162161  0.959858  0.594189  1
  Pt  Pt10  1  0.594189  0.162161  0.959858  1
  Pt  Pt11  1  0.959858  0.594189  0.162161  1
  Pt  Pt12  1  0.837839  0.040142  0.405811  1
  Pt  Pt13  1  0.405811  0.837839  0.040142  1
  Pt  Pt14  1  0.040142  0.405811  0.837839  1
