# generated using pymatgen
data_Sc4CoNi7(PRu)12
_symmetry_space_group_name_H-M   'P 1'
_cell_length_a   3.75354200
_cell_length_b   10.65720277
_cell_length_c   11.98107208
_cell_angle_alpha   90.15548601
_cell_angle_beta   90.00000000
_cell_angle_gamma   90.00000000
_symmetry_Int_Tables_number   1
_chemical_formula_structural   Sc4CoNi7(PRu)12
_chemical_formula_sum   'Sc4 Co1 Ni7 P12 Ru12'
_cell_volume   479.26817388
_cell_formula_units_Z   1
loop_
 _symmetry_equiv_pos_site_id
 _symmetry_equiv_pos_as_xyz
  1  'x, y, z'
loop_
 _atom_site_type_symbol
 _atom_site_label
 _atom_site_symmetry_multiplicity
 _atom_site_fract_x
 _atom_site_fract_y
 _atom_site_fract_z
 _atom_site_occupancy
  Sc  Sc0  1  0.250000  0.588941  0.704872  1
  Sc  Sc1  1  0.250000  0.910526  0.205837  1
  Sc  Sc2  1  0.750000  0.410826  0.295460  1
  Sc  Sc3  1  0.750000  0.089258  0.794815  1
  Co  Co4  1  0.750000  0.963339  0.573174  1
  Ni  Ni5  1  0.250000  0.890755  0.700056  1
  Ni  Ni6  1  0.250000  0.606814  0.199811  1
  Ni  Ni7  1  0.750000  0.105496  0.300088  1
  Ni  Ni8  1  0.750000  0.392964  0.799772  1
  Ni  Ni9  1  0.250000  0.462247  0.928559  1
  Ni  Ni10  1  0.250000  0.038474  0.428983  1
  Ni  Ni11  1  0.750000  0.537623  0.071340  1
  P  P12  1  0.250000  0.419385  0.112978  1
  P  P13  1  0.250000  0.076874  0.613268  1
  P  P14  1  0.750000  0.580322  0.886813  1
  P  P15  1  0.750000  0.920036  0.390132  1
  P  P16  1  0.250000  0.266563  0.873530  1
  P  P17  1  0.250000  0.233891  0.373735  1
  P  P18  1  0.750000  0.733362  0.126288  1
  P  P19  1  0.750000  0.768523  0.625294  1
  P  P20  1  0.250000  0.599547  0.387628  1
  P  P21  1  0.250000  0.900532  0.888366  1
  P  P22  1  0.750000  0.401430  0.612175  1
  P  P23  1  0.750000  0.098523  0.112462  1
  Ru  Ru24  1  0.250000  0.708806  0.987460  1
  Ru  Ru25  1  0.250000  0.792622  0.487448  1
  Ru  Ru26  1  0.750000  0.290538  0.011686  1
  Ru  Ru27  1  0.750000  0.211489  0.508733  1
  Ru  Ru28  1  0.250000  0.408237  0.485089  1
  Ru  Ru29  1  0.250000  0.092652  0.983629  1
  Ru  Ru30  1  0.750000  0.593873  0.515709  1
  Ru  Ru31  1  0.750000  0.906902  0.015819  1
  Ru  Ru32  1  0.250000  0.222245  0.182913  1
  Ru  Ru33  1  0.250000  0.275576  0.682159  1
  Ru  Ru34  1  0.750000  0.777463  0.816710  1
  Ru  Ru35  1  0.750000  0.723347  0.317209  1
