# generated using pymatgen
data_Cs5(TiSe3)2
_symmetry_space_group_name_H-M   'P 1'
_cell_length_a   8.46085842
_cell_length_b   9.17859745
_cell_length_c   18.62639600
_cell_angle_alpha   89.93501739
_cell_angle_beta   100.33588041
_cell_angle_gamma   122.83466454
_symmetry_Int_Tables_number   1
_chemical_formula_structural   Cs5(TiSe3)2
_chemical_formula_sum   'Cs10 Ti4 Se12'
_cell_volume   1187.56953592
_cell_formula_units_Z   2
loop_
 _symmetry_equiv_pos_site_id
 _symmetry_equiv_pos_as_xyz
  1  'x, y, z'
loop_
 _atom_site_type_symbol
 _atom_site_label
 _atom_site_symmetry_multiplicity
 _atom_site_fract_x
 _atom_site_fract_y
 _atom_site_fract_z
 _atom_site_occupancy
  Cs  Cs0  1  0.117081  0.797530  0.997083  1
  Cs  Cs1  1  0.882968  0.680477  0.502853  1
  Cs  Cs2  1  0.880384  0.200484  0.002819  1
  Cs  Cs3  1  0.119809  0.320490  0.497132  1
  Cs  Cs4  1  0.314590  0.075633  0.721129  1
  Cs  Cs5  1  0.685715  0.760882  0.778945  1
  Cs  Cs6  1  0.685383  0.922136  0.279806  1
  Cs  Cs7  1  0.314373  0.236664  0.220100  1
  Cs  Cs8  1  0.999693  0.380604  0.749863  1
  Cs  Cs9  1  0.000149  0.618880  0.249977  1
  Ti  Ti10  1  0.544017  0.920557  0.569849  1
  Ti  Ti11  1  0.455903  0.376612  0.930235  1
  Ti  Ti12  1  0.457533  0.081316  0.430279  1
  Ti  Ti13  1  0.542589  0.623644  0.069716  1
  Se  Se14  1  0.860648  0.993898  0.624726  1
  Se  Se15  1  0.139271  0.134055  0.875212  1
  Se  Se16  1  0.140881  0.007656  0.375199  1
  Se  Se17  1  0.859288  0.866325  0.124713  1
  Se  Se18  1  0.306226  0.716003  0.635340  1
  Se  Se19  1  0.693570  0.409126  0.864892  1
  Se  Se20  1  0.695386  0.285419  0.364743  1
  Se  Se21  1  0.304973  0.590429  0.135241  1
  Se  Se22  1  0.548579  0.194471  0.562240  1
  Se  Se23  1  0.451785  0.646280  0.937736  1
  Se  Se24  1  0.452031  0.806535  0.438162  1
  Se  Se25  1  0.547174  0.353897  0.062008  1
