# generated using pymatgen
data_Dy3PaCdRu
_symmetry_space_group_name_H-M   'P 1'
_cell_length_a   9.63501460
_cell_length_b   9.63501399
_cell_length_c   9.63501400
_cell_angle_alpha   59.99999311
_cell_angle_beta   59.99999518
_cell_angle_gamma   59.99998877
_symmetry_Int_Tables_number   1
_chemical_formula_structural   Dy3PaCdRu
_chemical_formula_sum   'Dy12 Pa4 Cd4 Ru4'
_cell_volume   632.47301902
_cell_formula_units_Z   4
loop_
 _symmetry_equiv_pos_site_id
 _symmetry_equiv_pos_as_xyz
  1  'x, y, z'
loop_
 _atom_site_type_symbol
 _atom_site_label
 _atom_site_symmetry_multiplicity
 _atom_site_fract_x
 _atom_site_fract_y
 _atom_site_fract_z
 _atom_site_occupancy
  Dy  Dy0  1  0.561728  0.561728  0.938271  1
  Dy  Dy1  1  0.938274  0.561723  0.938274  1
  Dy  Dy2  1  0.561723  0.938274  0.938274  1
  Dy  Dy3  1  0.938274  0.938274  0.561723  1
  Dy  Dy4  1  0.561728  0.938271  0.561728  1
  Dy  Dy5  1  0.938271  0.561728  0.561728  1
  Dy  Dy6  1  0.190041  0.190041  0.809959  1
  Dy  Dy7  1  0.809956  0.190043  0.809956  1
  Dy  Dy8  1  0.190042  0.809957  0.809956  1
  Dy  Dy9  1  0.809956  0.809957  0.190043  1
  Dy  Dy10  1  0.190040  0.809959  0.190040  1
  Dy  Dy11  1  0.809959  0.190041  0.190041  1
  Pa  Pa12  1  0.344871  0.344871  0.965397  1
  Pa  Pa13  1  0.344871  0.965397  0.344871  1
  Pa  Pa14  1  0.965397  0.344871  0.344871  1
  Pa  Pa15  1  0.344873  0.344873  0.344873  1
  Cd  Cd16  1  0.581089  0.581089  0.256735  1
  Cd  Cd17  1  0.581089  0.256735  0.581089  1
  Cd  Cd18  1  0.256735  0.581089  0.581089  1
  Cd  Cd19  1  0.581087  0.581087  0.581087  1
  Ru  Ru20  1  0.147762  0.147762  0.556712  1
  Ru  Ru21  1  0.147762  0.556712  0.147762  1
  Ru  Ru22  1  0.556712  0.147762  0.147762  1
  Ru  Ru23  1  0.147756  0.147756  0.147756  1
