# generated using pymatgen
data_Er4Sn5AsIr7
_symmetry_space_group_name_H-M   'P 1'
_cell_length_a   7.52210075
_cell_length_b   7.52210182
_cell_length_c   7.52210167
_cell_angle_alpha   109.45581424
_cell_angle_beta   109.47892000
_cell_angle_gamma   109.47892282
_symmetry_Int_Tables_number   1
_chemical_formula_structural   Er4Sn5AsIr7
_chemical_formula_sum   'Er4 Sn5 As1 Ir7'
_cell_volume   327.63905942
_cell_formula_units_Z   1
loop_
 _symmetry_equiv_pos_site_id
 _symmetry_equiv_pos_as_xyz
  1  'x, y, z'
loop_
 _atom_site_type_symbol
 _atom_site_label
 _atom_site_symmetry_multiplicity
 _atom_site_fract_x
 _atom_site_fract_y
 _atom_site_fract_z
 _atom_site_occupancy
  Er  Er0  1  0.000000  0.992136  0.526008  1
  Er  Er1  1  0.000000  0.526008  0.992136  1
  Er  Er2  1  0.466128  0.992136  0.992136  1
  Er  Er3  1  0.533872  0.526008  0.526008  1
  Sn  Sn4  1  0.686662  0.699770  0.013108  1
  Sn  Sn5  1  0.313338  0.013108  0.326445  1
  Sn  Sn6  1  0.000000  0.291384  0.291384  1
  Sn  Sn7  1  0.313338  0.326445  0.013108  1
  Sn  Sn8  1  0.686662  0.013108  0.699770  1
  As  As9  1  0.000000  0.657338  0.657338  1
  Ir  Ir10  1  0.754521  0.249277  0.494755  1
  Ir  Ir11  1  0.754521  0.494755  0.249277  1
  Ir  Ir12  1  0.500000  0.259056  0.759056  1
  Ir  Ir13  1  0.245479  0.494755  0.740234  1
  Ir  Ir14  1  0.245479  0.740234  0.494755  1
  Ir  Ir15  1  0.500000  0.759056  0.259056  1
  Ir  Ir16  1  0.000000  0.965426  0.965426  1
