# generated using pymatgen
data_Li2Re(NiP)3
_symmetry_space_group_name_H-M   'P 1'
_cell_length_a   5.84279737
_cell_length_b   5.84279765
_cell_length_c   3.59630100
_cell_angle_alpha   90.00000000
_cell_angle_beta   90.00000000
_cell_angle_gamma   117.18376035
_symmetry_Int_Tables_number   1
_chemical_formula_structural   Li2Re(NiP)3
_chemical_formula_sum   'Li2 Re1 Ni3 P3'
_cell_volume   109.21091973
_cell_formula_units_Z   1
loop_
 _symmetry_equiv_pos_site_id
 _symmetry_equiv_pos_as_xyz
  1  'x, y, z'
loop_
 _atom_site_type_symbol
 _atom_site_label
 _atom_site_symmetry_multiplicity
 _atom_site_fract_x
 _atom_site_fract_y
 _atom_site_fract_z
 _atom_site_occupancy
  Li  Li0  1  0.578254  0.992819  0.000000  1
  Li  Li1  1  0.992819  0.578254  0.000000  1
  Re  Re2  1  0.408130  0.408130  0.000000  1
  Ni  Ni3  1  0.251876  0.995453  0.500000  1
  Ni  Ni4  1  0.995453  0.251876  0.500000  1
  Ni  Ni5  1  0.763335  0.763335  0.500000  1
  P  P6  1  0.014706  0.014706  0.000000  1
  P  P7  1  0.338381  0.657047  0.500000  1
  P  P8  1  0.657047  0.338381  0.500000  1
