# generated using pymatgen
data_Nd12Ga4Ge4Ru5Rh3
_symmetry_space_group_name_H-M   'P 1'
_cell_length_a   5.70615437
_cell_length_b   8.07548526
_cell_length_c   13.74649375
_cell_angle_alpha   90.16934618
_cell_angle_beta   90.13523045
_cell_angle_gamma   90.28065526
_symmetry_Int_Tables_number   1
_chemical_formula_structural   Nd12Ga4Ge4Ru5Rh3
_chemical_formula_sum   'Nd12 Ga4 Ge4 Ru5 Rh3'
_cell_volume   633.42580475
_cell_formula_units_Z   1
loop_
 _symmetry_equiv_pos_site_id
 _symmetry_equiv_pos_as_xyz
  1  'x, y, z'
loop_
 _atom_site_type_symbol
 _atom_site_label
 _atom_site_symmetry_multiplicity
 _atom_site_fract_x
 _atom_site_fract_y
 _atom_site_fract_z
 _atom_site_occupancy
  Nd  Nd0  1  0.631636  0.256162  0.252342  1
  Nd  Nd1  1  0.365314  0.746257  0.749336  1
  Nd  Nd2  1  0.364019  0.760171  0.250050  1
  Nd  Nd3  1  0.636500  0.238952  0.750254  1
  Nd  Nd4  1  0.149133  0.393173  0.099202  1
  Nd  Nd5  1  0.850320  0.606709  0.900946  1
  Nd  Nd6  1  0.849452  0.603714  0.597968  1
  Nd  Nd7  1  0.848012  0.899686  0.401009  1
  Nd  Nd8  1  0.150390  0.400034  0.399870  1
  Nd  Nd9  1  0.152695  0.098023  0.598119  1
  Nd  Nd10  1  0.152852  0.097307  0.901245  1
  Nd  Nd11  1  0.847949  0.903528  0.099201  1
  Ga  Ga12  1  0.632713  0.248646  0.999210  1
  Ga  Ga13  1  0.367210  0.751450  0.000462  1
  Ga  Ga14  1  0.372656  0.749990  0.498839  1
  Ga  Ga15  1  0.630653  0.249190  0.500395  1
  Ge  Ge16  1  0.134439  0.108307  0.250647  1
  Ge  Ge17  1  0.864730  0.892074  0.749530  1
  Ge  Ge18  1  0.860838  0.608340  0.249472  1
  Ge  Ge19  1  0.136698  0.391557  0.750686  1
  Ru  Ru20  1  0.359216  0.034196  0.092187  1
  Ru  Ru21  1  0.641445  0.965113  0.907712  1
  Ru  Ru22  1  0.641018  0.968405  0.592743  1
  Ru  Ru23  1  0.638417  0.527955  0.407641  1
  Ru  Ru24  1  0.358796  0.031858  0.407614  1
  Rh  Rh25  1  0.362960  0.469255  0.594087  1
  Rh  Rh26  1  0.363725  0.469862  0.907541  1
  Rh  Rh27  1  0.636214  0.530088  0.091694  1
