# generated using pymatgen
data_Tb2Nd(GaRh)2
_symmetry_space_group_name_H-M   'P 1'
_cell_length_a   5.59631700
_cell_length_b   8.04279300
_cell_length_c   13.57054700
_cell_angle_alpha   90.00000000
_cell_angle_beta   90.00000000
_cell_angle_gamma   90.00000000
_symmetry_Int_Tables_number   1
_chemical_formula_structural   Tb2Nd(GaRh)2
_chemical_formula_sum   'Tb8 Nd4 Ga8 Rh8'
_cell_volume   610.81058093
_cell_formula_units_Z   4
loop_
 _symmetry_equiv_pos_site_id
 _symmetry_equiv_pos_as_xyz
  1  'x, y, z'
loop_
 _atom_site_type_symbol
 _atom_site_label
 _atom_site_symmetry_multiplicity
 _atom_site_fract_x
 _atom_site_fract_y
 _atom_site_fract_z
 _atom_site_occupancy
  Tb  Tb0  1  0.148229  0.397045  0.096986  1
  Tb  Tb1  1  0.851771  0.602955  0.903014  1
  Tb  Tb2  1  0.851771  0.602955  0.596986  1
  Tb  Tb3  1  0.851771  0.897045  0.403014  1
  Tb  Tb4  1  0.148229  0.397045  0.403014  1
  Tb  Tb5  1  0.148229  0.102955  0.596986  1
  Tb  Tb6  1  0.148229  0.102955  0.903014  1
  Tb  Tb7  1  0.851771  0.897045  0.096986  1
  Nd  Nd8  1  0.631398  0.260653  0.250000  1
  Nd  Nd9  1  0.368602  0.739347  0.750000  1
  Nd  Nd10  1  0.368602  0.760653  0.250000  1
  Nd  Nd11  1  0.631398  0.239347  0.750000  1
  Ga  Ga12  1  0.126671  0.109732  0.250000  1
  Ga  Ga13  1  0.873329  0.890268  0.750000  1
  Ga  Ga14  1  0.873329  0.609732  0.250000  1
  Ga  Ga15  1  0.126671  0.390268  0.750000  1
  Ga  Ga16  1  0.639627  0.250000  0.000000  1
  Ga  Ga17  1  0.360373  0.750000  0.000000  1
  Ga  Ga18  1  0.360373  0.750000  0.500000  1
  Ga  Ga19  1  0.639627  0.250000  0.500000  1
  Rh  Rh20  1  0.352475  0.036668  0.089968  1
  Rh  Rh21  1  0.647525  0.963332  0.910032  1
  Rh  Rh22  1  0.647525  0.963332  0.589968  1
  Rh  Rh23  1  0.647525  0.536668  0.410032  1
  Rh  Rh24  1  0.352475  0.036668  0.410032  1
  Rh  Rh25  1  0.352475  0.463332  0.589968  1
  Rh  Rh26  1  0.352475  0.463332  0.910032  1
  Rh  Rh27  1  0.647525  0.536668  0.089968  1
