# generated using pymatgen
data_Y4Cr3GeO16
_symmetry_space_group_name_H-M   'P 1'
_cell_length_a   6.01789400
_cell_length_b   6.00785357
_cell_length_c   10.18833002
_cell_angle_alpha   89.99787051
_cell_angle_beta   90.00394046
_cell_angle_gamma   116.49977002
_symmetry_Int_Tables_number   1
_chemical_formula_structural   Y4Cr3GeO16
_chemical_formula_sum   'Y4 Cr3 Ge1 O16'
_cell_volume   329.65443939
_cell_formula_units_Z   1
loop_
 _symmetry_equiv_pos_site_id
 _symmetry_equiv_pos_as_xyz
  1  'x, y, z'
loop_
 _atom_site_type_symbol
 _atom_site_label
 _atom_site_symmetry_multiplicity
 _atom_site_fract_x
 _atom_site_fract_y
 _atom_site_fract_z
 _atom_site_occupancy
  Y  Y0  1  0.999993  0.749978  0.134927  1
  Y  Y1  1  0.500014  0.249999  0.614341  1
  Y  Y2  1  0.500000  0.750005  0.366249  1
  Y  Y3  1  0.999996  0.250020  0.884401  1
  Cr  Cr4  1  0.500003  0.749977  0.873408  1
  Cr  Cr5  1  0.999989  0.750013  0.628077  1
  Cr  Cr6  1  0.499992  0.249993  0.121607  1
  Ge  Ge7  1  0.000001  0.249992  0.375773  1
  O  O8  1  0.585473  0.509082  0.217745  1
  O  O9  1  0.074588  0.004811  0.718085  1
  O  O10  1  0.095827  0.527769  0.283504  1
  O  O11  1  0.585092  0.015204  0.778932  1
  O  O12  1  0.278136  0.344056  0.469575  1
  O  O13  1  0.762817  0.836930  0.968420  1
  O  O14  1  0.764218  0.339212  0.027528  1
  O  O15  1  0.251196  0.821033  0.536824  1
  O  O16  1  0.414484  0.990887  0.217748  1
  O  O17  1  0.925405  0.495224  0.718097  1
  O  O18  1  0.904163  0.972198  0.283502  1
  O  O19  1  0.414947  0.484788  0.778932  1
  O  O20  1  0.721889  0.155955  0.469570  1
  O  O21  1  0.237234  0.663058  0.968412  1
  O  O22  1  0.235756  0.160784  0.027525  1
  O  O23  1  0.748789  0.679030  0.536822  1
