# generated using pymatgen
data_K5Sn9
_symmetry_space_group_name_H-M   'P 1'
_cell_length_a   13.27656775
_cell_length_b   13.27656765
_cell_length_c   13.27656818
_cell_angle_alpha   29.06550554
_cell_angle_beta   29.06550390
_cell_angle_gamma   29.06550936
_symmetry_Int_Tables_number   1
_chemical_formula_structural   K5Sn9
_chemical_formula_sum   'K5 Sn9'
_cell_volume   488.56575915
_cell_formula_units_Z   1
loop_
 _symmetry_equiv_pos_site_id
 _symmetry_equiv_pos_as_xyz
  1  'x, y, z'
loop_
 _atom_site_type_symbol
 _atom_site_label
 _atom_site_symmetry_multiplicity
 _atom_site_fract_x
 _atom_site_fract_y
 _atom_site_fract_z
 _atom_site_occupancy
  K  K0  1  0.216759  0.216759  0.216759  1
  K  K1  1  0.315397  0.315397  0.315397  1
  K  K2  1  0.500000  0.500000  0.500000  1
  K  K3  1  0.684603  0.684603  0.684603  1
  K  K4  1  0.783241  0.783241  0.783241  1
  Sn  Sn5  1  0.000000  0.000000  0.000000  1
  Sn  Sn6  1  0.122687  0.122687  0.122687  1
  Sn  Sn7  1  0.715108  0.241236  0.241237  1
  Sn  Sn8  1  0.241236  0.715108  0.241237  1
  Sn  Sn9  1  0.758763  0.758763  0.284893  1
  Sn  Sn10  1  0.241237  0.241237  0.715107  1
  Sn  Sn11  1  0.758764  0.284891  0.758763  1
  Sn  Sn12  1  0.284891  0.758764  0.758763  1
  Sn  Sn13  1  0.877313  0.877313  0.877313  1
