# generated using pymatgen
data_Tb4OsRh3O14
_symmetry_space_group_name_H-M   'P 1'
_cell_length_a   7.23796261
_cell_length_b   7.23796321
_cell_length_c   7.28180386
_cell_angle_alpha   60.19895715
_cell_angle_beta   60.19895535
_cell_angle_gamma   59.99999717
_symmetry_Int_Tables_number   1
_chemical_formula_structural   Tb4OsRh3O14
_chemical_formula_sum   'Tb4 Os1 Rh3 O14'
_cell_volume   270.55537843
_cell_formula_units_Z   1
loop_
 _symmetry_equiv_pos_site_id
 _symmetry_equiv_pos_as_xyz
  1  'x, y, z'
loop_
 _atom_site_type_symbol
 _atom_site_label
 _atom_site_symmetry_multiplicity
 _atom_site_fract_x
 _atom_site_fract_y
 _atom_site_fract_z
 _atom_site_occupancy
  Tb  Tb0  1  0.625000  0.625000  0.125000  1
  Tb  Tb1  1  0.625000  0.625000  0.625000  1
  Tb  Tb2  1  0.625000  0.125000  0.625000  1
  Tb  Tb3  1  0.125000  0.625000  0.625000  1
  Os  Os4  1  0.125000  0.125000  0.625000  1
  Rh  Rh5  1  0.125000  0.125000  0.125000  1
  Rh  Rh6  1  0.625000  0.125000  0.125000  1
  Rh  Rh7  1  0.125000  0.625000  0.125000  1
  O  O8  1  0.044519  0.450495  0.460468  1
  O  O9  1  0.783808  0.783808  0.223135  1
  O  O10  1  0.783808  0.209248  0.223135  1
  O  O11  1  0.450495  0.044519  0.460468  1
  O  O12  1  0.040752  0.466192  0.026865  1
  O  O13  1  0.751504  0.751504  0.745486  1
  O  O14  1  0.044519  0.044519  0.460468  1
  O  O15  1  0.209248  0.783808  0.223135  1
  O  O16  1  0.205481  0.205481  0.789532  1
  O  O17  1  0.498496  0.498496  0.504514  1
  O  O18  1  0.799505  0.205481  0.789532  1
  O  O19  1  0.466192  0.040752  0.026865  1
  O  O20  1  0.466192  0.466192  0.026865  1
  O  O21  1  0.205481  0.799505  0.789532  1
