# generated using pymatgen
data_La3Pr2In3Br
_symmetry_space_group_name_H-M   'P 1'
_cell_length_a   9.77965400
_cell_length_b   9.77965380
_cell_length_c   6.90345100
_cell_angle_alpha   90.00000000
_cell_angle_beta   90.00000000
_cell_angle_gamma   120.00000743
_symmetry_Int_Tables_number   1
_chemical_formula_structural   La3Pr2In3Br
_chemical_formula_sum   'La6 Pr4 In6 Br2'
_cell_volume   571.79956007
_cell_formula_units_Z   2
loop_
 _symmetry_equiv_pos_site_id
 _symmetry_equiv_pos_as_xyz
  1  'x, y, z'
loop_
 _atom_site_type_symbol
 _atom_site_label
 _atom_site_symmetry_multiplicity
 _atom_site_fract_x
 _atom_site_fract_y
 _atom_site_fract_z
 _atom_site_occupancy
  La  La0  1  0.734035  0.734035  0.250000  1
  La  La1  1  0.000000  0.734035  0.750000  1
  La  La2  1  0.734035  0.000000  0.750000  1
  La  La3  1  0.265965  0.265965  0.750000  1
  La  La4  1  0.000000  0.265965  0.250000  1
  La  La5  1  0.265965  0.000000  0.250000  1
  Pr  Pr6  1  0.333333  0.666667  0.500000  1
  Pr  Pr7  1  0.666667  0.333333  0.500000  1
  Pr  Pr8  1  0.333333  0.666667  0.000000  1
  Pr  Pr9  1  0.666667  0.333333  0.000000  1
  In  In10  1  0.391631  0.000000  0.750000  1
  In  In11  1  0.000000  0.608369  0.250000  1
  In  In12  1  0.608369  0.000000  0.250000  1
  In  In13  1  0.000000  0.391631  0.750000  1
  In  In14  1  0.391631  0.391631  0.250000  1
  In  In15  1  0.608369  0.608369  0.750000  1
  Br  Br16  1  0.000000  0.000000  0.500000  1
  Br  Br17  1  0.000000  0.000000  0.000000  1
