# generated using pymatgen
data_Hf10BeSn7
_symmetry_space_group_name_H-M   'P 1'
_cell_length_a   5.88327201
_cell_length_b   8.64709951
_cell_length_c   8.64709401
_cell_angle_alpha   120.00003094
_cell_angle_beta   90.00001123
_cell_angle_gamma   90.00001004
_symmetry_Int_Tables_number   1
_chemical_formula_structural   Hf10BeSn7
_chemical_formula_sum   'Hf10 Be1 Sn7'
_cell_volume   380.96937213
_cell_formula_units_Z   1
loop_
 _symmetry_equiv_pos_site_id
 _symmetry_equiv_pos_as_xyz
  1  'x, y, z'
loop_
 _atom_site_type_symbol
 _atom_site_label
 _atom_site_symmetry_multiplicity
 _atom_site_fract_x
 _atom_site_fract_y
 _atom_site_fract_z
 _atom_site_occupancy
  Hf  Hf0  1  0.500001  0.333335  0.666671  1
  Hf  Hf1  1  0.500000  0.666664  0.333330  1
  Hf  Hf2  1  0.000001  0.666667  0.333333  1
  Hf  Hf3  1  0.000001  0.333334  0.666666  1
  Hf  Hf4  1  0.721665  0.266024  0.999997  1
  Hf  Hf5  1  0.721669  0.733975  0.733981  1
  Hf  Hf6  1  0.721668  0.999999  0.266022  1
  Hf  Hf7  1  0.278332  0.733974  0.999998  1
  Hf  Hf8  1  0.278331  0.266023  0.266022  1
  Hf  Hf9  1  0.278331  0.000006  0.733980  1
  Be  Be10  1  0.500000  0.000000  0.000000  1
  Sn  Sn11  1  0.757268  0.610502  0.999996  1
  Sn  Sn12  1  0.757268  0.389489  0.389498  1
  Sn  Sn13  1  0.757265  0.000003  0.610506  1
  Sn  Sn14  1  0.242731  0.389494  0.999996  1
  Sn  Sn15  1  0.242735  0.610503  0.610506  1
  Sn  Sn16  1  0.242736  0.000007  0.389498  1
  Sn  Sn17  1  0.999999  0.000000  0.000000  1
