# generated using pymatgen
data_TbSm3Tm4(SiBr6)2
_symmetry_space_group_name_H-M   'P 1'
_cell_length_a   4.06031100
_cell_length_b   13.31021820
_cell_length_c   14.02149269
_cell_angle_alpha   89.87259518
_cell_angle_beta   90.00000000
_cell_angle_gamma   90.00000000
_symmetry_Int_Tables_number   1
_chemical_formula_structural   TbSm3Tm4(SiBr6)2
_chemical_formula_sum   'Tb1 Sm3 Tm4 Si2 Br12'
_cell_volume   757.77042488
_cell_formula_units_Z   1
loop_
 _symmetry_equiv_pos_site_id
 _symmetry_equiv_pos_as_xyz
  1  'x, y, z'
loop_
 _atom_site_type_symbol
 _atom_site_label
 _atom_site_symmetry_multiplicity
 _atom_site_fract_x
 _atom_site_fract_y
 _atom_site_fract_z
 _atom_site_occupancy
  Tb  Tb0  1  0.000000  0.380578  0.079856  1
  Sm  Sm1  1  0.000000  0.120541  0.580580  1
  Sm  Sm2  1  0.000000  0.879432  0.419380  1
  Sm  Sm3  1  0.000000  0.619625  0.919953  1
  Tm  Tm4  1  0.500000  0.117220  0.342255  1
  Tm  Tm5  1  0.500000  0.882924  0.657597  1
  Tm  Tm6  1  0.500000  0.616627  0.157517  1
  Tm  Tm7  1  0.500000  0.382905  0.842772  1
  Si  Si8  1  0.500000  0.000071  0.499865  1
  Si  Si9  1  0.500000  0.498379  0.001078  1
  Br  Br10  1  0.500000  0.242502  0.165417  1
  Br  Br11  1  0.500000  0.760612  0.832804  1
  Br  Br12  1  0.500000  0.738445  0.332204  1
  Br  Br13  1  0.500000  0.261248  0.667992  1
  Br  Br14  1  0.000000  0.253382  0.405790  1
  Br  Br15  1  0.000000  0.746640  0.594014  1
  Br  Br16  1  0.000000  0.753017  0.093771  1
  Br  Br17  1  0.000000  0.247623  0.908564  1
  Br  Br18  1  0.000000  0.008302  0.242319  1
  Br  Br19  1  0.000000  0.992067  0.757541  1
  Br  Br20  1  0.000000  0.505636  0.255867  1
  Br  Br21  1  0.000000  0.492225  0.742866  1
