# generated using pymatgen
data_Y5Ho3Tc2(B12Os)2
_symmetry_space_group_name_H-M   'P 1'
_cell_length_a   3.66958800
_cell_length_b   9.15626831
_cell_length_c   11.54856906
_cell_angle_alpha   89.92863769
_cell_angle_beta   90.00000000
_cell_angle_gamma   90.00000000
_symmetry_Int_Tables_number   1
_chemical_formula_structural   Y5Ho3Tc2(B12Os)2
_chemical_formula_sum   'Y5 Ho3 Tc2 B24 Os2'
_cell_volume   388.02852800
_cell_formula_units_Z   1
loop_
 _symmetry_equiv_pos_site_id
 _symmetry_equiv_pos_as_xyz
  1  'x, y, z'
loop_
 _atom_site_type_symbol
 _atom_site_label
 _atom_site_symmetry_multiplicity
 _atom_site_fract_x
 _atom_site_fract_y
 _atom_site_fract_z
 _atom_site_occupancy
  Y  Y0  1  0.000000  0.324703  0.415380  1
  Y  Y1  1  0.000000  0.675293  0.584699  1
  Y  Y2  1  0.000000  0.820680  0.087235  1
  Y  Y3  1  0.000000  0.179294  0.912679  1
  Y  Y4  1  0.000000  0.941692  0.371181  1
  Ho  Ho5  1  0.000000  0.058502  0.629283  1
  Ho  Ho6  1  0.000000  0.443467  0.129983  1
  Ho  Ho7  1  0.000000  0.556498  0.869962  1
  Tc  Tc8  1  0.000000  0.637986  0.320110  1
  Tc  Tc9  1  0.000000  0.361610  0.679860  1
  B  B10  1  0.500000  0.553165  0.432813  1
  B  B11  1  0.500000  0.446758  0.567220  1
  B  B12  1  0.500000  0.053790  0.067074  1
  B  B13  1  0.500000  0.946219  0.932862  1
  B  B14  1  0.500000  0.747948  0.418709  1
  B  B15  1  0.500000  0.251689  0.581402  1
  B  B16  1  0.500000  0.248767  0.081539  1
  B  B17  1  0.500000  0.751274  0.918436  1
  B  B18  1  0.500000  0.790825  0.265280  1
  B  B19  1  0.500000  0.208900  0.734520  1
  B  B20  1  0.500000  0.290471  0.234139  1
  B  B21  1  0.500000  0.709621  0.765844  1
  B  B22  1  0.500000  0.630878  0.185338  1
  B  B23  1  0.500000  0.369066  0.814597  1
  B  B24  1  0.500000  0.130791  0.313738  1
  B  B25  1  0.500000  0.869546  0.686194  1
  B  B26  1  0.500000  0.982939  0.211783  1
  B  B27  1  0.500000  0.017144  0.787924  1
  B  B28  1  0.500000  0.482692  0.287509  1
  B  B29  1  0.500000  0.517249  0.712480  1
  B  B30  1  0.500000  0.602967  0.028352  1
  B  B31  1  0.500000  0.397030  0.971637  1
  B  B32  1  0.500000  0.103394  0.471345  1
  B  B33  1  0.500000  0.896858  0.529200  1
  Os  Os34  1  0.000000  0.137676  0.178013  1
  Os  Os35  1  0.000000  0.862617  0.821678  1
