# generated using pymatgen
data_CaHf4(AsO4)6
_symmetry_space_group_name_H-M   'P 1'
_cell_length_a   9.12341878
_cell_length_b   9.12341761
_cell_length_c   9.44728555
_cell_angle_alpha   61.12768587
_cell_angle_beta   61.12768976
_cell_angle_gamma   60.00000206
_symmetry_Int_Tables_number   1
_chemical_formula_structural   CaHf4(AsO4)6
_chemical_formula_sum   'Ca1 Hf4 As6 O24'
_cell_volume   565.33149986
_cell_formula_units_Z   1
loop_
 _symmetry_equiv_pos_site_id
 _symmetry_equiv_pos_as_xyz
  1  'x, y, z'
loop_
 _atom_site_type_symbol
 _atom_site_label
 _atom_site_symmetry_multiplicity
 _atom_site_fract_x
 _atom_site_fract_y
 _atom_site_fract_z
 _atom_site_occupancy
  Ca  Ca0  1  0.500000  0.500000  0.500000  1
  Hf  Hf1  1  0.141671  0.141671  0.574986  1
  Hf  Hf2  1  0.858329  0.858329  0.425014  1
  Hf  Hf3  1  0.645462  0.645462  0.063615  1
  Hf  Hf4  1  0.354538  0.354538  0.936385  1
  As  As5  1  0.959375  0.256259  0.257229  1
  As  As6  1  0.256259  0.527137  0.257229  1
  As  As7  1  0.527137  0.959375  0.257229  1
  As  As8  1  0.040625  0.743741  0.742771  1
  As  As9  1  0.743741  0.472863  0.742771  1
  As  As10  1  0.472863  0.040625  0.742771  1
  O  O11  1  0.983190  0.268043  0.418898  1
  O  O12  1  0.268043  0.329869  0.418898  1
  O  O13  1  0.329869  0.983190  0.418898  1
  O  O14  1  0.016810  0.731957  0.581102  1
  O  O15  1  0.731957  0.670131  0.581102  1
  O  O16  1  0.670131  0.016810  0.581102  1
  O  O17  1  0.502442  0.880446  0.930804  1
  O  O18  1  0.880446  0.686309  0.930804  1
  O  O19  1  0.686309  0.502442  0.930804  1
  O  O20  1  0.497558  0.119554  0.069196  1
  O  O21  1  0.119554  0.313691  0.069196  1
  O  O22  1  0.313691  0.497558  0.069196  1
  O  O23  1  0.028179  0.947249  0.715231  1
  O  O24  1  0.947249  0.309341  0.715231  1
  O  O25  1  0.309341  0.028179  0.715231  1
  O  O26  1  0.971821  0.052751  0.284769  1
  O  O27  1  0.052751  0.690659  0.284769  1
  O  O28  1  0.690659  0.971821  0.284769  1
  O  O29  1  0.589610  0.748860  0.252443  1
  O  O30  1  0.748860  0.409087  0.252443  1
  O  O31  1  0.409087  0.589610  0.252443  1
  O  O32  1  0.410390  0.251140  0.747557  1
  O  O33  1  0.251140  0.590913  0.747557  1
  O  O34  1  0.590913  0.410390  0.747557  1
