# generated using pymatgen
data_Mg2TcSn8Ru
_symmetry_space_group_name_H-M   'P 1'
_cell_length_a   7.44422549
_cell_length_b   7.44422563
_cell_length_c   7.44422549
_cell_angle_alpha   124.86041392
_cell_angle_beta   124.86041779
_cell_angle_gamma   81.76936068
_symmetry_Int_Tables_number   1
_chemical_formula_structural   Mg2TcSn8Ru
_chemical_formula_sum   'Mg2 Tc1 Sn8 Ru1'
_cell_volume   267.23747965
_cell_formula_units_Z   1
loop_
 _symmetry_equiv_pos_site_id
 _symmetry_equiv_pos_as_xyz
  1  'x, y, z'
loop_
 _atom_site_type_symbol
 _atom_site_label
 _atom_site_symmetry_multiplicity
 _atom_site_fract_x
 _atom_site_fract_y
 _atom_site_fract_z
 _atom_site_occupancy
  Mg  Mg0  1  0.499519  0.499519  0.000000  1
  Mg  Mg1  1  0.000481  0.000481  0.000000  1
  Tc  Tc2  1  0.750000  0.750000  0.000000  1
  Sn  Sn3  1  0.705722  0.515339  0.501649  1
  Sn  Sn4  1  0.515339  0.013690  0.809616  1
  Sn  Sn5  1  0.204074  0.705722  0.190384  1
  Sn  Sn6  1  0.794278  0.295926  0.809616  1
  Sn  Sn7  1  0.486310  0.984661  0.190384  1
  Sn  Sn8  1  0.295926  0.486310  0.501649  1
  Sn  Sn9  1  0.984661  0.794278  0.498351  1
  Sn  Sn10  1  0.013690  0.204074  0.498351  1
  Ru  Ru11  1  0.250000  0.250000  0.000000  1
