# generated using pymatgen
data_K4Li2H12IrRh
_symmetry_space_group_name_H-M   'P 1'
_cell_length_a   9.63137698
_cell_length_b   9.63137690
_cell_length_c   9.63137661
_cell_angle_alpha   34.21039765
_cell_angle_beta   34.21039656
_cell_angle_gamma   34.21039741
_symmetry_Int_Tables_number   1
_chemical_formula_structural   K4Li2H12IrRh
_chemical_formula_sum   'K4 Li2 H12 Ir1 Rh1'
_cell_volume   251.83262570
_cell_formula_units_Z   1
loop_
 _symmetry_equiv_pos_site_id
 _symmetry_equiv_pos_as_xyz
  1  'x, y, z'
loop_
 _atom_site_type_symbol
 _atom_site_label
 _atom_site_symmetry_multiplicity
 _atom_site_fract_x
 _atom_site_fract_y
 _atom_site_fract_z
 _atom_site_occupancy
  K  K0  1  0.127700  0.127700  0.127700  1
  K  K1  1  0.872300  0.872300  0.872300  1
  K  K2  1  0.284667  0.284667  0.284667  1
  K  K3  1  0.715333  0.715333  0.715333  1
  Li  Li4  1  0.406576  0.406576  0.406576  1
  Li  Li5  1  0.593424  0.593424  0.593424  1
  H  H6  1  0.177818  0.177818  0.749635  1
  H  H7  1  0.749635  0.177818  0.177818  1
  H  H8  1  0.177818  0.749635  0.177818  1
  H  H9  1  0.822182  0.250365  0.822182  1
  H  H10  1  0.822182  0.822182  0.250365  1
  H  H11  1  0.250365  0.822182  0.822182  1
  H  H12  1  0.397475  0.397475  0.815053  1
  H  H13  1  0.815053  0.397475  0.397475  1
  H  H14  1  0.184947  0.602525  0.602525  1
  H  H15  1  0.602525  0.602525  0.184947  1
  H  H16  1  0.602525  0.184947  0.602525  1
  H  H17  1  0.397475  0.815053  0.397475  1
  Ir  Ir18  1  0.500000  0.500000  0.500000  1
  Rh  Rh19  1  0.000000  0.000000  0.000000  1
