# generated using pymatgen
data_Rb4Hf6SiBr18
_symmetry_space_group_name_H-M   'P 1'
_cell_length_a   10.66457234
_cell_length_b   10.88873755
_cell_length_c   10.99335818
_cell_angle_alpha   118.46090583
_cell_angle_beta   100.28166353
_cell_angle_gamma   103.95735080
_symmetry_Int_Tables_number   1
_chemical_formula_structural   Rb4Hf6SiBr18
_chemical_formula_sum   'Rb4 Hf6 Si1 Br18'
_cell_volume   1022.72591568
_cell_formula_units_Z   1
loop_
 _symmetry_equiv_pos_site_id
 _symmetry_equiv_pos_as_xyz
  1  'x, y, z'
loop_
 _atom_site_type_symbol
 _atom_site_label
 _atom_site_symmetry_multiplicity
 _atom_site_fract_x
 _atom_site_fract_y
 _atom_site_fract_z
 _atom_site_occupancy
  Rb  Rb0  1  0.655989  0.537553  0.228347  1
  Rb  Rb1  1  0.344011  0.462447  0.771653  1
  Rb  Rb2  1  0.690595  0.226519  0.564354  1
  Rb  Rb3  1  0.309405  0.773481  0.435646  1
  Hf  Hf4  1  0.152827  0.056817  0.232340  1
  Hf  Hf5  1  0.847173  0.943183  0.767660  1
  Hf  Hf6  1  0.859468  0.126336  0.132773  1
  Hf  Hf7  1  0.140532  0.873664  0.867227  1
  Hf  Hf8  1  0.147612  0.241065  0.045795  1
  Hf  Hf9  1  0.852388  0.758935  0.954205  1
  Si  Si10  1  0.000000  0.000000  0.000000  1
  Br  Br11  1  0.007843  0.402243  0.193230  1
  Br  Br12  1  0.992157  0.597757  0.806770  1
  Br  Br13  1  0.326200  0.329020  0.307196  1
  Br  Br14  1  0.673800  0.670980  0.692804  1
  Br  Br15  1  0.316103  0.511509  0.098517  1
  Br  Br16  1  0.683897  0.488491  0.901483  1
  Br  Br17  1  0.004150  0.799269  0.205906  1
  Br  Br18  1  0.995850  0.200731  0.794094  1
  Br  Br19  1  0.707172  0.267821  0.280372  1
  Br  Br20  1  0.292828  0.732179  0.719628  1
  Br  Br21  1  0.313614  0.126477  0.905053  1
  Br  Br22  1  0.686386  0.873523  0.094947  1
  Br  Br23  1  0.015059  0.200944  0.400857  1
  Br  Br24  1  0.984941  0.799056  0.599143  1
  Br  Br25  1  0.317477  0.923830  0.109128  1
  Br  Br26  1  0.682523  0.076170  0.890872  1
  Br  Br27  1  0.328234  0.119793  0.492064  1
  Br  Br28  1  0.671766  0.880207  0.507936  1
