# generated using pymatgen
data_Y3ErGa18(Ir2Pt)2
_symmetry_space_group_name_H-M   'P 1'
_cell_length_a   7.62493339
_cell_length_b   7.62483423
_cell_length_c   9.48236200
_cell_angle_alpha   90.00000000
_cell_angle_beta   90.00000000
_cell_angle_gamma   119.89878522
_symmetry_Int_Tables_number   1
_chemical_formula_structural   Y3ErGa18(Ir2Pt)2
_chemical_formula_sum   'Y3 Er1 Ga18 Ir4 Pt2'
_cell_volume   477.92050039
_cell_formula_units_Z   1
loop_
 _symmetry_equiv_pos_site_id
 _symmetry_equiv_pos_as_xyz
  1  'x, y, z'
loop_
 _atom_site_type_symbol
 _atom_site_label
 _atom_site_symmetry_multiplicity
 _atom_site_fract_x
 _atom_site_fract_y
 _atom_site_fract_z
 _atom_site_occupancy
  Y  Y0  1  0.003460  0.330001  0.750000  1
  Y  Y1  1  0.670102  0.996586  0.250000  1
  Y  Y2  1  0.329881  0.003429  0.750000  1
  Er  Er3  1  0.996596  0.669906  0.250000  1
  Ga  Ga4  1  0.132140  0.131759  0.250000  1
  Ga  Ga5  1  0.867765  0.867700  0.750000  1
  Ga  Ga6  1  0.998471  0.338375  0.081944  1
  Ga  Ga7  1  0.001487  0.662264  0.919012  1
  Ga  Ga8  1  0.001487  0.662264  0.580988  1
  Ga  Ga9  1  0.337129  0.997876  0.418084  1
  Ga  Ga10  1  0.998471  0.338375  0.418056  1
  Ga  Ga11  1  0.662230  0.001516  0.581397  1
  Ga  Ga12  1  0.662230  0.001516  0.918603  1
  Ga  Ga13  1  0.337129  0.997876  0.081916  1
  Ga  Ga14  1  0.335747  0.335754  0.568239  1
  Ga  Ga15  1  0.664841  0.664285  0.431199  1
  Ga  Ga16  1  0.664841  0.664285  0.068801  1
  Ga  Ga17  1  0.335747  0.335754  0.931761  1
  Ga  Ga18  1  0.336735  0.546609  0.250000  1
  Ga  Ga19  1  0.663004  0.453474  0.750000  1
  Ga  Ga20  1  0.547131  0.337560  0.250000  1
  Ga  Ga21  1  0.453436  0.662957  0.750000  1
  Ir  Ir22  1  0.671305  0.328938  0.000165  1
  Ir  Ir23  1  0.328683  0.671175  0.000168  1
  Ir  Ir24  1  0.328683  0.671175  0.499832  1
  Ir  Ir25  1  0.671305  0.328938  0.499835  1
  Pt  Pt26  1  0.999981  0.999827  0.000155  1
  Pt  Pt27  1  0.999981  0.999827  0.499845  1
