# generated using pymatgen
data_LiHfNi2AsP
_symmetry_space_group_name_H-M   'P 1'
_cell_length_a   3.80764500
_cell_length_b   6.18484085
_cell_length_c   7.02956099
_cell_angle_alpha   88.90972504
_cell_angle_beta   90.00000000
_cell_angle_gamma   90.00000000
_symmetry_Int_Tables_number   1
_chemical_formula_structural   LiHfNi2AsP
_chemical_formula_sum   'Li2 Hf2 Ni4 As2 P2'
_cell_volume   165.51392956
_cell_formula_units_Z   2
loop_
 _symmetry_equiv_pos_site_id
 _symmetry_equiv_pos_as_xyz
  1  'x, y, z'
loop_
 _atom_site_type_symbol
 _atom_site_label
 _atom_site_symmetry_multiplicity
 _atom_site_fract_x
 _atom_site_fract_y
 _atom_site_fract_z
 _atom_site_occupancy
  Li  Li0  1  0.250000  0.478728  0.190635  1
  Li  Li1  1  0.750000  0.521272  0.809365  1
  Hf  Hf2  1  0.750000  0.016746  0.688366  1
  Hf  Hf3  1  0.250000  0.983254  0.311634  1
  Ni  Ni4  1  0.250000  0.832241  0.922058  1
  Ni  Ni5  1  0.750000  0.167759  0.077942  1
  Ni  Ni6  1  0.750000  0.640845  0.446002  1
  Ni  Ni7  1  0.250000  0.359155  0.553998  1
  As  As8  1  0.750000  0.765576  0.111375  1
  As  As9  1  0.250000  0.234424  0.888625  1
  P  P10  1  0.250000  0.727899  0.613848  1
  P  P11  1  0.750000  0.272101  0.386152  1
