# generated using pymatgen
data_Ho4LuSiSn3
_symmetry_space_group_name_H-M   'P 1'
_cell_length_a   9.14285900
_cell_length_b   9.14285961
_cell_length_c   6.41006900
_cell_angle_alpha   90.00000000
_cell_angle_beta   90.00000000
_cell_angle_gamma   120.00000863
_symmetry_Int_Tables_number   1
_chemical_formula_structural   Ho4LuSiSn3
_chemical_formula_sum   'Ho8 Lu2 Si2 Sn6'
_cell_volume   464.04208757
_cell_formula_units_Z   2
loop_
 _symmetry_equiv_pos_site_id
 _symmetry_equiv_pos_as_xyz
  1  'x, y, z'
loop_
 _atom_site_type_symbol
 _atom_site_label
 _atom_site_symmetry_multiplicity
 _atom_site_fract_x
 _atom_site_fract_y
 _atom_site_fract_z
 _atom_site_occupancy
  Ho  Ho0  1  0.666667  0.333333  0.000000  1
  Ho  Ho1  1  0.333333  0.666667  0.000000  1
  Ho  Ho2  1  0.746621  0.746621  0.750617  1
  Ho  Ho3  1  0.253379  0.000000  0.750617  1
  Ho  Ho4  1  0.000000  0.253379  0.750617  1
  Ho  Ho5  1  0.253379  0.253379  0.249383  1
  Ho  Ho6  1  0.746621  0.000000  0.249383  1
  Ho  Ho7  1  0.000000  0.746621  0.249383  1
  Lu  Lu8  1  0.333333  0.666667  0.500000  1
  Lu  Lu9  1  0.666667  0.333333  0.500000  1
  Si  Si10  1  0.000000  0.000000  0.000000  1
  Si  Si11  1  0.000000  0.000000  0.500000  1
  Sn  Sn12  1  0.392737  0.392737  0.749074  1
  Sn  Sn13  1  0.607263  0.000000  0.749074  1
  Sn  Sn14  1  0.000000  0.607263  0.749074  1
  Sn  Sn15  1  0.607263  0.607263  0.250926  1
  Sn  Sn16  1  0.392737  0.000000  0.250926  1
  Sn  Sn17  1  0.000000  0.392737  0.250926  1
