# generated using pymatgen
data_CaYb12(ErBi4)3
_symmetry_space_group_name_H-M   'P 1'
_cell_length_a   9.61925919
_cell_length_b   9.61925978
_cell_length_c   9.61925900
_cell_angle_alpha   90.31588527
_cell_angle_beta   90.31588529
_cell_angle_gamma   89.68411723
_symmetry_Int_Tables_number   1
_chemical_formula_structural   CaYb12(ErBi4)3
_chemical_formula_sum   'Ca1 Yb12 Er3 Bi12'
_cell_volume   890.03107491
_cell_formula_units_Z   1
loop_
 _symmetry_equiv_pos_site_id
 _symmetry_equiv_pos_as_xyz
  1  'x, y, z'
loop_
 _atom_site_type_symbol
 _atom_site_label
 _atom_site_symmetry_multiplicity
 _atom_site_fract_x
 _atom_site_fract_y
 _atom_site_fract_z
 _atom_site_occupancy
  Ca  Ca0  1  0.073171  0.573171  0.926829  1
  Yb  Yb1  1  0.824950  0.324950  0.175050  1
  Yb  Yb2  1  0.930826  0.927536  0.930632  1
  Yb  Yb3  1  0.826842  0.674033  0.325760  1
  Yb  Yb4  1  0.176646  0.822553  0.322554  1
  Yb  Yb5  1  0.174033  0.174240  0.173158  1
  Yb  Yb6  1  0.325095  0.825095  0.674905  1
  Yb  Yb7  1  0.069368  0.430826  0.572464  1
  Yb  Yb8  1  0.322553  0.177446  0.823354  1
  Yb  Yb9  1  0.674240  0.326842  0.825967  1
  Yb  Yb10  1  0.677446  0.676646  0.677447  1
  Yb  Yb11  1  0.569124  0.069124  0.430876  1
  Yb  Yb12  1  0.427536  0.569368  0.069174  1
  Er  Er13  1  0.929810  0.072071  0.572713  1
  Er  Er14  1  0.427287  0.429810  0.427929  1
  Er  Er15  1  0.572071  0.927287  0.070190  1
  Bi  Bi16  1  0.745712  0.368975  0.500045  1
  Bi  Bi17  1  0.868975  0.999955  0.254288  1
  Bi  Bi18  1  0.999046  0.757893  0.625605  1
  Bi  Bi19  1  0.245308  0.129126  0.499082  1
  Bi  Bi20  1  0.131330  0.497981  0.251639  1
  Bi  Bi21  1  0.997981  0.248361  0.868670  1
  Bi  Bi22  1  0.257893  0.874395  0.000954  1
  Bi  Bi23  1  0.374395  0.499046  0.742107  1
  Bi  Bi24  1  0.499955  0.245712  0.131025  1
  Bi  Bi25  1  0.748361  0.631330  0.002019  1
  Bi  Bi26  1  0.629126  0.000918  0.754692  1
  Bi  Bi27  1  0.500918  0.745308  0.370874  1
