# generated using pymatgen
data_Ta4Al5VFe2
_symmetry_space_group_name_H-M   'P 1'
_cell_length_a   5.06977721
_cell_length_b   5.02610109
_cell_length_c   8.19854349
_cell_angle_alpha   90.00000007
_cell_angle_beta   89.86920369
_cell_angle_gamma   119.71543158
_symmetry_Int_Tables_number   1
_chemical_formula_structural   Ta4Al5VFe2
_chemical_formula_sum   'Ta4 Al5 V1 Fe2'
_cell_volume   181.43628379
_cell_formula_units_Z   1
loop_
 _symmetry_equiv_pos_site_id
 _symmetry_equiv_pos_as_xyz
  1  'x, y, z'
loop_
 _atom_site_type_symbol
 _atom_site_label
 _atom_site_symmetry_multiplicity
 _atom_site_fract_x
 _atom_site_fract_y
 _atom_site_fract_z
 _atom_site_occupancy
  Ta  Ta0  1  0.336740  0.671639  0.062682  1
  Ta  Ta1  1  0.659122  0.328950  0.562272  1
  Ta  Ta2  1  0.663260  0.334897  0.937318  1
  Ta  Ta3  1  0.340878  0.669831  0.437728  1
  Al  Al4  1  0.000000  0.031991  0.500000  1
  Al  Al5  1  0.840916  0.656314  0.249518  1
  Al  Al6  1  0.159084  0.815399  0.750482  1
  Al  Al7  1  0.641332  0.808186  0.750735  1
  Al  Al8  1  0.358668  0.166853  0.249265  1
  V  V9  1  0.000000  0.024867  0.000000  1
  Fe  Fe10  1  0.848782  0.169927  0.236835  1
  Fe  Fe11  1  0.151218  0.321146  0.763165  1
