# generated using pymatgen
data_Th10AlSb7
_symmetry_space_group_name_H-M   'P 1'
_cell_length_a   9.61070100
_cell_length_b   9.61070056
_cell_length_c   6.50979200
_cell_angle_alpha   90.00000000
_cell_angle_beta   90.00000000
_cell_angle_gamma   119.99999806
_symmetry_Int_Tables_number   1
_chemical_formula_structural   Th10AlSb7
_chemical_formula_sum   'Th10 Al1 Sb7'
_cell_volume   520.72432407
_cell_formula_units_Z   1
loop_
 _symmetry_equiv_pos_site_id
 _symmetry_equiv_pos_as_xyz
  1  'x, y, z'
loop_
 _atom_site_type_symbol
 _atom_site_label
 _atom_site_symmetry_multiplicity
 _atom_site_fract_x
 _atom_site_fract_y
 _atom_site_fract_z
 _atom_site_occupancy
  Th  Th0  1  0.000000  0.722159  0.757414  1
  Th  Th1  1  0.277841  0.277841  0.757414  1
  Th  Th2  1  0.333333  0.666667  0.500000  1
  Th  Th3  1  0.666667  0.333333  0.500000  1
  Th  Th4  1  0.722159  0.722159  0.242586  1
  Th  Th5  1  0.722159  0.000000  0.757414  1
  Th  Th6  1  0.000000  0.277841  0.242586  1
  Th  Th7  1  0.277841  0.000000  0.242586  1
  Th  Th8  1  0.333333  0.666667  0.000000  1
  Th  Th9  1  0.666667  0.333333  0.000000  1
  Al  Al10  1  0.000000  0.000000  0.000000  1
  Sb  Sb11  1  0.618477  0.618477  0.749126  1
  Sb  Sb12  1  0.000000  0.381523  0.749126  1
  Sb  Sb13  1  0.381523  0.000000  0.749126  1
  Sb  Sb14  1  0.618477  0.000000  0.250874  1
  Sb  Sb15  1  0.381523  0.381523  0.250874  1
  Sb  Sb16  1  0.000000  0.618477  0.250874  1
  Sb  Sb17  1  0.000000  0.000000  0.500000  1
