# generated using pymatgen
data_Zr4Ta6RePt
_symmetry_space_group_name_H-M   'P 1'
_cell_length_a   5.48566481
_cell_length_b   5.50718425
_cell_length_c   8.97147300
_cell_angle_alpha   90.00000000
_cell_angle_beta   90.00000000
_cell_angle_gamma   118.95992389
_symmetry_Int_Tables_number   1
_chemical_formula_structural   Zr4Ta6RePt
_chemical_formula_sum   'Zr4 Ta6 Re1 Pt1'
_cell_volume   237.14290283
_cell_formula_units_Z   1
loop_
 _symmetry_equiv_pos_site_id
 _symmetry_equiv_pos_as_xyz
  1  'x, y, z'
loop_
 _atom_site_type_symbol
 _atom_site_label
 _atom_site_symmetry_multiplicity
 _atom_site_fract_x
 _atom_site_fract_y
 _atom_site_fract_z
 _atom_site_occupancy
  Zr  Zr0  1  0.332911  0.665455  0.438333  1
  Zr  Zr1  1  0.665392  0.328822  0.936019  1
  Zr  Zr2  1  0.665392  0.328822  0.563981  1
  Zr  Zr3  1  0.332911  0.665455  0.061667  1
  Ta  Ta4  1  0.658602  0.834482  0.750000  1
  Ta  Ta5  1  0.346712  0.178045  0.250000  1
  Ta  Ta6  1  0.832723  0.177119  0.250000  1
  Ta  Ta7  1  0.166947  0.344426  0.750000  1
  Ta  Ta8  1  0.999678  0.988421  0.497802  1
  Ta  Ta9  1  0.999678  0.988421  0.002198  1
  Re  Re10  1  0.167055  0.836931  0.750000  1
  Pt  Pt11  1  0.831999  0.663600  0.250000  1
