# generated using pymatgen
data_Ti7V5(GaSn4)2
_symmetry_space_group_name_H-M   'P 1'
_cell_length_a   9.10175900
_cell_length_b   9.08580589
_cell_length_c   5.47130004
_cell_angle_alpha   89.96475409
_cell_angle_beta   90.00000000
_cell_angle_gamma   120.05810298
_symmetry_Int_Tables_number   1
_chemical_formula_structural   Ti7V5(GaSn4)2
_chemical_formula_sum   'Ti7 V5 Ga2 Sn8'
_cell_volume   391.61134932
_cell_formula_units_Z   1
loop_
 _symmetry_equiv_pos_site_id
 _symmetry_equiv_pos_as_xyz
  1  'x, y, z'
loop_
 _atom_site_type_symbol
 _atom_site_label
 _atom_site_symmetry_multiplicity
 _atom_site_fract_x
 _atom_site_fract_y
 _atom_site_fract_z
 _atom_site_occupancy
  Ti  Ti0  1  0.848396  0.696791  0.747551  1
  Ti  Ti1  1  0.147626  0.845419  0.249762  1
  Ti  Ti2  1  0.697793  0.845419  0.249762  1
  Ti  Ti3  1  0.302207  0.154581  0.750238  1
  Ti  Ti4  1  0.852374  0.154581  0.750238  1
  Ti  Ti5  1  0.151604  0.303209  0.252449  1
  Ti  Ti6  1  0.500000  0.000000  0.000000  1
  V  V7  1  0.500000  0.000000  0.500000  1
  V  V8  1  0.500000  0.500000  0.000000  1
  V  V9  1  0.000000  0.500000  0.000000  1
  V  V10  1  0.000000  0.500000  0.500000  1
  V  V11  1  0.500000  0.500000  0.500000  1
  Ga  Ga12  1  0.000000  0.000000  0.500000  1
  Ga  Ga13  1  0.000000  0.000000  0.000000  1
  Sn  Sn14  1  0.206068  0.412137  0.751459  1
  Sn  Sn15  1  0.797569  0.205119  0.252852  1
  Sn  Sn16  1  0.407551  0.205119  0.252852  1
  Sn  Sn17  1  0.592449  0.794881  0.747148  1
  Sn  Sn18  1  0.202431  0.794881  0.747148  1
  Sn  Sn19  1  0.793932  0.587863  0.248541  1
  Sn  Sn20  1  0.667410  0.334819  0.745187  1
  Sn  Sn21  1  0.332590  0.665181  0.254813  1
