# generated using pymatgen
data_CaTb4Er(Si3Ru)8
_symmetry_space_group_name_H-M   'P 1'
_cell_length_a   10.14478146
_cell_length_b   10.14573909
_cell_length_c   8.15670036
_cell_angle_alpha   89.90020783
_cell_angle_beta   90.08658813
_cell_angle_gamma   132.59659679
_symmetry_Int_Tables_number   1
_chemical_formula_structural   CaTb4Er(Si3Ru)8
_chemical_formula_sum   'Ca1 Tb4 Er1 Si24 Ru8'
_cell_volume   618.01499043
_cell_formula_units_Z   1
loop_
 _symmetry_equiv_pos_site_id
 _symmetry_equiv_pos_as_xyz
  1  'x, y, z'
loop_
 _atom_site_type_symbol
 _atom_site_label
 _atom_site_symmetry_multiplicity
 _atom_site_fract_x
 _atom_site_fract_y
 _atom_site_fract_z
 _atom_site_occupancy
  Ca  Ca0  1  0.498120  0.998117  0.249960  1
  Tb  Tb1  1  0.001433  0.501395  0.750029  1
  Tb  Tb2  1  0.502850  0.002830  0.750055  1
  Tb  Tb3  1  0.997240  0.497281  0.249992  1
  Tb  Tb4  1  0.499815  0.499695  0.499426  1
  Er  Er5  1  0.999555  0.999809  0.000580  1
  Si  Si6  1  0.388426  0.155378  0.002588  1
  Si  Si7  1  0.655505  0.888691  0.497596  1
  Si  Si8  1  0.111537  0.344467  0.505124  1
  Si  Si9  1  0.844629  0.611838  0.994831  1
  Si  Si10  1  0.612013  0.845385  0.993456  1
  Si  Si11  1  0.345271  0.111771  0.506390  1
  Si  Si12  1  0.888322  0.655872  0.494972  1
  Si  Si13  1  0.155768  0.388085  0.005095  1
  Si  Si14  1  0.614186  0.380037  0.227881  1
  Si  Si15  1  0.879830  0.113783  0.271801  1
  Si  Si16  1  0.888588  0.121749  0.727871  1
  Si  Si17  1  0.621717  0.388292  0.772434  1
  Si  Si18  1  0.388247  0.621451  0.771800  1
  Si  Si19  1  0.121656  0.888615  0.728502  1
  Si  Si20  1  0.704701  0.293896  0.001093  1
  Si  Si21  1  0.794034  0.204599  0.498855  1
  Si  Si22  1  0.295608  0.706101  0.000291  1
  Si  Si23  1  0.206021  0.795754  0.499716  1
  Si  Si24  1  0.166152  0.167290  0.332952  1
  Si  Si25  1  0.667403  0.666193  0.166855  1
  Si  Si26  1  0.332981  0.331560  0.833180  1
  Si  Si27  1  0.831590  0.833080  0.666987  1
  Si  Si28  1  0.376449  0.610205  0.228046  1
  Si  Si29  1  0.109868  0.876346  0.271632  1
  Ru  Ru30  1  0.626708  0.627091  0.873978  1
  Ru  Ru31  1  0.125777  0.125315  0.627613  1
  Ru  Ru32  1  0.873683  0.874123  0.372146  1
  Ru  Ru33  1  0.372695  0.372301  0.126207  1
  Ru  Ru34  1  0.329494  0.668673  0.500670  1
  Ru  Ru35  1  0.168280  0.830068  0.999316  1
  Ru  Ru36  1  0.670956  0.332422  0.501656  1
  Ru  Ru37  1  0.832893  0.170445  0.998426  1
