# generated using pymatgen
data_LuCuBPt6
_symmetry_space_group_name_H-M   'P 1'
_cell_length_a   5.78259597
_cell_length_b   5.78259620
_cell_length_c   5.78259500
_cell_angle_alpha   60.00000117
_cell_angle_beta   59.99999982
_cell_angle_gamma   59.99999793
_symmetry_Int_Tables_number   1
_chemical_formula_structural   LuCuBPt6
_chemical_formula_sum   'Lu1 Cu1 B1 Pt6'
_cell_volume   136.72675007
_cell_formula_units_Z   1
loop_
 _symmetry_equiv_pos_site_id
 _symmetry_equiv_pos_as_xyz
  1  'x, y, z'
loop_
 _atom_site_type_symbol
 _atom_site_label
 _atom_site_symmetry_multiplicity
 _atom_site_fract_x
 _atom_site_fract_y
 _atom_site_fract_z
 _atom_site_occupancy
  Lu  Lu0  1  0.250000  0.250000  0.250000  1
  Cu  Cu1  1  0.750000  0.750000  0.750000  1
  B  B2  1  0.000000  0.000000  0.000000  1
  Pt  Pt3  1  0.742534  0.257467  0.257467  1
  Pt  Pt4  1  0.257467  0.742534  0.257467  1
  Pt  Pt5  1  0.742533  0.742533  0.257468  1
  Pt  Pt6  1  0.742533  0.257468  0.742533  1
  Pt  Pt7  1  0.257467  0.257467  0.742534  1
  Pt  Pt8  1  0.257468  0.742533  0.742533  1
