# generated using pymatgen
data_DyHo4(In2Au)2
_symmetry_space_group_name_H-M   'P 1'
_cell_length_a   3.66164400
_cell_length_b   8.20733700
_cell_length_c   18.43016900
_cell_angle_alpha   90.00000000
_cell_angle_beta   90.00000000
_cell_angle_gamma   90.00000000
_symmetry_Int_Tables_number   1
_chemical_formula_structural   DyHo4(In2Au)2
_chemical_formula_sum   'Dy2 Ho8 In8 Au4'
_cell_volume   553.86982082
_cell_formula_units_Z   2
loop_
 _symmetry_equiv_pos_site_id
 _symmetry_equiv_pos_as_xyz
  1  'x, y, z'
loop_
 _atom_site_type_symbol
 _atom_site_label
 _atom_site_symmetry_multiplicity
 _atom_site_fract_x
 _atom_site_fract_y
 _atom_site_fract_z
 _atom_site_occupancy
  Dy  Dy0  1  0.000000  0.500000  0.500000  1
  Dy  Dy1  1  0.000000  0.000000  0.000000  1
  Ho  Ho2  1  0.000000  0.737154  0.281301  1
  Ho  Ho3  1  0.000000  0.262846  0.718699  1
  Ho  Ho4  1  0.000000  0.762846  0.781301  1
  Ho  Ho5  1  0.000000  0.237154  0.218699  1
  Ho  Ho6  1  0.000000  0.618201  0.079852  1
  Ho  Ho7  1  0.000000  0.381799  0.920148  1
  Ho  Ho8  1  0.000000  0.881799  0.579852  1
  Ho  Ho9  1  0.000000  0.118201  0.420148  1
  In  In10  1  0.500000  0.712663  0.932448  1
  In  In11  1  0.500000  0.287337  0.067552  1
  In  In12  1  0.500000  0.787337  0.432448  1
  In  In13  1  0.500000  0.212663  0.567552  1
  In  In14  1  0.500000  0.580669  0.646900  1
  In  In15  1  0.500000  0.419331  0.353100  1
  In  In16  1  0.500000  0.919331  0.146900  1
  In  In17  1  0.500000  0.080669  0.853100  1
  Au  Au18  1  0.500000  0.525857  0.196506  1
  Au  Au19  1  0.500000  0.474143  0.803494  1
  Au  Au20  1  0.500000  0.974143  0.696506  1
  Au  Au21  1  0.500000  0.025857  0.303494  1
