# generated using pymatgen
data_Tb10CdHg2Ru
_symmetry_space_group_name_H-M   'P 1'
_cell_length_a   9.65799880
_cell_length_b   9.65799971
_cell_length_c   9.81656600
_cell_angle_alpha   90.00000000
_cell_angle_beta   90.00000000
_cell_angle_gamma   120.17912955
_symmetry_Int_Tables_number   1
_chemical_formula_structural   Tb10CdHg2Ru
_chemical_formula_sum   'Tb20 Cd2 Hg4 Ru2'
_cell_volume   791.54901094
_cell_formula_units_Z   2
loop_
 _symmetry_equiv_pos_site_id
 _symmetry_equiv_pos_as_xyz
  1  'x, y, z'
loop_
 _atom_site_type_symbol
 _atom_site_label
 _atom_site_symmetry_multiplicity
 _atom_site_fract_x
 _atom_site_fract_y
 _atom_site_fract_z
 _atom_site_occupancy
  Tb  Tb0  1  0.001537  0.998463  0.494155  1
  Tb  Tb1  1  0.001537  0.998463  0.005845  1
  Tb  Tb2  1  0.209346  0.790654  0.438608  1
  Tb  Tb3  1  0.209405  0.419007  0.439889  1
  Tb  Tb4  1  0.580993  0.790595  0.439889  1
  Tb  Tb5  1  0.790437  0.209563  0.560250  1
  Tb  Tb6  1  0.789911  0.580551  0.559942  1
  Tb  Tb7  1  0.419449  0.210089  0.559942  1
  Tb  Tb8  1  0.790437  0.209563  0.939750  1
  Tb  Tb9  1  0.789911  0.580551  0.940058  1
  Tb  Tb10  1  0.419449  0.210089  0.940058  1
  Tb  Tb11  1  0.209346  0.790654  0.061392  1
  Tb  Tb12  1  0.209405  0.419007  0.060111  1
  Tb  Tb13  1  0.580993  0.790595  0.060111  1
  Tb  Tb14  1  0.541472  0.458528  0.250000  1
  Tb  Tb15  1  0.541213  0.082653  0.250000  1
  Tb  Tb16  1  0.917347  0.458787  0.250000  1
  Tb  Tb17  1  0.458727  0.541273  0.750000  1
  Tb  Tb18  1  0.456070  0.917089  0.750000  1
  Tb  Tb19  1  0.082911  0.543930  0.750000  1
  Cd  Cd20  1  0.112100  0.228275  0.750000  1
  Cd  Cd21  1  0.771725  0.887900  0.750000  1
  Hg  Hg22  1  0.881016  0.118984  0.250000  1
  Hg  Hg23  1  0.881265  0.760819  0.250000  1
  Hg  Hg24  1  0.239181  0.118735  0.250000  1
  Hg  Hg25  1  0.115590  0.884410  0.750000  1
  Ru  Ru26  1  0.333331  0.666669  0.250000  1
  Ru  Ru27  1  0.665897  0.334103  0.750000  1
