# generated using pymatgen
data_La3Ir8Rh
_symmetry_space_group_name_H-M   'P 1'
_cell_length_a   5.40998400
_cell_length_b   5.40998300
_cell_length_c   17.77896900
_cell_angle_alpha   90.00000000
_cell_angle_beta   90.00000000
_cell_angle_gamma   119.99999389
_symmetry_Int_Tables_number   1
_chemical_formula_structural   La3Ir8Rh
_chemical_formula_sum   'La6 Ir16 Rh2'
_cell_volume   450.63935038
_cell_formula_units_Z   2
loop_
 _symmetry_equiv_pos_site_id
 _symmetry_equiv_pos_as_xyz
  1  'x, y, z'
loop_
 _atom_site_type_symbol
 _atom_site_label
 _atom_site_symmetry_multiplicity
 _atom_site_fract_x
 _atom_site_fract_y
 _atom_site_fract_z
 _atom_site_occupancy
  La  La0  1  0.333333  0.666667  0.541327  1
  La  La1  1  0.666667  0.333333  0.041327  1
  La  La2  1  0.666667  0.333333  0.458673  1
  La  La3  1  0.333333  0.666667  0.958673  1
  La  La4  1  0.333333  0.666667  0.750000  1
  La  La5  1  0.666667  0.333333  0.250000  1
  Ir  Ir6  1  0.166762  0.333525  0.128164  1
  Ir  Ir7  1  0.833238  0.666475  0.628164  1
  Ir  Ir8  1  0.666475  0.833238  0.128164  1
  Ir  Ir9  1  0.166762  0.833238  0.128164  1
  Ir  Ir10  1  0.833238  0.166762  0.628164  1
  Ir  Ir11  1  0.333525  0.166762  0.628164  1
  Ir  Ir12  1  0.833238  0.666475  0.871836  1
  Ir  Ir13  1  0.833238  0.166762  0.871836  1
  Ir  Ir14  1  0.333525  0.166762  0.871836  1
  Ir  Ir15  1  0.666475  0.833238  0.371836  1
  Ir  Ir16  1  0.166762  0.833238  0.371836  1
  Ir  Ir17  1  0.166762  0.333525  0.371836  1
  Ir  Ir18  1  0.000000  0.000000  0.250000  1
  Ir  Ir19  1  0.000000  0.000000  0.750000  1
  Ir  Ir20  1  0.000000  0.000000  0.000000  1
  Ir  Ir21  1  0.000000  0.000000  0.500000  1
  Rh  Rh22  1  0.333333  0.666667  0.250000  1
  Rh  Rh23  1  0.666667  0.333333  0.750000  1
