# generated using pymatgen
data_LaTh7(ZnRh)8
_symmetry_space_group_name_H-M   'P 1'
_cell_length_a   3.94561100
_cell_length_b   7.55488404
_cell_length_c   16.60048142
_cell_angle_alpha   89.55394018
_cell_angle_beta   90.00000000
_cell_angle_gamma   90.00000000
_symmetry_Int_Tables_number   1
_chemical_formula_structural   LaTh7(ZnRh)8
_chemical_formula_sum   'La1 Th7 Zn8 Rh8'
_cell_volume   494.82267209
_cell_formula_units_Z   1
loop_
 _symmetry_equiv_pos_site_id
 _symmetry_equiv_pos_as_xyz
  1  'x, y, z'
loop_
 _atom_site_type_symbol
 _atom_site_label
 _atom_site_symmetry_multiplicity
 _atom_site_fract_x
 _atom_site_fract_y
 _atom_site_fract_z
 _atom_site_occupancy
  La  La0  1  0.750000  0.941228  0.285338  1
  Th  Th1  1  0.750000  0.327324  0.440008  1
  Th  Th2  1  0.250000  0.061102  0.715404  1
  Th  Th3  1  0.250000  0.560715  0.785107  1
  Th  Th4  1  0.250000  0.674491  0.560505  1
  Th  Th5  1  0.750000  0.823330  0.060244  1
  Th  Th6  1  0.250000  0.172388  0.939610  1
  Th  Th7  1  0.750000  0.440938  0.214771  1
  Zn  Zn8  1  0.250000  0.113591  0.152641  1
  Zn  Zn9  1  0.250000  0.997625  0.440653  1
  Zn  Zn10  1  0.750000  0.886076  0.847063  1
  Zn  Zn11  1  0.750000  0.005079  0.560028  1
  Zn  Zn12  1  0.250000  0.491690  0.057945  1
  Zn  Zn13  1  0.750000  0.387192  0.653519  1
  Zn  Zn14  1  0.750000  0.503023  0.940455  1
  Zn  Zn15  1  0.250000  0.616221  0.347989  1
  Rh  Rh16  1  0.750000  0.257757  0.814922  1
  Rh  Rh17  1  0.250000  0.258080  0.315553  1
  Rh  Rh18  1  0.250000  0.754171  0.937298  1
  Rh  Rh19  1  0.250000  0.256495  0.562483  1
  Rh  Rh20  1  0.250000  0.729154  0.180110  1
  Rh  Rh21  1  0.750000  0.742384  0.440684  1
  Rh  Rh22  1  0.750000  0.240700  0.061721  1
  Rh  Rh23  1  0.750000  0.759246  0.685948  1
