# generated using pymatgen
data_Pr6BAsCl6
_symmetry_space_group_name_H-M   'P 1'
_cell_length_a   10.22867519
_cell_length_b   10.22867473
_cell_length_c   10.02208861
_cell_angle_alpha   109.46000849
_cell_angle_beta   109.46000640
_cell_angle_gamma   110.31366695
_symmetry_Int_Tables_number   1
_chemical_formula_structural   Pr6BAsCl6
_chemical_formula_sum   'Pr12 B2 As2 Cl12'
_cell_volume   798.87122023
_cell_formula_units_Z   2
loop_
 _symmetry_equiv_pos_site_id
 _symmetry_equiv_pos_as_xyz
  1  'x, y, z'
loop_
 _atom_site_type_symbol
 _atom_site_label
 _atom_site_symmetry_multiplicity
 _atom_site_fract_x
 _atom_site_fract_y
 _atom_site_fract_z
 _atom_site_occupancy
  Pr  Pr0  1  0.475023  0.498952  0.226325  1
  Pr  Pr1  1  0.772627  0.248697  0.273675  1
  Pr  Pr2  1  0.769171  0.023115  0.501438  1
  Pr  Pr3  1  0.232265  0.478324  0.501438  1
  Pr  Pr4  1  0.251303  0.727373  0.226325  1
  Pr  Pr5  1  0.021676  0.267735  0.998562  1
  Pr  Pr6  1  0.001048  0.024977  0.273675  1
  Pr  Pr7  1  0.476885  0.730829  0.998562  1
  Pr  Pr8  1  0.496388  0.246388  0.492775  1
  Pr  Pr9  1  0.016699  0.483301  0.750000  1
  Pr  Pr10  1  0.253612  0.003612  0.007225  1
  Pr  Pr11  1  0.233301  0.266699  0.750000  1
  B  B12  1  0.999023  0.249023  0.498045  1
  B  B13  1  0.250977  0.500977  0.001955  1
  As  As14  1  0.250471  0.249529  0.250000  1
  As  As15  1  0.499529  0.000471  0.250000  1
  Cl  Cl16  1  0.246794  0.750468  0.744059  1
  Cl  Cl17  1  0.506408  0.502734  0.755941  1
  Cl  Cl18  1  0.000563  0.748788  0.998803  1
  Cl  Cl19  1  0.749532  0.253206  0.755941  1
  Cl  Cl20  1  0.997266  0.993592  0.744059  1
  Cl  Cl21  1  0.249985  0.001762  0.501197  1
  Cl  Cl22  1  0.751212  0.499437  0.501197  1
  Cl  Cl23  1  0.498238  0.250015  0.998803  1
  Cl  Cl24  1  0.751460  0.748540  0.250000  1
  Cl  Cl25  1  0.750155  0.000155  0.000311  1
  Cl  Cl26  1  0.998540  0.501460  0.250000  1
  Cl  Cl27  1  0.499845  0.749845  0.499689  1
