# generated using pymatgen
data_Tb8TiRe8Si16W3
_symmetry_space_group_name_H-M   'P 1'
_cell_length_a   6.78631495
_cell_length_b   6.78631394
_cell_length_c   13.04035302
_cell_angle_alpha   89.89502363
_cell_angle_beta   90.10497605
_cell_angle_gamma   90.64206023
_symmetry_Int_Tables_number   1
_chemical_formula_structural   Tb8TiRe8Si16W3
_chemical_formula_sum   'Tb8 Ti1 Re8 Si16 W3'
_cell_volume   600.52154734
_cell_formula_units_Z   1
loop_
 _symmetry_equiv_pos_site_id
 _symmetry_equiv_pos_as_xyz
  1  'x, y, z'
loop_
 _atom_site_type_symbol
 _atom_site_label
 _atom_site_symmetry_multiplicity
 _atom_site_fract_x
 _atom_site_fract_y
 _atom_site_fract_z
 _atom_site_occupancy
  Tb  Tb0  1  0.320460  0.986708  0.466712  1
  Tb  Tb1  1  0.501882  0.834470  0.723668  1
  Tb  Tb2  1  0.496047  0.165710  0.222814  1
  Tb  Tb3  1  0.834470  0.501882  0.276332  1
  Tb  Tb4  1  0.165710  0.496047  0.777186  1
  Tb  Tb5  1  0.677291  0.014926  0.967255  1
  Tb  Tb6  1  0.986708  0.320460  0.533288  1
  Tb  Tb7  1  0.014926  0.677291  0.032745  1
  Ti  Ti8  1  0.656390  0.656390  0.500000  1
  Re  Re9  1  0.193746  0.015699  0.879206  1
  Re  Re10  1  0.518205  0.689738  0.117464  1
  Re  Re11  1  0.482336  0.314847  0.616302  1
  Re  Re12  1  0.689738  0.518205  0.882536  1
  Re  Re13  1  0.314847  0.482336  0.383698  1
  Re  Re14  1  0.805837  0.978639  0.382617  1
  Re  Re15  1  0.015699  0.193746  0.120794  1
  Re  Re16  1  0.978639  0.805837  0.617383  1
  Si  Si17  1  0.188460  0.100222  0.686656  1
  Si  Si18  1  0.388006  0.707235  0.932524  1
  Si  Si19  1  0.614938  0.289189  0.432841  1
  Si  Si20  1  0.707235  0.388006  0.067476  1
  Si  Si21  1  0.289189  0.614938  0.567159  1
  Si  Si22  1  0.810737  0.899673  0.188071  1
  Si  Si23  1  0.100222  0.188460  0.313344  1
  Si  Si24  1  0.899673  0.810737  0.811929  1
  Si  Si25  1  0.299102  0.978990  0.064024  1
  Si  Si26  1  0.515630  0.766314  0.308096  1
  Si  Si27  1  0.484507  0.233798  0.808091  1
  Si  Si28  1  0.766314  0.515630  0.691904  1
  Si  Si29  1  0.233798  0.484507  0.191909  1
  Si  Si30  1  0.697230  0.025089  0.565999  1
  Si  Si31  1  0.978990  0.299102  0.935976  1
  Si  Si32  1  0.025089  0.697230  0.434001  1
  W  W33  1  0.345506  0.345506  0.000000  1
  W  W34  1  0.163536  0.838902  0.248635  1
  W  W35  1  0.838902  0.163536  0.751365  1
