# generated using pymatgen
data_Ho5Er3Ti11Si16Ir
_symmetry_space_group_name_H-M   'P 1'
_cell_length_a   7.01647819
_cell_length_b   7.01627325
_cell_length_c   12.84142502
_cell_angle_alpha   90.11518288
_cell_angle_beta   89.88199760
_cell_angle_gamma   89.83234070
_symmetry_Int_Tables_number   1
_chemical_formula_structural   Ho5Er3Ti11Si16Ir
_chemical_formula_sum   'Ho5 Er3 Ti11 Si16 Ir1'
_cell_volume   632.17196351
_cell_formula_units_Z   1
loop_
 _symmetry_equiv_pos_site_id
 _symmetry_equiv_pos_as_xyz
  1  'x, y, z'
loop_
 _atom_site_type_symbol
 _atom_site_label
 _atom_site_symmetry_multiplicity
 _atom_site_fract_x
 _atom_site_fract_y
 _atom_site_fract_z
 _atom_site_occupancy
  Ho  Ho0  1  0.340984  0.004187  0.467377  1
  Ho  Ho1  1  0.496408  0.841651  0.718204  1
  Ho  Ho2  1  0.501071  0.157774  0.214743  1
  Ho  Ho3  1  0.841670  0.496379  0.281812  1
  Ho  Ho4  1  0.157757  0.501055  0.785242  1
  Er  Er5  1  0.656923  0.997704  0.968752  1
  Er  Er6  1  0.004026  0.341061  0.532660  1
  Er  Er7  1  0.997658  0.656896  0.031262  1
  Ti  Ti8  1  0.175192  0.827087  0.247934  1
  Ti  Ti9  1  0.827101  0.175214  0.752047  1
  Ti  Ti10  1  0.674164  0.674084  0.500004  1
  Ti  Ti11  1  0.148377  0.001432  0.875459  1
  Ti  Ti12  1  0.493595  0.656445  0.124853  1
  Ti  Ti13  1  0.506621  0.350307  0.628379  1
  Ti  Ti14  1  0.656461  0.493584  0.875138  1
  Ti  Ti15  1  0.350295  0.506597  0.371628  1
  Ti  Ti16  1  0.849670  0.994874  0.374775  1
  Ti  Ti17  1  0.001410  0.148403  0.124539  1
  Ti  Ti18  1  0.994838  0.849690  0.625232  1
  Si  Si19  1  0.202773  0.133948  0.685099  1
  Si  Si20  1  0.371728  0.701911  0.933235  1
  Si  Si21  1  0.631922  0.296000  0.434010  1
  Si  Si22  1  0.701925  0.371720  0.066754  1
  Si  Si23  1  0.295923  0.631719  0.566015  1
  Si  Si24  1  0.796216  0.866600  0.183274  1
  Si  Si25  1  0.133855  0.202865  0.314870  1
  Si  Si26  1  0.866590  0.796206  0.816730  1
  Si  Si27  1  0.285974  0.951541  0.063749  1
  Si  Si28  1  0.547669  0.792750  0.315699  1
  Si  Si29  1  0.449194  0.209134  0.818528  1
  Si  Si30  1  0.792814  0.547566  0.684252  1
  Si  Si31  1  0.209116  0.449168  0.181466  1
  Si  Si32  1  0.708284  0.048505  0.565827  1
  Si  Si33  1  0.951519  0.285982  0.936253  1
  Si  Si34  1  0.048405  0.708094  0.434206  1
  Ir  Ir35  1  0.331873  0.331868  0.999995  1
