# generated using pymatgen
data_Y2Tm3RuRh
_symmetry_space_group_name_H-M   'P 1'
_cell_length_a   6.34989559
_cell_length_b   7.24688318
_cell_length_c   8.43924782
_cell_angle_alpha   96.82692628
_cell_angle_beta   112.09925593
_cell_angle_gamma   89.99999621
_symmetry_Int_Tables_number   1
_chemical_formula_structural   Y2Tm3RuRh
_chemical_formula_sum   'Y4 Tm6 Ru2 Rh2'
_cell_volume   356.84429783
_cell_formula_units_Z   2
loop_
 _symmetry_equiv_pos_site_id
 _symmetry_equiv_pos_as_xyz
  1  'x, y, z'
loop_
 _atom_site_type_symbol
 _atom_site_label
 _atom_site_symmetry_multiplicity
 _atom_site_fract_x
 _atom_site_fract_y
 _atom_site_fract_z
 _atom_site_occupancy
  Y  Y0  1  0.788757  0.080789  0.810259  1
  Y  Y1  1  0.978496  0.419211  0.189741  1
  Y  Y2  1  0.213172  0.915874  0.186935  1
  Y  Y3  1  0.026237  0.584126  0.813065  1
  Tm  Tm4  1  0.207376  0.182352  0.565644  1
  Tm  Tm5  1  0.641732  0.317648  0.434356  1
  Tm  Tm6  1  0.792287  0.814094  0.436826  1
  Tm  Tm7  1  0.355460  0.685906  0.563174  1
  Tm  Tm8  1  0.421262  0.250000  0.000000  1
  Tm  Tm9  1  0.576244  0.750000  0.000000  1
  Ru  Ru10  1  0.403516  0.573862  0.222267  1
  Ru  Ru11  1  0.181250  0.926138  0.777733  1
  Rh  Rh12  1  0.595831  0.425042  0.777454  1
  Rh  Rh13  1  0.818376  0.074958  0.222546  1
