# generated using pymatgen
data_Dy3Mn5(P3Ir2)2
_symmetry_space_group_name_H-M   'P 1'
_cell_length_a   3.85715100
_cell_length_b   10.71307700
_cell_length_c   12.74262700
_cell_angle_alpha   90.00000000
_cell_angle_beta   90.00000000
_cell_angle_gamma   90.00000000
_symmetry_Int_Tables_number   1
_chemical_formula_structural   Dy3Mn5(P3Ir2)2
_chemical_formula_sum   'Dy6 Mn10 P12 Ir8'
_cell_volume   526.55026793
_cell_formula_units_Z   2
loop_
 _symmetry_equiv_pos_site_id
 _symmetry_equiv_pos_as_xyz
  1  'x, y, z'
loop_
 _atom_site_type_symbol
 _atom_site_label
 _atom_site_symmetry_multiplicity
 _atom_site_fract_x
 _atom_site_fract_y
 _atom_site_fract_z
 _atom_site_occupancy
  Dy  Dy0  1  0.000000  0.500000  0.524017  1
  Dy  Dy1  1  0.500000  0.000000  0.475983  1
  Dy  Dy2  1  0.500000  0.816998  0.201511  1
  Dy  Dy3  1  0.500000  0.183002  0.201511  1
  Dy  Dy4  1  0.000000  0.683002  0.798489  1
  Dy  Dy5  1  0.000000  0.316998  0.798489  1
  Mn  Mn6  1  0.000000  0.500000  0.991893  1
  Mn  Mn7  1  0.500000  0.000000  0.008107  1
  Mn  Mn8  1  0.500000  0.883849  0.710612  1
  Mn  Mn9  1  0.500000  0.116151  0.710612  1
  Mn  Mn10  1  0.000000  0.616151  0.289388  1
  Mn  Mn11  1  0.000000  0.383849  0.289388  1
  Mn  Mn12  1  0.500000  0.327960  0.996356  1
  Mn  Mn13  1  0.500000  0.672040  0.996356  1
  Mn  Mn14  1  0.000000  0.172040  0.003644  1
  Mn  Mn15  1  0.000000  0.827960  0.003644  1
  P  P16  1  0.500000  0.303470  0.623677  1
  P  P17  1  0.500000  0.696530  0.623677  1
  P  P18  1  0.000000  0.196530  0.376323  1
  P  P19  1  0.000000  0.803470  0.376323  1
  P  P20  1  0.500000  0.500000  0.887004  1
  P  P21  1  0.000000  0.000000  0.112996  1
  P  P22  1  0.500000  0.846849  0.886648  1
  P  P23  1  0.500000  0.153151  0.886648  1
  P  P24  1  0.000000  0.653151  0.113352  1
  P  P25  1  0.000000  0.346849  0.113352  1
  P  P26  1  0.500000  0.500000  0.340396  1
  P  P27  1  0.000000  0.000000  0.659604  1
  Ir  Ir28  1  0.500000  0.300310  0.428916  1
  Ir  Ir29  1  0.500000  0.699690  0.428916  1
  Ir  Ir30  1  0.000000  0.199690  0.571084  1
  Ir  Ir31  1  0.000000  0.800310  0.571084  1
  Ir  Ir32  1  0.500000  0.500000  0.155395  1
  Ir  Ir33  1  0.000000  0.000000  0.844605  1
  Ir  Ir34  1  0.500000  0.500000  0.699919  1
  Ir  Ir35  1  0.000000  0.000000  0.300081  1
