# generated using pymatgen
data_NpNbCo20NiB6
_symmetry_space_group_name_H-M   'P 1'
_cell_length_a   7.45566673
_cell_length_b   7.45566634
_cell_length_c   7.45566700
_cell_angle_alpha   60.00000152
_cell_angle_beta   60.00000323
_cell_angle_gamma   59.99999788
_symmetry_Int_Tables_number   1
_chemical_formula_structural   NpNbCo20NiB6
_chemical_formula_sum   'Np1 Nb1 Co20 Ni1 B6'
_cell_volume   293.05184777
_cell_formula_units_Z   1
loop_
 _symmetry_equiv_pos_site_id
 _symmetry_equiv_pos_as_xyz
  1  'x, y, z'
loop_
 _atom_site_type_symbol
 _atom_site_label
 _atom_site_symmetry_multiplicity
 _atom_site_fract_x
 _atom_site_fract_y
 _atom_site_fract_z
 _atom_site_occupancy
  Np  Np0  1  0.250000  0.250000  0.250000  1
  Nb  Nb1  1  0.750000  0.750000  0.750000  1
  Co  Co2  1  0.851417  0.382861  0.382861  1
  Co  Co3  1  0.382861  0.851417  0.382861  1
  Co  Co4  1  0.382861  0.382861  0.851417  1
  Co  Co5  1  0.382861  0.382861  0.382861  1
  Co  Co6  1  0.152008  0.615997  0.615997  1
  Co  Co7  1  0.615997  0.152008  0.615997  1
  Co  Co8  1  0.615997  0.615997  0.152008  1
  Co  Co9  1  0.615997  0.615997  0.615997  1
  Co  Co10  1  0.663522  0.998594  0.998594  1
  Co  Co11  1  0.663522  0.998594  0.339290  1
  Co  Co12  1  0.663522  0.339290  0.998594  1
  Co  Co13  1  0.998594  0.663522  0.339290  1
  Co  Co14  1  0.998594  0.663522  0.998594  1
  Co  Co15  1  0.339290  0.663522  0.998594  1
  Co  Co16  1  0.998594  0.339290  0.663522  1
  Co  Co17  1  0.339290  0.998594  0.663522  1
  Co  Co18  1  0.998594  0.998594  0.663522  1
  Co  Co19  1  0.339290  0.998594  0.998594  1
  Co  Co20  1  0.998594  0.339290  0.998594  1
  Co  Co21  1  0.998594  0.998594  0.339290  1
  Ni  Ni22  1  0.000000  0.000000  0.000000  1
  B  B23  1  0.725524  0.274476  0.274476  1
  B  B24  1  0.725524  0.274476  0.725524  1
  B  B25  1  0.725524  0.725524  0.274476  1
  B  B26  1  0.274476  0.725524  0.725524  1
  B  B27  1  0.274476  0.725524  0.274476  1
  B  B28  1  0.274476  0.274476  0.725524  1
