# generated using pymatgen
data_Pr12AlBI17
_symmetry_space_group_name_H-M   'P 1'
_cell_length_a   10.01645565
_cell_length_b   11.98006389
_cell_length_c   11.76122068
_cell_angle_alpha   93.76771808
_cell_angle_beta   104.62900201
_cell_angle_gamma   115.50928015
_symmetry_Int_Tables_number   1
_chemical_formula_structural   Pr12AlBI17
_chemical_formula_sum   'Pr12 Al1 B1 I17'
_cell_volume   1207.59524561
_cell_formula_units_Z   1
loop_
 _symmetry_equiv_pos_site_id
 _symmetry_equiv_pos_as_xyz
  1  'x, y, z'
loop_
 _atom_site_type_symbol
 _atom_site_label
 _atom_site_symmetry_multiplicity
 _atom_site_fract_x
 _atom_site_fract_y
 _atom_site_fract_z
 _atom_site_occupancy
  Pr  Pr0  1  0.053894  0.512052  0.324524  1
  Pr  Pr1  1  0.991835  0.815819  0.570196  1
  Pr  Pr2  1  0.644422  0.241156  0.276893  1
  Pr  Pr3  1  0.005798  0.194405  0.415171  1
  Pr  Pr4  1  0.217307  0.653231  0.011757  1
  Pr  Pr5  1  0.287994  0.005983  0.912117  1
  Pr  Pr6  1  0.375790  0.761936  0.715937  1
  Pr  Pr7  1  0.931377  0.467744  0.661177  1
  Pr  Pr8  1  0.733311  0.020823  0.098335  1
  Pr  Pr9  1  0.142343  0.291145  0.146820  1
  Pr  Pr10  1  0.782225  0.332977  0.009594  1
  Pr  Pr11  1  0.833143  0.706727  0.856223  1
  Al  Al12  1  0.106842  0.735699  0.789411  1
  B  B13  1  0.896074  0.263651  0.215660  1
  I  I14  1  0.773801  0.528610  0.411970  1
  I  I15  1  0.631156  0.411589  0.747032  1
  I  I16  1  0.838578  0.896712  0.317244  1
  I  I17  1  0.318894  0.211740  0.366139  1
  I  I18  1  0.161699  0.108702  0.679442  1
  I  I19  1  0.592138  0.059104  0.829929  1
  I  I20  1  0.734920  0.162736  0.530300  1
  I  I21  1  0.540830  0.696840  0.960134  1
  I  I22  1  0.373036  0.582914  0.263430  1
  I  I23  1  0.226289  0.471350  0.583449  1
  I  I24  1  0.053520  0.357602  0.886531  1
  I  I25  1  0.460925  0.313181  0.047210  1
  I  I26  1  0.000880  0.000489  0.001163  1
  I  I27  1  0.259018  0.826966  0.460893  1
  I  I28  1  0.415120  0.942534  0.170707  1
  I  I29  1  0.679639  0.788805  0.627421  1
  I  I30  1  0.937199  0.636779  0.113193  1
