# generated using pymatgen
data_Dy17Lu3Ir11Pd
_symmetry_space_group_name_H-M   'P 1'
_cell_length_a   10.91770702
_cell_length_b   10.91770343
_cell_length_c   6.33984100
_cell_angle_alpha   89.98483861
_cell_angle_beta   90.00300709
_cell_angle_gamma   89.67003286
_symmetry_Int_Tables_number   1
_chemical_formula_structural   Dy17Lu3Ir11Pd
_chemical_formula_sum   'Dy17 Lu3 Ir11 Pd1'
_cell_volume   755.67295044
_cell_formula_units_Z   1
loop_
 _symmetry_equiv_pos_site_id
 _symmetry_equiv_pos_as_xyz
  1  'x, y, z'
loop_
 _atom_site_type_symbol
 _atom_site_label
 _atom_site_symmetry_multiplicity
 _atom_site_fract_x
 _atom_site_fract_y
 _atom_site_fract_z
 _atom_site_occupancy
  Dy  Dy0  1  0.289204  0.087606  0.378318  1
  Dy  Dy1  1  0.291438  0.911516  0.877178  1
  Dy  Dy2  1  0.706563  0.084957  0.869575  1
  Dy  Dy3  1  0.707415  0.906549  0.380561  1
  Dy  Dy4  1  0.587260  0.790024  0.879537  1
  Dy  Dy5  1  0.581362  0.210045  0.378696  1
  Dy  Dy6  1  0.410833  0.791189  0.378459  1
  Dy  Dy7  1  0.411187  0.209056  0.878685  1
  Dy  Dy8  1  0.209429  0.412273  0.620381  1
  Dy  Dy9  1  0.209484  0.588637  0.121758  1
  Dy  Dy10  1  0.789292  0.418874  0.121566  1
  Dy  Dy11  1  0.791514  0.589469  0.621329  1
  Dy  Dy12  1  0.912365  0.710738  0.121545  1
  Dy  Dy13  1  0.914974  0.293579  0.630181  1
  Dy  Dy14  1  0.088466  0.708512  0.622324  1
  Dy  Dy15  1  0.093386  0.292497  0.119602  1
  Dy  Dy16  1  0.500517  0.500779  0.500743  1
  Lu  Lu17  1  0.002102  0.997185  0.500965  1
  Lu  Lu18  1  0.002953  0.997825  0.998800  1
  Lu  Lu19  1  0.499273  0.499505  0.999452  1
  Ir  Ir20  1  0.849719  0.850595  0.749459  1
  Ir  Ir21  1  0.149016  0.150825  0.749911  1
  Ir  Ir22  1  0.152155  0.848487  0.250337  1
  Ir  Ir23  1  0.653796  0.345689  0.752448  1
  Ir  Ir24  1  0.653003  0.651594  0.246814  1
  Ir  Ir25  1  0.348039  0.347550  0.248720  1
  Ir  Ir26  1  0.347399  0.652877  0.752428  1
  Ir  Ir27  1  0.500848  0.000217  0.126024  1
  Ir  Ir28  1  0.499905  0.000251  0.622840  1
  Ir  Ir29  1  0.999743  0.500043  0.877183  1
  Ir  Ir30  1  0.999725  0.499152  0.374042  1
  Pd  Pd31  1  0.847636  0.151907  0.250138  1
