# generated using pymatgen
data_Y2(ThRu)3
_symmetry_space_group_name_H-M   'P 1'
_cell_length_a   8.28971100
_cell_length_b   8.28971098
_cell_length_c   6.59074600
_cell_angle_alpha   90.00000000
_cell_angle_beta   90.00000000
_cell_angle_gamma   120.00000408
_symmetry_Int_Tables_number   1
_chemical_formula_structural   Y2(ThRu)3
_chemical_formula_sum   'Y4 Th6 Ru6'
_cell_volume   392.23285379
_cell_formula_units_Z   2
loop_
 _symmetry_equiv_pos_site_id
 _symmetry_equiv_pos_as_xyz
  1  'x, y, z'
loop_
 _atom_site_type_symbol
 _atom_site_label
 _atom_site_symmetry_multiplicity
 _atom_site_fract_x
 _atom_site_fract_y
 _atom_site_fract_z
 _atom_site_occupancy
  Y  Y0  1  0.666667  0.333334  0.000000  1
  Y  Y1  1  0.333333  0.666666  0.000000  1
  Y  Y2  1  0.666667  0.333334  0.499999  1
  Y  Y3  1  0.333333  0.666666  0.499999  1
  Th  Th4  1  0.251050  0.000000  0.250000  1
  Th  Th5  1  0.000000  0.251051  0.250000  1
  Th  Th6  1  0.748950  0.748949  0.250000  1
  Th  Th7  1  0.748950  0.000000  0.750000  1
  Th  Th8  1  0.251051  0.251051  0.750000  1
  Th  Th9  1  0.000000  0.748949  0.750000  1
  Ru  Ru10  1  0.631038  0.000000  0.250000  1
  Ru  Ru11  1  0.368962  0.368962  0.250000  1
  Ru  Ru12  1  0.000000  0.631038  0.250000  1
  Ru  Ru13  1  0.368962  0.000000  0.750000  1
  Ru  Ru14  1  0.000000  0.368962  0.750000  1
  Ru  Ru15  1  0.631038  0.631038  0.750000  1
