# generated using pymatgen
data_Y5Lu5(GaSb)4
_symmetry_space_group_name_H-M   'P 1'
_cell_length_a   8.43778430
_cell_length_b   8.68956037
_cell_length_c   7.84245954
_cell_angle_alpha   90.10345787
_cell_angle_beta   90.13409534
_cell_angle_gamma   125.55808593
_symmetry_Int_Tables_number   1
_chemical_formula_structural   Y5Lu5(GaSb)4
_chemical_formula_sum   'Y5 Lu5 Ga4 Sb4'
_cell_volume   467.78433732
_cell_formula_units_Z   1
loop_
 _symmetry_equiv_pos_site_id
 _symmetry_equiv_pos_as_xyz
  1  'x, y, z'
loop_
 _atom_site_type_symbol
 _atom_site_label
 _atom_site_symmetry_multiplicity
 _atom_site_fract_x
 _atom_site_fract_y
 _atom_site_fract_z
 _atom_site_occupancy
  Y  Y0  1  0.814792  0.545851  0.172031  1
  Y  Y1  1  0.532349  0.787481  0.165090  1
  Y  Y2  1  0.186620  0.454538  0.827524  1
  Y  Y3  1  0.686301  0.954566  0.670924  1
  Y  Y4  1  0.312700  0.044213  0.329465  1
  Lu  Lu5  1  0.031885  0.282205  0.336933  1
  Lu  Lu6  1  0.966730  0.715768  0.663087  1
  Lu  Lu7  1  0.467931  0.216691  0.837031  1
  Lu  Lu8  1  0.001314  0.001256  0.998921  1
  Lu  Lu9  1  0.499375  0.498155  0.500642  1
  Ga  Ga10  1  0.372725  0.370349  0.128115  1
  Ga  Ga11  1  0.627440  0.627618  0.871244  1
  Ga  Ga12  1  0.126467  0.127157  0.627086  1
  Ga  Ga13  1  0.875018  0.872653  0.374151  1
  Sb  Sb14  1  0.785924  0.197340  0.013317  1
  Sb  Sb15  1  0.215889  0.807448  0.982437  1
  Sb  Sb16  1  0.717665  0.305557  0.515461  1
  Sb  Sb17  1  0.278873  0.691151  0.486541  1
