# generated using pymatgen
data_Hf3Al3Mo2N
_symmetry_space_group_name_H-M   'P 1'
_cell_length_a   7.89840400
_cell_length_b   7.89840492
_cell_length_c   5.34267300
_cell_angle_alpha   90.00000000
_cell_angle_beta   90.00000000
_cell_angle_gamma   120.00000452
_symmetry_Int_Tables_number   1
_chemical_formula_structural   Hf3Al3Mo2N
_chemical_formula_sum   'Hf6 Al6 Mo4 N2'
_cell_volume   288.64759568
_cell_formula_units_Z   2
loop_
 _symmetry_equiv_pos_site_id
 _symmetry_equiv_pos_as_xyz
  1  'x, y, z'
loop_
 _atom_site_type_symbol
 _atom_site_label
 _atom_site_symmetry_multiplicity
 _atom_site_fract_x
 _atom_site_fract_y
 _atom_site_fract_z
 _atom_site_occupancy
  Hf  Hf0  1  0.230689  0.000000  0.250000  1
  Hf  Hf1  1  0.000000  0.230689  0.250000  1
  Hf  Hf2  1  0.769311  0.769311  0.250000  1
  Hf  Hf3  1  0.769311  0.000000  0.750000  1
  Hf  Hf4  1  0.000000  0.769311  0.750000  1
  Hf  Hf5  1  0.230689  0.230689  0.750000  1
  Al  Al6  1  0.585665  0.000000  0.250000  1
  Al  Al7  1  0.000000  0.585665  0.250000  1
  Al  Al8  1  0.414335  0.414335  0.250000  1
  Al  Al9  1  0.414335  0.000000  0.750000  1
  Al  Al10  1  0.000000  0.414335  0.750000  1
  Al  Al11  1  0.585665  0.585665  0.750000  1
  Mo  Mo12  1  0.666667  0.333333  0.000000  1
  Mo  Mo13  1  0.333333  0.666667  0.000000  1
  Mo  Mo14  1  0.666667  0.333333  0.500000  1
  Mo  Mo15  1  0.333333  0.666667  0.500000  1
  N  N16  1  0.000000  0.000000  0.000000  1
  N  N17  1  0.000000  0.000000  0.500000  1
