# generated using pymatgen
data_TbYb8ThIr4
_symmetry_space_group_name_H-M   'P 1'
_cell_length_a   6.64448590
_cell_length_b   7.37325350
_cell_length_c   8.58062170
_cell_angle_alpha   97.33421709
_cell_angle_beta   112.77912307
_cell_angle_gamma   89.99999416
_symmetry_Int_Tables_number   1
_chemical_formula_structural   TbYb8ThIr4
_chemical_formula_sum   'Tb1 Yb8 Th1 Ir4'
_cell_volume   383.85668763
_cell_formula_units_Z   1
loop_
 _symmetry_equiv_pos_site_id
 _symmetry_equiv_pos_as_xyz
  1  'x, y, z'
loop_
 _atom_site_type_symbol
 _atom_site_label
 _atom_site_symmetry_multiplicity
 _atom_site_fract_x
 _atom_site_fract_y
 _atom_site_fract_z
 _atom_site_occupancy
  Tb  Tb0  1  0.567178  0.250000  0.000000  1
  Yb  Yb1  1  0.978104  0.922049  0.173407  1
  Yb  Yb2  1  0.804697  0.577951  0.826593  1
  Yb  Yb3  1  0.022881  0.082523  0.826494  1
  Yb  Yb4  1  0.196387  0.417477  0.173506  1
  Yb  Yb5  1  0.643883  0.820483  0.441866  1
  Yb  Yb6  1  0.202016  0.679517  0.558134  1
  Yb  Yb7  1  0.359269  0.180008  0.564857  1
  Yb  Yb8  1  0.794412  0.319992  0.435143  1
  Th  Th9  1  0.432478  0.750000  0.000000  1
  Ir  Ir10  1  0.807918  0.578990  0.208862  1
  Ir  Ir11  1  0.599056  0.921010  0.791138  1
  Ir  Ir12  1  0.191680  0.429795  0.791640  1
  Ir  Ir13  1  0.400040  0.070205  0.208360  1
