# generated using pymatgen
data_Dy4Fe4P12Rh11W5
_symmetry_space_group_name_H-M   'P 1'
_cell_length_a   3.84907500
_cell_length_b   10.82425784
_cell_length_c   12.53480570
_cell_angle_alpha   90.10879407
_cell_angle_beta   90.00000000
_cell_angle_gamma   90.00000000
_symmetry_Int_Tables_number   1
_chemical_formula_structural   Dy4Fe4P12Rh11W5
_chemical_formula_sum   'Dy4 Fe4 P12 Rh11 W5'
_cell_volume   522.24143446
_cell_formula_units_Z   1
loop_
 _symmetry_equiv_pos_site_id
 _symmetry_equiv_pos_as_xyz
  1  'x, y, z'
loop_
 _atom_site_type_symbol
 _atom_site_label
 _atom_site_symmetry_multiplicity
 _atom_site_fract_x
 _atom_site_fract_y
 _atom_site_fract_z
 _atom_site_occupancy
  Dy  Dy0  1  0.250000  0.584628  0.713393  1
  Dy  Dy1  1  0.250000  0.918239  0.207700  1
  Dy  Dy2  1  0.750000  0.417311  0.284924  1
  Dy  Dy3  1  0.750000  0.080640  0.792508  1
  Fe  Fe4  1  0.250000  0.459673  0.938485  1
  Fe  Fe5  1  0.250000  0.039288  0.437234  1
  Fe  Fe6  1  0.750000  0.537174  0.062817  1
  Fe  Fe7  1  0.750000  0.961747  0.562062  1
  P  P8  1  0.250000  0.426075  0.107989  1
  P  P9  1  0.250000  0.071253  0.608465  1
  P  P10  1  0.750000  0.573351  0.893553  1
  P  P11  1  0.750000  0.926549  0.391554  1
  P  P12  1  0.250000  0.267967  0.872726  1
  P  P13  1  0.250000  0.233088  0.371997  1
  P  P14  1  0.750000  0.730141  0.127451  1
  P  P15  1  0.750000  0.770508  0.627031  1
  P  P16  1  0.250000  0.601492  0.388104  1
  P  P17  1  0.250000  0.898276  0.891190  1
  P  P18  1  0.750000  0.404201  0.612930  1
  P  P19  1  0.750000  0.100227  0.108093  1
  Rh  Rh20  1  0.250000  0.093233  0.986131  1
  Rh  Rh21  1  0.750000  0.597788  0.515871  1
  Rh  Rh22  1  0.750000  0.903708  0.013539  1
  Rh  Rh23  1  0.250000  0.231013  0.178684  1
  Rh  Rh24  1  0.250000  0.261940  0.682315  1
  Rh  Rh25  1  0.750000  0.767141  0.819562  1
  Rh  Rh26  1  0.750000  0.733488  0.318626  1
  Rh  Rh27  1  0.250000  0.887478  0.700500  1
  Rh  Rh28  1  0.250000  0.613760  0.198651  1
  Rh  Rh29  1  0.750000  0.110140  0.298619  1
  Rh  Rh30  1  0.750000  0.389318  0.799924  1
  W  W31  1  0.250000  0.702806  0.985599  1
  W  W32  1  0.250000  0.798746  0.487134  1
  W  W33  1  0.750000  0.296570  0.010796  1
  W  W34  1  0.750000  0.200792  0.511032  1
  W  W35  1  0.250000  0.410253  0.492811  1
