# generated using pymatgen
data_YHo(GaPd)2
_symmetry_space_group_name_H-M   'P 1'
_cell_length_a   4.49507400
_cell_length_b   6.92804500
_cell_length_c   7.66650500
_cell_angle_alpha   90.00000000
_cell_angle_beta   90.00000000
_cell_angle_gamma   90.00000000
_symmetry_Int_Tables_number   1
_chemical_formula_structural   YHo(GaPd)2
_chemical_formula_sum   'Y2 Ho2 Ga4 Pd4'
_cell_volume   238.75087332
_cell_formula_units_Z   2
loop_
 _symmetry_equiv_pos_site_id
 _symmetry_equiv_pos_as_xyz
  1  'x, y, z'
loop_
 _atom_site_type_symbol
 _atom_site_label
 _atom_site_symmetry_multiplicity
 _atom_site_fract_x
 _atom_site_fract_y
 _atom_site_fract_z
 _atom_site_occupancy
  Y  Y0  1  0.250000  0.014860  0.798358  1
  Y  Y1  1  0.250000  0.514860  0.701642  1
  Ho  Ho2  1  0.750000  0.984336  0.201824  1
  Ho  Ho3  1  0.750000  0.484336  0.298176  1
  Ga  Ga4  1  0.250000  0.183123  0.421542  1
  Ga  Ga5  1  0.250000  0.683123  0.078458  1
  Ga  Ga6  1  0.750000  0.816719  0.577470  1
  Ga  Ga7  1  0.750000  0.316719  0.922530  1
  Pd  Pd8  1  0.250000  0.784408  0.405863  1
  Pd  Pd9  1  0.250000  0.284408  0.094137  1
  Pd  Pd10  1  0.750000  0.216554  0.591620  1
  Pd  Pd11  1  0.750000  0.716554  0.908380  1
