# generated using pymatgen
data_LiEu4Mg(Si2O7)2
_symmetry_space_group_name_H-M   'P 1'
_cell_length_a   8.00896200
_cell_length_b   8.00896200
_cell_length_c   5.13934800
_cell_angle_alpha   90.00000000
_cell_angle_beta   90.00000000
_cell_angle_gamma   90.00000000
_symmetry_Int_Tables_number   1
_chemical_formula_structural   LiEu4Mg(Si2O7)2
_chemical_formula_sum   'Li1 Eu4 Mg1 Si4 O14'
_cell_volume   329.65562617
_cell_formula_units_Z   1
loop_
 _symmetry_equiv_pos_site_id
 _symmetry_equiv_pos_as_xyz
  1  'x, y, z'
loop_
 _atom_site_type_symbol
 _atom_site_label
 _atom_site_symmetry_multiplicity
 _atom_site_fract_x
 _atom_site_fract_y
 _atom_site_fract_z
 _atom_site_occupancy
  Li  Li0  1  0.000000  0.000000  0.000000  1
  Eu  Eu1  1  0.839047  0.324328  0.493578  1
  Eu  Eu2  1  0.160952  0.675673  0.493578  1
  Eu  Eu3  1  0.324328  0.160952  0.506422  1
  Eu  Eu4  1  0.675673  0.839047  0.506422  1
  Mg  Mg5  1  0.500000  0.500000  0.000000  1
  Si  Si6  1  0.642271  0.138938  0.060935  1
  Si  Si7  1  0.357728  0.861062  0.060935  1
  Si  Si8  1  0.138938  0.357728  0.939065  1
  Si  Si9  1  0.861062  0.642271  0.939065  1
  O  O10  1  0.500000  0.000000  0.168019  1
  O  O11  1  0.812090  0.079356  0.209216  1
  O  O12  1  0.580577  0.311873  0.206253  1
  O  O13  1  0.419424  0.688128  0.206253  1
  O  O14  1  0.187910  0.920643  0.209216  1
  O  O15  1  0.142367  0.361250  0.255255  1
  O  O16  1  0.857633  0.638748  0.255255  1
  O  O17  1  0.638748  0.142367  0.744746  1
  O  O18  1  0.361250  0.857633  0.744746  1
  O  O19  1  0.079356  0.187910  0.790784  1
  O  O20  1  0.311873  0.419424  0.793747  1
  O  O21  1  0.688128  0.580577  0.793747  1
  O  O22  1  0.920643  0.812090  0.790784  1
  O  O23  1  0.000000  0.500000  0.831982  1
