# generated using pymatgen
data_Ho12Th8Sn11Sb5
_symmetry_space_group_name_H-M   'P 1'
_cell_length_a   8.13594512
_cell_length_b   8.17396742
_cell_length_c   15.40792097
_cell_angle_alpha   90.03611642
_cell_angle_beta   90.01858968
_cell_angle_gamma   89.99217018
_symmetry_Int_Tables_number   1
_chemical_formula_structural   Ho12Th8Sn11Sb5
_chemical_formula_sum   'Ho12 Th8 Sn11 Sb5'
_cell_volume   1024.67193735
_cell_formula_units_Z   1
loop_
 _symmetry_equiv_pos_site_id
 _symmetry_equiv_pos_as_xyz
  1  'x, y, z'
loop_
 _atom_site_type_symbol
 _atom_site_label
 _atom_site_symmetry_multiplicity
 _atom_site_fract_x
 _atom_site_fract_y
 _atom_site_fract_z
 _atom_site_occupancy
  Ho  Ho0  1  0.362871  0.838455  0.876979  1
  Ho  Ho1  1  0.863328  0.661633  0.623629  1
  Ho  Ho2  1  0.636364  0.161607  0.376418  1
  Ho  Ho3  1  0.135996  0.338939  0.123472  1
  Ho  Ho4  1  0.637399  0.162160  0.122993  1
  Ho  Ho5  1  0.137981  0.337529  0.376715  1
  Ho  Ho6  1  0.362276  0.837740  0.623575  1
  Ho  Ho7  1  0.863256  0.661671  0.876747  1
  Ho  Ho8  1  0.190660  0.495098  0.748852  1
  Ho  Ho9  1  0.690778  0.004983  0.750168  1
  Ho  Ho10  1  0.809283  0.504512  0.248852  1
  Ho  Ho11  1  0.309237  0.995594  0.250931  1
  Th  Th12  1  0.519946  0.321585  0.905000  1
  Th  Th13  1  0.019540  0.178692  0.595525  1
  Th  Th14  1  0.480370  0.678441  0.404403  1
  Th  Th15  1  0.980578  0.820894  0.095519  1
  Th  Th16  1  0.481830  0.678749  0.094962  1
  Th  Th17  1  0.982806  0.820845  0.404969  1
  Th  Th18  1  0.517479  0.320431  0.595139  1
  Th  Th19  1  0.018850  0.180060  0.904973  1
  Sn  Sn20  1  0.203374  0.539201  0.542892  1
  Sn  Sn21  1  0.296899  0.039024  0.457153  1
  Sn  Sn22  1  0.796032  0.460998  0.042778  1
  Sn  Sn23  1  0.558341  0.620948  0.750373  1
  Sn  Sn24  1  0.058035  0.878787  0.750559  1
  Sn  Sn25  1  0.441737  0.379165  0.249717  1
  Sn  Sn26  1  0.941715  0.120870  0.249856  1
  Sn  Sn27  1  0.325106  0.142564  0.750404  1
  Sn  Sn28  1  0.825167  0.357713  0.750040  1
  Sn  Sn29  1  0.675117  0.857791  0.250042  1
  Sn  Sn30  1  0.175264  0.642367  0.249825  1
  Sb  Sb31  1  0.295955  0.039871  0.043283  1
  Sb  Sb32  1  0.797345  0.459814  0.457276  1
  Sb  Sb33  1  0.702500  0.959919  0.542922  1
  Sb  Sb34  1  0.202349  0.539746  0.956903  1
  Sb  Sb35  1  0.704235  0.961601  0.956157  1
