# generated using pymatgen
data_TbErGa4PdAu
_symmetry_space_group_name_H-M   'P 1'
_cell_length_a   5.56896213
_cell_length_b   5.56896221
_cell_length_c   6.67471100
_cell_angle_alpha   90.00000000
_cell_angle_beta   90.00000000
_cell_angle_gamma   132.52983397
_symmetry_Int_Tables_number   1
_chemical_formula_structural   TbErGa4PdAu
_chemical_formula_sum   'Tb1 Er1 Ga4 Pd1 Au1'
_cell_volume   152.54731257
_cell_formula_units_Z   1
loop_
 _symmetry_equiv_pos_site_id
 _symmetry_equiv_pos_as_xyz
  1  'x, y, z'
loop_
 _atom_site_type_symbol
 _atom_site_label
 _atom_site_symmetry_multiplicity
 _atom_site_fract_x
 _atom_site_fract_y
 _atom_site_fract_z
 _atom_site_occupancy
  Tb  Tb0  1  0.590722  0.409278  0.250000  1
  Er  Er1  1  0.411438  0.588562  0.750000  1
  Ga  Ga2  1  0.874306  0.125694  0.454295  1
  Ga  Ga3  1  0.124816  0.875184  0.557081  1
  Ga  Ga4  1  0.874306  0.125694  0.045705  1
  Ga  Ga5  1  0.124816  0.875184  0.942919  1
  Pd  Pd6  1  0.699958  0.300042  0.750000  1
  Au  Au7  1  0.299639  0.700361  0.250000  1
