# generated using pymatgen
data_CaTh3U4(ReB6)4
_symmetry_space_group_name_H-M   'P 1'
_cell_length_a   3.71371600
_cell_length_b   9.39263204
_cell_length_c   11.52264528
_cell_angle_alpha   89.94597625
_cell_angle_beta   90.00000000
_cell_angle_gamma   90.00000000
_symmetry_Int_Tables_number   1
_chemical_formula_structural   CaTh3U4(ReB6)4
_chemical_formula_sum   'Ca1 Th3 U4 Re4 B24'
_cell_volume   401.92775511
_cell_formula_units_Z   1
loop_
 _symmetry_equiv_pos_site_id
 _symmetry_equiv_pos_as_xyz
  1  'x, y, z'
loop_
 _atom_site_type_symbol
 _atom_site_label
 _atom_site_symmetry_multiplicity
 _atom_site_fract_x
 _atom_site_fract_y
 _atom_site_fract_z
 _atom_site_occupancy
  Ca  Ca0  1  0.000000  0.336041  0.407472  1
  Th  Th1  1  0.000000  0.662672  0.590878  1
  Th  Th2  1  0.000000  0.834876  0.093062  1
  Th  Th3  1  0.000000  0.165288  0.907803  1
  U  U4  1  0.000000  0.960210  0.396919  1
  U  U5  1  0.000000  0.044422  0.601146  1
  U  U6  1  0.000000  0.457063  0.104175  1
  U  U7  1  0.000000  0.541234  0.897580  1
  Re  Re8  1  0.000000  0.647743  0.317744  1
  Re  Re9  1  0.000000  0.352755  0.683303  1
  Re  Re10  1  0.000000  0.146824  0.181068  1
  Re  Re11  1  0.000000  0.852668  0.817770  1
  B  B12  1  0.500000  0.553216  0.427919  1
  B  B13  1  0.500000  0.443638  0.570808  1
  B  B14  1  0.500000  0.055887  0.072574  1
  B  B15  1  0.500000  0.944059  0.927416  1
  B  B16  1  0.500000  0.744475  0.421414  1
  B  B17  1  0.500000  0.255373  0.577597  1
  B  B18  1  0.500000  0.245675  0.079652  1
  B  B19  1  0.500000  0.754241  0.921385  1
  B  B20  1  0.500000  0.801881  0.275673  1
  B  B21  1  0.500000  0.198563  0.724271  1
  B  B22  1  0.500000  0.302461  0.226088  1
  B  B23  1  0.500000  0.697547  0.774856  1
  B  B24  1  0.500000  0.642793  0.189292  1
  B  B25  1  0.500000  0.356388  0.811828  1
  B  B26  1  0.500000  0.145171  0.312204  1
  B  B27  1  0.500000  0.856064  0.687708  1
  B  B28  1  0.500000  0.992634  0.221318  1
  B  B29  1  0.500000  0.008301  0.778565  1
  B  B30  1  0.500000  0.490000  0.280311  1
  B  B31  1  0.500000  0.508299  0.720148  1
  B  B32  1  0.500000  0.636199  0.037734  1
  B  B33  1  0.500000  0.363599  0.963181  1
  B  B34  1  0.500000  0.138087  0.461994  1
  B  B35  1  0.500000  0.863653  0.537145  1
