# generated using pymatgen
data_Ti2OF5
_symmetry_space_group_name_H-M   'P 1'
_cell_length_a   5.50055307
_cell_length_b   13.53597380
_cell_length_c   5.49669320
_cell_angle_alpha   89.97194215
_cell_angle_beta   119.96220096
_cell_angle_gamma   90.08402666
_symmetry_Int_Tables_number   1
_chemical_formula_structural   Ti2OF5
_chemical_formula_sum   'Ti6 O3 F15'
_cell_volume   354.56250030
_cell_formula_units_Z   3
loop_
 _symmetry_equiv_pos_site_id
 _symmetry_equiv_pos_as_xyz
  1  'x, y, z'
loop_
 _atom_site_type_symbol
 _atom_site_label
 _atom_site_symmetry_multiplicity
 _atom_site_fract_x
 _atom_site_fract_y
 _atom_site_fract_z
 _atom_site_occupancy
  Ti  Ti0  1  0.992177  0.495195  0.972878  1
  Ti  Ti1  1  0.973076  0.005044  0.992335  1
  Ti  Ti2  1  0.647124  0.828565  0.340767  1
  Ti  Ti3  1  0.341021  0.671502  0.647156  1
  Ti  Ti4  1  0.686240  0.338121  0.360692  1
  Ti  Ti5  1  0.360438  0.161726  0.686108  1
  O  O6  1  0.501893  0.750011  0.502177  1
  O  O7  1  0.831108  0.416632  0.666804  1
  O  O8  1  0.666647  0.083322  0.831125  1
  F  F9  1  0.996633  0.750536  0.489701  1
  F  F10  1  0.489439  0.749410  0.996483  1
  F  F11  1  0.336391  0.416024  0.159708  1
  F  F12  1  0.159695  0.084022  0.336611  1
  F  F13  1  0.329493  0.917924  0.170877  1
  F  F14  1  0.171010  0.582123  0.329707  1
  F  F15  1  0.508614  0.250920  0.003617  1
  F  F16  1  0.004137  0.248924  0.508835  1
  F  F17  1  0.825299  0.915628  0.162050  1
  F  F18  1  0.162359  0.584377  0.825330  1
  F  F19  1  0.492882  0.249967  0.493009  1
  F  F20  1  0.843581  0.417318  0.173672  1
  F  F21  1  0.173732  0.082711  0.843429  1
  F  F22  1  0.840258  0.916708  0.666720  1
  F  F23  1  0.666753  0.583290  0.840208  1
