# generated using pymatgen
data_CaDyCo6(SiB)2
_symmetry_space_group_name_H-M   'P 1'
_cell_length_a   5.16047400
_cell_length_b   5.16082944
_cell_length_c   6.40014400
_cell_angle_alpha   90.00000000
_cell_angle_beta   90.00000000
_cell_angle_gamma   119.99772175
_symmetry_Int_Tables_number   1
_chemical_formula_structural   CaDyCo6(SiB)2
_chemical_formula_sum   'Ca1 Dy1 Co6 Si2 B2'
_cell_volume   147.61804433
_cell_formula_units_Z   1
loop_
 _symmetry_equiv_pos_site_id
 _symmetry_equiv_pos_as_xyz
  1  'x, y, z'
loop_
 _atom_site_type_symbol
 _atom_site_label
 _atom_site_symmetry_multiplicity
 _atom_site_fract_x
 _atom_site_fract_y
 _atom_site_fract_z
 _atom_site_occupancy
  Ca  Ca0  1  0.999976  0.000000  0.000000  1
  Dy  Dy1  1  0.999993  0.000000  0.500000  1
  Co  Co2  1  0.499989  0.000000  0.285457  1
  Co  Co3  1  0.499986  0.500003  0.285494  1
  Co  Co4  1  0.999983  0.499997  0.285494  1
  Co  Co5  1  0.499989  0.000000  0.714543  1
  Co  Co6  1  0.499986  0.500003  0.714506  1
  Co  Co7  1  0.999983  0.499997  0.714506  1
  Si  Si8  1  0.333261  0.666570  0.000000  1
  Si  Si9  1  0.666691  0.333430  0.000000  1
  B  B10  1  0.333324  0.666687  0.500000  1
  B  B11  1  0.666637  0.333313  0.500000  1
