# generated using pymatgen
data_CeY3(Hf3Si4)2
_symmetry_space_group_name_H-M   'P 1'
_cell_length_a   7.29300887
_cell_length_b   7.29657730
_cell_length_c   13.42693700
_cell_angle_alpha   90.00000000
_cell_angle_beta   90.00000000
_cell_angle_gamma   90.08647520
_symmetry_Int_Tables_number   1
_chemical_formula_structural   CeY3(Hf3Si4)2
_chemical_formula_sum   'Ce2 Y6 Hf12 Si16'
_cell_volume   714.50025114
_cell_formula_units_Z   2
loop_
 _symmetry_equiv_pos_site_id
 _symmetry_equiv_pos_as_xyz
  1  'x, y, z'
loop_
 _atom_site_type_symbol
 _atom_site_label
 _atom_site_symmetry_multiplicity
 _atom_site_fract_x
 _atom_site_fract_y
 _atom_site_fract_z
 _atom_site_occupancy
  Ce  Ce0  1  0.994618  0.343897  0.213655  1
  Ce  Ce1  1  0.005382  0.656103  0.713655  1
  Y  Y2  1  0.155631  0.496096  0.465985  1
  Y  Y3  1  0.503276  0.844721  0.034791  1
  Y  Y4  1  0.844369  0.503904  0.965985  1
  Y  Y5  1  0.496724  0.155279  0.534791  1
  Y  Y6  1  0.344199  0.994588  0.785089  1
  Y  Y7  1  0.655801  0.005412  0.285089  1
  Hf  Hf8  1  0.174351  0.174915  0.000927  1
  Hf  Hf9  1  0.825649  0.825085  0.500927  1
  Hf  Hf10  1  0.323737  0.673932  0.250093  1
  Hf  Hf11  1  0.676263  0.326068  0.750093  1
  Hf  Hf12  1  0.150152  0.998258  0.374531  1
  Hf  Hf13  1  0.849848  0.001742  0.874531  1
  Hf  Hf14  1  0.504408  0.648528  0.624206  1
  Hf  Hf15  1  0.350409  0.495730  0.874900  1
  Hf  Hf16  1  0.495592  0.351472  0.124206  1
  Hf  Hf17  1  0.649591  0.504270  0.374900  1
  Hf  Hf18  1  0.995732  0.149010  0.625448  1
  Hf  Hf19  1  0.004268  0.850990  0.125448  1
  Si  Si20  1  0.362723  0.296431  0.317189  1
  Si  Si21  1  0.637277  0.703569  0.817189  1
  Si  Si22  1  0.205708  0.863362  0.565759  1
  Si  Si23  1  0.137787  0.795802  0.933852  1
  Si  Si24  1  0.794292  0.136638  0.065759  1
  Si  Si25  1  0.862213  0.204198  0.433852  1
  Si  Si26  1  0.296464  0.360931  0.683068  1
  Si  Si27  1  0.703536  0.639069  0.183068  1
  Si  Si28  1  0.295893  0.048136  0.186197  1
  Si  Si29  1  0.704107  0.951864  0.686197  1
  Si  Si30  1  0.452099  0.795716  0.435210  1
  Si  Si31  1  0.205805  0.549724  0.063634  1
  Si  Si32  1  0.547901  0.204284  0.935210  1
  Si  Si33  1  0.794195  0.450276  0.563634  1
  Si  Si34  1  0.048095  0.294257  0.815467  1
  Si  Si35  1  0.951905  0.705743  0.315467  1
