# generated using pymatgen
data_PrDy2(ZnPt)4
_symmetry_space_group_name_H-M   'P 1'
_cell_length_a   8.25813582
_cell_length_b   8.25813508
_cell_length_c   8.25813450
_cell_angle_alpha   151.58036572
_cell_angle_beta   125.62177975
_cell_angle_gamma   62.48908370
_symmetry_Int_Tables_number   1
_chemical_formula_structural   PrDy2(ZnPt)4
_chemical_formula_sum   'Pr1 Dy2 Zn4 Pt4'
_cell_volume   216.02578527
_cell_formula_units_Z   1
loop_
 _symmetry_equiv_pos_site_id
 _symmetry_equiv_pos_as_xyz
  1  'x, y, z'
loop_
 _atom_site_type_symbol
 _atom_site_label
 _atom_site_symmetry_multiplicity
 _atom_site_fract_x
 _atom_site_fract_y
 _atom_site_fract_z
 _atom_site_occupancy
  Pr  Pr0  1  0.500000  0.000000  0.500000  1
  Dy  Dy1  1  0.874566  0.874566  0.000000  1
  Dy  Dy2  1  0.125434  0.125434  0.000000  1
  Zn  Zn3  1  0.477525  0.674155  0.803369  1
  Zn  Zn4  1  0.870786  0.674155  0.196631  1
  Zn  Zn5  1  0.129214  0.325845  0.803369  1
  Zn  Zn6  1  0.522475  0.325845  0.196631  1
  Pt  Pt7  1  0.276436  0.776436  0.500000  1
  Pt  Pt8  1  0.723564  0.223564  0.500000  1
  Pt  Pt9  1  0.811146  0.500000  0.311146  1
  Pt  Pt10  1  0.188854  0.500000  0.688854  1
