# generated using pymatgen
data_Na2Hf6MnCl15
_symmetry_space_group_name_H-M   'P 1'
_cell_length_a   9.22789087
_cell_length_b   9.22789167
_cell_length_c   9.22789082
_cell_angle_alpha   108.59049001
_cell_angle_beta   108.59049156
_cell_angle_gamma   111.24741389
_symmetry_Int_Tables_number   1
_chemical_formula_structural   Na2Hf6MnCl15
_chemical_formula_sum   'Na2 Hf6 Mn1 Cl15'
_cell_volume   604.46515341
_cell_formula_units_Z   1
loop_
 _symmetry_equiv_pos_site_id
 _symmetry_equiv_pos_as_xyz
  1  'x, y, z'
loop_
 _atom_site_type_symbol
 _atom_site_label
 _atom_site_symmetry_multiplicity
 _atom_site_fract_x
 _atom_site_fract_y
 _atom_site_fract_z
 _atom_site_occupancy
  Na  Na0  1  0.250000  0.750000  0.500000  1
  Na  Na1  1  0.750000  0.250000  0.500000  1
  Hf  Hf2  1  0.767554  0.767554  0.000000  1
  Hf  Hf3  1  0.000000  0.220066  0.220066  1
  Hf  Hf4  1  0.220066  0.000000  0.220066  1
  Hf  Hf5  1  0.232446  0.232446  0.000000  1
  Hf  Hf6  1  0.000000  0.779934  0.779934  1
  Hf  Hf7  1  0.779934  0.000000  0.779934  1
  Mn  Mn8  1  0.000000  0.000000  0.000000  1
  Cl  Cl9  1  0.500000  0.500000  0.000000  1
  Cl  Cl10  1  0.000000  0.500000  0.500000  1
  Cl  Cl11  1  0.500000  0.000000  0.500000  1
  Cl  Cl12  1  0.237223  0.237223  0.474446  1
  Cl  Cl13  1  0.993161  0.754253  0.238908  1
  Cl  Cl14  1  0.754253  0.993161  0.238908  1
  Cl  Cl15  1  0.237223  0.762777  0.000000  1
  Cl  Cl16  1  0.484655  0.245747  0.238908  1
  Cl  Cl17  1  0.245747  0.006839  0.761092  1
  Cl  Cl18  1  0.762777  0.237223  0.000000  1
  Cl  Cl19  1  0.006839  0.245747  0.761092  1
  Cl  Cl20  1  0.245747  0.484655  0.238908  1
  Cl  Cl21  1  0.762777  0.762777  0.525554  1
  Cl  Cl22  1  0.515345  0.754253  0.761092  1
  Cl  Cl23  1  0.754253  0.515345  0.761092  1
