# generated using pymatgen
data_NaLi7(PPd3)4
_symmetry_space_group_name_H-M   'P 1'
_cell_length_a   7.20694858
_cell_length_b   7.20694816
_cell_length_c   7.20694800
_cell_angle_alpha   89.94287075
_cell_angle_beta   89.94287075
_cell_angle_gamma   89.94287742
_symmetry_Int_Tables_number   1
_chemical_formula_structural   NaLi7(PPd3)4
_chemical_formula_sum   'Na1 Li7 P4 Pd12'
_cell_volume   374.32907663
_cell_formula_units_Z   1
loop_
 _symmetry_equiv_pos_site_id
 _symmetry_equiv_pos_as_xyz
  1  'x, y, z'
loop_
 _atom_site_type_symbol
 _atom_site_label
 _atom_site_symmetry_multiplicity
 _atom_site_fract_x
 _atom_site_fract_y
 _atom_site_fract_z
 _atom_site_occupancy
  Na  Na0  1  0.292339  0.292339  0.292339  1
  Li  Li1  1  0.037362  0.462876  0.550365  1
  Li  Li2  1  0.550365  0.037362  0.462876  1
  Li  Li3  1  0.462876  0.550365  0.037362  1
  Li  Li4  1  0.206750  0.708252  0.794362  1
  Li  Li5  1  0.957111  0.957111  0.957111  1
  Li  Li6  1  0.794362  0.206750  0.708252  1
  Li  Li7  1  0.708252  0.794362  0.206750  1
  P  P8  1  0.875296  0.372322  0.122441  1
  P  P9  1  0.372322  0.122441  0.875296  1
  P  P10  1  0.625581  0.625581  0.625581  1
  P  P11  1  0.122441  0.875296  0.372322  1
  Pd  Pd12  1  0.173964  0.069062  0.627333  1
  Pd  Pd13  1  0.431362  0.375331  0.682744  1
  Pd  Pd14  1  0.069062  0.627333  0.173964  1
  Pd  Pd15  1  0.917423  0.120810  0.324821  1
  Pd  Pd16  1  0.324821  0.917423  0.120810  1
  Pd  Pd17  1  0.682744  0.431362  0.375331  1
  Pd  Pd18  1  0.574276  0.874959  0.822860  1
  Pd  Pd19  1  0.627333  0.173964  0.069062  1
  Pd  Pd20  1  0.375331  0.682744  0.431362  1
  Pd  Pd21  1  0.874959  0.822860  0.574276  1
  Pd  Pd22  1  0.120810  0.324821  0.917423  1
  Pd  Pd23  1  0.822860  0.574276  0.874959  1
