# generated using pymatgen
data_Tb3Pr5(Si3Pt)4
_symmetry_space_group_name_H-M   'P 1'
_cell_length_a   8.21635700
_cell_length_b   8.21635635
_cell_length_c   8.52194800
_cell_angle_alpha   90.00000000
_cell_angle_beta   90.00000000
_cell_angle_gamma   119.99999055
_symmetry_Int_Tables_number   1
_chemical_formula_structural   Tb3Pr5(Si3Pt)4
_chemical_formula_sum   'Tb3 Pr5 Si12 Pt4'
_cell_volume   498.22798806
_cell_formula_units_Z   1
loop_
 _symmetry_equiv_pos_site_id
 _symmetry_equiv_pos_as_xyz
  1  'x, y, z'
loop_
 _atom_site_type_symbol
 _atom_site_label
 _atom_site_symmetry_multiplicity
 _atom_site_fract_x
 _atom_site_fract_y
 _atom_site_fract_z
 _atom_site_occupancy
  Tb  Tb0  1  0.499723  0.500277  0.750000  1
  Tb  Tb1  1  0.499723  0.999444  0.750000  1
  Tb  Tb2  1  0.000556  0.500277  0.750000  1
  Pr  Pr3  1  0.000000  0.000000  0.250000  1
  Pr  Pr4  1  0.000000  0.000000  0.750000  1
  Pr  Pr5  1  0.499968  0.500032  0.250000  1
  Pr  Pr6  1  0.499968  0.999934  0.250000  1
  Pr  Pr7  1  0.000066  0.500032  0.250000  1
  Si  Si8  1  0.166279  0.833721  0.503456  1
  Si  Si9  1  0.166279  0.332560  0.503456  1
  Si  Si10  1  0.667440  0.833721  0.503456  1
  Si  Si11  1  0.833671  0.166329  0.504413  1
  Si  Si12  1  0.833671  0.667340  0.504413  1
  Si  Si13  1  0.332660  0.166329  0.504413  1
  Si  Si14  1  0.833671  0.166329  0.995587  1
  Si  Si15  1  0.833671  0.667340  0.995587  1
  Si  Si16  1  0.332660  0.166329  0.995587  1
  Si  Si17  1  0.166279  0.833721  0.996544  1
  Si  Si18  1  0.166279  0.332560  0.996544  1
  Si  Si19  1  0.667440  0.833721  0.996544  1
  Pt  Pt20  1  0.333333  0.666667  0.512396  1
  Pt  Pt21  1  0.666667  0.333333  0.514501  1
  Pt  Pt22  1  0.666667  0.333333  0.985499  1
  Pt  Pt23  1  0.333333  0.666667  0.987604  1
