# generated using pymatgen
data_NdTh2(GeRh)3
_symmetry_space_group_name_H-M   'P 1'
_cell_length_a   7.34412700
_cell_length_b   7.31551638
_cell_length_c   3.97545100
_cell_angle_alpha   90.00000000
_cell_angle_beta   90.00000000
_cell_angle_gamma   120.12946227
_symmetry_Int_Tables_number   1
_chemical_formula_structural   NdTh2(GeRh)3
_chemical_formula_sum   'Nd1 Th2 Ge3 Rh3'
_cell_volume   184.72861099
_cell_formula_units_Z   1
loop_
 _symmetry_equiv_pos_site_id
 _symmetry_equiv_pos_as_xyz
  1  'x, y, z'
loop_
 _atom_site_type_symbol
 _atom_site_label
 _atom_site_symmetry_multiplicity
 _atom_site_fract_x
 _atom_site_fract_y
 _atom_site_fract_z
 _atom_site_occupancy
  Nd  Nd0  1  0.590192  0.000000  0.000000  1
  Th  Th1  1  0.999503  0.586810  0.000000  1
  Th  Th2  1  0.412694  0.413190  0.000000  1
  Ge  Ge3  1  0.753445  0.759064  0.500000  1
  Ge  Ge4  1  0.994382  0.240936  0.500000  1
  Ge  Ge5  1  0.252646  0.000000  0.500000  1
  Rh  Rh6  1  0.319859  0.651445  0.500000  1
  Rh  Rh7  1  0.668415  0.348555  0.500000  1
  Rh  Rh8  1  0.008862  0.000000  0.000000  1
