# generated using pymatgen
data_Y4Zn3Ru5
_symmetry_space_group_name_H-M   'P 1'
_cell_length_a   5.33749225
_cell_length_b   5.31243569
_cell_length_c   8.88339400
_cell_angle_alpha   90.00000000
_cell_angle_beta   90.00000000
_cell_angle_gamma   119.84482265
_symmetry_Int_Tables_number   1
_chemical_formula_structural   Y4Zn3Ru5
_chemical_formula_sum   'Y4 Zn3 Ru5'
_cell_volume   218.48290951
_cell_formula_units_Z   1
loop_
 _symmetry_equiv_pos_site_id
 _symmetry_equiv_pos_as_xyz
  1  'x, y, z'
loop_
 _atom_site_type_symbol
 _atom_site_label
 _atom_site_symmetry_multiplicity
 _atom_site_fract_x
 _atom_site_fract_y
 _atom_site_fract_z
 _atom_site_occupancy
  Y  Y0  1  0.328536  0.664269  0.434012  1
  Y  Y1  1  0.660176  0.330087  0.559435  1
  Y  Y2  1  0.660176  0.330087  0.940565  1
  Y  Y3  1  0.328536  0.664269  0.065988  1
  Zn  Zn4  1  0.185191  0.345797  0.750000  1
  Zn  Zn5  1  0.185191  0.839395  0.750000  1
  Zn  Zn6  1  0.334089  0.167044  0.250000  1
  Ru  Ru7  1  0.834980  0.659846  0.250000  1
  Ru  Ru8  1  0.688585  0.844293  0.750000  1
  Ru  Ru9  1  0.979781  0.989890  0.999572  1
  Ru  Ru10  1  0.834980  0.175133  0.250000  1
  Ru  Ru11  1  0.979781  0.989890  0.500428  1
