# generated using pymatgen
data_Zr6Fe16Si6Tc
_symmetry_space_group_name_H-M   'P 1'
_cell_length_a   8.14452837
_cell_length_b   8.14452837
_cell_length_c   8.14452800
_cell_angle_alpha   59.99999336
_cell_angle_beta   59.99999338
_cell_angle_gamma   59.99999322
_symmetry_Int_Tables_number   1
_chemical_formula_structural   Zr6Fe16Si6Tc
_chemical_formula_sum   'Zr6 Fe16 Si6 Tc1'
_cell_volume   382.01704221
_cell_formula_units_Z   1
loop_
 _symmetry_equiv_pos_site_id
 _symmetry_equiv_pos_as_xyz
  1  'x, y, z'
loop_
 _atom_site_type_symbol
 _atom_site_label
 _atom_site_symmetry_multiplicity
 _atom_site_fract_x
 _atom_site_fract_y
 _atom_site_fract_z
 _atom_site_occupancy
  Zr  Zr0  1  0.289942  0.710058  0.710058  1
  Zr  Zr1  1  0.710058  0.710058  0.289942  1
  Zr  Zr2  1  0.289942  0.289942  0.710058  1
  Zr  Zr3  1  0.710058  0.289942  0.289942  1
  Zr  Zr4  1  0.710058  0.289942  0.710058  1
  Zr  Zr5  1  0.289942  0.710058  0.289942  1
  Fe  Fe6  1  0.877067  0.877067  0.877067  1
  Fe  Fe7  1  0.030470  0.323177  0.323177  1
  Fe  Fe8  1  0.122933  0.122933  0.631201  1
  Fe  Fe9  1  0.323177  0.030470  0.323177  1
  Fe  Fe10  1  0.323177  0.323177  0.323177  1
  Fe  Fe11  1  0.676823  0.676823  0.969530  1
  Fe  Fe12  1  0.877067  0.877067  0.368799  1
  Fe  Fe13  1  0.676823  0.676823  0.676823  1
  Fe  Fe14  1  0.676823  0.969530  0.676823  1
  Fe  Fe15  1  0.323177  0.323177  0.030470  1
  Fe  Fe16  1  0.877067  0.368799  0.877067  1
  Fe  Fe17  1  0.631201  0.122933  0.122933  1
  Fe  Fe18  1  0.122933  0.631201  0.122933  1
  Fe  Fe19  1  0.122933  0.122933  0.122933  1
  Fe  Fe20  1  0.969530  0.676823  0.676823  1
  Fe  Fe21  1  0.368799  0.877067  0.877067  1
  Si  Si22  1  0.000000  0.000000  0.500000  1
  Si  Si23  1  0.000000  0.500000  0.000000  1
  Si  Si24  1  0.500000  0.000000  0.500000  1
  Si  Si25  1  0.000000  0.500000  0.500000  1
  Si  Si26  1  0.500000  0.000000  0.000000  1
  Si  Si27  1  0.500000  0.500000  0.000000  1
  Tc  Tc28  1  0.000000  0.000000  0.000000  1
