# generated using pymatgen
data_Y9Ho3Ga20
_symmetry_space_group_name_H-M   'P 1'
_cell_length_a   6.10063200
_cell_length_b   9.62968200
_cell_length_c   11.56831800
_cell_angle_alpha   90.00000000
_cell_angle_beta   90.00281878
_cell_angle_gamma   90.00000000
_symmetry_Int_Tables_number   1
_chemical_formula_structural   Y9Ho3Ga20
_chemical_formula_sum   'Y9 Ho3 Ga20'
_cell_volume   679.60566795
_cell_formula_units_Z   1
loop_
 _symmetry_equiv_pos_site_id
 _symmetry_equiv_pos_as_xyz
  1  'x, y, z'
loop_
 _atom_site_type_symbol
 _atom_site_label
 _atom_site_symmetry_multiplicity
 _atom_site_fract_x
 _atom_site_fract_y
 _atom_site_fract_z
 _atom_site_occupancy
  Y  Y0  1  0.849116  0.750000  0.075343  1
  Y  Y1  1  0.890765  0.509441  0.351339  1
  Y  Y2  1  0.609257  0.990659  0.851118  1
  Y  Y3  1  0.109230  0.009575  0.648631  1
  Y  Y4  1  0.390485  0.490478  0.148685  1
  Y  Y5  1  0.109230  0.490425  0.648631  1
  Y  Y6  1  0.390485  0.009522  0.148685  1
  Y  Y7  1  0.890765  0.990559  0.351339  1
  Y  Y8  1  0.609257  0.509341  0.851118  1
  Ho  Ho9  1  0.651046  0.750000  0.575096  1
  Ho  Ho10  1  0.151038  0.250000  0.924827  1
  Ho  Ho11  1  0.348978  0.250000  0.424847  1
  Ga  Ga12  1  0.875461  0.054590  0.090215  1
  Ga  Ga13  1  0.624400  0.446005  0.589994  1
  Ga  Ga14  1  0.124707  0.553466  0.909519  1
  Ga  Ga15  1  0.375526  0.946194  0.410067  1
  Ga  Ga16  1  0.124707  0.946534  0.909519  1
  Ga  Ga17  1  0.375526  0.553806  0.410067  1
  Ga  Ga18  1  0.875461  0.445410  0.090215  1
  Ga  Ga19  1  0.624400  0.053995  0.589994  1
  Ga  Ga20  1  0.173114  0.750000  0.252781  1
  Ga  Ga21  1  0.327867  0.750000  0.751963  1
  Ga  Ga22  1  0.827813  0.250000  0.747988  1
  Ga  Ga23  1  0.672198  0.250000  0.248011  1
  Ga  Ga24  1  0.372338  0.750000  0.003904  1
  Ga  Ga25  1  0.127331  0.750000  0.504560  1
  Ga  Ga26  1  0.626857  0.250000  0.995566  1
  Ga  Ga27  1  0.872506  0.250000  0.495467  1
  Ga  Ga28  1  0.601080  0.750000  0.300399  1
  Ga  Ga29  1  0.898465  0.750000  0.798966  1
  Ga  Ga30  1  0.398611  0.250000  0.700500  1
  Ga  Ga31  1  0.101982  0.250000  0.200645  1
