# generated using pymatgen
data_Pr9Dy10ErPb16
_symmetry_space_group_name_H-M   'P 1'
_cell_length_a   8.34274605
_cell_length_b   8.42521209
_cell_length_c   15.96886009
_cell_angle_alpha   90.08828507
_cell_angle_beta   90.33181690
_cell_angle_gamma   90.46854124
_symmetry_Int_Tables_number   1
_chemical_formula_structural   Pr9Dy10ErPb16
_chemical_formula_sum   'Pr9 Dy10 Er1 Pb16'
_cell_volume   1122.38390505
_cell_formula_units_Z   1
loop_
 _symmetry_equiv_pos_site_id
 _symmetry_equiv_pos_as_xyz
  1  'x, y, z'
loop_
 _atom_site_type_symbol
 _atom_site_label
 _atom_site_symmetry_multiplicity
 _atom_site_fract_x
 _atom_site_fract_y
 _atom_site_fract_z
 _atom_site_occupancy
  Pr  Pr0  1  0.129792  0.339543  0.619379  1
  Pr  Pr1  1  0.472790  0.679096  0.598793  1
  Pr  Pr2  1  0.974959  0.822426  0.903999  1
  Pr  Pr3  1  0.525415  0.322494  0.097750  1
  Pr  Pr4  1  0.027407  0.176352  0.399555  1
  Pr  Pr5  1  0.525139  0.322530  0.400897  1
  Pr  Pr6  1  0.025007  0.177397  0.097930  1
  Pr  Pr7  1  0.475786  0.678533  0.902843  1
  Pr  Pr8  1  0.974145  0.822609  0.598303  1
  Dy  Dy9  1  0.633117  0.159084  0.622753  1
  Dy  Dy10  1  0.133725  0.341691  0.878520  1
  Dy  Dy11  1  0.366888  0.841870  0.122196  1
  Dy  Dy12  1  0.867160  0.657602  0.377976  1
  Dy  Dy13  1  0.369973  0.841872  0.375582  1
  Dy  Dy14  1  0.866605  0.659099  0.122299  1
  Dy  Dy15  1  0.632374  0.158535  0.879493  1
  Dy  Dy16  1  0.798624  0.494836  0.751193  1
  Dy  Dy17  1  0.300264  0.004470  0.750687  1
  Dy  Dy18  1  0.200671  0.505648  0.248938  1
  Er  Er19  1  0.701191  0.994868  0.249960  1
  Pb  Pb20  1  0.708481  0.961788  0.455909  1
  Pb  Pb21  1  0.206044  0.539301  0.043536  1
  Pb  Pb22  1  0.293570  0.039767  0.956879  1
  Pb  Pb23  1  0.783491  0.464281  0.543150  1
  Pb  Pb24  1  0.297080  0.032798  0.542362  1
  Pb  Pb25  1  0.794306  0.460729  0.956749  1
  Pb  Pb26  1  0.706594  0.960695  0.044836  1
  Pb  Pb27  1  0.208452  0.542314  0.452799  1
  Pb  Pb28  1  0.438645  0.370060  0.751881  1
  Pb  Pb29  1  0.935266  0.126195  0.752467  1
  Pb  Pb30  1  0.563606  0.629545  0.249130  1
  Pb  Pb31  1  0.061717  0.869948  0.249928  1
  Pb  Pb32  1  0.664791  0.851308  0.750899  1
  Pb  Pb33  1  0.163638  0.651735  0.752079  1
  Pb  Pb34  1  0.336454  0.149380  0.248967  1
  Pb  Pb35  1  0.836834  0.349603  0.249383  1
