# generated using pymatgen
data_CePr3Zn4(InCu4)4
_symmetry_space_group_name_H-M   'P 1'
_cell_length_a   5.08629500
_cell_length_b   8.39966504
_cell_length_c   10.82512505
_cell_angle_alpha   90.01153853
_cell_angle_beta   90.00000000
_cell_angle_gamma   90.00000000
_symmetry_Int_Tables_number   1
_chemical_formula_structural   CePr3Zn4(InCu4)4
_chemical_formula_sum   'Ce1 Pr3 Zn4 In4 Cu16'
_cell_volume   462.48369524
_cell_formula_units_Z   1
loop_
 _symmetry_equiv_pos_site_id
 _symmetry_equiv_pos_as_xyz
  1  'x, y, z'
loop_
 _atom_site_type_symbol
 _atom_site_label
 _atom_site_symmetry_multiplicity
 _atom_site_fract_x
 _atom_site_fract_y
 _atom_site_fract_z
 _atom_site_occupancy
  Ce  Ce0  1  0.250000  0.752458  0.058685  1
  Pr  Pr1  1  0.750000  0.246233  0.941010  1
  Pr  Pr2  1  0.750000  0.745861  0.558908  1
  Pr  Pr3  1  0.250000  0.253889  0.441307  1
  Zn  Zn4  1  0.250000  0.814860  0.740976  1
  Zn  Zn5  1  0.750000  0.184841  0.259638  1
  Zn  Zn6  1  0.750000  0.685684  0.239565  1
  Zn  Zn7  1  0.250000  0.315139  0.759462  1
  In  In8  1  0.250000  0.638887  0.363481  1
  In  In9  1  0.750000  0.362349  0.635444  1
  In  In10  1  0.750000  0.861676  0.865797  1
  In  In11  1  0.250000  0.136479  0.135037  1
  Cu  Cu12  1  0.503444  0.567453  0.813357  1
  Cu  Cu13  1  0.495760  0.433160  0.187059  1
  Cu  Cu14  1  0.495883  0.932668  0.312187  1
  Cu  Cu15  1  0.004240  0.433160  0.187059  1
  Cu  Cu16  1  0.503831  0.067185  0.687328  1
  Cu  Cu17  1  0.996556  0.567453  0.813357  1
  Cu  Cu18  1  0.996169  0.067185  0.687328  1
  Cu  Cu19  1  0.004117  0.932668  0.312187  1
  Cu  Cu20  1  0.250000  0.556941  0.606640  1
  Cu  Cu21  1  0.750000  0.443381  0.393083  1
  Cu  Cu22  1  0.750000  0.941228  0.106215  1
  Cu  Cu23  1  0.250000  0.054903  0.893904  1
  Cu  Cu24  1  0.250000  0.919347  0.514911  1
  Cu  Cu25  1  0.750000  0.080224  0.485153  1
  Cu  Cu26  1  0.750000  0.582332  0.015447  1
  Cu  Cu27  1  0.250000  0.422354  0.985475  1
