# generated using pymatgen
data_La4Yb5DyGe8
_symmetry_space_group_name_H-M   'P 1'
_cell_length_a   7.56465592
_cell_length_b   8.00743600
_cell_length_c   15.31403600
_cell_angle_alpha   90.00000000
_cell_angle_beta   90.05033018
_cell_angle_gamma   90.00000000
_symmetry_Int_Tables_number   1
_chemical_formula_structural   La4Yb5DyGe8
_chemical_formula_sum   'La8 Yb10 Dy2 Ge16'
_cell_volume   927.62437312
_cell_formula_units_Z   2
loop_
 _symmetry_equiv_pos_site_id
 _symmetry_equiv_pos_as_xyz
  1  'x, y, z'
loop_
 _atom_site_type_symbol
 _atom_site_label
 _atom_site_symmetry_multiplicity
 _atom_site_fract_x
 _atom_site_fract_y
 _atom_site_fract_z
 _atom_site_occupancy
  La  La0  1  0.019519  0.182455  0.402579  1
  La  La1  1  0.519519  0.317545  0.402579  1
  La  La2  1  0.478190  0.683990  0.900177  1
  La  La3  1  0.479330  0.684603  0.598551  1
  La  La4  1  0.979330  0.815397  0.598551  1
  La  La5  1  0.978190  0.816010  0.900177  1
  La  La6  1  0.521011  0.316520  0.097240  1
  La  La7  1  0.021011  0.183480  0.097240  1
  Yb  Yb8  1  0.322256  0.175675  0.622196  1
  Yb  Yb9  1  0.678946  0.825073  0.377384  1
  Yb  Yb10  1  0.649846  0.006032  0.749626  1
  Yb  Yb11  1  0.178946  0.674927  0.377384  1
  Yb  Yb12  1  0.822111  0.324307  0.878668  1
  Yb  Yb13  1  0.822256  0.324325  0.622196  1
  Yb  Yb14  1  0.847542  0.497620  0.252893  1
  Yb  Yb15  1  0.347542  0.002380  0.252893  1
  Yb  Yb16  1  0.322111  0.175693  0.878668  1
  Yb  Yb17  1  0.149846  0.493968  0.749626  1
  Dy  Dy18  1  0.177469  0.678918  0.122579  1
  Dy  Dy19  1  0.677469  0.821082  0.122579  1
  Ge  Ge20  1  0.267602  0.872196  0.750552  1
  Ge  Ge21  1  0.471800  0.609139  0.246166  1
  Ge  Ge22  1  0.028479  0.103451  0.750581  1
  Ge  Ge23  1  0.528479  0.396549  0.750581  1
  Ge  Ge24  1  0.153102  0.467239  0.538270  1
  Ge  Ge25  1  0.971800  0.890861  0.246166  1
  Ge  Ge26  1  0.731883  0.123623  0.247208  1
  Ge  Ge27  1  0.847875  0.535915  0.041007  1
  Ge  Ge28  1  0.347875  0.964085  0.041007  1
  Ge  Ge29  1  0.155287  0.469613  0.963884  1
  Ge  Ge30  1  0.653102  0.032761  0.538270  1
  Ge  Ge31  1  0.347753  0.968509  0.460439  1
  Ge  Ge32  1  0.847753  0.531491  0.460439  1
  Ge  Ge33  1  0.767602  0.627804  0.750552  1
  Ge  Ge34  1  0.231883  0.376377  0.247208  1
  Ge  Ge35  1  0.655287  0.030387  0.963884  1
