# generated using pymatgen
data_Sc4AsI6
_symmetry_space_group_name_H-M   'P 1'
_cell_length_a   4.06167400
_cell_length_b   13.48800400
_cell_length_c   14.12830900
_cell_angle_alpha   90.00000000
_cell_angle_beta   90.00000000
_cell_angle_gamma   90.00000000
_symmetry_Int_Tables_number   1
_chemical_formula_structural   Sc4AsI6
_chemical_formula_sum   'Sc8 As2 I12'
_cell_volume   774.00351646
_cell_formula_units_Z   2
loop_
 _symmetry_equiv_pos_site_id
 _symmetry_equiv_pos_as_xyz
  1  'x, y, z'
loop_
 _atom_site_type_symbol
 _atom_site_label
 _atom_site_symmetry_multiplicity
 _atom_site_fract_x
 _atom_site_fract_y
 _atom_site_fract_z
 _atom_site_occupancy
  Sc  Sc0  1  0.000000  0.102003  0.078516  1
  Sc  Sc1  1  0.000000  0.897997  0.921484  1
  Sc  Sc2  1  0.000000  0.602003  0.421484  1
  Sc  Sc3  1  0.000000  0.397997  0.578516  1
  Sc  Sc4  1  0.500000  0.121492  0.855810  1
  Sc  Sc5  1  0.500000  0.878508  0.144190  1
  Sc  Sc6  1  0.500000  0.621492  0.644190  1
  Sc  Sc7  1  0.500000  0.378508  0.355810  1
  As  As8  1  0.500000  0.000000  0.000000  1
  As  As9  1  0.500000  0.500000  0.500000  1
  I  I10  1  0.500000  0.265674  0.674555  1
  I  I11  1  0.500000  0.734326  0.325445  1
  I  I12  1  0.500000  0.765674  0.825445  1
  I  I13  1  0.500000  0.234326  0.174555  1
  I  I14  1  0.000000  0.258688  0.929909  1
  I  I15  1  0.000000  0.741312  0.070091  1
  I  I16  1  0.000000  0.484484  0.243546  1
  I  I17  1  0.000000  0.515516  0.756454  1
  I  I18  1  0.000000  0.984484  0.256454  1
  I  I19  1  0.000000  0.015516  0.743546  1
  I  I20  1  0.000000  0.241312  0.429909  1
  I  I21  1  0.000000  0.758688  0.570091  1
