# generated using pymatgen
data_Mg2Pa2Ge6Rh7
_symmetry_space_group_name_H-M   'P 1'
_cell_length_a   7.17861956
_cell_length_b   7.20698748
_cell_length_c   7.17861903
_cell_angle_alpha   109.43758021
_cell_angle_beta   109.37868670
_cell_angle_gamma   109.43758886
_symmetry_Int_Tables_number   1
_chemical_formula_structural   Mg2Pa2Ge6Rh7
_chemical_formula_sum   'Mg2 Pa2 Ge6 Rh7'
_cell_volume   286.46210841
_cell_formula_units_Z   1
loop_
 _symmetry_equiv_pos_site_id
 _symmetry_equiv_pos_as_xyz
  1  'x, y, z'
loop_
 _atom_site_type_symbol
 _atom_site_label
 _atom_site_symmetry_multiplicity
 _atom_site_fract_x
 _atom_site_fract_y
 _atom_site_fract_z
 _atom_site_occupancy
  Mg  Mg0  1  0.000000  0.500000  0.000000  1
  Mg  Mg1  1  0.500000  0.500000  0.500000  1
  Pa  Pa2  1  0.000000  0.000000  0.500000  1
  Pa  Pa3  1  0.500000  0.000000  0.000000  1
  Ge  Ge4  1  0.685555  0.674317  0.988762  1
  Ge  Ge5  1  0.311737  0.000000  0.311737  1
  Ge  Ge6  1  0.011238  0.325683  0.314445  1
  Ge  Ge7  1  0.314445  0.325683  0.011238  1
  Ge  Ge8  1  0.688263  0.000000  0.688263  1
  Ge  Ge9  1  0.988762  0.674317  0.685555  1
  Rh  Rh10  1  0.748791  0.247877  0.499087  1
  Rh  Rh11  1  0.750000  0.500000  0.250000  1
  Rh  Rh12  1  0.499087  0.247877  0.748791  1
  Rh  Rh13  1  0.250000  0.500000  0.750000  1
  Rh  Rh14  1  0.251209  0.752123  0.500913  1
  Rh  Rh15  1  0.500913  0.752123  0.251209  1
  Rh  Rh16  1  0.000000  0.000000  0.000000  1
