# generated using pymatgen
data_La3Mg3Hg2Ir
_symmetry_space_group_name_H-M   'P 1'
_cell_length_a   8.01081000
_cell_length_b   8.01081090
_cell_length_c   4.22398300
_cell_angle_alpha   90.00000000
_cell_angle_beta   90.00000000
_cell_angle_gamma   119.99999630
_symmetry_Int_Tables_number   1
_chemical_formula_structural   La3Mg3Hg2Ir
_chemical_formula_sum   'La3 Mg3 Hg2 Ir1'
_cell_volume   234.75006474
_cell_formula_units_Z   1
loop_
 _symmetry_equiv_pos_site_id
 _symmetry_equiv_pos_as_xyz
  1  'x, y, z'
loop_
 _atom_site_type_symbol
 _atom_site_label
 _atom_site_symmetry_multiplicity
 _atom_site_fract_x
 _atom_site_fract_y
 _atom_site_fract_z
 _atom_site_occupancy
  La  La0  1  0.599857  0.031488  0.000000  1
  La  La1  1  0.968512  0.568368  0.000000  1
  La  La2  1  0.431632  0.400143  0.000000  1
  Mg  Mg3  1  0.251562  0.001075  0.500000  1
  Mg  Mg4  1  0.998925  0.250486  0.500000  1
  Mg  Mg5  1  0.749514  0.748438  0.500000  1
  Hg  Hg6  1  0.333333  0.666667  0.500000  1
  Hg  Hg7  1  0.000000  0.000000  0.000000  1
  Ir  Ir8  1  0.666667  0.333333  0.500000  1
