# generated using pymatgen
data_Y4Sn6Ir7
_symmetry_space_group_name_H-M   'P 1'
_cell_length_a   7.60581639
_cell_length_b   7.59520916
_cell_length_c   7.59521000
_cell_angle_alpha   109.42165723
_cell_angle_beta   109.46772794
_cell_angle_gamma   109.46772433
_symmetry_Int_Tables_number   1
_chemical_formula_structural   Y4Sn6Ir7
_chemical_formula_sum   'Y4 Sn6 Ir7'
_cell_volume   337.99178051
_cell_formula_units_Z   1
loop_
 _symmetry_equiv_pos_site_id
 _symmetry_equiv_pos_as_xyz
  1  'x, y, z'
loop_
 _atom_site_type_symbol
 _atom_site_label
 _atom_site_symmetry_multiplicity
 _atom_site_fract_x
 _atom_site_fract_y
 _atom_site_fract_z
 _atom_site_occupancy
  Y  Y0  1  0.000000  0.000000  0.500000  1
  Y  Y1  1  0.000000  0.500000  0.000000  1
  Y  Y2  1  0.500000  0.000000  0.000000  1
  Y  Y3  1  0.500000  0.500000  0.500000  1
  Sn  Sn4  1  0.685591  0.685660  0.999931  1
  Sn  Sn5  1  0.314409  0.000069  0.314340  1
  Sn  Sn6  1  0.000000  0.314409  0.314409  1
  Sn  Sn7  1  0.314409  0.314340  0.000069  1
  Sn  Sn8  1  0.685591  0.999931  0.685660  1
  Sn  Sn9  1  0.000000  0.685591  0.685591  1
  Ir  Ir10  1  0.749880  0.249979  0.499901  1
  Ir  Ir11  1  0.749880  0.499901  0.249979  1
  Ir  Ir12  1  0.500000  0.250000  0.750000  1
  Ir  Ir13  1  0.250120  0.500099  0.750021  1
  Ir  Ir14  1  0.250120  0.750021  0.500099  1
  Ir  Ir15  1  0.500000  0.750000  0.250000  1
  Ir  Ir16  1  0.000000  0.000000  0.000000  1
