# generated using pymatgen
data_Mn4ReSi6Tc5
_symmetry_space_group_name_H-M   'P 1'
_cell_length_a   6.97063730
_cell_length_b   6.96327744
_cell_length_c   4.82822100
_cell_angle_alpha   90.00000000
_cell_angle_beta   90.00000000
_cell_angle_gamma   119.96507760
_symmetry_Int_Tables_number   1
_chemical_formula_structural   Mn4ReSi6Tc5
_chemical_formula_sum   'Mn4 Re1 Si6 Tc5'
_cell_volume   203.02834697
_cell_formula_units_Z   1
loop_
 _symmetry_equiv_pos_site_id
 _symmetry_equiv_pos_as_xyz
  1  'x, y, z'
loop_
 _atom_site_type_symbol
 _atom_site_label
 _atom_site_symmetry_multiplicity
 _atom_site_fract_x
 _atom_site_fract_y
 _atom_site_fract_z
 _atom_site_occupancy
  Mn  Mn0  1  0.332597  0.666978  0.499946  1
  Mn  Mn1  1  0.667403  0.334379  0.000054  1
  Mn  Mn2  1  0.667403  0.334379  0.499946  1
  Mn  Mn3  1  0.332597  0.666978  0.000054  1
  Re  Re4  1  0.000000  0.759437  0.750000  1
  Si  Si5  1  0.404302  0.001880  0.750000  1
  Si  Si6  1  0.401592  0.401349  0.250000  1
  Si  Si7  1  0.000000  0.597436  0.250000  1
  Si  Si8  1  0.000000  0.400250  0.750000  1
  Si  Si9  1  0.595698  0.597577  0.750000  1
  Si  Si10  1  0.598408  0.999756  0.250000  1
  Tc  Tc11  1  0.000000  0.242361  0.250000  1
  Tc  Tc12  1  0.758467  0.757594  0.250000  1
  Tc  Tc13  1  0.757912  0.999216  0.750000  1
  Tc  Tc14  1  0.242088  0.241303  0.750000  1
  Tc  Tc15  1  0.241533  0.999127  0.250000  1
