# generated using pymatgen
data_Tm16Mg2TlInNi4
_symmetry_space_group_name_H-M   'P 1'
_cell_length_a   9.48382292
_cell_length_b   9.48382317
_cell_length_c   9.44097861
_cell_angle_alpha   59.88946706
_cell_angle_beta   59.88947006
_cell_angle_gamma   60.10987855
_symmetry_Int_Tables_number   1
_chemical_formula_structural   Tm16Mg2TlInNi4
_chemical_formula_sum   'Tm16 Mg2 Tl1 In1 Ni4'
_cell_volume   599.92842338
_cell_formula_units_Z   1
loop_
 _symmetry_equiv_pos_site_id
 _symmetry_equiv_pos_as_xyz
  1  'x, y, z'
loop_
 _atom_site_type_symbol
 _atom_site_label
 _atom_site_symmetry_multiplicity
 _atom_site_fract_x
 _atom_site_fract_y
 _atom_site_fract_z
 _atom_site_occupancy
  Tm  Tm0  1  0.595127  0.595127  0.595675  1
  Tm  Tm1  1  0.596006  0.596006  0.211805  1
  Tm  Tm2  1  0.600676  0.206316  0.596848  1
  Tm  Tm3  1  0.206316  0.600676  0.596848  1
  Tm  Tm4  1  0.060943  0.437421  0.438549  1
  Tm  Tm5  1  0.435172  0.062927  0.063235  1
  Tm  Tm6  1  0.437421  0.060943  0.438549  1
  Tm  Tm7  1  0.062927  0.435172  0.063235  1
  Tm  Tm8  1  0.434965  0.434965  0.065048  1
  Tm  Tm9  1  0.060913  0.060913  0.438955  1
  Tm  Tm10  1  0.186363  0.814744  0.813995  1
  Tm  Tm11  1  0.814035  0.186199  0.185719  1
  Tm  Tm12  1  0.814744  0.186363  0.813995  1
  Tm  Tm13  1  0.186199  0.814035  0.185719  1
  Tm  Tm14  1  0.814440  0.814440  0.185026  1
  Tm  Tm15  1  0.186318  0.186318  0.813638  1
  Mg  Mg16  1  0.829363  0.515177  0.827408  1
  Mg  Mg17  1  0.515177  0.829363  0.827408  1
  Tl  Tl18  1  0.832538  0.832538  0.836011  1
  In  In19  1  0.832164  0.832164  0.501367  1
  Ni  Ni20  1  0.392315  0.392315  0.393276  1
  Ni  Ni21  1  0.391344  0.391344  0.822396  1
  Ni  Ni22  1  0.390002  0.824531  0.392648  1
  Ni  Ni23  1  0.824531  0.390002  0.392648  1
