# generated using pymatgen
data_Er6TiAl23(Os3Rh)2
_symmetry_space_group_name_H-M   'P 1'
_cell_length_a   8.83554000
_cell_length_b   8.83553855
_cell_length_c   9.51313200
_cell_angle_alpha   90.00000000
_cell_angle_beta   90.00000000
_cell_angle_gamma   119.99999794
_symmetry_Int_Tables_number   1
_chemical_formula_structural   Er6TiAl23(Os3Rh)2
_chemical_formula_sum   'Er6 Ti1 Al23 Os6 Rh2'
_cell_volume   643.16186672
_cell_formula_units_Z   1
loop_
 _symmetry_equiv_pos_site_id
 _symmetry_equiv_pos_as_xyz
  1  'x, y, z'
loop_
 _atom_site_type_symbol
 _atom_site_label
 _atom_site_symmetry_multiplicity
 _atom_site_fract_x
 _atom_site_fract_y
 _atom_site_fract_z
 _atom_site_occupancy
  Er  Er0  1  0.195226  0.390455  0.251638  1
  Er  Er1  1  0.805598  0.611195  0.746560  1
  Er  Er2  1  0.609545  0.804774  0.251638  1
  Er  Er3  1  0.388805  0.194402  0.746560  1
  Er  Er4  1  0.195226  0.804774  0.251638  1
  Er  Er5  1  0.805598  0.194402  0.746560  1
  Ti  Ti6  1  0.333333  0.666667  0.990166  1
  Al  Al7  1  0.666667  0.333333  0.983033  1
  Al  Al8  1  0.666667  0.333333  0.518506  1
  Al  Al9  1  0.333333  0.666667  0.480531  1
  Al  Al10  1  0.162890  0.325780  0.577283  1
  Al  Al11  1  0.836818  0.673636  0.423073  1
  Al  Al12  1  0.674220  0.837110  0.577283  1
  Al  Al13  1  0.837327  0.674656  0.078890  1
  Al  Al14  1  0.326364  0.163182  0.423073  1
  Al  Al15  1  0.159015  0.318030  0.922965  1
  Al  Al16  1  0.162890  0.837110  0.577283  1
  Al  Al17  1  0.325344  0.162673  0.078890  1
  Al  Al18  1  0.836818  0.163182  0.423073  1
  Al  Al19  1  0.681970  0.840985  0.922965  1
  Al  Al20  1  0.837327  0.162673  0.078890  1
  Al  Al21  1  0.159015  0.840985  0.922965  1
  Al  Al22  1  0.560847  0.121693  0.253784  1
  Al  Al23  1  0.441462  0.882925  0.749205  1
  Al  Al24  1  0.878307  0.439153  0.253784  1
  Al  Al25  1  0.117075  0.558538  0.749205  1
  Al  Al26  1  0.560847  0.439153  0.253784  1
  Al  Al27  1  0.441462  0.558538  0.749205  1
  Al  Al28  1  0.000000  0.000000  0.250613  1
  Al  Al29  1  0.000000  0.000000  0.749696  1
  Os  Os30  1  0.498981  0.997963  0.003003  1
  Os  Os31  1  0.002037  0.501019  0.003003  1
  Os  Os32  1  0.499762  0.999526  0.502526  1
  Os  Os33  1  0.498981  0.501019  0.003003  1
  Os  Os34  1  0.000474  0.500238  0.502526  1
  Os  Os35  1  0.499762  0.500238  0.502526  1
  Rh  Rh36  1  0.000000  0.000000  0.000995  1
  Rh  Rh37  1  0.000000  0.000000  0.499678  1
