# generated using pymatgen
data_U4Mn4(ReSi2)3
_symmetry_space_group_name_H-M   'P 1'
_cell_length_a   6.98645475
_cell_length_b   6.98357118
_cell_length_c   6.98357170
_cell_angle_alpha   109.79973631
_cell_angle_beta   109.29892612
_cell_angle_gamma   109.29893102
_symmetry_Int_Tables_number   1
_chemical_formula_structural   U4Mn4(ReSi2)3
_chemical_formula_sum   'U4 Mn4 Re3 Si6'
_cell_volume   262.34204914
_cell_formula_units_Z   1
loop_
 _symmetry_equiv_pos_site_id
 _symmetry_equiv_pos_as_xyz
  1  'x, y, z'
loop_
 _atom_site_type_symbol
 _atom_site_label
 _atom_site_symmetry_multiplicity
 _atom_site_fract_x
 _atom_site_fract_y
 _atom_site_fract_z
 _atom_site_occupancy
  U  U0  1  0.500000  0.497824  0.502176  1
  U  U1  1  0.000000  0.004223  0.501210  1
  U  U2  1  0.500000  0.997824  0.002176  1
  U  U3  1  0.000000  0.498790  0.995777  1
  Mn  Mn4  1  0.751582  0.250028  0.501554  1
  Mn  Mn5  1  0.500000  0.251933  0.748067  1
  Mn  Mn6  1  0.500000  0.751933  0.248067  1
  Mn  Mn7  1  0.248418  0.498446  0.749972  1
  Re  Re8  1  0.747361  0.498096  0.249265  1
  Re  Re9  1  0.252639  0.750735  0.501904  1
  Re  Re10  1  0.000000  0.999855  0.000145  1
  Si  Si11  1  0.314449  0.319135  0.995314  1
  Si  Si12  1  0.000000  0.311118  0.319517  1
  Si  Si13  1  0.000000  0.680483  0.688882  1
  Si  Si14  1  0.685551  0.004686  0.680865  1
  Si  Si15  1  0.323877  0.004385  0.319492  1
  Si  Si16  1  0.676123  0.680508  0.995615  1
