# generated using pymatgen
data_TbY2In3HgPt2
_symmetry_space_group_name_H-M   'P 1'
_cell_length_a   7.71887159
_cell_length_b   7.74835591
_cell_length_c   4.01257100
_cell_angle_alpha   90.00000000
_cell_angle_beta   90.00000000
_cell_angle_gamma   119.91816738
_symmetry_Int_Tables_number   1
_chemical_formula_structural   TbY2In3HgPt2
_chemical_formula_sum   'Tb1 Y2 In3 Hg1 Pt2'
_cell_volume   208.00523625
_cell_formula_units_Z   1
loop_
 _symmetry_equiv_pos_site_id
 _symmetry_equiv_pos_as_xyz
  1  'x, y, z'
loop_
 _atom_site_type_symbol
 _atom_site_label
 _atom_site_symmetry_multiplicity
 _atom_site_fract_x
 _atom_site_fract_y
 _atom_site_fract_z
 _atom_site_occupancy
  Tb  Tb0  1  0.587193  0.607438  0.000000  1
  Y  Y1  1  0.392794  0.980566  0.000000  1
  Y  Y2  1  0.019042  0.411832  0.000000  1
  In  In3  1  0.251981  0.254633  0.500000  1
  In  In4  1  0.002652  0.747872  0.500000  1
  In  In5  1  0.745656  0.997737  0.500000  1
  Hg  Hg6  1  0.666817  0.333221  0.500000  1
  Pt  Pt7  1  0.000563  0.000258  0.000000  1
  Pt  Pt8  1  0.333302  0.666443  0.500000  1
