# generated using pymatgen
data_AcCoH6
_symmetry_space_group_name_H-M   'P 1'
_cell_length_a   4.73715973
_cell_length_b   4.73716052
_cell_length_c   4.73806197
_cell_angle_alpha   59.26861365
_cell_angle_beta   59.26859448
_cell_angle_gamma   59.26634322
_symmetry_Int_Tables_number   1
_chemical_formula_structural   AcCoH6
_chemical_formula_sum   'Ac1 Co1 H6'
_cell_volume   73.92975297
_cell_formula_units_Z   1
loop_
 _symmetry_equiv_pos_site_id
 _symmetry_equiv_pos_as_xyz
  1  'x, y, z'
loop_
 _atom_site_type_symbol
 _atom_site_label
 _atom_site_symmetry_multiplicity
 _atom_site_fract_x
 _atom_site_fract_y
 _atom_site_fract_z
 _atom_site_occupancy
  Ac  Ac0  1  0.500000  0.500000  0.500000  1
  Co  Co1  1  0.000000  0.000000  0.000000  1
  H  H2  1  0.610361  0.088834  0.088740  1
  H  H3  1  0.088834  0.610361  0.088740  1
  H  H4  1  0.911232  0.911232  0.389542  1
  H  H5  1  0.088768  0.088768  0.610457  1
  H  H6  1  0.911166  0.389638  0.911260  1
  H  H7  1  0.389638  0.911166  0.911260  1
