# generated using pymatgen
data_Tb2Mn4SiPC2
_symmetry_space_group_name_H-M   'P 1'
_cell_length_a   5.58167664
_cell_length_b   5.58167798
_cell_length_c   6.97169800
_cell_angle_alpha   90.00000000
_cell_angle_beta   90.00000000
_cell_angle_gamma   141.37364104
_symmetry_Int_Tables_number   1
_chemical_formula_structural   Tb2Mn4SiPC2
_chemical_formula_sum   'Tb2 Mn4 Si1 P1 C2'
_cell_volume   135.58728459
_cell_formula_units_Z   1
loop_
 _symmetry_equiv_pos_site_id
 _symmetry_equiv_pos_as_xyz
  1  'x, y, z'
loop_
 _atom_site_type_symbol
 _atom_site_label
 _atom_site_symmetry_multiplicity
 _atom_site_fract_x
 _atom_site_fract_y
 _atom_site_fract_z
 _atom_site_occupancy
  Tb  Tb0  1  0.544279  0.455721  0.250000  1
  Tb  Tb1  1  0.456360  0.543640  0.750000  1
  Mn  Mn2  1  0.830927  0.169073  0.063988  1
  Mn  Mn3  1  0.169517  0.830483  0.944842  1
  Mn  Mn4  1  0.169517  0.830483  0.555158  1
  Mn  Mn5  1  0.830927  0.169073  0.436012  1
  Si  Si6  1  0.733787  0.266213  0.750000  1
  P  P7  1  0.265704  0.734296  0.250000  1
  C  C8  1  0.999491  0.000509  0.000185  1
  C  C9  1  0.999491  0.000509  0.499815  1
