# generated using pymatgen
data_Cs4NaSb2Au
_symmetry_space_group_name_H-M   'P 1'
_cell_length_a   7.36064539
_cell_length_b   7.36064620
_cell_length_c   6.79679400
_cell_angle_alpha   92.14183397
_cell_angle_beta   92.14184200
_cell_angle_gamma   102.49401208
_symmetry_Int_Tables_number   1
_chemical_formula_structural   Cs4NaSb2Au
_chemical_formula_sum   'Cs4 Na1 Sb2 Au1'
_cell_volume   358.88232061
_cell_formula_units_Z   1
loop_
 _symmetry_equiv_pos_site_id
 _symmetry_equiv_pos_as_xyz
  1  'x, y, z'
loop_
 _atom_site_type_symbol
 _atom_site_label
 _atom_site_symmetry_multiplicity
 _atom_site_fract_x
 _atom_site_fract_y
 _atom_site_fract_z
 _atom_site_occupancy
  Cs  Cs0  1  0.029965  0.686503  0.258669  1
  Cs  Cs1  1  0.970035  0.313497  0.741331  1
  Cs  Cs2  1  0.686503  0.029965  0.258669  1
  Cs  Cs3  1  0.313497  0.970035  0.741331  1
  Na  Na4  1  0.500000  0.500000  0.000000  1
  Sb  Sb5  1  0.751197  0.751197  0.730631  1
  Sb  Sb6  1  0.248803  0.248803  0.269369  1
  Au  Au7  1  0.500000  0.500000  0.500000  1
