# generated using pymatgen
data_Cs6EuGdCl12
_symmetry_space_group_name_H-M   'P 1'
_cell_length_a   9.52558800
_cell_length_b   9.53120712
_cell_length_c   7.91133900
_cell_angle_alpha   90.00000000
_cell_angle_beta   90.00000000
_cell_angle_gamma   89.99097090
_symmetry_Int_Tables_number   1
_chemical_formula_structural   Cs6EuGdCl12
_chemical_formula_sum   'Cs6 Eu1 Gd1 Cl12'
_cell_volume   718.27324489
_cell_formula_units_Z   1
loop_
 _symmetry_equiv_pos_site_id
 _symmetry_equiv_pos_as_xyz
  1  'x, y, z'
loop_
 _atom_site_type_symbol
 _atom_site_label
 _atom_site_symmetry_multiplicity
 _atom_site_fract_x
 _atom_site_fract_y
 _atom_site_fract_z
 _atom_site_occupancy
  Cs  Cs0  1  0.000000  0.000000  0.500000  1
  Cs  Cs1  1  0.000000  0.000000  0.000000  1
  Cs  Cs2  1  0.236487  0.584042  0.500000  1
  Cs  Cs3  1  0.763513  0.415958  0.500000  1
  Cs  Cs4  1  0.418201  0.233986  0.000000  1
  Cs  Cs5  1  0.581799  0.766014  0.000000  1
  Eu  Eu6  1  0.500000  0.000000  0.500000  1
  Gd  Gd7  1  0.000000  0.500000  0.000000  1
  Cl  Cl8  1  0.695499  0.058183  0.744678  1
  Cl  Cl9  1  0.304501  0.941817  0.744678  1
  Cl  Cl10  1  0.943221  0.692061  0.240304  1
  Cl  Cl11  1  0.056779  0.307939  0.240304  1
  Cl  Cl12  1  0.304501  0.941817  0.255322  1
  Cl  Cl13  1  0.695499  0.058183  0.255322  1
  Cl  Cl14  1  0.056779  0.307939  0.759696  1
  Cl  Cl15  1  0.943221  0.692061  0.759696  1
  Cl  Cl16  1  0.571860  0.726757  0.500000  1
  Cl  Cl17  1  0.428140  0.273243  0.500000  1
  Cl  Cl18  1  0.272121  0.569580  0.000000  1
  Cl  Cl19  1  0.727879  0.430420  0.000000  1
