# generated using pymatgen
data_MgMn6Zn6Ni4RhO24
_symmetry_space_group_name_H-M   'P 1'
_cell_length_a   5.98350889
_cell_length_b   5.98272454
_cell_length_c   13.24309900
_cell_angle_alpha   77.17095424
_cell_angle_beta   77.50438767
_cell_angle_gamma   90.12903862
_symmetry_Int_Tables_number   1
_chemical_formula_structural   MgMn6Zn6Ni4RhO24
_chemical_formula_sum   'Mg1 Mn6 Zn6 Ni4 Rh1 O24'
_cell_volume   450.65846069
_cell_formula_units_Z   1
loop_
 _symmetry_equiv_pos_site_id
 _symmetry_equiv_pos_as_xyz
  1  'x, y, z'
loop_
 _atom_site_type_symbol
 _atom_site_label
 _atom_site_symmetry_multiplicity
 _atom_site_fract_x
 _atom_site_fract_y
 _atom_site_fract_z
 _atom_site_occupancy
  Mg  Mg0  1  0.500000  0.500000  0.500000  1
  Mn  Mn1  1  0.500000  0.000000  0.000000  1
  Mn  Mn2  1  0.000000  0.500000  0.500000  1
  Mn  Mn3  1  0.158605  0.169397  0.166913  1
  Mn  Mn4  1  0.841395  0.830603  0.833087  1
  Mn  Mn5  1  0.168796  0.165819  0.665839  1
  Mn  Mn6  1  0.831204  0.834181  0.334161  1
  Zn  Zn7  1  0.290451  0.024953  0.417966  1
  Zn  Zn8  1  0.975582  0.696785  0.085207  1
  Zn  Zn9  1  0.626375  0.363819  0.749450  1
  Zn  Zn10  1  0.024418  0.303215  0.914793  1
  Zn  Zn11  1  0.709549  0.975047  0.582034  1
  Zn  Zn12  1  0.373625  0.636181  0.250550  1
  Ni  Ni13  1  0.168765  0.664264  0.666511  1
  Ni  Ni14  1  0.831235  0.335736  0.333489  1
  Ni  Ni15  1  0.660876  0.165091  0.170206  1
  Ni  Ni16  1  0.339124  0.834909  0.829794  1
  Rh  Rh17  1  0.500000  0.500000  0.000000  1
  O  O18  1  0.079225  0.071466  0.821146  1
  O  O19  1  0.770505  0.737430  0.490382  1
  O  O20  1  0.398613  0.394584  0.164176  1
  O  O21  1  0.931591  0.923298  0.678088  1
  O  O22  1  0.610731  0.601245  0.334941  1
  O  O23  1  0.242164  0.255300  0.012503  1
  O  O24  1  0.388361  0.932163  0.666167  1
  O  O25  1  0.057241  0.592620  0.345246  1
  O  O26  1  0.716652  0.235166  0.007390  1
  O  O27  1  0.077249  0.615199  0.827364  1
  O  O28  1  0.766933  0.286136  0.494455  1
  O  O29  1  0.401281  0.947992  0.157519  1
  O  O30  1  0.229495  0.262570  0.509618  1
  O  O31  1  0.920775  0.928534  0.178854  1
  O  O32  1  0.601387  0.605416  0.835824  1
  O  O33  1  0.389269  0.398755  0.665059  1
  O  O34  1  0.068409  0.076703  0.321912  1
  O  O35  1  0.757836  0.744700  0.987497  1
  O  O36  1  0.942759  0.407380  0.654754  1
  O  O37  1  0.611639  0.067837  0.333833  1
  O  O38  1  0.283348  0.764834  0.992610  1
  O  O39  1  0.233067  0.713864  0.505545  1
  O  O40  1  0.922751  0.384801  0.172636  1
  O  O41  1  0.598719  0.052008  0.842481  1
