# generated using pymatgen
data_BaSrLiRe2H17
_symmetry_space_group_name_H-M   'P 1'
_cell_length_a   5.10109559
_cell_length_b   5.10109606
_cell_length_c   9.49569950
_cell_angle_alpha   90.47702794
_cell_angle_beta   89.52296984
_cell_angle_gamma   119.50750239
_symmetry_Int_Tables_number   1
_chemical_formula_structural   BaSrLiRe2H17
_chemical_formula_sum   'Ba1 Sr1 Li1 Re2 H17'
_cell_volume   215.02965247
_cell_formula_units_Z   1
loop_
 _symmetry_equiv_pos_site_id
 _symmetry_equiv_pos_as_xyz
  1  'x, y, z'
loop_
 _atom_site_type_symbol
 _atom_site_label
 _atom_site_symmetry_multiplicity
 _atom_site_fract_x
 _atom_site_fract_y
 _atom_site_fract_z
 _atom_site_occupancy
  Ba  Ba0  1  0.990798  0.009202  0.492451  1
  Sr  Sr1  1  0.991768  0.008232  0.990019  1
  Li  Li2  1  0.661084  0.338916  0.232774  1
  Re  Re3  1  0.321013  0.678987  0.245808  1
  Re  Re4  1  0.647387  0.352613  0.756386  1
  H  H5  1  0.516026  0.483974  0.890944  1
  H  H6  1  0.441142  0.558858  0.387215  1
  H  H7  1  0.515741  0.484259  0.625627  1
  H  H8  1  0.496129  0.987700  0.358624  1
  H  H9  1  0.926506  0.490691  0.631614  1
  H  H10  1  0.481469  0.933420  0.110464  1
  H  H11  1  0.927916  0.491336  0.879768  1
  H  H12  1  0.509309  0.073494  0.631614  1
  H  H13  1  0.012300  0.503871  0.358624  1
  H  H14  1  0.508664  0.072084  0.879768  1
  H  H15  1  0.066580  0.518531  0.110464  1
  H  H16  1  0.677908  0.746109  0.211181  1
  H  H17  1  0.818712  0.730091  0.754902  1
  H  H18  1  0.269909  0.181288  0.754902  1
  H  H19  1  0.253891  0.322092  0.211181  1
  H  H20  1  0.129453  0.870547  0.232015  1
  H  H21  1  0.836295  0.163705  0.753656  1
