# generated using pymatgen
data_TlCo(BrO3)6
_symmetry_space_group_name_H-M   'P 1'
_cell_length_a   9.22554900
_cell_length_b   9.22554843
_cell_length_c   5.78639500
_cell_angle_alpha   90.00000000
_cell_angle_beta   90.00000000
_cell_angle_gamma   119.99999130
_symmetry_Int_Tables_number   1
_chemical_formula_structural   TlCo(BrO3)6
_chemical_formula_sum   'Tl1 Co1 Br6 O18'
_cell_volume   426.50404977
_cell_formula_units_Z   1
loop_
 _symmetry_equiv_pos_site_id
 _symmetry_equiv_pos_as_xyz
  1  'x, y, z'
loop_
 _atom_site_type_symbol
 _atom_site_label
 _atom_site_symmetry_multiplicity
 _atom_site_fract_x
 _atom_site_fract_y
 _atom_site_fract_z
 _atom_site_occupancy
  Tl  Tl0  1  0.333333  0.666667  0.178080  1
  Co  Co1  1  0.666667  0.333333  0.694283  1
  Br  Br2  1  0.684491  0.039983  0.375767  1
  Br  Br3  1  0.339388  0.000029  0.849379  1
  Br  Br4  1  0.999971  0.339357  0.849379  1
  Br  Br5  1  0.355491  0.315509  0.375767  1
  Br  Br6  1  0.960017  0.644509  0.375767  1
  Br  Br7  1  0.660643  0.660612  0.849379  1
  O  O8  1  0.772813  0.807086  0.037057  1
  O  O9  1  0.923720  0.768549  0.537752  1
  O  O10  1  0.844829  0.076280  0.537752  1
  O  O11  1  0.192914  0.965726  0.037057  1
  O  O12  1  0.034274  0.227187  0.037057  1
  O  O13  1  0.231451  0.155171  0.537752  1
  O  O14  1  0.728220  0.517224  0.903858  1
  O  O15  1  0.166159  0.707460  0.435638  1
  O  O16  1  0.555264  0.421234  0.504329  1
  O  O17  1  0.094239  0.541024  0.964567  1
  O  O18  1  0.446784  0.905761  0.964567  1
  O  O19  1  0.578766  0.134030  0.504329  1
  O  O20  1  0.865970  0.444736  0.504329  1
  O  O21  1  0.458976  0.553216  0.964567  1
  O  O22  1  0.292540  0.458699  0.435638  1
  O  O23  1  0.789003  0.271780  0.903858  1
  O  O24  1  0.482776  0.210997  0.903858  1
  O  O25  1  0.541301  0.833841  0.435638  1
