# generated using pymatgen
data_V2ZnFe3
_symmetry_space_group_name_H-M   'P 1'
_cell_length_a   4.02205568
_cell_length_b   4.99821294
_cell_length_c   4.02202986
_cell_angle_alpha   89.99844131
_cell_angle_beta   60.00149341
_cell_angle_gamma   89.99904699
_symmetry_Int_Tables_number   1
_chemical_formula_structural   V2ZnFe3
_chemical_formula_sum   'V2 Zn1 Fe3'
_cell_volume   70.02373805
_cell_formula_units_Z   1
loop_
 _symmetry_equiv_pos_site_id
 _symmetry_equiv_pos_as_xyz
  1  'x, y, z'
loop_
 _atom_site_type_symbol
 _atom_site_label
 _atom_site_symmetry_multiplicity
 _atom_site_fract_x
 _atom_site_fract_y
 _atom_site_fract_z
 _atom_site_occupancy
  V  V0  1  0.885186  0.852231  0.339027  1
  V  V1  1  0.551783  0.215573  0.005718  1
  Zn  Zn2  1  0.218519  0.533883  0.672360  1
  Fe  Fe3  1  0.885110  0.345843  0.339046  1
  Fe  Fe4  1  0.551877  0.721869  0.005673  1
  Fe  Fe5  1  0.218486  0.033868  0.672359  1
