# generated using pymatgen
data_Er4CdRu
_symmetry_space_group_name_H-M   'P 1'
_cell_length_a   9.54032628
_cell_length_b   9.54032721
_cell_length_c   9.54032700
_cell_angle_alpha   60.00000418
_cell_angle_beta   60.00000097
_cell_angle_gamma   60.00000386
_symmetry_Int_Tables_number   1
_chemical_formula_structural   Er4CdRu
_chemical_formula_sum   'Er16 Cd4 Ru4'
_cell_volume   614.00907547
_cell_formula_units_Z   4
loop_
 _symmetry_equiv_pos_site_id
 _symmetry_equiv_pos_as_xyz
  1  'x, y, z'
loop_
 _atom_site_type_symbol
 _atom_site_label
 _atom_site_symmetry_multiplicity
 _atom_site_fract_x
 _atom_site_fract_y
 _atom_site_fract_z
 _atom_site_occupancy
  Er  Er0  1  0.061941  0.438060  0.438060  1
  Er  Er1  1  0.438060  0.061941  0.061941  1
  Er  Er2  1  0.438060  0.061941  0.438060  1
  Er  Er3  1  0.438060  0.438060  0.061941  1
  Er  Er4  1  0.061941  0.438060  0.061941  1
  Er  Er5  1  0.061941  0.061941  0.438060  1
  Er  Er6  1  0.189187  0.810814  0.810814  1
  Er  Er7  1  0.810814  0.189187  0.189187  1
  Er  Er8  1  0.810814  0.189187  0.810814  1
  Er  Er9  1  0.810814  0.810814  0.189187  1
  Er  Er10  1  0.189187  0.810814  0.189187  1
  Er  Er11  1  0.189187  0.189187  0.810814  1
  Er  Er12  1  0.653834  0.653834  0.653834  1
  Er  Er13  1  0.653834  0.653834  0.038501  1
  Er  Er14  1  0.038501  0.653834  0.653834  1
  Er  Er15  1  0.653834  0.038501  0.653834  1
  Cd  Cd16  1  0.419583  0.419583  0.419583  1
  Cd  Cd17  1  0.419583  0.419583  0.741252  1
  Cd  Cd18  1  0.741252  0.419583  0.419583  1
  Cd  Cd19  1  0.419583  0.741252  0.419583  1
  Ru  Ru20  1  0.860553  0.860553  0.860553  1
  Ru  Ru21  1  0.860553  0.860553  0.418341  1
  Ru  Ru22  1  0.418341  0.860553  0.860553  1
  Ru  Ru23  1  0.860553  0.418341  0.860553  1
