# generated using pymatgen
data_SrTb(PPd)2
_symmetry_space_group_name_H-M   'P 1'
_cell_length_a   4.13271800
_cell_length_b   8.23213033
_cell_length_c   7.30409100
_cell_angle_alpha   90.09216889
_cell_angle_beta   90.00000000
_cell_angle_gamma   90.00000000
_symmetry_Int_Tables_number   1
_chemical_formula_structural   SrTb(PPd)2
_chemical_formula_sum   'Sr2 Tb2 P4 Pd4'
_cell_volume   248.49269311
_cell_formula_units_Z   2
loop_
 _symmetry_equiv_pos_site_id
 _symmetry_equiv_pos_as_xyz
  1  'x, y, z'
loop_
 _atom_site_type_symbol
 _atom_site_label
 _atom_site_symmetry_multiplicity
 _atom_site_fract_x
 _atom_site_fract_y
 _atom_site_fract_z
 _atom_site_occupancy
  Sr  Sr0  1  0.250000  0.499204  0.250369  1
  Sr  Sr1  1  0.750000  0.500796  0.749631  1
  Tb  Tb2  1  0.750000  0.000551  0.751356  1
  Tb  Tb3  1  0.250000  0.999449  0.248644  1
  P  P4  1  0.250000  0.774385  0.913353  1
  P  P5  1  0.750000  0.225615  0.086647  1
  P  P6  1  0.750000  0.774391  0.413597  1
  P  P7  1  0.250000  0.225609  0.586403  1
  Pd  Pd8  1  0.250000  0.767686  0.583380  1
  Pd  Pd9  1  0.750000  0.232314  0.416620  1
  Pd  Pd10  1  0.750000  0.766332  0.083806  1
  Pd  Pd11  1  0.250000  0.233667  0.916194  1
