# generated using pymatgen
data_Ta3Al2N
_symmetry_space_group_name_H-M   'P 1'
_cell_length_a   7.04563900
_cell_length_b   7.04563900
_cell_length_c   7.04563900
_cell_angle_alpha   90.00000000
_cell_angle_beta   90.00000000
_cell_angle_gamma   90.00000000
_symmetry_Int_Tables_number   1
_chemical_formula_structural   Ta3Al2N
_chemical_formula_sum   'Ta12 Al8 N4'
_cell_volume   349.75276935
_cell_formula_units_Z   4
loop_
 _symmetry_equiv_pos_site_id
 _symmetry_equiv_pos_as_xyz
  1  'x, y, z'
loop_
 _atom_site_type_symbol
 _atom_site_label
 _atom_site_symmetry_multiplicity
 _atom_site_fract_x
 _atom_site_fract_y
 _atom_site_fract_z
 _atom_site_occupancy
  Ta  Ta0  1  0.795617  0.954383  0.375000  1
  Ta  Ta1  1  0.704383  0.045617  0.875000  1
  Ta  Ta2  1  0.204383  0.454383  0.125000  1
  Ta  Ta3  1  0.295617  0.545617  0.625000  1
  Ta  Ta4  1  0.954383  0.375000  0.795617  1
  Ta  Ta5  1  0.045617  0.875000  0.704383  1
  Ta  Ta6  1  0.454383  0.125000  0.204383  1
  Ta  Ta7  1  0.545617  0.625000  0.295617  1
  Ta  Ta8  1  0.375000  0.795617  0.954383  1
  Ta  Ta9  1  0.875000  0.704383  0.045617  1
  Ta  Ta10  1  0.125000  0.204383  0.454383  1
  Ta  Ta11  1  0.625000  0.295617  0.545617  1
  Al  Al12  1  0.179585  0.820415  0.320415  1
  Al  Al13  1  0.320415  0.179585  0.820415  1
  Al  Al14  1  0.820415  0.320415  0.179585  1
  Al  Al15  1  0.679585  0.679585  0.679585  1
  Al  Al16  1  0.570415  0.429585  0.929585  1
  Al  Al17  1  0.429585  0.929585  0.570415  1
  Al  Al18  1  0.929585  0.570415  0.429585  1
  Al  Al19  1  0.070415  0.070415  0.070415  1
  N  N20  1  0.875000  0.125000  0.625000  1
  N  N21  1  0.625000  0.875000  0.125000  1
  N  N22  1  0.125000  0.625000  0.875000  1
  N  N23  1  0.375000  0.375000  0.375000  1
