# generated using pymatgen
data_Sm4ReB16W3
_symmetry_space_group_name_H-M   'P 1'
_cell_length_a   3.66468400
_cell_length_b   6.07939401
_cell_length_c   11.77302802
_cell_angle_alpha   90.00714408
_cell_angle_beta   90.00000000
_cell_angle_gamma   90.00000000
_symmetry_Int_Tables_number   1
_chemical_formula_structural   Sm4ReB16W3
_chemical_formula_sum   'Sm4 Re1 B16 W3'
_cell_volume   262.29197170
_cell_formula_units_Z   1
loop_
 _symmetry_equiv_pos_site_id
 _symmetry_equiv_pos_as_xyz
  1  'x, y, z'
loop_
 _atom_site_type_symbol
 _atom_site_label
 _atom_site_symmetry_multiplicity
 _atom_site_fract_x
 _atom_site_fract_y
 _atom_site_fract_z
 _atom_site_occupancy
  Sm  Sm0  1  0.500000  0.374677  0.150553  1
  Sm  Sm1  1  0.500000  0.626200  0.849543  1
  Sm  Sm2  1  0.500000  0.125669  0.649929  1
  Sm  Sm3  1  0.500000  0.874657  0.349767  1
  Re  Re4  1  0.500000  0.870311  0.084687  1
  B  B5  1  0.000000  0.111521  0.047767  1
  B  B6  1  0.000000  0.885254  0.954749  1
  B  B7  1  0.000000  0.386337  0.546081  1
  B  B8  1  0.000000  0.613249  0.453233  1
  B  B9  1  0.000000  0.135406  0.467208  1
  B  B10  1  0.000000  0.864447  0.532219  1
  B  B11  1  0.000000  0.363675  0.968730  1
  B  B12  1  0.000000  0.638255  0.032836  1
  B  B13  1  0.000000  0.023570  0.190734  1
  B  B14  1  0.000000  0.974604  0.809063  1
  B  B15  1  0.000000  0.475047  0.691854  1
  B  B16  1  0.000000  0.525715  0.307579  1
  B  B17  1  0.000000  0.214668  0.314047  1
  B  B18  1  0.000000  0.784527  0.685417  1
  B  B19  1  0.000000  0.283852  0.815123  1
  B  B20  1  0.000000  0.718170  0.183784  1
  W  W21  1  0.500000  0.371432  0.414864  1
  W  W22  1  0.500000  0.628554  0.584134  1
  W  W23  1  0.500000  0.130204  0.916099  1
