# generated using pymatgen
data_Sm2SiPtBr2
_symmetry_space_group_name_H-M   'P 1'
_cell_length_a   4.22920700
_cell_length_b   4.22920651
_cell_length_c   11.06591300
_cell_angle_alpha   90.00000000
_cell_angle_beta   90.00000000
_cell_angle_gamma   119.99998037
_symmetry_Int_Tables_number   1
_chemical_formula_structural   Sm2SiPtBr2
_chemical_formula_sum   'Sm2 Si1 Pt1 Br2'
_cell_volume   171.40986129
_cell_formula_units_Z   1
loop_
 _symmetry_equiv_pos_site_id
 _symmetry_equiv_pos_as_xyz
  1  'x, y, z'
loop_
 _atom_site_type_symbol
 _atom_site_label
 _atom_site_symmetry_multiplicity
 _atom_site_fract_x
 _atom_site_fract_y
 _atom_site_fract_z
 _atom_site_occupancy
  Sm  Sm0  1  0.000000  0.000000  0.171457  1
  Sm  Sm1  1  0.000000  0.000000  0.826549  1
  Si  Si2  1  0.666667  0.333333  0.990525  1
  Pt  Pt3  1  0.333333  0.666667  0.009380  1
  Br  Br4  1  0.333333  0.666667  0.662666  1
  Br  Br5  1  0.666667  0.333333  0.339422  1
