# generated using pymatgen
data_ScTi(AsRu)2
_symmetry_space_group_name_H-M   'P 1'
_cell_length_a   7.57925056
_cell_length_b   7.58639707
_cell_length_c   7.57925085
_cell_angle_alpha   128.18984464
_cell_angle_beta   121.21121906
_cell_angle_gamma   82.13048735
_symmetry_Int_Tables_number   1
_chemical_formula_structural   ScTi(AsRu)2
_chemical_formula_sum   'Sc3 Ti3 As6 Ru6'
_cell_volume   281.82662435
_cell_formula_units_Z   3
loop_
 _symmetry_equiv_pos_site_id
 _symmetry_equiv_pos_as_xyz
  1  'x, y, z'
loop_
 _atom_site_type_symbol
 _atom_site_label
 _atom_site_symmetry_multiplicity
 _atom_site_fract_x
 _atom_site_fract_y
 _atom_site_fract_z
 _atom_site_occupancy
  Sc  Sc0  1  0.471497  0.240444  0.268947  1
  Sc  Sc1  1  0.526461  0.794178  0.767718  1
  Sc  Sc2  1  0.745763  0.664829  0.419065  1
  Ti  Ti3  1  0.250980  0.672231  0.921251  1
  Ti  Ti4  1  0.053891  0.852734  0.298843  1
  Ti  Ti5  1  0.949195  0.240066  0.790871  1
  As  As6  1  0.844843  0.578249  0.757603  1
  As  As7  1  0.157916  0.911028  0.737920  1
  As  As8  1  0.673109  0.911028  0.253113  1
  As  As9  1  0.320647  0.578249  0.233406  1
  As  As10  1  0.285648  0.313354  0.527705  1
  As  As11  1  0.724245  0.207188  0.982943  1
  Ru  Ru12  1  0.665444  0.493716  0.911162  1
  Ru  Ru13  1  0.338608  0.243693  0.831325  1
  Ru  Ru14  1  0.912369  0.243693  0.405085  1
  Ru  Ru15  1  0.082554  0.493716  0.328274  1
  Ru  Ru16  1  0.026185  0.001000  0.030355  1
  Ru  Ru17  1  0.470645  0.001000  0.474815  1
