# generated using pymatgen
data_Rb13Na5(AlBi4)2
_symmetry_space_group_name_H-M   'P 1'
_cell_length_a   10.92668377
_cell_length_b   10.81743652
_cell_length_c   11.23009500
_cell_angle_alpha   90.00000000
_cell_angle_beta   90.00000000
_cell_angle_gamma   119.66981776
_symmetry_Int_Tables_number   1
_chemical_formula_structural   Rb13Na5(AlBi4)2
_chemical_formula_sum   'Rb13 Na5 Al2 Bi8'
_cell_volume   1153.35274573
_cell_formula_units_Z   1
loop_
 _symmetry_equiv_pos_site_id
 _symmetry_equiv_pos_as_xyz
  1  'x, y, z'
loop_
 _atom_site_type_symbol
 _atom_site_label
 _atom_site_symmetry_multiplicity
 _atom_site_fract_x
 _atom_site_fract_y
 _atom_site_fract_z
 _atom_site_occupancy
  Rb  Rb0  1  0.417261  0.208631  0.453934  1
  Rb  Rb1  1  0.792669  0.585662  0.041016  1
  Rb  Rb2  1  0.206642  0.417233  0.537255  1
  Rb  Rb3  1  0.585574  0.792786  0.961180  1
  Rb  Rb4  1  0.206642  0.417233  0.962745  1
  Rb  Rb5  1  0.206642  0.789408  0.962745  1
  Rb  Rb6  1  0.792669  0.585662  0.458984  1
  Rb  Rb7  1  0.206642  0.789408  0.537255  1
  Rb  Rb8  1  0.792669  0.207008  0.041016  1
  Rb  Rb9  1  0.585574  0.792786  0.538820  1
  Rb  Rb10  1  0.417261  0.208631  0.046066  1
  Rb  Rb11  1  0.792669  0.207008  0.458984  1
  Rb  Rb12  1  0.234212  0.117106  0.750000  1
  Na  Na13  1  0.879260  0.765810  0.750000  1
  Na  Na14  1  0.113704  0.884607  0.250000  1
  Na  Na15  1  0.770444  0.885222  0.250000  1
  Na  Na16  1  0.879260  0.113451  0.750000  1
  Na  Na17  1  0.113704  0.229097  0.250000  1
  Al  Al18  1  0.332607  0.666303  0.250000  1
  Al  Al19  1  0.667606  0.333803  0.750000  1
  Bi  Bi20  1  0.476628  0.957486  0.250000  1
  Bi  Bi21  1  0.534388  0.492934  0.750000  1
  Bi  Bi22  1  0.956896  0.478448  0.750000  1
  Bi  Bi23  1  0.043932  0.521966  0.250000  1
  Bi  Bi24  1  0.476628  0.519142  0.250000  1
  Bi  Bi25  1  0.534388  0.041454  0.750000  1
  Bi  Bi26  1  0.991713  0.995857  0.009904  1
  Bi  Bi27  1  0.991713  0.995857  0.490096  1
