# generated using pymatgen
data_Ho2Tm4CoTc
_symmetry_space_group_name_H-M   'P 1'
_cell_length_a   6.22101100
_cell_length_b   7.13935300
_cell_length_c   9.02797000
_cell_angle_alpha   90.00000000
_cell_angle_beta   90.00000000
_cell_angle_gamma   90.00000000
_symmetry_Int_Tables_number   1
_chemical_formula_structural   Ho2Tm4CoTc
_chemical_formula_sum   'Ho4 Tm8 Co2 Tc2'
_cell_volume   400.96820131
_cell_formula_units_Z   2
loop_
 _symmetry_equiv_pos_site_id
 _symmetry_equiv_pos_as_xyz
  1  'x, y, z'
loop_
 _atom_site_type_symbol
 _atom_site_label
 _atom_site_symmetry_multiplicity
 _atom_site_fract_x
 _atom_site_fract_y
 _atom_site_fract_z
 _atom_site_occupancy
  Ho  Ho0  1  0.372895  0.546852  0.250000  1
  Ho  Ho1  1  0.142586  0.039810  0.250000  1
  Ho  Ho2  1  0.872895  0.953148  0.750000  1
  Ho  Ho3  1  0.642586  0.460190  0.750000  1
  Tm  Tm4  1  0.667418  0.173192  0.063847  1
  Tm  Tm5  1  0.823771  0.681697  0.434011  1
  Tm  Tm6  1  0.323771  0.818303  0.934011  1
  Tm  Tm7  1  0.167418  0.326808  0.563847  1
  Tm  Tm8  1  0.667418  0.173192  0.436153  1
  Tm  Tm9  1  0.167418  0.326808  0.936153  1
  Tm  Tm10  1  0.323771  0.818303  0.565989  1
  Tm  Tm11  1  0.823771  0.681697  0.065989  1
  Co  Co12  1  0.540271  0.885879  0.250000  1
  Co  Co13  1  0.040271  0.614121  0.750000  1
  Tc  Tc14  1  0.961870  0.391301  0.250000  1
  Tc  Tc15  1  0.461870  0.108699  0.750000  1
