# generated using pymatgen
data_Ce3ScSn10
_symmetry_space_group_name_H-M   'P 1'
_cell_length_a   4.59351981
_cell_length_b   4.66810400
_cell_length_c   17.26736088
_cell_angle_alpha   90.00000000
_cell_angle_beta   82.28576338
_cell_angle_gamma   90.00000000
_symmetry_Int_Tables_number   1
_chemical_formula_structural   Ce3ScSn10
_chemical_formula_sum   'Ce3 Sc1 Sn10'
_cell_volume   366.91356678
_cell_formula_units_Z   1
loop_
 _symmetry_equiv_pos_site_id
 _symmetry_equiv_pos_as_xyz
  1  'x, y, z'
loop_
 _atom_site_type_symbol
 _atom_site_label
 _atom_site_symmetry_multiplicity
 _atom_site_fract_x
 _atom_site_fract_y
 _atom_site_fract_z
 _atom_site_occupancy
  Ce  Ce0  1  0.296665  0.000000  0.405179  1
  Ce  Ce1  1  0.703389  0.000000  0.593405  1
  Ce  Ce2  1  0.569355  0.000000  0.862779  1
  Sc  Sc3  1  0.431511  0.000000  0.137334  1
  Sn  Sn4  1  0.498155  0.500000  0.004502  1
  Sn  Sn5  1  0.999048  0.000000  0.004761  1
  Sn  Sn6  1  0.930329  0.500000  0.139433  1
  Sn  Sn7  1  0.864541  0.000000  0.270941  1
  Sn  Sn8  1  0.359898  0.500000  0.272645  1
  Sn  Sn9  1  0.780744  0.500000  0.437847  1
  Sn  Sn10  1  0.219517  0.500000  0.561845  1
  Sn  Sn11  1  0.639168  0.500000  0.723747  1
  Sn  Sn12  1  0.137619  0.000000  0.724328  1
  Sn  Sn13  1  0.070070  0.500000  0.861253  1
