# generated using pymatgen
data_Cs3SrOs2O9
_symmetry_space_group_name_H-M   'P 1'
_cell_length_a   6.45073100
_cell_length_b   6.45073169
_cell_length_c   15.16282600
_cell_angle_alpha   90.00000000
_cell_angle_beta   90.00000000
_cell_angle_gamma   119.99999135
_symmetry_Int_Tables_number   1
_chemical_formula_structural   Cs3SrOs2O9
_chemical_formula_sum   'Cs6 Sr2 Os4 O18'
_cell_volume   546.42269733
_cell_formula_units_Z   2
loop_
 _symmetry_equiv_pos_site_id
 _symmetry_equiv_pos_as_xyz
  1  'x, y, z'
loop_
 _atom_site_type_symbol
 _atom_site_label
 _atom_site_symmetry_multiplicity
 _atom_site_fract_x
 _atom_site_fract_y
 _atom_site_fract_z
 _atom_site_occupancy
  Cs  Cs0  1  0.666667  0.333333  0.103573  1
  Cs  Cs1  1  0.333333  0.666667  0.603573  1
  Cs  Cs2  1  0.333333  0.666667  0.896427  1
  Cs  Cs3  1  0.666667  0.333333  0.396427  1
  Cs  Cs4  1  0.000000  0.000000  0.250000  1
  Cs  Cs5  1  0.000000  0.000000  0.750000  1
  Sr  Sr6  1  0.000000  0.000000  0.000000  1
  Sr  Sr7  1  0.000000  0.000000  0.500000  1
  Os  Os8  1  0.333333  0.666667  0.153903  1
  Os  Os9  1  0.666667  0.333333  0.653903  1
  Os  Os10  1  0.666667  0.333333  0.846097  1
  Os  Os11  1  0.333333  0.666667  0.346097  1
  O  O12  1  0.189020  0.378039  0.093404  1
  O  O13  1  0.810980  0.189020  0.593404  1
  O  O14  1  0.378039  0.189020  0.593404  1
  O  O15  1  0.621961  0.810980  0.093404  1
  O  O16  1  0.189020  0.810980  0.093404  1
  O  O17  1  0.810980  0.621961  0.906596  1
  O  O18  1  0.810980  0.189020  0.906596  1
  O  O19  1  0.810980  0.621961  0.593404  1
  O  O20  1  0.378039  0.189020  0.906596  1
  O  O21  1  0.621961  0.810980  0.406596  1
  O  O22  1  0.189020  0.378039  0.406596  1
  O  O23  1  0.189020  0.810980  0.406596  1
  O  O24  1  0.081752  0.540876  0.250000  1
  O  O25  1  0.540876  0.081752  0.750000  1
  O  O26  1  0.540876  0.459124  0.750000  1
  O  O27  1  0.459124  0.540876  0.250000  1
  O  O28  1  0.459124  0.918248  0.250000  1
  O  O29  1  0.918248  0.459124  0.750000  1
