# generated using pymatgen
data_Yb3(ReC3)2
_symmetry_space_group_name_H-M   'P 1'
_cell_length_a   8.36091900
_cell_length_b   8.36091890
_cell_length_c   5.16929400
_cell_angle_alpha   90.00000000
_cell_angle_beta   90.00000000
_cell_angle_gamma   119.99999539
_symmetry_Int_Tables_number   1
_chemical_formula_structural   Yb3(ReC3)2
_chemical_formula_sum   'Yb6 Re4 C12'
_cell_volume   312.94636518
_cell_formula_units_Z   2
loop_
 _symmetry_equiv_pos_site_id
 _symmetry_equiv_pos_as_xyz
  1  'x, y, z'
loop_
 _atom_site_type_symbol
 _atom_site_label
 _atom_site_symmetry_multiplicity
 _atom_site_fract_x
 _atom_site_fract_y
 _atom_site_fract_z
 _atom_site_occupancy
  Yb  Yb0  1  0.615812  0.693311  0.750000  1
  Yb  Yb1  1  0.922501  0.615812  0.250000  1
  Yb  Yb2  1  0.693311  0.077499  0.250000  1
  Yb  Yb3  1  0.306689  0.922501  0.750000  1
  Yb  Yb4  1  0.077499  0.384188  0.750000  1
  Yb  Yb5  1  0.384188  0.306689  0.250000  1
  Re  Re6  1  0.000000  0.000000  0.500000  1
  Re  Re7  1  0.000000  0.000000  0.000000  1
  Re  Re8  1  0.666667  0.333333  0.750000  1
  Re  Re9  1  0.333333  0.666667  0.250000  1
  C  C10  1  0.957238  0.773833  0.750000  1
  C  C11  1  0.183406  0.957238  0.250000  1
  C  C12  1  0.773833  0.816594  0.250000  1
  C  C13  1  0.226167  0.183406  0.750000  1
  C  C14  1  0.816594  0.042762  0.750000  1
  C  C15  1  0.042762  0.226167  0.250000  1
  C  C16  1  0.859033  0.586685  0.750000  1
  C  C17  1  0.272349  0.859033  0.250000  1
  C  C18  1  0.586685  0.727651  0.250000  1
  C  C19  1  0.413315  0.272349  0.750000  1
  C  C20  1  0.140967  0.413315  0.250000  1
  C  C21  1  0.727651  0.140967  0.750000  1
