# generated using pymatgen
data_Pr3Mg5(IO6)4
_symmetry_space_group_name_H-M   'P 1'
_cell_length_a   5.34292300
_cell_length_b   7.60064672
_cell_length_c   11.27230700
_cell_angle_alpha   79.23064288
_cell_angle_beta   90.00000000
_cell_angle_gamma   90.00000000
_symmetry_Int_Tables_number   1
_chemical_formula_structural   Pr3Mg5(IO6)4
_chemical_formula_sum   'Pr3 Mg5 I4 O24'
_cell_volume   449.70220906
_cell_formula_units_Z   1
loop_
 _symmetry_equiv_pos_site_id
 _symmetry_equiv_pos_as_xyz
  1  'x, y, z'
loop_
 _atom_site_type_symbol
 _atom_site_label
 _atom_site_symmetry_multiplicity
 _atom_site_fract_x
 _atom_site_fract_y
 _atom_site_fract_z
 _atom_site_occupancy
  Pr  Pr0  1  0.228910  0.000000  0.250000  1
  Pr  Pr1  1  0.703229  0.500000  0.750000  1
  Pr  Pr2  1  0.307295  0.500000  0.250000  1
  Mg  Mg3  1  0.769657  0.000000  0.750000  1
  Mg  Mg4  1  0.211523  0.770338  0.598974  1
  Mg  Mg5  1  0.782800  0.773821  0.088159  1
  Mg  Mg6  1  0.211523  0.229662  0.901026  1
  Mg  Mg7  1  0.782800  0.226179  0.411841  1
  I  I8  1  0.271850  0.759359  0.886502  1
  I  I9  1  0.730044  0.737557  0.394822  1
  I  I10  1  0.271850  0.240641  0.613498  1
  I  I11  1  0.730044  0.262443  0.105178  1
  O  O12  1  0.093966  0.977360  0.880515  1
  O  O13  1  0.565479  0.847642  0.943408  1
  O  O14  1  0.876684  0.967397  0.386608  1
  O  O15  1  0.470019  0.803926  0.733849  1
  O  O16  1  0.424625  0.819731  0.447088  1
  O  O17  1  0.003747  0.715693  0.781342  1
  O  O18  1  0.552280  0.783874  0.236025  1
  O  O19  1  0.873887  0.670379  0.548526  1
  O  O20  1  0.364575  0.514933  0.889098  1
  O  O21  1  0.007289  0.704954  0.292504  1
  O  O22  1  0.364575  0.485067  0.610902  1
  O  O23  1  0.873887  0.329621  0.951474  1
  O  O24  1  0.131313  0.688392  0.043682  1
  O  O25  1  0.635373  0.497538  0.396925  1
  O  O26  1  0.003747  0.284307  0.718658  1
  O  O27  1  0.635373  0.502462  0.103075  1
  O  O28  1  0.131313  0.311608  0.456318  1
  O  O29  1  0.470019  0.196074  0.766151  1
  O  O30  1  0.007289  0.295046  0.207496  1
  O  O31  1  0.565479  0.152358  0.556592  1
  O  O32  1  0.552280  0.216126  0.263975  1
  O  O33  1  0.093966  0.022640  0.619485  1
  O  O34  1  0.424625  0.180269  0.052912  1
  O  O35  1  0.876684  0.032603  0.113392  1
