# generated using pymatgen
data_TmThReB6
_symmetry_space_group_name_H-M   'P 1'
_cell_length_a   3.74984000
_cell_length_b   9.22163100
_cell_length_c   11.65399400
_cell_angle_alpha   90.00000000
_cell_angle_beta   90.00000000
_cell_angle_gamma   90.00000000
_symmetry_Int_Tables_number   1
_chemical_formula_structural   TmThReB6
_chemical_formula_sum   'Tm4 Th4 Re4 B24'
_cell_volume   402.99092628
_cell_formula_units_Z   4
loop_
 _symmetry_equiv_pos_site_id
 _symmetry_equiv_pos_as_xyz
  1  'x, y, z'
loop_
 _atom_site_type_symbol
 _atom_site_label
 _atom_site_symmetry_multiplicity
 _atom_site_fract_x
 _atom_site_fract_y
 _atom_site_fract_z
 _atom_site_occupancy
  Tm  Tm0  1  0.000000  0.944863  0.372753  1
  Tm  Tm1  1  0.000000  0.055137  0.627247  1
  Tm  Tm2  1  0.000000  0.444863  0.127247  1
  Tm  Tm3  1  0.000000  0.555137  0.872753  1
  Th  Th4  1  0.000000  0.321786  0.414049  1
  Th  Th5  1  0.000000  0.678214  0.585951  1
  Th  Th6  1  0.000000  0.821786  0.085951  1
  Th  Th7  1  0.000000  0.178214  0.914049  1
  Re  Re8  1  0.000000  0.639334  0.319734  1
  Re  Re9  1  0.000000  0.360666  0.680266  1
  Re  Re10  1  0.000000  0.139334  0.180266  1
  Re  Re11  1  0.000000  0.860666  0.819734  1
  B  B12  1  0.500000  0.556281  0.430059  1
  B  B13  1  0.500000  0.443719  0.569941  1
  B  B14  1  0.500000  0.056281  0.069941  1
  B  B15  1  0.500000  0.943719  0.930059  1
  B  B16  1  0.500000  0.750504  0.417183  1
  B  B17  1  0.500000  0.249496  0.582817  1
  B  B18  1  0.500000  0.250504  0.082817  1
  B  B19  1  0.500000  0.749496  0.917183  1
  B  B20  1  0.500000  0.791297  0.266794  1
  B  B21  1  0.500000  0.208703  0.733206  1
  B  B22  1  0.500000  0.291297  0.233206  1
  B  B23  1  0.500000  0.708703  0.766794  1
  B  B24  1  0.500000  0.629932  0.186132  1
  B  B25  1  0.500000  0.370068  0.813868  1
  B  B26  1  0.500000  0.129932  0.313868  1
  B  B27  1  0.500000  0.870068  0.686132  1
  B  B28  1  0.500000  0.984762  0.214093  1
  B  B29  1  0.500000  0.015238  0.785907  1
  B  B30  1  0.500000  0.484762  0.285907  1
  B  B31  1  0.500000  0.515238  0.714093  1
  B  B32  1  0.500000  0.601588  0.028020  1
  B  B33  1  0.500000  0.398412  0.971980  1
  B  B34  1  0.500000  0.101588  0.471980  1
  B  B35  1  0.500000  0.898412  0.528020  1
