# generated using pymatgen
data_Nb4Cu4Si3GeW
_symmetry_space_group_name_H-M   'P 1'
_cell_length_a   7.43951830
_cell_length_b   7.43951817
_cell_length_c   7.43906646
_cell_angle_alpha   93.80753120
_cell_angle_beta   93.06886506
_cell_angle_gamma   151.65033827
_symmetry_Int_Tables_number   1
_chemical_formula_structural   Nb4Cu4Si3GeW
_chemical_formula_sum   'Nb4 Cu4 Si3 Ge1 W1'
_cell_volume   189.55065429
_cell_formula_units_Z   1
loop_
 _symmetry_equiv_pos_site_id
 _symmetry_equiv_pos_as_xyz
  1  'x, y, z'
loop_
 _atom_site_type_symbol
 _atom_site_label
 _atom_site_symmetry_multiplicity
 _atom_site_fract_x
 _atom_site_fract_y
 _atom_site_fract_z
 _atom_site_occupancy
  Nb  Nb0  1  0.124454  0.807991  0.932445  1
  Nb  Nb1  1  0.195308  0.127040  0.322347  1
  Nb  Nb2  1  0.806522  0.870250  0.676772  1
  Nb  Nb3  1  0.878190  0.196183  0.074374  1
  Cu  Cu4  1  0.395345  0.917014  0.312359  1
  Cu  Cu5  1  0.598694  0.082219  0.680913  1
  Cu  Cu6  1  0.916334  0.604065  0.520399  1
  Cu  Cu7  1  0.079989  0.394080  0.474069  1
  Si  Si8  1  0.440395  0.249554  0.689950  1
  Si  Si9  1  0.561219  0.751141  0.312360  1
  Si  Si10  1  0.751243  0.439684  0.190927  1
  Ge  Ge11  1  0.249694  0.560866  0.810559  1
  W  W12  1  0.502613  0.499912  0.002525  1
