# generated using pymatgen
data_PrZnCdPt3
_symmetry_space_group_name_H-M   'P 1'
_cell_length_a   5.29114353
_cell_length_b   5.29114304
_cell_length_c   5.29114323
_cell_angle_alpha   63.37921843
_cell_angle_beta   63.37920764
_cell_angle_gamma   63.37921413
_symmetry_Int_Tables_number   1
_chemical_formula_structural   PrZnCdPt3
_chemical_formula_sum   'Pr1 Zn1 Cd1 Pt3'
_cell_volume   112.57974471
_cell_formula_units_Z   1
loop_
 _symmetry_equiv_pos_site_id
 _symmetry_equiv_pos_as_xyz
  1  'x, y, z'
loop_
 _atom_site_type_symbol
 _atom_site_label
 _atom_site_symmetry_multiplicity
 _atom_site_fract_x
 _atom_site_fract_y
 _atom_site_fract_z
 _atom_site_occupancy
  Pr  Pr0  1  0.246578  0.246578  0.246578  1
  Zn  Zn1  1  0.626734  0.626734  0.626734  1
  Cd  Cd2  1  0.996610  0.996610  0.996610  1
  Pt  Pt3  1  0.627935  0.627935  0.124209  1
  Pt  Pt4  1  0.627935  0.124209  0.627935  1
  Pt  Pt5  1  0.124209  0.627935  0.627935  1
