# generated using pymatgen
data_YbIr5O13
_symmetry_space_group_name_H-M   'P 1'
_cell_length_a   5.46181834
_cell_length_b   5.46181651
_cell_length_c   16.17890600
_cell_angle_alpha   90.00000000
_cell_angle_beta   90.00000000
_cell_angle_gamma   108.23020722
_symmetry_Int_Tables_number   1
_chemical_formula_structural   YbIr5O13
_chemical_formula_sum   'Yb2 Ir10 O26'
_cell_volume   458.41517973
_cell_formula_units_Z   2
loop_
 _symmetry_equiv_pos_site_id
 _symmetry_equiv_pos_as_xyz
  1  'x, y, z'
loop_
 _atom_site_type_symbol
 _atom_site_label
 _atom_site_symmetry_multiplicity
 _atom_site_fract_x
 _atom_site_fract_y
 _atom_site_fract_z
 _atom_site_occupancy
  Yb  Yb0  1  0.883672  0.122801  0.750000  1
  Yb  Yb1  1  0.122801  0.883672  0.250000  1
  Ir  Ir2  1  0.383479  0.619079  0.077567  1
  Ir  Ir3  1  0.619079  0.383479  0.922433  1
  Ir  Ir4  1  0.001250  0.001250  0.000000  1
  Ir  Ir5  1  0.383479  0.619079  0.422433  1
  Ir  Ir6  1  0.619079  0.383479  0.577567  1
  Ir  Ir7  1  0.001250  0.001250  0.500000  1
  Ir  Ir8  1  0.763290  0.239800  0.362230  1
  Ir  Ir9  1  0.763290  0.239800  0.137770  1
  Ir  Ir10  1  0.239800  0.763290  0.862230  1
  Ir  Ir11  1  0.239800  0.763290  0.637770  1
  O  O12  1  0.549007  0.064994  0.856602  1
  O  O13  1  0.064994  0.549007  0.356602  1
  O  O14  1  0.064994  0.549007  0.143398  1
  O  O15  1  0.549007  0.064994  0.643398  1
  O  O16  1  0.309175  0.309175  0.000000  1
  O  O17  1  0.309175  0.309175  0.500000  1
  O  O18  1  0.022006  0.981192  0.620352  1
  O  O19  1  0.170514  0.832332  0.750000  1
  O  O20  1  0.227760  0.775081  0.987532  1
  O  O21  1  0.227760  0.775081  0.512468  1
  O  O22  1  0.458130  0.543358  0.655437  1
  O  O23  1  0.543358  0.458130  0.155437  1
  O  O24  1  0.775081  0.227760  0.487532  1
  O  O25  1  0.981192  0.022006  0.379648  1
  O  O26  1  0.543358  0.458130  0.344563  1
  O  O27  1  0.981192  0.022006  0.120352  1
  O  O28  1  0.832332  0.170514  0.250000  1
  O  O29  1  0.775081  0.227760  0.012468  1
  O  O30  1  0.022006  0.981192  0.879648  1
  O  O31  1  0.458130  0.543358  0.844563  1
  O  O32  1  0.693234  0.693234  0.500000  1
  O  O33  1  0.693234  0.693234  0.000000  1
  O  O34  1  0.454332  0.937697  0.356713  1
  O  O35  1  0.937697  0.454332  0.643287  1
  O  O36  1  0.937697  0.454332  0.856713  1
  O  O37  1  0.454332  0.937697  0.143287  1
