# generated using pymatgen
data_Ho7ErIn8
_symmetry_space_group_name_H-M   'P 1'
_cell_length_a   6.47288000
_cell_length_b   6.47287814
_cell_length_c   10.23341400
_cell_angle_alpha   90.00000000
_cell_angle_beta   90.00000000
_cell_angle_gamma   102.94636395
_symmetry_Int_Tables_number   1
_chemical_formula_structural   Ho7ErIn8
_chemical_formula_sum   'Ho7 Er1 In8'
_cell_volume   417.86223565
_cell_formula_units_Z   1
loop_
 _symmetry_equiv_pos_site_id
 _symmetry_equiv_pos_as_xyz
  1  'x, y, z'
loop_
 _atom_site_type_symbol
 _atom_site_label
 _atom_site_symmetry_multiplicity
 _atom_site_fract_x
 _atom_site_fract_y
 _atom_site_fract_z
 _atom_site_occupancy
  Ho  Ho0  1  0.520792  0.520792  0.250000  1
  Ho  Ho1  1  0.248140  0.751657  0.500117  1
  Ho  Ho2  1  0.248140  0.751657  0.999883  1
  Ho  Ho3  1  0.751657  0.248140  0.500117  1
  Ho  Ho4  1  0.751657  0.248140  0.999883  1
  Ho  Ho5  1  0.986674  0.986674  0.250000  1
  Ho  Ho6  1  0.013917  0.013917  0.750000  1
  Er  Er7  1  0.479271  0.479271  0.750000  1
  In  In8  1  0.251708  0.251708  0.011674  1
  In  In9  1  0.748112  0.748112  0.987658  1
  In  In10  1  0.251708  0.251708  0.488326  1
  In  In11  1  0.748112  0.748112  0.512342  1
  In  In12  1  0.490879  0.013377  0.250000  1
  In  In13  1  0.986627  0.509230  0.750000  1
  In  In14  1  0.509230  0.986627  0.750000  1
  In  In15  1  0.013377  0.490879  0.250000  1
