# generated using pymatgen
data_La2Ni(PN2)7
_symmetry_space_group_name_H-M   'P 1'
_cell_length_a   7.84589849
_cell_length_b   7.50068139
_cell_length_c   5.22323700
_cell_angle_alpha   79.80967224
_cell_angle_beta   80.27531058
_cell_angle_gamma   69.71176593
_symmetry_Int_Tables_number   1
_chemical_formula_structural   La2Ni(PN2)7
_chemical_formula_sum   'La2 Ni1 P7 N14'
_cell_volume   281.83417472
_cell_formula_units_Z   1
loop_
 _symmetry_equiv_pos_site_id
 _symmetry_equiv_pos_as_xyz
  1  'x, y, z'
loop_
 _atom_site_type_symbol
 _atom_site_label
 _atom_site_symmetry_multiplicity
 _atom_site_fract_x
 _atom_site_fract_y
 _atom_site_fract_z
 _atom_site_occupancy
  La  La0  1  0.806386  0.220317  0.269823  1
  La  La1  1  0.204839  0.756022  0.758291  1
  Ni  Ni2  1  0.296090  0.480418  0.251310  1
  P  P3  1  0.554712  0.685568  0.208267  1
  P  P4  1  0.109445  0.259023  0.713411  1
  P  P5  1  0.729226  0.921193  0.795056  1
  P  P6  1  0.887098  0.764419  0.291106  1
  P  P7  1  0.272773  0.086507  0.204917  1
  P  P8  1  0.443660  0.297719  0.803240  1
  P  P9  1  0.701912  0.540393  0.711631  1
  N  N10  1  0.249956  0.384398  0.668590  1
  N  N11  1  0.641633  0.735449  0.885900  1
  N  N12  1  0.729450  0.648110  0.396642  1
  N  N13  1  0.400885  0.222783  0.113994  1
  N  N14  1  0.889728  0.380198  0.787093  1
  N  N15  1  0.595782  0.118320  0.663109  1
  N  N16  1  0.071355  0.638425  0.160337  1
  N  N17  1  0.385771  0.863723  0.301911  1
  N  N18  1  0.897050  0.852486  0.558087  1
  N  N19  1  0.155652  0.088072  0.966015  1
  N  N20  1  0.540945  0.482860  0.230165  1
  N  N21  1  0.527244  0.474955  0.736624  1
  N  N22  1  0.790457  0.943714  0.067237  1
  N  N23  1  0.117951  0.154927  0.457243  1
