# generated using pymatgen
data_Y7Ho6Tm7Pt16
_symmetry_space_group_name_H-M   'P 1'
_cell_length_a   7.45237000
_cell_length_b   7.53158823
_cell_length_c   14.66039830
_cell_angle_alpha   89.97899614
_cell_angle_beta   89.99853270
_cell_angle_gamma   89.99073744
_symmetry_Int_Tables_number   1
_chemical_formula_structural   Y7Ho6Tm7Pt16
_chemical_formula_sum   'Y7 Ho6 Tm7 Pt16'
_cell_volume   822.86144043
_cell_formula_units_Z   1
loop_
 _symmetry_equiv_pos_site_id
 _symmetry_equiv_pos_as_xyz
  1  'x, y, z'
loop_
 _atom_site_type_symbol
 _atom_site_label
 _atom_site_symmetry_multiplicity
 _atom_site_fract_x
 _atom_site_fract_y
 _atom_site_fract_z
 _atom_site_occupancy
  Y  Y0  1  0.498199  0.679742  0.093267  1
  Y  Y1  1  0.502191  0.320199  0.593219  1
  Y  Y2  1  0.001934  0.179884  0.906724  1
  Y  Y3  1  0.001252  0.179143  0.593031  1
  Y  Y4  1  0.501674  0.320763  0.906612  1
  Y  Y5  1  0.498538  0.679477  0.406975  1
  Y  Y6  1  0.998280  0.820075  0.092949  1
  Ho  Ho7  1  0.343590  0.167755  0.122396  1
  Ho  Ho8  1  0.343670  0.167574  0.377880  1
  Ho  Ho9  1  0.843721  0.332454  0.122481  1
  Ho  Ho10  1  0.155989  0.667695  0.622249  1
  Ho  Ho11  1  0.656340  0.832256  0.877606  1
  Ho  Ho12  1  0.997411  0.819672  0.406660  1
  Tm  Tm13  1  0.681513  0.988806  0.250312  1
  Tm  Tm14  1  0.181106  0.511308  0.250359  1
  Tm  Tm15  1  0.818799  0.489016  0.749909  1
  Tm  Tm16  1  0.318715  0.010922  0.749986  1
  Tm  Tm17  1  0.656204  0.832478  0.622553  1
  Tm  Tm18  1  0.156103  0.667521  0.877249  1
  Tm  Tm19  1  0.843681  0.332460  0.377536  1
  Pt  Pt20  1  0.817702  0.642719  0.251137  1
  Pt  Pt21  1  0.316119  0.857499  0.250337  1
  Pt  Pt22  1  0.683422  0.141911  0.749550  1
  Pt  Pt23  1  0.183414  0.358082  0.750203  1
  Pt  Pt24  1  0.546782  0.385885  0.250544  1
  Pt  Pt25  1  0.045352  0.114035  0.250818  1
  Pt  Pt26  1  0.953770  0.885094  0.749918  1
  Pt  Pt27  1  0.453779  0.614938  0.749891  1
  Pt  Pt28  1  0.816944  0.534210  0.541574  1
  Pt  Pt29  1  0.316722  0.965674  0.957471  1
  Pt  Pt30  1  0.684710  0.032431  0.457745  1
  Pt  Pt31  1  0.182407  0.467819  0.041750  1
  Pt  Pt32  1  0.180779  0.467822  0.457124  1
  Pt  Pt33  1  0.682203  0.033032  0.042271  1
  Pt  Pt34  1  0.318450  0.966382  0.542238  1
  Pt  Pt35  1  0.818536  0.533267  0.957470  1
