# generated using pymatgen
data_Ac2Ga4GeIr3
_symmetry_space_group_name_H-M   'P 1'
_cell_length_a   8.81362435
_cell_length_b   8.93295257
_cell_length_c   8.93295200
_cell_angle_alpha   140.94159619
_cell_angle_beta   108.53370249
_cell_angle_gamma   84.75926879
_symmetry_Int_Tables_number   1
_chemical_formula_structural   Ac2Ga4GeIr3
_chemical_formula_sum   'Ac4 Ga8 Ge2 Ir6'
_cell_volume   405.69955144
_cell_formula_units_Z   2
loop_
 _symmetry_equiv_pos_site_id
 _symmetry_equiv_pos_as_xyz
  1  'x, y, z'
loop_
 _atom_site_type_symbol
 _atom_site_label
 _atom_site_symmetry_multiplicity
 _atom_site_fract_x
 _atom_site_fract_y
 _atom_site_fract_z
 _atom_site_occupancy
  Ac  Ac0  1  0.861546  0.634469  0.227076  1
  Ac  Ac1  1  0.138454  0.365531  0.772924  1
  Ac  Ac2  1  0.408495  0.135772  0.272723  1
  Ac  Ac3  1  0.591505  0.864228  0.727277  1
  Ga  Ga4  1  0.500000  0.751702  0.251702  1
  Ga  Ga5  1  0.500000  0.248298  0.748298  1
  Ga  Ga6  1  0.215389  0.964935  0.748571  1
  Ga  Ga7  1  0.784611  0.533182  0.749546  1
  Ga  Ga8  1  0.784611  0.035065  0.251429  1
  Ga  Ga9  1  0.215389  0.466818  0.250454  1
  Ga  Ga10  1  0.065488  0.906446  0.159043  1
  Ga  Ga11  1  0.934512  0.093554  0.840957  1
  Ge  Ge12  1  0.746197  0.405205  0.340994  1
  Ge  Ge13  1  0.253803  0.594795  0.659006  1
  Ir  Ir14  1  0.000000  0.748099  0.748099  1
  Ir  Ir15  1  0.000000  0.251901  0.251901  1
  Ir  Ir16  1  0.251746  0.855771  0.395976  1
  Ir  Ir17  1  0.748254  0.144229  0.604024  1
  Ir  Ir18  1  0.461076  0.356734  0.104341  1
  Ir  Ir19  1  0.538924  0.643266  0.895659  1
