# generated using pymatgen
data_Hf3Zr3Ti3Nb(Sn3N)2
_symmetry_space_group_name_H-M   'P 1'
_cell_length_a   8.27473100
_cell_length_b   8.27473053
_cell_length_c   5.59183600
_cell_angle_alpha   90.00000000
_cell_angle_beta   90.00000000
_cell_angle_gamma   119.99999789
_symmetry_Int_Tables_number   1
_chemical_formula_structural   Hf3Zr3Ti3Nb(Sn3N)2
_chemical_formula_sum   'Hf3 Zr3 Ti3 Nb1 Sn6 N2'
_cell_volume   331.58342311
_cell_formula_units_Z   1
loop_
 _symmetry_equiv_pos_site_id
 _symmetry_equiv_pos_as_xyz
  1  'x, y, z'
loop_
 _atom_site_type_symbol
 _atom_site_label
 _atom_site_symmetry_multiplicity
 _atom_site_fract_x
 _atom_site_fract_y
 _atom_site_fract_z
 _atom_site_occupancy
  Hf  Hf0  1  0.778273  0.777297  0.750483  1
  Hf  Hf1  1  0.222703  0.000977  0.750483  1
  Hf  Hf2  1  0.999023  0.221727  0.750483  1
  Zr  Zr3  1  0.225766  0.225028  0.249729  1
  Zr  Zr4  1  0.774972  0.000738  0.249729  1
  Zr  Zr5  1  0.999262  0.774234  0.249729  1
  Ti  Ti6  1  0.333333  0.666667  0.999893  1
  Ti  Ti7  1  0.333333  0.666667  0.499872  1
  Ti  Ti8  1  0.666667  0.333333  0.500505  1
  Nb  Nb9  1  0.666667  0.333333  0.999816  1
  Sn  Sn10  1  0.409169  0.411648  0.748248  1
  Sn  Sn11  1  0.588352  0.997520  0.748248  1
  Sn  Sn12  1  0.002480  0.590831  0.748248  1
  Sn  Sn13  1  0.589064  0.591216  0.251576  1
  Sn  Sn14  1  0.408784  0.997848  0.251576  1
  Sn  Sn15  1  0.002152  0.410936  0.251576  1
  N  N16  1  0.000000  0.000000  0.993631  1
  N  N17  1  0.000000  0.000000  0.506172  1
