# generated using pymatgen
data_TmLu7V11Si16Mo
_symmetry_space_group_name_H-M   'P 1'
_cell_length_a   6.59829702
_cell_length_b   6.79290476
_cell_length_c   12.77622817
_cell_angle_alpha   89.98205057
_cell_angle_beta   89.99400350
_cell_angle_gamma   90.05615915
_symmetry_Int_Tables_number   1
_chemical_formula_structural   TmLu7V11Si16Mo
_chemical_formula_sum   'Tm1 Lu7 V11 Si16 Mo1'
_cell_volume   572.65072405
_cell_formula_units_Z   1
loop_
 _symmetry_equiv_pos_site_id
 _symmetry_equiv_pos_as_xyz
  1  'x, y, z'
loop_
 _atom_site_type_symbol
 _atom_site_label
 _atom_site_symmetry_multiplicity
 _atom_site_fract_x
 _atom_site_fract_y
 _atom_site_fract_z
 _atom_site_occupancy
  Tm  Tm0  1  0.499208  0.330591  0.094239  1
  Lu  Lu1  1  0.998501  0.169830  0.405720  1
  Lu  Lu2  1  0.500664  0.670139  0.595382  1
  Lu  Lu3  1  0.001070  0.831036  0.904495  1
  Lu  Lu4  1  0.500738  0.670129  0.904452  1
  Lu  Lu5  1  0.001072  0.830872  0.595338  1
  Lu  Lu6  1  0.498966  0.330391  0.405594  1
  Lu  Lu7  1  0.998412  0.169809  0.094291  1
  V  V8  1  0.835932  0.328665  0.626555  1
  V  V9  1  0.335368  0.171217  0.873558  1
  V  V10  1  0.164801  0.669968  0.126131  1
  V  V11  1  0.663893  0.829400  0.374179  1
  V  V12  1  0.164879  0.669944  0.374037  1
  V  V13  1  0.663854  0.829501  0.125900  1
  V  V14  1  0.836038  0.328605  0.873388  1
  V  V15  1  0.335609  0.171353  0.626313  1
  V  V16  1  0.663642  0.012147  0.749986  1
  V  V17  1  0.163332  0.487421  0.749975  1
  V  V18  1  0.336213  0.987703  0.250083  1
  Si  Si19  1  0.661683  0.042486  0.544344  1
  Si  Si20  1  0.161993  0.457938  0.955503  1
  Si  Si21  1  0.337848  0.957026  0.043554  1
  Si  Si22  1  0.838077  0.543517  0.457952  1
  Si  Si23  1  0.338083  0.957675  0.456411  1
  Si  Si24  1  0.838763  0.543875  0.041969  1
  Si  Si25  1  0.661878  0.042204  0.955450  1
  Si  Si26  1  0.162363  0.457872  0.544379  1
  Si  Si27  1  0.537310  0.368111  0.750014  1
  Si  Si28  1  0.037090  0.131076  0.750014  1
  Si  Si29  1  0.460787  0.633192  0.250144  1
  Si  Si30  1  0.964392  0.871152  0.250021  1
  Si  Si31  1  0.802060  0.623259  0.750013  1
  Si  Si32  1  0.302125  0.877098  0.749988  1
  Si  Si33  1  0.200513  0.373395  0.250234  1
  Si  Si34  1  0.696805  0.122130  0.250242  1
  Mo  Mo35  1  0.836042  0.509275  0.250151  1
