# generated using pymatgen
data_Tm8Ti3Re9Si16
_symmetry_space_group_name_H-M   'P 1'
_cell_length_a   6.73926591
_cell_length_b   6.73923411
_cell_length_c   12.91630795
_cell_angle_alpha   90.03315781
_cell_angle_beta   89.94498595
_cell_angle_gamma   89.56298328
_symmetry_Int_Tables_number   1
_chemical_formula_structural   Tm8Ti3Re9Si16
_chemical_formula_sum   'Tm8 Ti3 Re9 Si16'
_cell_volume   586.60886168
_cell_formula_units_Z   1
loop_
 _symmetry_equiv_pos_site_id
 _symmetry_equiv_pos_as_xyz
  1  'x, y, z'
loop_
 _atom_site_type_symbol
 _atom_site_label
 _atom_site_symmetry_multiplicity
 _atom_site_fract_x
 _atom_site_fract_y
 _atom_site_fract_z
 _atom_site_occupancy
  Tm  Tm0  1  0.335619  0.992068  0.468706  1
  Tm  Tm1  1  0.508932  0.835075  0.718432  1
  Tm  Tm2  1  0.487558  0.166606  0.216468  1
  Tm  Tm3  1  0.835213  0.509182  0.281550  1
  Tm  Tm4  1  0.166646  0.487650  0.783533  1
  Tm  Tm5  1  0.660389  0.011335  0.969904  1
  Tm  Tm6  1  0.992213  0.335639  0.531199  1
  Tm  Tm7  1  0.011377  0.660489  0.030209  1
  Ti  Ti8  1  0.154866  0.845176  0.248701  1
  Ti  Ti9  1  0.845059  0.154693  0.751323  1
  Ti  Ti10  1  0.655443  0.655493  0.499933  1
  Re  Re11  1  0.340681  0.340834  0.000042  1
  Re  Re12  1  0.184249  0.989649  0.862719  1
  Re  Re13  1  0.499484  0.698230  0.116113  1
  Re  Re14  1  0.500377  0.314113  0.616524  1
  Re  Re15  1  0.698819  0.499126  0.883868  1
  Re  Re16  1  0.314324  0.500261  0.383557  1
  Re  Re17  1  0.815259  0.001462  0.363343  1
  Re  Re18  1  0.989823  0.184179  0.137483  1
  Re  Re19  1  0.000745  0.815898  0.636452  1
  Si  Si20  1  0.205568  0.119899  0.679196  1
  Si  Si21  1  0.388807  0.695796  0.929022  1
  Si  Si22  1  0.620192  0.295686  0.429410  1
  Si  Si23  1  0.695946  0.388597  0.070986  1
  Si  Si24  1  0.295633  0.620190  0.570607  1
  Si  Si25  1  0.794252  0.881760  0.179248  1
  Si  Si26  1  0.119980  0.205622  0.320855  1
  Si  Si27  1  0.881750  0.794205  0.820698  1
  Si  Si28  1  0.268143  0.988101  0.053460  1
  Si  Si29  1  0.517089  0.781650  0.307243  1
  Si  Si30  1  0.482956  0.222148  0.809046  1
  Si  Si31  1  0.781666  0.517002  0.692679  1
  Si  Si32  1  0.222210  0.483010  0.191028  1
  Si  Si33  1  0.723922  0.016791  0.554899  1
  Si  Si34  1  0.988133  0.268201  0.946621  1
  Si  Si35  1  0.016680  0.724185  0.444944  1
