# generated using pymatgen
data_CrBr13
_symmetry_space_group_name_H-M   'P 1'
_cell_length_a   11.46001583
_cell_length_b   9.94935617
_cell_length_c   13.55297013
_cell_angle_alpha   120.11106494
_cell_angle_beta   88.49200803
_cell_angle_gamma   106.47961952
_symmetry_Int_Tables_number   1
_chemical_formula_structural   CrBr13
_chemical_formula_sum   'Cr2 Br26'
_cell_volume   1269.26607888
_cell_formula_units_Z   2
loop_
 _symmetry_equiv_pos_site_id
 _symmetry_equiv_pos_as_xyz
  1  'x, y, z'
loop_
 _atom_site_type_symbol
 _atom_site_label
 _atom_site_symmetry_multiplicity
 _atom_site_fract_x
 _atom_site_fract_y
 _atom_site_fract_z
 _atom_site_occupancy
  Cr  Cr0  1  0.337760  0.871164  0.935379  1
  Cr  Cr1  1  0.662240  0.128836  0.064621  1
  Br  Br2  1  0.370921  0.659926  0.969289  1
  Br  Br3  1  0.629079  0.340074  0.030711  1
  Br  Br4  1  0.583359  0.809964  0.396160  1
  Br  Br5  1  0.416641  0.190036  0.603840  1
  Br  Br6  1  0.725709  0.697041  0.007632  1
  Br  Br7  1  0.274291  0.302959  0.992368  1
  Br  Br8  1  0.698802  0.955956  0.146474  1
  Br  Br9  1  0.301198  0.044044  0.853526  1
  Br  Br10  1  0.447048  0.104440  0.127329  1
  Br  Br11  1  0.552952  0.895560  0.872671  1
  Br  Br12  1  0.243041  0.664667  0.727066  1
  Br  Br13  1  0.756959  0.335333  0.272934  1
  Br  Br14  1  0.136583  0.844495  0.997638  1
  Br  Br15  1  0.863417  0.155505  0.002362  1
  Br  Br16  1  0.105012  0.091221  0.215987  1
  Br  Br17  1  0.894988  0.908779  0.784013  1
  Br  Br18  1  0.275650  0.912929  0.452498  1
  Br  Br19  1  0.724350  0.087071  0.547502  1
  Br  Br20  1  0.329332  0.422737  0.656763  1
  Br  Br21  1  0.670668  0.577263  0.343237  1
  Br  Br22  1  0.849679  0.379665  0.703799  1
  Br  Br23  1  0.150321  0.620335  0.296201  1
  Br  Br24  1  0.946355  0.716107  0.606228  1
  Br  Br25  1  0.053645  0.283893  0.393772  1
  Br  Br26  1  0.252439  0.628654  0.125884  1
  Br  Br27  1  0.747561  0.371346  0.874116  1
