# generated using pymatgen
data_La3Tb(Sn5Rh3)2
_symmetry_space_group_name_H-M   'P 1'
_cell_length_a   13.70042409
_cell_length_b   13.70042511
_cell_length_c   7.34744322
_cell_angle_alpha   90.02727858
_cell_angle_beta   89.97272248
_cell_angle_gamma   161.02437229
_symmetry_Int_Tables_number   1
_chemical_formula_structural   La3Tb(Sn5Rh3)2
_chemical_formula_sum   'La3 Tb1 Sn10 Rh6'
_cell_volume   448.44508437
_cell_formula_units_Z   1
loop_
 _symmetry_equiv_pos_site_id
 _symmetry_equiv_pos_as_xyz
  1  'x, y, z'
loop_
 _atom_site_type_symbol
 _atom_site_label
 _atom_site_symmetry_multiplicity
 _atom_site_fract_x
 _atom_site_fract_y
 _atom_site_fract_z
 _atom_site_occupancy
  La  La0  1  0.172289  0.827711  0.754481  1
  La  La1  1  0.827730  0.172270  0.254232  1
  La  La2  1  0.475458  0.524542  0.734915  1
  Tb  Tb3  1  0.525751  0.474249  0.238040  1
  Sn  Sn4  1  0.878902  0.121098  0.732335  1
  Sn  Sn5  1  0.119729  0.880271  0.233028  1
  Sn  Sn6  1  0.704609  0.295391  0.052746  1
  Sn  Sn7  1  0.294449  0.705551  0.552940  1
  Sn  Sn8  1  0.595316  0.404684  0.613643  1
  Sn  Sn9  1  0.406137  0.593863  0.116973  1
  Sn  Sn10  1  0.952664  0.047336  0.394090  1
  Sn  Sn11  1  0.049074  0.950926  0.901110  1
  Sn  Sn12  1  0.289307  0.710693  0.973482  1
  Sn  Sn13  1  0.710073  0.289927  0.472804  1
  Rh  Rh14  1  0.050650  0.949350  0.515621  1
  Rh  Rh15  1  0.950132  0.049868  0.020272  1
  Rh  Rh16  1  0.777181  0.222819  0.763083  1
  Rh  Rh17  1  0.221482  0.778518  0.262444  1
  Rh  Rh18  1  0.393772  0.606228  0.483618  1
  Rh  Rh19  1  0.605294  0.394706  0.986141  1
