# generated using pymatgen
data_Nd2Sn4BiRh3
_symmetry_space_group_name_H-M   'P 1'
_cell_length_a   13.74566005
_cell_length_b   13.74566030
_cell_length_c   7.39253700
_cell_angle_alpha   90.00000000
_cell_angle_beta   90.00000000
_cell_angle_gamma   161.05628908
_symmetry_Int_Tables_number   1
_chemical_formula_structural   Nd2Sn4BiRh3
_chemical_formula_sum   'Nd4 Sn8 Bi2 Rh6'
_cell_volume   453.44595021
_cell_formula_units_Z   2
loop_
 _symmetry_equiv_pos_site_id
 _symmetry_equiv_pos_as_xyz
  1  'x, y, z'
loop_
 _atom_site_type_symbol
 _atom_site_label
 _atom_site_symmetry_multiplicity
 _atom_site_fract_x
 _atom_site_fract_y
 _atom_site_fract_z
 _atom_site_occupancy
  Nd  Nd0  1  0.173137  0.826863  0.752984  1
  Nd  Nd1  1  0.826863  0.173137  0.252984  1
  Nd  Nd2  1  0.476270  0.523730  0.737722  1
  Nd  Nd3  1  0.523730  0.476270  0.237722  1
  Sn  Sn4  1  0.704894  0.295106  0.048101  1
  Sn  Sn5  1  0.295106  0.704894  0.548101  1
  Sn  Sn6  1  0.596044  0.403956  0.613960  1
  Sn  Sn7  1  0.403956  0.596044  0.113960  1
  Sn  Sn8  1  0.952301  0.047699  0.399802  1
  Sn  Sn9  1  0.047699  0.952301  0.899802  1
  Sn  Sn10  1  0.288995  0.711005  0.974796  1
  Sn  Sn11  1  0.711005  0.288995  0.474796  1
  Bi  Bi12  1  0.878841  0.121159  0.732207  1
  Bi  Bi13  1  0.121159  0.878841  0.232207  1
  Rh  Rh14  1  0.051044  0.948956  0.522541  1
  Rh  Rh15  1  0.948956  0.051044  0.022541  1
  Rh  Rh16  1  0.775866  0.224134  0.767251  1
  Rh  Rh17  1  0.224134  0.775866  0.267251  1
  Rh  Rh18  1  0.394396  0.605604  0.478634  1
  Rh  Rh19  1  0.605604  0.394396  0.978634  1
