# generated using pymatgen
data_Nb5Si(B2Ru5)2
_symmetry_space_group_name_H-M   'P 1'
_cell_length_a   9.39662400
_cell_length_b   9.39662400
_cell_length_c   2.98763900
_cell_angle_alpha   90.00000000
_cell_angle_beta   90.00000000
_cell_angle_gamma   90.00000000
_symmetry_Int_Tables_number   1
_chemical_formula_structural   Nb5Si(B2Ru5)2
_chemical_formula_sum   'Nb5 Si1 B4 Ru10'
_cell_volume   263.79819423
_cell_formula_units_Z   1
loop_
 _symmetry_equiv_pos_site_id
 _symmetry_equiv_pos_as_xyz
  1  'x, y, z'
loop_
 _atom_site_type_symbol
 _atom_site_label
 _atom_site_symmetry_multiplicity
 _atom_site_fract_x
 _atom_site_fract_y
 _atom_site_fract_z
 _atom_site_occupancy
  Nb  Nb0  1  0.820933  0.675095  0.000000  1
  Nb  Nb1  1  0.179067  0.324905  0.000000  1
  Nb  Nb2  1  0.324905  0.820933  0.000000  1
  Nb  Nb3  1  0.675095  0.179067  0.000000  1
  Nb  Nb4  1  0.000000  0.000000  0.000000  1
  Si  Si5  1  0.500000  0.500000  0.000000  1
  B  B6  1  0.616280  0.870159  0.000000  1
  B  B7  1  0.383720  0.129841  0.000000  1
  B  B8  1  0.129841  0.616280  0.000000  1
  B  B9  1  0.870159  0.383720  0.000000  1
  Ru  Ru10  1  0.566482  0.709786  0.500000  1
  Ru  Ru11  1  0.433518  0.290214  0.500000  1
  Ru  Ru12  1  0.072976  0.779373  0.500000  1
  Ru  Ru13  1  0.927024  0.220627  0.500000  1
  Ru  Ru14  1  0.290214  0.566482  0.500000  1
  Ru  Ru15  1  0.709786  0.433518  0.500000  1
  Ru  Ru16  1  0.220627  0.072976  0.500000  1
  Ru  Ru17  1  0.779373  0.927024  0.500000  1
  Ru  Ru18  1  0.500000  0.000000  0.500000  1
  Ru  Ru19  1  0.000000  0.500000  0.500000  1
