# generated using pymatgen
data_Sr9Yb2Y9Sn16
_symmetry_space_group_name_H-M   'P 1'
_cell_length_a   8.09436566
_cell_length_b   8.61446671
_cell_length_c   16.35182800
_cell_angle_alpha   90.00000000
_cell_angle_beta   90.00000000
_cell_angle_gamma   89.88119659
_symmetry_Int_Tables_number   1
_chemical_formula_structural   Sr9Yb2Y9Sn16
_chemical_formula_sum   'Sr9 Yb2 Y9 Sn16'
_cell_volume   1140.18833449
_cell_formula_units_Z   1
loop_
 _symmetry_equiv_pos_site_id
 _symmetry_equiv_pos_as_xyz
  1  'x, y, z'
loop_
 _atom_site_type_symbol
 _atom_site_label
 _atom_site_symmetry_multiplicity
 _atom_site_fract_x
 _atom_site_fract_y
 _atom_site_fract_z
 _atom_site_occupancy
  Sr  Sr0  1  0.505221  0.680938  0.593343  1
  Sr  Sr1  1  0.004717  0.819658  0.908930  1
  Sr  Sr2  1  0.493889  0.317400  0.093764  1
  Sr  Sr3  1  0.994660  0.182511  0.406774  1
  Sr  Sr4  1  0.493889  0.317400  0.406236  1
  Sr  Sr5  1  0.994660  0.182511  0.093226  1
  Sr  Sr6  1  0.505221  0.680938  0.906657  1
  Sr  Sr7  1  0.004717  0.819658  0.591070  1
  Sr  Sr8  1  0.332925  0.986937  0.750000  1
  Yb  Yb9  1  0.163768  0.491395  0.250000  1
  Yb  Yb10  1  0.663613  0.007227  0.250000  1
  Y  Y11  1  0.674456  0.166448  0.621782  1
  Y  Y12  1  0.174444  0.332509  0.877604  1
  Y  Y13  1  0.326501  0.831139  0.123402  1
  Y  Y14  1  0.827052  0.667210  0.377187  1
  Y  Y15  1  0.326501  0.831139  0.376598  1
  Y  Y16  1  0.827052  0.667210  0.122813  1
  Y  Y17  1  0.674456  0.166448  0.878218  1
  Y  Y18  1  0.174444  0.332509  0.622396  1
  Y  Y19  1  0.836580  0.508927  0.750000  1
  Sn  Sn20  1  0.663938  0.959292  0.458577  1
  Sn  Sn21  1  0.163492  0.540042  0.040794  1
  Sn  Sn22  1  0.337028  0.041626  0.961491  1
  Sn  Sn23  1  0.836630  0.461919  0.543538  1
  Sn  Sn24  1  0.337028  0.041626  0.538509  1
  Sn  Sn25  1  0.836630  0.461919  0.956462  1
  Sn  Sn26  1  0.663938  0.959292  0.041423  1
  Sn  Sn27  1  0.163492  0.540042  0.459206  1
  Sn  Sn28  1  0.476793  0.376873  0.750000  1
  Sn  Sn29  1  0.963723  0.143807  0.750000  1
  Sn  Sn30  1  0.529168  0.628844  0.250000  1
  Sn  Sn31  1  0.028430  0.869945  0.250000  1
  Sn  Sn32  1  0.728726  0.871092  0.750000  1
  Sn  Sn33  1  0.207532  0.614824  0.750000  1
  Sn  Sn34  1  0.281869  0.117489  0.250000  1
  Sn  Sn35  1  0.782815  0.381260  0.250000  1
