# generated using pymatgen
data_Ti6SnHgC4
_symmetry_space_group_name_H-M   'P 1'
_cell_length_a   3.13494700
_cell_length_b   3.13494697
_cell_length_c   18.88537900
_cell_angle_alpha   90.00000000
_cell_angle_beta   90.00000000
_cell_angle_gamma   119.99998972
_symmetry_Int_Tables_number   1
_chemical_formula_structural   Ti6SnHgC4
_chemical_formula_sum   'Ti6 Sn1 Hg1 C4'
_cell_volume   160.73734252
_cell_formula_units_Z   1
loop_
 _symmetry_equiv_pos_site_id
 _symmetry_equiv_pos_as_xyz
  1  'x, y, z'
loop_
 _atom_site_type_symbol
 _atom_site_label
 _atom_site_symmetry_multiplicity
 _atom_site_fract_x
 _atom_site_fract_y
 _atom_site_fract_z
 _atom_site_occupancy
  Ti  Ti0  1  0.000000  0.000000  0.999669  1
  Ti  Ti1  1  0.333333  0.666667  0.123199  1
  Ti  Ti2  1  0.333333  0.666667  0.376801  1
  Ti  Ti3  1  0.000000  0.000000  0.500331  1
  Ti  Ti4  1  0.666667  0.333333  0.624005  1
  Ti  Ti5  1  0.666667  0.333333  0.875995  1
  Sn  Sn6  1  0.000000  0.000000  0.750000  1
  Hg  Hg7  1  0.000000  0.000000  0.250000  1
  C  C8  1  0.333333  0.666667  0.931851  1
  C  C9  1  0.666667  0.333333  0.068258  1
  C  C10  1  0.666667  0.333333  0.431742  1
  C  C11  1  0.333333  0.666667  0.568149  1
