# generated using pymatgen
data_Pr5Nd11Cd4(IrPd)2
_symmetry_space_group_name_H-M   'P 1'
_cell_length_a   10.01853903
_cell_length_b   10.01920341
_cell_length_c   9.99994301
_cell_angle_alpha   60.06959503
_cell_angle_beta   60.06344641
_cell_angle_gamma   60.26925460
_symmetry_Int_Tables_number   1
_chemical_formula_structural   Pr5Nd11Cd4(IrPd)2
_chemical_formula_sum   'Pr5 Nd11 Cd4 Ir2 Pd2'
_cell_volume   711.92424879
_cell_formula_units_Z   1
loop_
 _symmetry_equiv_pos_site_id
 _symmetry_equiv_pos_as_xyz
  1  'x, y, z'
loop_
 _atom_site_type_symbol
 _atom_site_label
 _atom_site_symmetry_multiplicity
 _atom_site_fract_x
 _atom_site_fract_y
 _atom_site_fract_z
 _atom_site_occupancy
  Pr  Pr0  1  0.564305  0.939504  0.935628  1
  Pr  Pr1  1  0.564485  0.939361  0.560576  1
  Pr  Pr2  1  0.939478  0.564308  0.935464  1
  Pr  Pr3  1  0.562749  0.562570  0.937281  1
  Pr  Pr4  1  0.938097  0.937975  0.561891  1
  Nd  Nd5  1  0.350301  0.350489  0.345021  1
  Nd  Nd6  1  0.350437  0.350423  0.954212  1
  Nd  Nd7  1  0.356859  0.944973  0.349091  1
  Nd  Nd8  1  0.944967  0.356914  0.349167  1
  Nd  Nd9  1  0.804941  0.190538  0.190084  1
  Nd  Nd10  1  0.190509  0.804974  0.814426  1
  Nd  Nd11  1  0.190444  0.804878  0.190227  1
  Nd  Nd12  1  0.804985  0.190654  0.814341  1
  Nd  Nd13  1  0.191453  0.191660  0.808391  1
  Nd  Nd14  1  0.810625  0.810516  0.189534  1
  Nd  Nd15  1  0.939557  0.564267  0.560464  1
  Cd  Cd16  1  0.580410  0.580248  0.580513  1
  Cd  Cd17  1  0.580238  0.580242  0.258991  1
  Cd  Cd18  1  0.579123  0.259953  0.580456  1
  Cd  Cd19  1  0.259765  0.579134  0.580456  1
  Ir  Ir20  1  0.140958  0.571848  0.143717  1
  Ir  Ir21  1  0.571905  0.141017  0.143545  1
  Pd  Pd22  1  0.141733  0.141714  0.146475  1
  Pd  Pd23  1  0.141674  0.141839  0.570047  1
