# generated using pymatgen
data_PrMg2PaIr2
_symmetry_space_group_name_H-M   'P 1'
_cell_length_a   3.98729700
_cell_length_b   7.35365942
_cell_length_c   8.94603814
_cell_angle_alpha   88.53832355
_cell_angle_beta   90.00000000
_cell_angle_gamma   90.00000000
_symmetry_Int_Tables_number   1
_chemical_formula_structural   PrMg2PaIr2
_chemical_formula_sum   'Pr2 Mg4 Pa2 Ir4'
_cell_volume   262.22343709
_cell_formula_units_Z   2
loop_
 _symmetry_equiv_pos_site_id
 _symmetry_equiv_pos_as_xyz
  1  'x, y, z'
loop_
 _atom_site_type_symbol
 _atom_site_label
 _atom_site_symmetry_multiplicity
 _atom_site_fract_x
 _atom_site_fract_y
 _atom_site_fract_z
 _atom_site_occupancy
  Pr  Pr0  1  0.250000  0.535943  0.183907  1
  Pr  Pr1  1  0.750000  0.464057  0.816093  1
  Mg  Mg2  1  0.250000  0.137424  0.948478  1
  Mg  Mg3  1  0.750000  0.862576  0.051522  1
  Mg  Mg4  1  0.250000  0.638560  0.553823  1
  Mg  Mg5  1  0.750000  0.361440  0.446177  1
  Pa  Pa6  1  0.250000  0.035094  0.316013  1
  Pa  Pa7  1  0.750000  0.964906  0.683987  1
  Ir  Ir8  1  0.750000  0.227719  0.160341  1
  Ir  Ir9  1  0.250000  0.772281  0.839659  1
  Ir  Ir10  1  0.750000  0.783191  0.373682  1
  Ir  Ir11  1  0.250000  0.216809  0.626318  1
