# generated using pymatgen
data_TcF15
_symmetry_space_group_name_H-M   'P 1'
_cell_length_a   5.58603501
_cell_length_b   5.39593350
_cell_length_c   10.49012311
_cell_angle_alpha   95.68765367
_cell_angle_beta   96.03120688
_cell_angle_gamma   115.96264792
_symmetry_Int_Tables_number   1
_chemical_formula_structural   TcF15
_chemical_formula_sum   'Tc1 F15'
_cell_volume   278.96039750
_cell_formula_units_Z   1
loop_
 _symmetry_equiv_pos_site_id
 _symmetry_equiv_pos_as_xyz
  1  'x, y, z'
loop_
 _atom_site_type_symbol
 _atom_site_label
 _atom_site_symmetry_multiplicity
 _atom_site_fract_x
 _atom_site_fract_y
 _atom_site_fract_z
 _atom_site_occupancy
  Tc  Tc0  1  0.868114  0.134520  0.249924  1
  F  F1  1  0.198212  0.794120  0.812751  1
  F  F2  1  0.713508  0.693935  0.656260  1
  F  F3  1  0.169663  0.426897  0.350960  1
  F  F4  1  0.535632  0.286221  0.906344  1
  F  F5  1  0.570984  0.843073  0.146236  1
  F  F6  1  0.760861  0.557645  0.938404  1
  F  F7  1  0.025815  0.240536  0.100495  1
  F  F8  1  0.332718  0.135623  0.572741  1
  F  F9  1  0.817813  0.891404  0.373733  1
  F  F10  1  0.298621  0.597092  0.833032  1
  F  F11  1  0.741614  0.375899  0.182807  1
  F  F12  1  0.366396  0.888882  0.551305  1
  F  F13  1  0.669317  0.213367  0.368890  1
  F  F14  1  0.842553  0.966937  0.731379  1
  F  F15  1  0.088180  0.953848  0.224737  1
