# generated using pymatgen
data_Ho12Ni4BiOs
_symmetry_space_group_name_H-M   'P 1'
_cell_length_a   8.32012968
_cell_length_b   8.31826177
_cell_length_c   8.32012960
_cell_angle_alpha   111.55364550
_cell_angle_beta   109.99038422
_cell_angle_gamma   106.91262653
_symmetry_Int_Tables_number   1
_chemical_formula_structural   Ho12Ni4BiOs
_chemical_formula_sum   'Ho12 Ni4 Bi1 Os1'
_cell_volume   442.47626734
_cell_formula_units_Z   1
loop_
 _symmetry_equiv_pos_site_id
 _symmetry_equiv_pos_as_xyz
  1  'x, y, z'
loop_
 _atom_site_type_symbol
 _atom_site_label
 _atom_site_symmetry_multiplicity
 _atom_site_fract_x
 _atom_site_fract_y
 _atom_site_fract_z
 _atom_site_occupancy
  Ho  Ho0  1  0.821923  0.716455  0.538328  1
  Ho  Ho1  1  0.178077  0.283545  0.461672  1
  Ho  Ho2  1  0.178127  0.716455  0.894531  1
  Ho  Ho3  1  0.821873  0.283545  0.105469  1
  Ho  Ho4  1  0.683320  0.376031  0.692712  1
  Ho  Ho5  1  0.316680  0.623969  0.307288  1
  Ho  Ho6  1  0.683416  0.990819  0.307403  1
  Ho  Ho7  1  0.316584  0.009181  0.692597  1
  Ho  Ho8  1  0.592383  0.786015  0.806390  1
  Ho  Ho9  1  0.407617  0.213985  0.193610  1
  Ho  Ho10  1  0.979626  0.786015  0.193633  1
  Ho  Ho11  1  0.020374  0.213985  0.806367  1
  Ni  Ni12  1  0.633706  0.000000  0.633706  1
  Ni  Ni13  1  0.366294  0.000000  0.366294  1
  Ni  Ni14  1  0.120389  0.620132  0.499743  1
  Ni  Ni15  1  0.879611  0.379868  0.500257  1
  Bi  Bi16  1  0.500000  0.500000  0.000000  1
  Os  Os17  1  0.000000  0.000000  0.000000  1
