# generated using pymatgen
data_RbBaFeO3
_symmetry_space_group_name_H-M   'P 1'
_cell_length_a   6.63318683
_cell_length_b   6.63318685
_cell_length_c   13.05719400
_cell_angle_alpha   90.00000000
_cell_angle_beta   90.00000000
_cell_angle_gamma   126.43425681
_symmetry_Int_Tables_number   1
_chemical_formula_structural   RbBaFeO3
_chemical_formula_sum   'Rb4 Ba4 Fe4 O12'
_cell_volume   462.21213046
_cell_formula_units_Z   4
loop_
 _symmetry_equiv_pos_site_id
 _symmetry_equiv_pos_as_xyz
  1  'x, y, z'
loop_
 _atom_site_type_symbol
 _atom_site_label
 _atom_site_symmetry_multiplicity
 _atom_site_fract_x
 _atom_site_fract_y
 _atom_site_fract_z
 _atom_site_occupancy
  Rb  Rb0  1  0.454517  0.545483  0.642448  1
  Rb  Rb1  1  0.545483  0.454517  0.357552  1
  Rb  Rb2  1  0.045483  0.954517  0.142448  1
  Rb  Rb3  1  0.954517  0.045483  0.857552  1
  Ba  Ba4  1  0.643900  0.356100  0.918705  1
  Ba  Ba5  1  0.856100  0.143900  0.418705  1
  Ba  Ba6  1  0.143900  0.856100  0.581295  1
  Ba  Ba7  1  0.356100  0.643900  0.081295  1
  Fe  Fe8  1  0.229912  0.770088  0.336133  1
  Fe  Fe9  1  0.729912  0.270088  0.163867  1
  Fe  Fe10  1  0.770088  0.229912  0.663867  1
  Fe  Fe11  1  0.270088  0.729912  0.836133  1
  O  O12  1  0.977796  0.522204  0.750000  1
  O  O13  1  0.522204  0.977796  0.250000  1
  O  O14  1  0.022204  0.477796  0.250000  1
  O  O15  1  0.477796  0.022204  0.750000  1
  O  O16  1  0.422390  0.577610  0.878538  1
  O  O17  1  0.577610  0.422390  0.121462  1
  O  O18  1  0.077610  0.922390  0.378538  1
  O  O19  1  0.675179  0.324821  0.548489  1
  O  O20  1  0.175179  0.824821  0.951511  1
  O  O21  1  0.824821  0.175179  0.048489  1
  O  O22  1  0.324821  0.675179  0.451511  1
  O  O23  1  0.922390  0.077610  0.621462  1
