# generated using pymatgen
data_Ce2In3Sn2Hg
_symmetry_space_group_name_H-M   'P 1'
_cell_length_a   4.74114900
_cell_length_b   4.73555800
_cell_length_c   9.33765900
_cell_angle_alpha   90.00000000
_cell_angle_beta   90.00000000
_cell_angle_gamma   90.00000000
_symmetry_Int_Tables_number   1
_chemical_formula_structural   Ce2In3Sn2Hg
_chemical_formula_sum   'Ce2 In3 Sn2 Hg1'
_cell_volume   209.64898985
_cell_formula_units_Z   1
loop_
 _symmetry_equiv_pos_site_id
 _symmetry_equiv_pos_as_xyz
  1  'x, y, z'
loop_
 _atom_site_type_symbol
 _atom_site_label
 _atom_site_symmetry_multiplicity
 _atom_site_fract_x
 _atom_site_fract_y
 _atom_site_fract_z
 _atom_site_occupancy
  Ce  Ce0  1  0.000000  0.000000  0.250866  1
  Ce  Ce1  1  0.000000  0.000000  0.749134  1
  In  In2  1  0.500000  0.500000  0.248458  1
  In  In3  1  0.500000  0.500000  0.751542  1
  In  In4  1  0.000000  0.500000  0.500000  1
  Sn  Sn5  1  0.000000  0.500000  0.000000  1
  Sn  Sn6  1  0.500000  0.000000  0.500000  1
  Hg  Hg7  1  0.500000  0.000000  0.000000  1
