# generated using pymatgen
data_AcYbCdIn3
_symmetry_space_group_name_H-M   'P 1'
_cell_length_a   5.01944900
_cell_length_b   5.01944982
_cell_length_c   7.95536600
_cell_angle_alpha   90.00000000
_cell_angle_beta   90.00000000
_cell_angle_gamma   120.00000122
_symmetry_Int_Tables_number   1
_chemical_formula_structural   AcYbCdIn3
_chemical_formula_sum   'Ac1 Yb1 Cd1 In3'
_cell_volume   173.58130685
_cell_formula_units_Z   1
loop_
 _symmetry_equiv_pos_site_id
 _symmetry_equiv_pos_as_xyz
  1  'x, y, z'
loop_
 _atom_site_type_symbol
 _atom_site_label
 _atom_site_symmetry_multiplicity
 _atom_site_fract_x
 _atom_site_fract_y
 _atom_site_fract_z
 _atom_site_occupancy
  Ac  Ac0  1  0.000000  0.000000  0.244889  1
  Yb  Yb1  1  0.000000  0.000000  0.756657  1
  Cd  Cd2  1  0.333333  0.666667  0.013294  1
  In  In3  1  0.333333  0.666667  0.469179  1
  In  In4  1  0.666667  0.333333  0.955842  1
  In  In5  1  0.666667  0.333333  0.560139  1
