# generated using pymatgen
data_Sm4TcB16Ru3
_symmetry_space_group_name_H-M   'P 1'
_cell_length_a   3.61428600
_cell_length_b   6.02865297
_cell_length_c   11.65975859
_cell_angle_alpha   89.90899425
_cell_angle_beta   90.00000000
_cell_angle_gamma   90.00000000
_symmetry_Int_Tables_number   1
_chemical_formula_structural   Sm4TcB16Ru3
_chemical_formula_sum   'Sm4 Tc1 B16 Ru3'
_cell_volume   254.05737776
_cell_formula_units_Z   1
loop_
 _symmetry_equiv_pos_site_id
 _symmetry_equiv_pos_as_xyz
  1  'x, y, z'
loop_
 _atom_site_type_symbol
 _atom_site_label
 _atom_site_symmetry_multiplicity
 _atom_site_fract_x
 _atom_site_fract_y
 _atom_site_fract_z
 _atom_site_occupancy
  Sm  Sm0  1  0.000000  0.373164  0.649711  1
  Sm  Sm1  1  0.000000  0.627952  0.349257  1
  Sm  Sm2  1  0.000000  0.873588  0.850632  1
  Sm  Sm3  1  0.000000  0.126039  0.150103  1
  Tc  Tc4  1  0.000000  0.135539  0.410016  1
  B  B5  1  0.500000  0.025103  0.690621  1
  B  B6  1  0.500000  0.975042  0.309349  1
  B  B7  1  0.500000  0.525685  0.809632  1
  B  B8  1  0.500000  0.475111  0.190192  1
  B  B9  1  0.500000  0.388201  0.045656  1
  B  B10  1  0.500000  0.611518  0.953998  1
  B  B11  1  0.500000  0.888384  0.454371  1
  B  B12  1  0.500000  0.111440  0.546259  1
  B  B13  1  0.500000  0.285108  0.315085  1
  B  B14  1  0.500000  0.714519  0.684618  1
  B  B15  1  0.500000  0.784989  0.184149  1
  B  B16  1  0.500000  0.214068  0.815747  1
  B  B17  1  0.500000  0.362390  0.469178  1
  B  B18  1  0.500000  0.638688  0.531393  1
  B  B19  1  0.500000  0.861235  0.031220  1
  B  B20  1  0.500000  0.138299  0.968747  1
  Ru  Ru21  1  0.000000  0.362125  0.907796  1
  Ru  Ru22  1  0.000000  0.636902  0.090972  1
  Ru  Ru23  1  0.000000  0.864908  0.591298  1
