# generated using pymatgen
data_Pr5Nd7Rh4
_symmetry_space_group_name_H-M   'P 1'
_cell_length_a   7.39972211
_cell_length_b   9.99584946
_cell_length_c   6.52064934
_cell_angle_alpha   89.91470132
_cell_angle_beta   89.95345989
_cell_angle_gamma   90.04232890
_symmetry_Int_Tables_number   1
_chemical_formula_structural   Pr5Nd7Rh4
_chemical_formula_sum   'Pr5 Nd7 Rh4'
_cell_volume   482.30883799
_cell_formula_units_Z   1
loop_
 _symmetry_equiv_pos_site_id
 _symmetry_equiv_pos_as_xyz
  1  'x, y, z'
loop_
 _atom_site_type_symbol
 _atom_site_label
 _atom_site_symmetry_multiplicity
 _atom_site_fract_x
 _atom_site_fract_y
 _atom_site_fract_z
 _atom_site_occupancy
  Pr  Pr0  1  0.465696  0.749784  0.144596  1
  Pr  Pr1  1  0.966057  0.749706  0.355499  1
  Pr  Pr2  1  0.034311  0.250208  0.644263  1
  Pr  Pr3  1  0.824510  0.933943  0.833094  1
  Pr  Pr4  1  0.534009  0.250211  0.855704  1
  Nd  Nd5  1  0.175522  0.066979  0.167279  1
  Nd  Nd6  1  0.175381  0.433197  0.167164  1
  Nd  Nd7  1  0.675198  0.067125  0.332803  1
  Nd  Nd8  1  0.675304  0.433172  0.332830  1
  Nd  Nd9  1  0.324741  0.566811  0.667242  1
  Nd  Nd10  1  0.324596  0.933185  0.667094  1
  Nd  Nd11  1  0.824704  0.566464  0.832795  1
  Rh  Rh12  1  0.880171  0.250440  0.072468  1
  Rh  Rh13  1  0.380082  0.249928  0.427846  1
  Rh  Rh14  1  0.619179  0.749489  0.571323  1
  Rh  Rh15  1  0.120540  0.749357  0.928003  1
