# generated using pymatgen
data_PrLu(ReN3)2
_symmetry_space_group_name_H-M   'P 1'
_cell_length_a   7.35628072
_cell_length_b   7.35628063
_cell_length_c   6.23901600
_cell_angle_alpha   72.80590618
_cell_angle_beta   72.80590638
_cell_angle_gamma   81.69744414
_symmetry_Int_Tables_number   1
_chemical_formula_structural   PrLu(ReN3)2
_chemical_formula_sum   'Pr2 Lu2 Re4 N12'
_cell_volume   307.51837566
_cell_formula_units_Z   2
loop_
 _symmetry_equiv_pos_site_id
 _symmetry_equiv_pos_as_xyz
  1  'x, y, z'
loop_
 _atom_site_type_symbol
 _atom_site_label
 _atom_site_symmetry_multiplicity
 _atom_site_fract_x
 _atom_site_fract_y
 _atom_site_fract_z
 _atom_site_occupancy
  Pr  Pr0  1  0.699844  0.300156  0.250000  1
  Pr  Pr1  1  0.300156  0.699844  0.750000  1
  Lu  Lu2  1  0.910411  0.089589  0.750000  1
  Lu  Lu3  1  0.089589  0.910411  0.250000  1
  Re  Re4  1  0.623273  0.801163  0.247196  1
  Re  Re5  1  0.198837  0.376727  0.252804  1
  Re  Re6  1  0.376727  0.198837  0.752804  1
  Re  Re7  1  0.801163  0.623273  0.747196  1
  N  N8  1  0.649131  0.651697  0.038278  1
  N  N9  1  0.373975  0.883815  0.321324  1
  N  N10  1  0.348303  0.350869  0.461722  1
  N  N11  1  0.116185  0.626025  0.178676  1
  N  N12  1  0.007710  0.210979  0.351263  1
  N  N13  1  0.789021  0.992290  0.148737  1
  N  N14  1  0.210979  0.007710  0.851263  1
  N  N15  1  0.626025  0.116185  0.678676  1
  N  N16  1  0.350869  0.348303  0.961722  1
  N  N17  1  0.883815  0.373975  0.821324  1
  N  N18  1  0.651697  0.649131  0.538278  1
  N  N19  1  0.992290  0.789021  0.648737  1
