# generated using pymatgen
data_Ac20Si15Pd
_symmetry_space_group_name_H-M   'P 1'
_cell_length_a   8.30107650
_cell_length_b   8.30240339
_cell_length_c   16.28386389
_cell_angle_alpha   89.99480409
_cell_angle_beta   89.66562138
_cell_angle_gamma   90.08545887
_symmetry_Int_Tables_number   1
_chemical_formula_structural   Ac20Si15Pd
_chemical_formula_sum   'Ac20 Si15 Pd1'
_cell_volume   1122.24538789
_cell_formula_units_Z   1
loop_
 _symmetry_equiv_pos_site_id
 _symmetry_equiv_pos_as_xyz
  1  'x, y, z'
loop_
 _atom_site_type_symbol
 _atom_site_label
 _atom_site_symmetry_multiplicity
 _atom_site_fract_x
 _atom_site_fract_y
 _atom_site_fract_z
 _atom_site_occupancy
  Ac  Ac0  1  0.307818  0.306575  0.998980  1
  Ac  Ac1  1  0.190196  0.809573  0.249686  1
  Ac  Ac2  1  0.807753  0.184902  0.752951  1
  Ac  Ac3  1  0.695680  0.687065  0.499116  1
  Ac  Ac4  1  0.374307  0.012309  0.447640  1
  Ac  Ac5  1  0.487392  0.872340  0.697849  1
  Ac  Ac6  1  0.512143  0.121749  0.196931  1
  Ac  Ac7  1  0.877722  0.484862  0.300266  1
  Ac  Ac8  1  0.122709  0.513853  0.799704  1
  Ac  Ac9  1  0.626801  0.985202  0.948412  1
  Ac  Ac10  1  0.004225  0.380116  0.553053  1
  Ac  Ac11  1  0.986781  0.625874  0.051261  1
  Ac  Ac12  1  0.134595  0.979885  0.875495  1
  Ac  Ac13  1  0.523444  0.628071  0.126491  1
  Ac  Ac14  1  0.473368  0.370402  0.629106  1
  Ac  Ac15  1  0.627375  0.523841  0.873803  1
  Ac  Ac16  1  0.373485  0.478085  0.372502  1
  Ac  Ac17  1  0.872200  0.024940  0.377166  1
  Ac  Ac18  1  0.976422  0.126223  0.123680  1
  Ac  Ac19  1  0.025185  0.878382  0.622956  1
  Si  Si20  1  0.332616  0.697145  0.956382  1
  Si  Si21  1  0.663207  0.300932  0.458093  1
  Si  Si22  1  0.699746  0.333219  0.043847  1
  Si  Si23  1  0.301844  0.668094  0.542391  1
  Si  Si24  1  0.803437  0.830827  0.208733  1
  Si  Si25  1  0.169550  0.197708  0.292780  1
  Si  Si26  1  0.834522  0.801335  0.792344  1
  Si  Si27  1  0.290222  0.918772  0.058515  1
  Si  Si28  1  0.581352  0.790064  0.309643  1
  Si  Si29  1  0.427489  0.207395  0.812367  1
  Si  Si30  1  0.787930  0.583085  0.690484  1
  Si  Si31  1  0.209850  0.419624  0.190682  1
  Si  Si32  1  0.703496  0.079811  0.559046  1
  Si  Si33  1  0.918722  0.290602  0.941779  1
  Si  Si34  1  0.082325  0.711999  0.441637  1
  Pd  Pd35  1  0.194089  0.175138  0.704225  1
