# generated using pymatgen
data_Tb6Al24FeRu4Pt2Rh
_symmetry_space_group_name_H-M   'P 1'
_cell_length_a   8.83393278
_cell_length_b   8.78824440
_cell_length_c   9.54223400
_cell_angle_alpha   90.00000000
_cell_angle_beta   90.07096846
_cell_angle_gamma   119.82905743
_symmetry_Int_Tables_number   1
_chemical_formula_structural   Tb6Al24FeRu4Pt2Rh
_chemical_formula_sum   'Tb6 Al24 Fe1 Ru4 Pt2 Rh1'
_cell_volume   642.66104945
_cell_formula_units_Z   1
loop_
 _symmetry_equiv_pos_site_id
 _symmetry_equiv_pos_as_xyz
  1  'x, y, z'
loop_
 _atom_site_type_symbol
 _atom_site_label
 _atom_site_symmetry_multiplicity
 _atom_site_fract_x
 _atom_site_fract_y
 _atom_site_fract_z
 _atom_site_occupancy
  Tb  Tb0  1  0.385392  0.192696  0.249885  1
  Tb  Tb1  1  0.808226  0.193650  0.248954  1
  Tb  Tb2  1  0.808226  0.614575  0.248954  1
  Tb  Tb3  1  0.614608  0.807304  0.750115  1
  Tb  Tb4  1  0.191774  0.806350  0.751046  1
  Tb  Tb5  1  0.191774  0.385425  0.751046  1
  Al  Al6  1  0.437450  0.874190  0.246369  1
  Al  Al7  1  0.123143  0.561571  0.251138  1
  Al  Al8  1  0.437450  0.563259  0.246369  1
  Al  Al9  1  0.562550  0.125810  0.753631  1
  Al  Al10  1  0.876857  0.438429  0.748862  1
  Al  Al11  1  0.562550  0.436741  0.753631  1
  Al  Al12  1  0.157727  0.832934  0.421552  1
  Al  Al13  1  0.157727  0.324794  0.421552  1
  Al  Al14  1  0.676924  0.838463  0.421280  1
  Al  Al15  1  0.842273  0.167066  0.578448  1
  Al  Al16  1  0.842273  0.675206  0.578448  1
  Al  Al17  1  0.323076  0.161537  0.578720  1
  Al  Al18  1  0.837661  0.158326  0.924734  1
  Al  Al19  1  0.837661  0.679333  0.924734  1
  Al  Al20  1  0.320877  0.160438  0.925899  1
  Al  Al21  1  0.162339  0.841674  0.075266  1
  Al  Al22  1  0.162339  0.320667  0.075266  1
  Al  Al23  1  0.679123  0.839562  0.074101  1
  Al  Al24  1  0.327013  0.663507  0.525507  1
  Al  Al25  1  0.672987  0.336493  0.474493  1
  Al  Al26  1  0.665249  0.332623  0.022337  1
  Al  Al27  1  0.334751  0.667377  0.977663  1
  Al  Al28  1  0.001910  0.000955  0.243376  1
  Al  Al29  1  0.998090  0.999045  0.756624  1
  Fe  Fe30  1  0.000000  0.000000  0.000000  1
  Ru  Ru31  1  0.000000  0.000000  0.500000  1
  Ru  Ru32  1  0.000000  0.500000  0.500000  1
  Ru  Ru33  1  0.500000  0.000000  0.000000  1
  Ru  Ru34  1  0.500000  0.500000  0.000000  1
  Pt  Pt35  1  0.500000  0.000000  0.500000  1
  Pt  Pt36  1  0.500000  0.500000  0.500000  1
  Rh  Rh37  1  0.000000  0.500000  0.000000  1
