# generated using pymatgen
data_HfZr(Co5As3)2
_symmetry_space_group_name_H-M   'P 1'
_cell_length_a   3.71028500
_cell_length_b   12.07742140
_cell_length_c   10.57330798
_cell_angle_alpha   90.12034547
_cell_angle_beta   90.00000000
_cell_angle_gamma   90.00000000
_symmetry_Int_Tables_number   1
_chemical_formula_structural   HfZr(Co5As3)2
_chemical_formula_sum   'Hf2 Zr2 Co20 As12'
_cell_volume   473.79602706
_cell_formula_units_Z   2
loop_
 _symmetry_equiv_pos_site_id
 _symmetry_equiv_pos_as_xyz
  1  'x, y, z'
loop_
 _atom_site_type_symbol
 _atom_site_label
 _atom_site_symmetry_multiplicity
 _atom_site_fract_x
 _atom_site_fract_y
 _atom_site_fract_z
 _atom_site_occupancy
  Hf  Hf0  1  0.250000  0.798288  0.577941  1
  Hf  Hf1  1  0.750000  0.201712  0.422059  1
  Zr  Zr2  1  0.750000  0.702242  0.079013  1
  Zr  Zr3  1  0.250000  0.297758  0.920987  1
  Co  Co4  1  0.750000  0.698507  0.387255  1
  Co  Co5  1  0.250000  0.301493  0.612745  1
  Co  Co6  1  0.250000  0.801989  0.885286  1
  Co  Co7  1  0.750000  0.198011  0.114714  1
  Co  Co8  1  0.750000  0.994192  0.217219  1
  Co  Co9  1  0.250000  0.005808  0.782781  1
  Co  Co10  1  0.250000  0.506086  0.716583  1
  Co  Co11  1  0.750000  0.493914  0.283417  1
  Co  Co12  1  0.750000  0.680591  0.782423  1
  Co  Co13  1  0.250000  0.319409  0.217577  1
  Co  Co14  1  0.250000  0.819550  0.284390  1
  Co  Co15  1  0.750000  0.180450  0.715610  1
  Co  Co16  1  0.750000  0.930205  0.969496  1
  Co  Co17  1  0.250000  0.069795  0.030504  1
  Co  Co18  1  0.250000  0.570135  0.469781  1
  Co  Co19  1  0.750000  0.429865  0.530219  1
  Co  Co20  1  0.750000  0.983901  0.590150  1
  Co  Co21  1  0.250000  0.016099  0.409850  1
  Co  Co22  1  0.250000  0.513157  0.090209  1
  Co  Co23  1  0.750000  0.486842  0.909791  1
  As  As24  1  0.750000  0.615565  0.586159  1
  As  As25  1  0.250000  0.384435  0.413841  1
  As  As26  1  0.250000  0.884765  0.086614  1
  As  As27  1  0.750000  0.115235  0.913386  1
  As  As28  1  0.750000  0.888663  0.400577  1
  As  As29  1  0.250000  0.111337  0.599423  1
  As  As30  1  0.250000  0.611285  0.900630  1
  As  As31  1  0.750000  0.388715  0.099370  1
  As  As32  1  0.750000  0.870589  0.765404  1
  As  As33  1  0.250000  0.129411  0.234596  1
  As  As34  1  0.250000  0.628613  0.265763  1
  As  As35  1  0.750000  0.371387  0.734237  1
