# generated using pymatgen
data_Er4AlGa17Ir6
_symmetry_space_group_name_H-M   'P 1'
_cell_length_a   7.57365453
_cell_length_b   7.57365408
_cell_length_c   9.45865001
_cell_angle_alpha   89.98711857
_cell_angle_beta   89.98711036
_cell_angle_gamma   119.89987786
_symmetry_Int_Tables_number   1
_chemical_formula_structural   Er4AlGa17Ir6
_chemical_formula_sum   'Er4 Al1 Ga17 Ir6'
_cell_volume   470.33573304
_cell_formula_units_Z   1
loop_
 _symmetry_equiv_pos_site_id
 _symmetry_equiv_pos_as_xyz
  1  'x, y, z'
loop_
 _atom_site_type_symbol
 _atom_site_label
 _atom_site_symmetry_multiplicity
 _atom_site_fract_x
 _atom_site_fract_y
 _atom_site_fract_z
 _atom_site_occupancy
  Er  Er0  1  0.999187  0.669006  0.249960  1
  Er  Er1  1  0.001668  0.329473  0.749439  1
  Er  Er2  1  0.669006  0.999187  0.249960  1
  Er  Er3  1  0.329473  0.001668  0.749439  1
  Al  Al4  1  0.336236  0.336236  0.949601  1
  Ga  Ga5  1  0.126504  0.126504  0.249059  1
  Ga  Ga6  1  0.871758  0.871758  0.748979  1
  Ga  Ga7  1  0.998029  0.334364  0.080929  1
  Ga  Ga8  1  0.000365  0.664748  0.917570  1
  Ga  Ga9  1  0.999909  0.664379  0.582211  1
  Ga  Ga10  1  0.334475  0.999311  0.417329  1
  Ga  Ga11  1  0.999311  0.334475  0.417329  1
  Ga  Ga12  1  0.664379  0.999909  0.582211  1
  Ga  Ga13  1  0.664748  0.000365  0.917570  1
  Ga  Ga14  1  0.334364  0.998029  0.080929  1
  Ga  Ga15  1  0.331516  0.331516  0.564730  1
  Ga  Ga16  1  0.668571  0.668571  0.432855  1
  Ga  Ga17  1  0.672887  0.672887  0.067360  1
  Ga  Ga18  1  0.340714  0.548383  0.249728  1
  Ga  Ga19  1  0.655052  0.450045  0.750118  1
  Ga  Ga20  1  0.548383  0.340714  0.249728  1
  Ga  Ga21  1  0.450045  0.655052  0.750118  1
  Ir  Ir22  1  0.669538  0.328274  0.999084  1
  Ir  Ir23  1  0.328274  0.669538  0.999084  1
  Ir  Ir24  1  0.328258  0.672066  0.499511  1
  Ir  Ir25  1  0.672066  0.328258  0.499511  1
  Ir  Ir26  1  0.005469  0.005469  0.996534  1
  Ir  Ir27  1  0.999812  0.999812  0.499121  1
