# generated using pymatgen
data_La10FeCoBr15
_symmetry_space_group_name_H-M   'P 1'
_cell_length_a   9.45493693
_cell_length_b   10.62441461
_cell_length_c   11.39581900
_cell_angle_alpha   92.45969684
_cell_angle_beta   113.28684574
_cell_angle_gamma   109.62847028
_symmetry_Int_Tables_number   1
_chemical_formula_structural   La10FeCoBr15
_chemical_formula_sum   'La10 Fe1 Co1 Br15'
_cell_volume   969.74795135
_cell_formula_units_Z   1
loop_
 _symmetry_equiv_pos_site_id
 _symmetry_equiv_pos_as_xyz
  1  'x, y, z'
loop_
 _atom_site_type_symbol
 _atom_site_label
 _atom_site_symmetry_multiplicity
 _atom_site_fract_x
 _atom_site_fract_y
 _atom_site_fract_z
 _atom_site_occupancy
  La  La0  1  0.225830  0.587041  0.055013  1
  La  La1  1  0.768773  0.410886  0.943334  1
  La  La2  1  0.319383  0.916701  0.278664  1
  La  La3  1  0.685876  0.084691  0.722809  1
  La  La4  1  0.100150  0.544224  0.344466  1
  La  La5  1  0.898956  0.453806  0.655644  1
  La  La6  1  0.836257  0.746670  0.173752  1
  La  La7  1  0.159932  0.256200  0.828284  1
  La  La8  1  0.972807  0.799803  0.891439  1
  La  La9  1  0.026428  0.198902  0.106410  1
  Fe  Fe10  1  0.968190  0.320355  0.877717  1
  Co  Co11  1  0.036070  0.680727  0.123042  1
  Br  Br12  1  0.335070  0.439780  0.295663  1
  Br  Br13  1  0.664325  0.560151  0.704875  1
  Br  Br14  1  0.203311  0.729468  0.811043  1
  Br  Br15  1  0.797099  0.271590  0.188240  1
  Br  Br16  1  0.139167  0.385509  0.584505  1
  Br  Br17  1  0.860157  0.615566  0.413780  1
  Br  Br18  1  0.388600  0.802148  0.523998  1
  Br  Br19  1  0.608866  0.196932  0.474283  1
  Br  Br20  1  0.258740  0.084010  0.051536  1
  Br  Br21  1  0.740960  0.913660  0.948626  1
  Br  Br22  1  0.571328  0.842594  0.225754  1
  Br  Br23  1  0.431900  0.157695  0.775366  1
  Br  Br24  1  0.092634  0.029936  0.333806  1
  Br  Br25  1  0.909157  0.968392  0.666412  1
  Br  Br26  1  0.500032  0.502560  0.001537  1
