# generated using pymatgen
data_Er3MoO7
_symmetry_space_group_name_H-M   'P 1'
_cell_length_a   6.42122755
_cell_length_b   6.42122758
_cell_length_c   7.43154000
_cell_angle_alpha   90.00000000
_cell_angle_beta   90.00000000
_cell_angle_gamma   108.98353279
_symmetry_Int_Tables_number   1
_chemical_formula_structural   Er3MoO7
_chemical_formula_sum   'Er6 Mo2 O14'
_cell_volume   289.75301678
_cell_formula_units_Z   2
loop_
 _symmetry_equiv_pos_site_id
 _symmetry_equiv_pos_as_xyz
  1  'x, y, z'
loop_
 _atom_site_type_symbol
 _atom_site_label
 _atom_site_symmetry_multiplicity
 _atom_site_fract_x
 _atom_site_fract_y
 _atom_site_fract_z
 _atom_site_occupancy
  Er  Er0  1  0.998857  0.464936  0.746106  1
  Er  Er1  1  0.001143  0.535064  0.246106  1
  Er  Er2  1  0.535064  0.001143  0.753894  1
  Er  Er3  1  0.464936  0.998857  0.253894  1
  Er  Er4  1  0.525991  0.525991  0.500000  1
  Er  Er5  1  0.474009  0.474009  0.000000  1
  Mo  Mo6  1  0.002204  0.002204  0.500000  1
  Mo  Mo7  1  0.997796  0.997796  0.000000  1
  O  O8  1  0.637197  0.362803  0.750000  1
  O  O9  1  0.362803  0.637197  0.250000  1
  O  O10  1  0.923591  0.076409  0.750000  1
  O  O11  1  0.076409  0.923591  0.250000  1
  O  O12  1  0.917244  0.672186  0.527838  1
  O  O13  1  0.082756  0.327814  0.027838  1
  O  O14  1  0.327814  0.082756  0.972162  1
  O  O15  1  0.672186  0.917244  0.472162  1
  O  O16  1  0.368992  0.631008  0.750000  1
  O  O17  1  0.631008  0.368992  0.250000  1
  O  O18  1  0.936088  0.682913  0.964544  1
  O  O19  1  0.063912  0.317087  0.464544  1
  O  O20  1  0.317087  0.063912  0.535456  1
  O  O21  1  0.682913  0.936088  0.035456  1
