# generated using pymatgen
data_Sr3Tc4P4F2
_symmetry_space_group_name_H-M   'P 1'
_cell_length_a   4.13121573
_cell_length_b   4.13120545
_cell_length_c   14.25705780
_cell_angle_alpha   98.35155366
_cell_angle_beta   98.35186554
_cell_angle_gamma   89.88870913
_symmetry_Int_Tables_number   1
_chemical_formula_structural   Sr3Tc4P4F2
_chemical_formula_sum   'Sr3 Tc4 P4 F2'
_cell_volume   238.14470588
_cell_formula_units_Z   1
loop_
 _symmetry_equiv_pos_site_id
 _symmetry_equiv_pos_as_xyz
  1  'x, y, z'
loop_
 _atom_site_type_symbol
 _atom_site_label
 _atom_site_symmetry_multiplicity
 _atom_site_fract_x
 _atom_site_fract_y
 _atom_site_fract_z
 _atom_site_occupancy
  Sr  Sr0  1  0.000102  0.000098  0.000196  1
  Sr  Sr1  1  0.699137  0.699133  0.398278  1
  Sr  Sr2  1  0.300796  0.300790  0.601607  1
  Tc  Tc3  1  0.593906  0.093938  0.187705  1
  Tc  Tc4  1  0.093937  0.593899  0.187705  1
  Tc  Tc5  1  0.906088  0.406131  0.812313  1
  Tc  Tc6  1  0.406114  0.906088  0.812308  1
  P  P7  1  0.552236  0.552241  0.104454  1
  P  P8  1  0.135541  0.135540  0.270834  1
  P  P9  1  0.864365  0.864369  0.728963  1
  P  P10  1  0.447833  0.447827  0.895686  1
  F  F11  1  0.750133  0.249821  0.499974  1
  F  F12  1  0.249821  0.750134  0.499975  1
