# generated using pymatgen
data_Fe3CoAs4
_symmetry_space_group_name_H-M   'P 1'
_cell_length_a   3.37411500
_cell_length_b   5.34597432
_cell_length_c   5.96565055
_cell_angle_alpha   90.47437065
_cell_angle_beta   90.00000000
_cell_angle_gamma   90.00000000
_symmetry_Int_Tables_number   1
_chemical_formula_structural   Fe3CoAs4
_chemical_formula_sum   'Fe3 Co1 As4'
_cell_volume   107.60431164
_cell_formula_units_Z   1
loop_
 _symmetry_equiv_pos_site_id
 _symmetry_equiv_pos_as_xyz
  1  'x, y, z'
loop_
 _atom_site_type_symbol
 _atom_site_label
 _atom_site_symmetry_multiplicity
 _atom_site_fract_x
 _atom_site_fract_y
 _atom_site_fract_z
 _atom_site_occupancy
  Fe  Fe0  1  0.750000  0.498984  0.300161  1
  Fe  Fe1  1  0.750000  0.999091  0.202831  1
  Fe  Fe2  1  0.250000  0.499833  0.700342  1
  Co  Co3  1  0.250000  0.999567  0.797800  1
  As  As4  1  0.750000  0.802479  0.578639  1
  As  As5  1  0.250000  0.701600  0.079292  1
  As  As6  1  0.250000  0.199069  0.417804  1
  As  As7  1  0.750000  0.299377  0.923132  1
