# generated using pymatgen
data_TmLu2Zr(Al3Rh)6
_symmetry_space_group_name_H-M   'P 1'
_cell_length_a   7.51739607
_cell_length_b   7.50731447
_cell_length_c   9.36591100
_cell_angle_alpha   90.00000000
_cell_angle_beta   90.00000000
_cell_angle_gamma   119.46483043
_symmetry_Int_Tables_number   1
_chemical_formula_structural   TmLu2Zr(Al3Rh)6
_chemical_formula_sum   'Tm1 Lu2 Zr1 Al18 Rh6'
_cell_volume   460.20312096
_cell_formula_units_Z   1
loop_
 _symmetry_equiv_pos_site_id
 _symmetry_equiv_pos_as_xyz
  1  'x, y, z'
loop_
 _atom_site_type_symbol
 _atom_site_label
 _atom_site_symmetry_multiplicity
 _atom_site_fract_x
 _atom_site_fract_y
 _atom_site_fract_z
 _atom_site_occupancy
  Tm  Tm0  1  0.006733  0.325837  0.750000  1
  Lu  Lu1  1  0.672968  0.996017  0.250000  1
  Lu  Lu2  1  0.326883  0.007151  0.750000  1
  Zr  Zr3  1  0.996210  0.672186  0.250000  1
  Al  Al4  1  0.124565  0.122368  0.250000  1
  Al  Al5  1  0.870648  0.869668  0.750000  1
  Al  Al6  1  0.999573  0.338071  0.079923  1
  Al  Al7  1  0.000323  0.664450  0.925818  1
  Al  Al8  1  0.000323  0.664450  0.574182  1
  Al  Al9  1  0.333299  0.997660  0.420190  1
  Al  Al10  1  0.999573  0.338071  0.420077  1
  Al  Al11  1  0.663397  0.999109  0.576814  1
  Al  Al12  1  0.663397  0.999109  0.923186  1
  Al  Al13  1  0.333299  0.997660  0.079810  1
  Al  Al14  1  0.333592  0.333353  0.549796  1
  Al  Al15  1  0.670010  0.668379  0.443816  1
  Al  Al16  1  0.670010  0.668379  0.056184  1
  Al  Al17  1  0.333592  0.333353  0.950204  1
  Al  Al18  1  0.337260  0.552689  0.250000  1
  Al  Al19  1  0.659720  0.448747  0.750000  1
  Al  Al20  1  0.557065  0.343938  0.250000  1
  Al  Al21  1  0.447499  0.658649  0.750000  1
  Rh  Rh22  1  0.673102  0.327636  0.000889  1
  Rh  Rh23  1  0.327435  0.673283  0.001618  1
  Rh  Rh24  1  0.327435  0.673283  0.498382  1
  Rh  Rh25  1  0.673102  0.327636  0.499111  1
  Rh  Rh26  1  0.999495  0.999436  0.000651  1
  Rh  Rh27  1  0.999495  0.999436  0.499349  1
