# generated using pymatgen
data_Er19Lu(Cd3Os)2
_symmetry_space_group_name_H-M   'P 1'
_cell_length_a   9.48902900
_cell_length_b   9.48902860
_cell_length_c   9.77459000
_cell_angle_alpha   90.00000000
_cell_angle_beta   90.00000000
_cell_angle_gamma   119.99999790
_symmetry_Int_Tables_number   1
_chemical_formula_structural   Er19Lu(Cd3Os)2
_chemical_formula_sum   'Er19 Lu1 Cd6 Os2'
_cell_volume   762.20662665
_cell_formula_units_Z   1
loop_
 _symmetry_equiv_pos_site_id
 _symmetry_equiv_pos_as_xyz
  1  'x, y, z'
loop_
 _atom_site_type_symbol
 _atom_site_label
 _atom_site_symmetry_multiplicity
 _atom_site_fract_x
 _atom_site_fract_y
 _atom_site_fract_z
 _atom_site_occupancy
  Er  Er0  1  0.000000  0.000000  0.000000  1
  Er  Er1  1  0.209387  0.790613  0.441084  1
  Er  Er2  1  0.209387  0.418776  0.441084  1
  Er  Er3  1  0.581224  0.790613  0.441084  1
  Er  Er4  1  0.790613  0.209387  0.558916  1
  Er  Er5  1  0.790613  0.581224  0.558916  1
  Er  Er6  1  0.418776  0.209387  0.558916  1
  Er  Er7  1  0.790224  0.209776  0.941201  1
  Er  Er8  1  0.790224  0.580447  0.941201  1
  Er  Er9  1  0.419553  0.209776  0.941201  1
  Er  Er10  1  0.209776  0.790224  0.058799  1
  Er  Er11  1  0.209776  0.419553  0.058799  1
  Er  Er12  1  0.580447  0.790224  0.058799  1
  Er  Er13  1  0.540003  0.459997  0.250185  1
  Er  Er14  1  0.540003  0.080004  0.250185  1
  Er  Er15  1  0.919996  0.459997  0.250185  1
  Er  Er16  1  0.459997  0.540003  0.749815  1
  Er  Er17  1  0.459997  0.919996  0.749815  1
  Er  Er18  1  0.080004  0.540003  0.749815  1
  Lu  Lu19  1  0.000000  0.000000  0.500000  1
  Cd  Cd20  1  0.885873  0.114127  0.251219  1
  Cd  Cd21  1  0.885873  0.771747  0.251219  1
  Cd  Cd22  1  0.228253  0.114127  0.251219  1
  Cd  Cd23  1  0.114127  0.885873  0.748781  1
  Cd  Cd24  1  0.114127  0.228253  0.748781  1
  Cd  Cd25  1  0.771747  0.885873  0.748781  1
  Os  Os26  1  0.333333  0.666667  0.250466  1
  Os  Os27  1  0.666667  0.333333  0.749534  1
