# generated using pymatgen
data_Cs2Nd10B2Br17
_symmetry_space_group_name_H-M   'P 1'
_cell_length_a   9.38345015
_cell_length_b   10.97738566
_cell_length_c   10.97730960
_cell_angle_alpha   107.02158096
_cell_angle_beta   94.11691486
_cell_angle_gamma   94.11655651
_symmetry_Int_Tables_number   1
_chemical_formula_structural   Cs2Nd10B2Br17
_chemical_formula_sum   'Cs2 Nd10 B2 Br17'
_cell_volume   1073.28685477
_cell_formula_units_Z   1
loop_
 _symmetry_equiv_pos_site_id
 _symmetry_equiv_pos_as_xyz
  1  'x, y, z'
loop_
 _atom_site_type_symbol
 _atom_site_label
 _atom_site_symmetry_multiplicity
 _atom_site_fract_x
 _atom_site_fract_y
 _atom_site_fract_z
 _atom_site_occupancy
  Cs  Cs0  1  0.000001  0.822890  0.177108  1
  Cs  Cs1  1  0.000000  0.177107  0.822891  1
  Nd  Nd2  1  0.439026  0.166780  0.166731  1
  Nd  Nd3  1  0.569019  0.510896  0.211196  1
  Nd  Nd4  1  0.827697  0.292426  0.292463  1
  Nd  Nd5  1  0.317447  0.438866  0.438875  1
  Nd  Nd6  1  0.430986  0.788800  0.489107  1
  Nd  Nd7  1  0.569107  0.211250  0.510933  1
  Nd  Nd8  1  0.682552  0.561126  0.561137  1
  Nd  Nd9  1  0.172305  0.707540  0.707570  1
  Nd  Nd10  1  0.430891  0.489068  0.788753  1
  Nd  Nd11  1  0.560976  0.833268  0.833223  1
  B  B12  1  0.572926  0.352167  0.352173  1
  B  B13  1  0.427074  0.647826  0.647833  1
  Br  Br14  1  0.578629  0.688383  0.023386  1
  Br  Br15  1  0.714084  0.068019  0.068022  1
  Br  Br16  1  0.854071  0.450632  0.118742  1
  Br  Br17  1  0.137575  0.213492  0.213493  1
  Br  Br18  1  0.276965  0.598511  0.256201  1
  Br  Br19  1  0.421369  0.976616  0.311622  1
  Br  Br20  1  0.723032  0.743801  0.401498  1
  Br  Br21  1  0.854076  0.118720  0.450627  1
  Br  Br22  1  0.000000  0.500001  0.500001  1
  Br  Br23  1  0.145933  0.881255  0.549366  1
  Br  Br24  1  0.276971  0.256185  0.598500  1
  Br  Br25  1  0.578636  0.023397  0.688375  1
  Br  Br26  1  0.723027  0.401500  0.743816  1
  Br  Br27  1  0.862425  0.786503  0.786505  1
  Br  Br28  1  0.145922  0.549373  0.881277  1
  Br  Br29  1  0.285918  0.931978  0.931979  1
  Br  Br30  1  0.421363  0.311623  0.976599  1
