# generated using pymatgen
data_Er4OsI4
_symmetry_space_group_name_H-M   'P 1'
_cell_length_a   10.89356569
_cell_length_b   10.89356790
_cell_length_c   6.16716534
_cell_angle_alpha   89.34082250
_cell_angle_beta   89.34082359
_cell_angle_gamma   88.76670623
_symmetry_Int_Tables_number   1
_chemical_formula_structural   Er4OsI4
_chemical_formula_sum   'Er8 Os2 I8'
_cell_volume   731.59191581
_cell_formula_units_Z   2
loop_
 _symmetry_equiv_pos_site_id
 _symmetry_equiv_pos_as_xyz
  1  'x, y, z'
loop_
 _atom_site_type_symbol
 _atom_site_label
 _atom_site_symmetry_multiplicity
 _atom_site_fract_x
 _atom_site_fract_y
 _atom_site_fract_z
 _atom_site_occupancy
  Er  Er0  1  0.204423  0.915792  0.997124  1
  Er  Er1  1  0.795577  0.084208  0.002876  1
  Er  Er2  1  0.084208  0.795577  0.502876  1
  Er  Er3  1  0.915792  0.204423  0.497124  1
  Er  Er4  1  0.797249  0.919881  0.506652  1
  Er  Er5  1  0.202751  0.080119  0.493348  1
  Er  Er6  1  0.080119  0.202751  0.993348  1
  Er  Er7  1  0.919881  0.797249  0.006652  1
  Os  Os8  1  0.999918  0.000082  0.250000  1
  Os  Os9  1  0.000082  0.999918  0.750000  1
  I  I10  1  0.367349  0.839275  0.502639  1
  I  I11  1  0.632651  0.160725  0.497361  1
  I  I12  1  0.160725  0.632651  0.997361  1
  I  I13  1  0.839275  0.367349  0.002639  1
  I  I14  1  0.363614  0.153253  0.005229  1
  I  I15  1  0.636386  0.846747  0.994771  1
  I  I16  1  0.846747  0.636386  0.494771  1
  I  I17  1  0.153253  0.363614  0.505229  1
