# generated using pymatgen
data_Cs6V2TeSe7
_symmetry_space_group_name_H-M   'P 1'
_cell_length_a   10.23193100
_cell_length_b   10.22208400
_cell_length_c   12.09376900
_cell_angle_alpha   90.00000000
_cell_angle_beta   90.00000000
_cell_angle_gamma   90.00000000
_symmetry_Int_Tables_number   1
_chemical_formula_structural   Cs6V2TeSe7
_chemical_formula_sum   'Cs12 V4 Te2 Se14'
_cell_volume   1264.90735316
_cell_formula_units_Z   2
loop_
 _symmetry_equiv_pos_site_id
 _symmetry_equiv_pos_as_xyz
  1  'x, y, z'
loop_
 _atom_site_type_symbol
 _atom_site_label
 _atom_site_symmetry_multiplicity
 _atom_site_fract_x
 _atom_site_fract_y
 _atom_site_fract_z
 _atom_site_occupancy
  Cs  Cs0  1  0.543602  0.205626  0.032842  1
  Cs  Cs1  1  0.043602  0.294374  0.467158  1
  Cs  Cs2  1  0.455175  0.792331  0.543183  1
  Cs  Cs3  1  0.955175  0.707669  0.956817  1
  Cs  Cs4  1  0.455175  0.792331  0.956817  1
  Cs  Cs5  1  0.955175  0.707669  0.543183  1
  Cs  Cs6  1  0.543602  0.205626  0.467158  1
  Cs  Cs7  1  0.043602  0.294374  0.032842  1
  Cs  Cs8  1  0.648221  0.410433  0.750000  1
  Cs  Cs9  1  0.148221  0.089567  0.750000  1
  Cs  Cs10  1  0.353562  0.600198  0.250000  1
  Cs  Cs11  1  0.853562  0.899802  0.250000  1
  V  V12  1  0.722593  0.982128  0.750000  1
  V  V13  1  0.222593  0.517872  0.750000  1
  V  V14  1  0.276989  0.007975  0.250000  1
  V  V15  1  0.776989  0.492025  0.250000  1
  Te  Te16  1  0.290801  0.253009  0.250000  1
  Te  Te17  1  0.790801  0.246991  0.250000  1
  Se  Se18  1  0.830118  0.048002  0.593641  1
  Se  Se19  1  0.330118  0.451998  0.906359  1
  Se  Se20  1  0.169525  0.947068  0.092642  1
  Se  Se21  1  0.669525  0.552932  0.407358  1
  Se  Se22  1  0.169525  0.947068  0.407358  1
  Se  Se23  1  0.669525  0.552932  0.092642  1
  Se  Se24  1  0.830118  0.048002  0.906359  1
  Se  Se25  1  0.330118  0.451998  0.593641  1
  Se  Se26  1  0.513723  0.067417  0.750000  1
  Se  Se27  1  0.013723  0.432583  0.750000  1
  Se  Se28  1  0.486926  0.928818  0.250000  1
  Se  Se29  1  0.986926  0.571182  0.250000  1
  Se  Se30  1  0.710344  0.758076  0.750000  1
  Se  Se31  1  0.210344  0.741924  0.750000  1
