# generated using pymatgen
data_LaPr4Nd3(CdPd)2
_symmetry_space_group_name_H-M   'P 1'
_cell_length_a   10.08845587
_cell_length_b   10.08845600
_cell_length_c   10.09530800
_cell_angle_alpha   59.97752340
_cell_angle_beta   59.97752299
_cell_angle_gamma   59.94845021
_symmetry_Int_Tables_number   1
_chemical_formula_structural   LaPr4Nd3(CdPd)2
_chemical_formula_sum   'La2 Pr8 Nd6 Cd4 Pd4'
_cell_volume   726.00060531
_cell_formula_units_Z   2
loop_
 _symmetry_equiv_pos_site_id
 _symmetry_equiv_pos_as_xyz
  1  'x, y, z'
loop_
 _atom_site_type_symbol
 _atom_site_label
 _atom_site_symmetry_multiplicity
 _atom_site_fract_x
 _atom_site_fract_y
 _atom_site_fract_z
 _atom_site_occupancy
  La  La0  1  0.349891  0.349891  0.351111  1
  La  La1  1  0.349891  0.349891  0.949108  1
  Pr  Pr2  1  0.191844  0.191844  0.808156  1
  Pr  Pr3  1  0.807568  0.807568  0.192432  1
  Pr  Pr4  1  0.936320  0.564186  0.565667  1
  Pr  Pr5  1  0.564186  0.936320  0.933827  1
  Pr  Pr6  1  0.564186  0.936320  0.565667  1
  Pr  Pr7  1  0.936320  0.564186  0.933827  1
  Pr  Pr8  1  0.564912  0.564912  0.935088  1
  Pr  Pr9  1  0.935146  0.935146  0.564854  1
  Nd  Nd10  1  0.351218  0.943413  0.352684  1
  Nd  Nd11  1  0.943413  0.351218  0.352684  1
  Nd  Nd12  1  0.809087  0.192020  0.191829  1
  Nd  Nd13  1  0.192020  0.809087  0.807063  1
  Nd  Nd14  1  0.192020  0.809087  0.191829  1
  Nd  Nd15  1  0.809087  0.192020  0.807063  1
  Cd  Cd16  1  0.580479  0.580479  0.579346  1
  Cd  Cd17  1  0.580479  0.580479  0.259694  1
  Cd  Cd18  1  0.581154  0.259535  0.579655  1
  Cd  Cd19  1  0.259535  0.581154  0.579655  1
  Pd  Pd20  1  0.143650  0.143650  0.143870  1
  Pd  Pd21  1  0.143650  0.143650  0.568829  1
  Pd  Pd22  1  0.143981  0.569959  0.143030  1
  Pd  Pd23  1  0.569959  0.143981  0.143030  1
