# generated using pymatgen
data_Hf18TiRe6Ge2W
_symmetry_space_group_name_H-M   'P 1'
_cell_length_a   8.65627600
_cell_length_b   8.65627470
_cell_length_c   8.63295100
_cell_angle_alpha   90.00000000
_cell_angle_beta   90.00000000
_cell_angle_gamma   119.99999731
_symmetry_Int_Tables_number   1
_chemical_formula_structural   Hf18TiRe6Ge2W
_chemical_formula_sum   'Hf18 Ti1 Re6 Ge2 W1'
_cell_volume   560.21153228
_cell_formula_units_Z   1
loop_
 _symmetry_equiv_pos_site_id
 _symmetry_equiv_pos_as_xyz
  1  'x, y, z'
loop_
 _atom_site_type_symbol
 _atom_site_label
 _atom_site_symmetry_multiplicity
 _atom_site_fract_x
 _atom_site_fract_y
 _atom_site_fract_z
 _atom_site_occupancy
  Hf  Hf0  1  0.194809  0.805191  0.453941  1
  Hf  Hf1  1  0.194809  0.389618  0.453941  1
  Hf  Hf2  1  0.610382  0.805191  0.453941  1
  Hf  Hf3  1  0.805191  0.194809  0.546059  1
  Hf  Hf4  1  0.805191  0.610382  0.546059  1
  Hf  Hf5  1  0.389618  0.194809  0.546059  1
  Hf  Hf6  1  0.805536  0.194464  0.952950  1
  Hf  Hf7  1  0.805536  0.611072  0.952950  1
  Hf  Hf8  1  0.388928  0.194464  0.952950  1
  Hf  Hf9  1  0.194464  0.805536  0.047050  1
  Hf  Hf10  1  0.194464  0.388928  0.047050  1
  Hf  Hf11  1  0.611072  0.805536  0.047050  1
  Hf  Hf12  1  0.541004  0.458996  0.249483  1
  Hf  Hf13  1  0.541004  0.082006  0.249483  1
  Hf  Hf14  1  0.917994  0.458996  0.249483  1
  Hf  Hf15  1  0.458996  0.541004  0.750517  1
  Hf  Hf16  1  0.458996  0.917994  0.750517  1
  Hf  Hf17  1  0.082006  0.541004  0.750517  1
  Ti  Ti18  1  0.000000  0.000000  0.500000  1
  Re  Re19  1  0.889258  0.110742  0.251415  1
  Re  Re20  1  0.889258  0.778517  0.251415  1
  Re  Re21  1  0.221483  0.110742  0.251415  1
  Re  Re22  1  0.110742  0.889258  0.748585  1
  Re  Re23  1  0.110742  0.221483  0.748585  1
  Re  Re24  1  0.778517  0.889258  0.748585  1
  Ge  Ge25  1  0.333333  0.666667  0.249511  1
  Ge  Ge26  1  0.666667  0.333333  0.750489  1
  W  W27  1  0.000000  0.000000  0.000000  1
