# generated using pymatgen
data_Ba3B3MoO9
_symmetry_space_group_name_H-M   'P 1'
_cell_length_a   8.02484956
_cell_length_b   8.02484919
_cell_length_c   8.02484900
_cell_angle_alpha   105.59433662
_cell_angle_beta   105.59433588
_cell_angle_gamma   105.59434520
_symmetry_Int_Tables_number   1
_chemical_formula_structural   Ba3B3MoO9
_chemical_formula_sum   'Ba6 B6 Mo2 O18'
_cell_volume   445.85948425
_cell_formula_units_Z   2
loop_
 _symmetry_equiv_pos_site_id
 _symmetry_equiv_pos_as_xyz
  1  'x, y, z'
loop_
 _atom_site_type_symbol
 _atom_site_label
 _atom_site_symmetry_multiplicity
 _atom_site_fract_x
 _atom_site_fract_y
 _atom_site_fract_z
 _atom_site_occupancy
  Ba  Ba0  1  0.763544  0.664896  0.156347  1
  Ba  Ba1  1  0.335105  0.843653  0.236457  1
  Ba  Ba2  1  0.843653  0.236458  0.335104  1
  Ba  Ba3  1  0.156347  0.763543  0.664897  1
  Ba  Ba4  1  0.664896  0.156347  0.763543  1
  Ba  Ba5  1  0.236457  0.335104  0.843654  1
  B  B6  1  0.450354  0.209599  0.133442  1
  B  B7  1  0.133442  0.450354  0.209599  1
  B  B8  1  0.209599  0.133442  0.450354  1
  B  B9  1  0.790401  0.866558  0.549647  1
  B  B10  1  0.866559  0.549647  0.790401  1
  B  B11  1  0.549647  0.790401  0.866558  1
  Mo  Mo12  1  0.000000  0.000000  0.000000  1
  Mo  Mo13  1  0.500000  0.500000  0.500000  1
  O  O14  1  0.281301  0.069894  0.006739  1
  O  O15  1  0.571847  0.301155  0.066325  1
  O  O16  1  0.006739  0.281301  0.069894  1
  O  O17  1  0.322987  0.500988  0.238099  1
  O  O18  1  0.069894  0.006738  0.281301  1
  O  O19  1  0.066324  0.571847  0.301155  1
  O  O20  1  0.500988  0.238099  0.322987  1
  O  O21  1  0.698844  0.933675  0.428153  1
  O  O22  1  0.761901  0.677013  0.499013  1
  O  O23  1  0.238099  0.322988  0.500988  1
  O  O24  1  0.301155  0.066324  0.571847  1
  O  O25  1  0.499013  0.761901  0.677013  1
  O  O26  1  0.933675  0.428152  0.698844  1
  O  O27  1  0.930105  0.993261  0.718698  1
  O  O28  1  0.677013  0.499013  0.761901  1
  O  O29  1  0.993260  0.718699  0.930106  1
  O  O30  1  0.428152  0.698844  0.933675  1
  O  O31  1  0.718699  0.930106  0.993261  1
