# generated using pymatgen
data_La19PrSi15Pd
_symmetry_space_group_name_H-M   'P 1'
_cell_length_a   8.02715563
_cell_length_b   8.03676317
_cell_length_c   15.59362497
_cell_angle_alpha   89.92785995
_cell_angle_beta   89.57229447
_cell_angle_gamma   90.10802383
_symmetry_Int_Tables_number   1
_chemical_formula_structural   La19PrSi15Pd
_chemical_formula_sum   'La19 Pr1 Si15 Pd1'
_cell_volume   1005.95074054
_cell_formula_units_Z   1
loop_
 _symmetry_equiv_pos_site_id
 _symmetry_equiv_pos_as_xyz
  1  'x, y, z'
loop_
 _atom_site_type_symbol
 _atom_site_label
 _atom_site_symmetry_multiplicity
 _atom_site_fract_x
 _atom_site_fract_y
 _atom_site_fract_z
 _atom_site_occupancy
  La  La0  1  0.305816  0.305935  0.998600  1
  La  La1  1  0.192467  0.807383  0.250206  1
  La  La2  1  0.808828  0.187421  0.752162  1
  La  La3  1  0.690149  0.686434  0.498630  1
  La  La4  1  0.374447  0.009872  0.447914  1
  La  La5  1  0.491384  0.871914  0.698349  1
  La  La6  1  0.510745  0.120749  0.196619  1
  La  La7  1  0.877255  0.487410  0.300994  1
  La  La8  1  0.122054  0.515690  0.800677  1
  La  La9  1  0.627846  0.988252  0.948204  1
  La  La10  1  0.000611  0.381989  0.552320  1
  La  La11  1  0.990825  0.624001  0.052337  1
  La  La12  1  0.136044  0.987129  0.874756  1
  La  La13  1  0.518827  0.630527  0.125944  1
  La  La14  1  0.475594  0.365900  0.628819  1
  La  La15  1  0.630182  0.520194  0.874146  1
  La  La16  1  0.370274  0.480229  0.373808  1
  La  La17  1  0.871760  0.020627  0.377035  1
  La  La18  1  0.980481  0.126218  0.123929  1
  Pr  Pr19  1  0.018728  0.874891  0.622312  1
  Si  Si20  1  0.333130  0.697133  0.951901  1
  Si  Si21  1  0.662716  0.301854  0.454895  1
  Si  Si22  1  0.698684  0.335194  0.047659  1
  Si  Si23  1  0.301502  0.668355  0.547729  1
  Si  Si24  1  0.805840  0.830142  0.205163  1
  Si  Si25  1  0.168333  0.195447  0.295333  1
  Si  Si26  1  0.837027  0.804600  0.795383  1
  Si  Si27  1  0.289786  0.920783  0.057820  1
  Si  Si28  1  0.579789  0.787881  0.309627  1
  Si  Si29  1  0.432067  0.209040  0.812789  1
  Si  Si30  1  0.787808  0.582296  0.689993  1
  Si  Si31  1  0.211290  0.420937  0.190452  1
  Si  Si32  1  0.703902  0.074865  0.559376  1
  Si  Si33  1  0.920493  0.290753  0.941547  1
  Si  Si34  1  0.079626  0.714136  0.442629  1
  Pd  Pd35  1  0.193688  0.173821  0.699943  1
