# generated using pymatgen
data_Y20Hg6RuRh
_symmetry_space_group_name_H-M   'P 1'
_cell_length_a   9.68682800
_cell_length_b   9.68682702
_cell_length_c   9.67478300
_cell_angle_alpha   90.00000000
_cell_angle_beta   90.00000000
_cell_angle_gamma   120.00000334
_symmetry_Int_Tables_number   1
_chemical_formula_structural   Y20Hg6RuRh
_chemical_formula_sum   'Y20 Hg6 Ru1 Rh1'
_cell_volume   786.20351814
_cell_formula_units_Z   1
loop_
 _symmetry_equiv_pos_site_id
 _symmetry_equiv_pos_as_xyz
  1  'x, y, z'
loop_
 _atom_site_type_symbol
 _atom_site_label
 _atom_site_symmetry_multiplicity
 _atom_site_fract_x
 _atom_site_fract_y
 _atom_site_fract_z
 _atom_site_occupancy
  Y  Y0  1  0.000000  0.000000  0.499825  1
  Y  Y1  1  0.000000  0.000000  0.000175  1
  Y  Y2  1  0.208716  0.791284  0.439982  1
  Y  Y3  1  0.208716  0.417432  0.439982  1
  Y  Y4  1  0.582568  0.791284  0.439982  1
  Y  Y5  1  0.790741  0.209259  0.560625  1
  Y  Y6  1  0.790741  0.581481  0.560625  1
  Y  Y7  1  0.418519  0.209259  0.560625  1
  Y  Y8  1  0.790741  0.209259  0.939375  1
  Y  Y9  1  0.790741  0.581481  0.939375  1
  Y  Y10  1  0.418519  0.209259  0.939375  1
  Y  Y11  1  0.208716  0.791284  0.060018  1
  Y  Y12  1  0.208716  0.417432  0.060018  1
  Y  Y13  1  0.582568  0.791284  0.060018  1
  Y  Y14  1  0.542052  0.457948  0.250000  1
  Y  Y15  1  0.542052  0.084106  0.250000  1
  Y  Y16  1  0.915894  0.457948  0.250000  1
  Y  Y17  1  0.459020  0.540980  0.750000  1
  Y  Y18  1  0.459020  0.918040  0.750000  1
  Y  Y19  1  0.081960  0.540980  0.750000  1
  Hg  Hg20  1  0.881312  0.118688  0.250000  1
  Hg  Hg21  1  0.881312  0.762626  0.250000  1
  Hg  Hg22  1  0.237374  0.118688  0.250000  1
  Hg  Hg23  1  0.118671  0.881329  0.750000  1
  Hg  Hg24  1  0.118671  0.237340  0.750000  1
  Hg  Hg25  1  0.762660  0.881329  0.750000  1
  Ru  Ru26  1  0.666667  0.333333  0.750000  1
  Rh  Rh27  1  0.333333  0.666667  0.250000  1
