# generated using pymatgen
data_K2Cr2SnO6
_symmetry_space_group_name_H-M   'P 1'
_cell_length_a   9.01609763
_cell_length_b   9.01609828
_cell_length_c   7.22820653
_cell_angle_alpha   69.11689129
_cell_angle_beta   69.11689013
_cell_angle_gamma   62.65012403
_symmetry_Int_Tables_number   1
_chemical_formula_structural   K2Cr2SnO6
_chemical_formula_sum   'K6 Cr6 Sn3 O18'
_cell_volume   474.28862179
_cell_formula_units_Z   3
loop_
 _symmetry_equiv_pos_site_id
 _symmetry_equiv_pos_as_xyz
  1  'x, y, z'
loop_
 _atom_site_type_symbol
 _atom_site_label
 _atom_site_symmetry_multiplicity
 _atom_site_fract_x
 _atom_site_fract_y
 _atom_site_fract_z
 _atom_site_occupancy
  K  K0  1  0.006002  0.336842  0.670604  1
  K  K1  1  0.336842  0.006002  0.670604  1
  K  K2  1  0.993998  0.663158  0.329396  1
  K  K3  1  0.663158  0.993998  0.329396  1
  K  K4  1  0.332632  0.667368  0.000000  1
  K  K5  1  0.667368  0.332632  0.000000  1
  Cr  Cr6  1  0.004604  0.335950  0.159359  1
  Cr  Cr7  1  0.669348  0.669348  0.157360  1
  Cr  Cr8  1  0.335950  0.004604  0.159359  1
  Cr  Cr9  1  0.995396  0.664050  0.840641  1
  Cr  Cr10  1  0.664050  0.995396  0.840641  1
  Cr  Cr11  1  0.330652  0.330652  0.842640  1
  Sn  Sn12  1  0.333926  0.666074  0.500000  1
  Sn  Sn13  1  0.000000  0.000000  0.500000  1
  Sn  Sn14  1  0.666074  0.333926  0.500000  1
  O  O15  1  0.518509  0.518509  0.287924  1
  O  O16  1  0.854239  0.517573  0.965219  1
  O  O17  1  0.517573  0.854239  0.965219  1
  O  O18  1  0.481491  0.481491  0.712076  1
  O  O19  1  0.817262  0.481858  0.364381  1
  O  O20  1  0.481858  0.817262  0.364381  1
  O  O21  1  0.145761  0.482427  0.034781  1
  O  O22  1  0.812003  0.812003  0.035966  1
  O  O23  1  0.482427  0.145761  0.034781  1
  O  O24  1  0.182738  0.518142  0.635619  1
  O  O25  1  0.851115  0.851115  0.631847  1
  O  O26  1  0.518142  0.182738  0.635619  1
  O  O27  1  0.185076  0.849949  0.288984  1
  O  O28  1  0.849949  0.185076  0.288984  1
  O  O29  1  0.187997  0.187997  0.964034  1
  O  O30  1  0.150051  0.814924  0.711016  1
  O  O31  1  0.814924  0.150051  0.711016  1
  O  O32  1  0.148885  0.148885  0.368153  1
