# generated using pymatgen
data_Yb10CdCu3RuPb
_symmetry_space_group_name_H-M   'P 1'
_cell_length_a   8.97136573
_cell_length_b   9.00082714
_cell_length_c   8.97878275
_cell_angle_alpha   128.67368016
_cell_angle_beta   128.58313772
_cell_angle_gamma   75.66934137
_symmetry_Int_Tables_number   1
_chemical_formula_structural   Yb10CdCu3RuPb
_chemical_formula_sum   'Yb10 Cd1 Cu3 Ru1 Pb1'
_cell_volume   430.30370442
_cell_formula_units_Z   1
loop_
 _symmetry_equiv_pos_site_id
 _symmetry_equiv_pos_as_xyz
  1  'x, y, z'
loop_
 _atom_site_type_symbol
 _atom_site_label
 _atom_site_symmetry_multiplicity
 _atom_site_fract_x
 _atom_site_fract_y
 _atom_site_fract_z
 _atom_site_occupancy
  Yb  Yb0  1  0.491259  0.500320  0.994564  1
  Yb  Yb1  1  0.003304  0.994243  0.994564  1
  Yb  Yb2  1  0.531601  0.032924  0.836803  1
  Yb  Yb3  1  0.188087  0.687717  0.143385  1
  Yb  Yb4  1  0.034333  0.208429  0.511940  1
  Yb  Yb5  1  0.705158  0.533792  0.508933  1
  Yb  Yb6  1  0.455299  0.955669  0.143385  1
  Yb  Yb7  1  0.805201  0.303878  0.836803  1
  Yb  Yb8  1  0.977607  0.803510  0.511940  1
  Yb  Yb9  1  0.303775  0.475141  0.508933  1
  Cd  Cd10  1  0.752119  0.752119  0.004237  1
  Cu  Cu11  1  0.882543  0.382543  0.265087  1
  Cu  Cu12  1  0.614751  0.883235  0.497958  1
  Cu  Cu13  1  0.383207  0.114722  0.497958  1
  Ru  Ru14  1  0.119053  0.619053  0.738105  1
  Pb  Pb15  1  0.252702  0.252702  0.005405  1
