# generated using pymatgen
data_Ta4Ti16Si15Ge
_symmetry_space_group_name_H-M   'P 1'
_cell_length_a   6.73199314
_cell_length_b   6.73824803
_cell_length_c   12.28353303
_cell_angle_alpha   90.07560720
_cell_angle_beta   89.98983378
_cell_angle_gamma   89.95200685
_symmetry_Int_Tables_number   1
_chemical_formula_structural   Ta4Ti16Si15Ge
_chemical_formula_sum   'Ta4 Ti16 Si15 Ge1'
_cell_volume   557.20296454
_cell_formula_units_Z   1
loop_
 _symmetry_equiv_pos_site_id
 _symmetry_equiv_pos_as_xyz
  1  'x, y, z'
loop_
 _atom_site_type_symbol
 _atom_site_label
 _atom_site_symmetry_multiplicity
 _atom_site_fract_x
 _atom_site_fract_y
 _atom_site_fract_z
 _atom_site_occupancy
  Ta  Ta0  1  0.504691  0.851584  0.622345  1
  Ta  Ta1  1  0.495570  0.148318  0.121633  1
  Ta  Ta2  1  0.848288  0.492555  0.372571  1
  Ta  Ta3  1  0.148354  0.504630  0.872104  1
  Ti  Ti4  1  0.996678  0.843412  0.532646  1
  Ti  Ti5  1  0.001036  0.159379  0.029843  1
  Ti  Ti6  1  0.839357  0.004183  0.279625  1
  Ti  Ti7  1  0.158280  0.998170  0.780491  1
  Ti  Ti8  1  0.654202  0.502673  0.968989  1
  Ti  Ti9  1  0.348756  0.493334  0.471362  1
  Ti  Ti10  1  0.502510  0.345414  0.719092  1
  Ti  Ti11  1  0.501172  0.653984  0.217973  1
  Ti  Ti12  1  0.649105  0.997351  0.877956  1
  Ti  Ti13  1  0.352352  0.005240  0.377695  1
  Ti  Ti14  1  0.997527  0.350299  0.628274  1
  Ti  Ti15  1  0.002511  0.649380  0.127005  1
  Ti  Ti16  1  0.829911  0.672697  0.749840  1
  Ti  Ti17  1  0.169588  0.325215  0.249206  1
  Ti  Ti18  1  0.671991  0.170597  0.499930  1
  Ti  Ti19  1  0.327808  0.829238  0.999533  1
  Si  Si20  1  0.700853  0.542558  0.565058  1
  Si  Si21  1  0.300108  0.457973  0.064564  1
  Si  Si22  1  0.541188  0.300374  0.313905  1
  Si  Si23  1  0.457835  0.699925  0.814420  1
  Si  Si24  1  0.954106  0.807305  0.936451  1
  Si  Si25  1  0.045819  0.192450  0.436724  1
  Si  Si26  1  0.806335  0.046695  0.687178  1
  Si  Si27  1  0.191767  0.956633  0.184800  1
  Si  Si28  1  0.642170  0.796137  0.423272  1
  Si  Si29  1  0.358141  0.204085  0.922844  1
  Si  Si30  1  0.795776  0.359094  0.172674  1
  Si  Si31  1  0.204356  0.641249  0.673137  1
  Si  Si32  1  0.705562  0.852869  0.075606  1
  Si  Si33  1  0.294785  0.146726  0.576288  1
  Si  Si34  1  0.852465  0.294941  0.826165  1
  Ge  Ge35  1  0.149046  0.703334  0.328810  1
