# generated using pymatgen
data_Ba6ErPd4O15
_symmetry_space_group_name_H-M   'P 1'
_cell_length_a   7.59980536
_cell_length_b   7.53217910
_cell_length_c   7.45993337
_cell_angle_alpha   86.11272994
_cell_angle_beta   86.33443160
_cell_angle_gamma   85.17731422
_symmetry_Int_Tables_number   1
_chemical_formula_structural   Ba6ErPd4O15
_chemical_formula_sum   'Ba6 Er1 Pd4 O15'
_cell_volume   423.80995856
_cell_formula_units_Z   1
loop_
 _symmetry_equiv_pos_site_id
 _symmetry_equiv_pos_as_xyz
  1  'x, y, z'
loop_
 _atom_site_type_symbol
 _atom_site_label
 _atom_site_symmetry_multiplicity
 _atom_site_fract_x
 _atom_site_fract_y
 _atom_site_fract_z
 _atom_site_occupancy
  Ba  Ba0  1  0.323945  0.669722  0.998719  1
  Ba  Ba1  1  0.003949  0.331757  0.670440  1
  Ba  Ba2  1  0.668325  0.994198  0.327815  1
  Ba  Ba3  1  0.138719  0.859822  0.504117  1
  Ba  Ba4  1  0.502680  0.136534  0.859127  1
  Ba  Ba5  1  0.851095  0.500594  0.134971  1
  Er  Er6  1  0.502295  0.499032  0.499158  1
  Pd  Pd7  1  0.294593  0.296073  0.296363  1
  Pd  Pd8  1  0.700905  0.703964  0.706704  1
  Pd  Pd9  1  0.102022  0.098963  0.096345  1
  Pd  Pd10  1  0.902744  0.904947  0.901374  1
  O  O11  1  0.177342  0.009873  0.850567  1
  O  O12  1  0.858337  0.156671  0.997319  1
  O  O13  1  0.005571  0.854361  0.152542  1
  O  O14  1  0.038838  0.205350  0.344684  1
  O  O15  1  0.342484  0.037634  0.206545  1
  O  O16  1  0.200562  0.343149  0.036772  1
  O  O17  1  0.790646  0.961361  0.655656  1
  O  O18  1  0.636479  0.785866  0.968022  1
  O  O19  1  0.958330  0.655758  0.797720  1
  O  O20  1  0.376851  0.236941  0.547996  1
  O  O21  1  0.544859  0.369250  0.233585  1
  O  O22  1  0.236673  0.548579  0.376590  1
  O  O23  1  0.762388  0.625431  0.449716  1
  O  O24  1  0.451189  0.763536  0.622500  1
  O  O25  1  0.628181  0.450630  0.764654  1
