# generated using pymatgen
data_Pr7Pt16
_symmetry_space_group_name_H-M   'P 1'
_cell_length_a   9.57278309
_cell_length_b   9.57278441
_cell_length_c   9.57278320
_cell_angle_alpha   131.71281413
_cell_angle_beta   131.71282208
_cell_angle_gamma   70.68297928
_symmetry_Int_Tables_number   1
_chemical_formula_structural   Pr7Pt16
_chemical_formula_sum   'Pr7 Pt16'
_cell_volume   478.86666025
_cell_formula_units_Z   1
loop_
 _symmetry_equiv_pos_site_id
 _symmetry_equiv_pos_as_xyz
  1  'x, y, z'
loop_
 _atom_site_type_symbol
 _atom_site_label
 _atom_site_symmetry_multiplicity
 _atom_site_fract_x
 _atom_site_fract_y
 _atom_site_fract_z
 _atom_site_occupancy
  Pr  Pr0  1  0.104157  0.104157  0.423547  1
  Pr  Pr1  1  0.680609  0.680609  0.576453  1
  Pr  Pr2  1  0.895843  0.319391  0.000000  1
  Pr  Pr3  1  0.750000  0.250000  0.500000  1
  Pr  Pr4  1  0.500000  0.500000  0.000000  1
  Pr  Pr5  1  0.319391  0.895843  0.000000  1
  Pr  Pr6  1  0.250000  0.750000  0.500000  1
  Pt  Pt7  1  0.434524  0.191145  0.000000  1
  Pt  Pt8  1  0.683731  0.934619  0.488351  1
  Pt  Pt9  1  0.934619  0.683731  0.488351  1
  Pt  Pt10  1  0.191145  0.434524  0.000000  1
  Pt  Pt11  1  0.316269  0.804619  0.250888  1
  Pt  Pt12  1  0.938678  0.674431  0.000000  1
  Pt  Pt13  1  0.808855  0.808855  0.243379  1
  Pt  Pt14  1  0.065381  0.553731  0.749112  1
  Pt  Pt15  1  0.061322  0.061322  0.735753  1
  Pt  Pt16  1  0.674431  0.938678  0.000000  1
  Pt  Pt17  1  0.565476  0.565476  0.756621  1
  Pt  Pt18  1  0.804619  0.316269  0.250888  1
  Pt  Pt19  1  0.553731  0.065381  0.749112  1
  Pt  Pt20  1  0.195381  0.446269  0.511649  1
  Pt  Pt21  1  0.325569  0.325569  0.264247  1
  Pt  Pt22  1  0.446269  0.195381  0.511649  1
