# generated using pymatgen
data_HoSc2Ni9
_symmetry_space_group_name_H-M   'P 1'
_cell_length_a   8.41793768
_cell_length_b   8.41793748
_cell_length_c   8.41793750
_cell_angle_alpha   33.46754503
_cell_angle_beta   33.46754952
_cell_angle_gamma   33.46754067
_symmetry_Int_Tables_number   1
_chemical_formula_structural   HoSc2Ni9
_chemical_formula_sum   'Ho1 Sc2 Ni9'
_cell_volume   161.55901377
_cell_formula_units_Z   1
loop_
 _symmetry_equiv_pos_site_id
 _symmetry_equiv_pos_as_xyz
  1  'x, y, z'
loop_
 _atom_site_type_symbol
 _atom_site_label
 _atom_site_symmetry_multiplicity
 _atom_site_fract_x
 _atom_site_fract_y
 _atom_site_fract_z
 _atom_site_occupancy
  Ho  Ho0  1  0.000000  0.000000  0.000000  1
  Sc  Sc1  1  0.859452  0.859452  0.859452  1
  Sc  Sc2  1  0.140548  0.140548  0.140548  1
  Ni  Ni3  1  0.414043  0.414043  0.918472  1
  Ni  Ni4  1  0.918472  0.414043  0.414043  1
  Ni  Ni5  1  0.414043  0.918472  0.414043  1
  Ni  Ni6  1  0.500000  0.500000  0.500000  1
  Ni  Ni7  1  0.333363  0.333363  0.333363  1
  Ni  Ni8  1  0.666637  0.666637  0.666637  1
  Ni  Ni9  1  0.081528  0.585957  0.585957  1
  Ni  Ni10  1  0.585957  0.585957  0.081528  1
  Ni  Ni11  1  0.585957  0.081528  0.585957  1
