# generated using pymatgen
data_BaPaNiS3
_symmetry_space_group_name_H-M   'P 1'
_cell_length_a   7.12349325
_cell_length_b   7.12349230
_cell_length_c   10.23408100
_cell_angle_alpha   89.99659930
_cell_angle_beta   90.00340078
_cell_angle_gamma   148.10108783
_symmetry_Int_Tables_number   1
_chemical_formula_structural   BaPaNiS3
_chemical_formula_sum   'Ba2 Pa2 Ni2 S6'
_cell_volume   274.42008438
_cell_formula_units_Z   2
loop_
 _symmetry_equiv_pos_site_id
 _symmetry_equiv_pos_as_xyz
  1  'x, y, z'
loop_
 _atom_site_type_symbol
 _atom_site_label
 _atom_site_symmetry_multiplicity
 _atom_site_fract_x
 _atom_site_fract_y
 _atom_site_fract_z
 _atom_site_occupancy
  Ba  Ba0  1  0.742311  0.257688  0.249993  1
  Ba  Ba1  1  0.257688  0.742311  0.750007  1
  Pa  Pa2  1  0.000000  0.000000  0.000000  1
  Pa  Pa3  1  0.000000  0.000000  0.500000  1
  Ni  Ni4  1  0.469135  0.530865  0.250000  1
  Ni  Ni5  1  0.530865  0.469135  0.750000  1
  S  S6  1  0.368896  0.631103  0.070363  1
  S  S7  1  0.059905  0.940095  0.249991  1
  S  S8  1  0.368900  0.631099  0.429638  1
  S  S9  1  0.631099  0.368900  0.570362  1
  S  S10  1  0.940095  0.059905  0.750009  1
  S  S11  1  0.631103  0.368896  0.929636  1
