# generated using pymatgen
data_Tb6Ho10CdHg3Ir4
_symmetry_space_group_name_H-M   'P 1'
_cell_length_a   9.58952433
_cell_length_b   9.59520081
_cell_length_c   9.59520000
_cell_angle_alpha   59.99999591
_cell_angle_beta   59.98041253
_cell_angle_gamma   59.98041692
_symmetry_Int_Tables_number   1
_chemical_formula_structural   Tb6Ho10CdHg3Ir4
_chemical_formula_sum   'Tb6 Ho10 Cd1 Hg3 Ir4'
_cell_volume   624.11055232
_cell_formula_units_Z   1
loop_
 _symmetry_equiv_pos_site_id
 _symmetry_equiv_pos_as_xyz
  1  'x, y, z'
loop_
 _atom_site_type_symbol
 _atom_site_label
 _atom_site_symmetry_multiplicity
 _atom_site_fract_x
 _atom_site_fract_y
 _atom_site_fract_z
 _atom_site_occupancy
  Tb  Tb0  1  0.187255  0.812088  0.812088  1
  Tb  Tb1  1  0.811531  0.188164  0.188164  1
  Tb  Tb2  1  0.811531  0.188164  0.812142  1
  Tb  Tb3  1  0.187255  0.812088  0.188570  1
  Tb  Tb4  1  0.811531  0.812142  0.188164  1
  Tb  Tb5  1  0.187255  0.188570  0.812088  1
  Ho  Ho6  1  0.600208  0.599706  0.599706  1
  Ho  Ho7  1  0.600208  0.599706  0.200380  1
  Ho  Ho8  1  0.600208  0.200380  0.599706  1
  Ho  Ho9  1  0.197864  0.600713  0.600713  1
  Ho  Ho10  1  0.060675  0.439219  0.439219  1
  Ho  Ho11  1  0.438105  0.061547  0.061547  1
  Ho  Ho12  1  0.438105  0.061547  0.438801  1
  Ho  Ho13  1  0.060675  0.439219  0.060885  1
  Ho  Ho14  1  0.438105  0.438801  0.061547  1
  Ho  Ho15  1  0.060675  0.060885  0.439219  1
  Cd  Cd16  1  0.511934  0.829355  0.829355  1
  Hg  Hg17  1  0.832810  0.834665  0.834665  1
  Hg  Hg18  1  0.832810  0.834665  0.497861  1
  Hg  Hg19  1  0.832810  0.497861  0.834665  1
  Ir  Ir20  1  0.391673  0.392440  0.392440  1
  Ir  Ir21  1  0.391673  0.392440  0.823447  1
  Ir  Ir22  1  0.391673  0.823447  0.392440  1
  Ir  Ir23  1  0.823435  0.392188  0.392188  1
