# generated using pymatgen
data_LiNd8CdCo2
_symmetry_space_group_name_H-M   'P 1'
_cell_length_a   9.84512021
_cell_length_b   9.84602894
_cell_length_c   9.84512144
_cell_angle_alpha   59.99694018
_cell_angle_beta   60.00969968
_cell_angle_gamma   59.99694130
_symmetry_Int_Tables_number   1
_chemical_formula_structural   LiNd8CdCo2
_chemical_formula_sum   'Li2 Nd16 Cd2 Co4'
_cell_volume   674.83865398
_cell_formula_units_Z   2
loop_
 _symmetry_equiv_pos_site_id
 _symmetry_equiv_pos_as_xyz
  1  'x, y, z'
loop_
 _atom_site_type_symbol
 _atom_site_label
 _atom_site_symmetry_multiplicity
 _atom_site_fract_x
 _atom_site_fract_y
 _atom_site_fract_z
 _atom_site_occupancy
  Li  Li0  1  0.928056  0.219880  0.928056  1
  Li  Li1  1  0.928056  0.924008  0.928056  1
  Nd  Nd2  1  0.154490  0.537843  0.154490  1
  Nd  Nd3  1  0.684653  0.315347  0.684653  1
  Nd  Nd4  1  0.687385  0.311538  0.312134  1
  Nd  Nd5  1  0.938249  0.561703  0.561920  1
  Nd  Nd6  1  0.533941  0.155350  0.155359  1
  Nd  Nd7  1  0.155359  0.155350  0.533941  1
  Nd  Nd8  1  0.938249  0.938127  0.561920  1
  Nd  Nd9  1  0.309297  0.690703  0.309297  1
  Nd  Nd10  1  0.561920  0.938127  0.938249  1
  Nd  Nd11  1  0.561843  0.938157  0.561843  1
  Nd  Nd12  1  0.687385  0.688944  0.312134  1
  Nd  Nd13  1  0.561920  0.561703  0.938249  1
  Nd  Nd14  1  0.938580  0.561420  0.938580  1
  Nd  Nd15  1  0.312134  0.688944  0.687385  1
  Nd  Nd16  1  0.154490  0.153177  0.154490  1
  Nd  Nd17  1  0.312134  0.311538  0.687385  1
  Cd  Cd18  1  0.918333  0.921007  0.239653  1
  Cd  Cd19  1  0.239653  0.921007  0.918333  1
  Co  Co20  1  0.356943  0.360928  0.921202  1
  Co  Co21  1  0.357863  0.923382  0.357863  1
  Co  Co22  1  0.921202  0.360928  0.356943  1
  Co  Co23  1  0.357863  0.360893  0.357863  1
