# generated using pymatgen
data_Yb3MoBr2O5
_symmetry_space_group_name_H-M   'P 1'
_cell_length_a   6.77762870
_cell_length_b   6.77762877
_cell_length_c   10.97564800
_cell_angle_alpha   90.00000000
_cell_angle_beta   90.00000000
_cell_angle_gamma   131.90268912
_symmetry_Int_Tables_number   1
_chemical_formula_structural   Yb3MoBr2O5
_chemical_formula_sum   'Yb6 Mo2 Br4 O10'
_cell_volume   375.25128456
_cell_formula_units_Z   2
loop_
 _symmetry_equiv_pos_site_id
 _symmetry_equiv_pos_as_xyz
  1  'x, y, z'
loop_
 _atom_site_type_symbol
 _atom_site_label
 _atom_site_symmetry_multiplicity
 _atom_site_fract_x
 _atom_site_fract_y
 _atom_site_fract_z
 _atom_site_occupancy
  Yb  Yb0  1  0.665703  0.334297  0.530568  1
  Yb  Yb1  1  0.334297  0.665703  0.030568  1
  Yb  Yb2  1  0.665703  0.334297  0.969432  1
  Yb  Yb3  1  0.890014  0.109986  0.750000  1
  Yb  Yb4  1  0.334297  0.665703  0.469432  1
  Yb  Yb5  1  0.109986  0.890014  0.250000  1
  Mo  Mo6  1  0.760212  0.239788  0.250000  1
  Mo  Mo7  1  0.239788  0.760212  0.750000  1
  Br  Br8  1  0.495915  0.504085  0.250000  1
  Br  Br9  1  0.000000  0.000000  0.500000  1
  Br  Br10  1  0.504085  0.495915  0.750000  1
  Br  Br11  1  0.000000  0.000000  0.000000  1
  O  O12  1  0.481717  0.039629  0.370905  1
  O  O13  1  0.039629  0.481717  0.629095  1
  O  O14  1  0.518283  0.960371  0.870905  1
  O  O15  1  0.518283  0.960371  0.629095  1
  O  O16  1  0.100240  0.899760  0.750000  1
  O  O17  1  0.039629  0.481717  0.870905  1
  O  O18  1  0.481717  0.039629  0.129095  1
  O  O19  1  0.960371  0.518283  0.370905  1
  O  O20  1  0.899760  0.100240  0.250000  1
  O  O21  1  0.960371  0.518283  0.129095  1
