# generated using pymatgen
data_Nd8HoTm11Si16
_symmetry_space_group_name_H-M   'P 1'
_cell_length_a   7.70682232
_cell_length_b   7.70770245
_cell_length_c   14.17807640
_cell_angle_alpha   90.03884612
_cell_angle_beta   90.03305891
_cell_angle_gamma   89.99719921
_symmetry_Int_Tables_number   1
_chemical_formula_structural   Nd8HoTm11Si16
_chemical_formula_sum   'Nd8 Ho1 Tm11 Si16'
_cell_volume   842.20424652
_cell_formula_units_Z   1
loop_
 _symmetry_equiv_pos_site_id
 _symmetry_equiv_pos_as_xyz
  1  'x, y, z'
loop_
 _atom_site_type_symbol
 _atom_site_label
 _atom_site_symmetry_multiplicity
 _atom_site_fract_x
 _atom_site_fract_y
 _atom_site_fract_z
 _atom_site_occupancy
  Nd  Nd0  1  0.642549  0.992933  0.459276  1
  Nd  Nd1  1  0.357395  0.006944  0.959067  1
  Nd  Nd2  1  0.993050  0.642620  0.540799  1
  Nd  Nd3  1  0.492909  0.857576  0.209267  1
  Nd  Nd4  1  0.507030  0.142577  0.709153  1
  Nd  Nd5  1  0.857469  0.492904  0.790723  1
  Nd  Nd6  1  0.142484  0.507070  0.290989  1
  Nd  Nd7  1  0.006751  0.357434  0.040746  1
  Ho  Ho8  1  0.493016  0.359969  0.124157  1
  Tm  Tm9  1  0.993283  0.140353  0.625826  1
  Tm  Tm10  1  0.859813  0.006640  0.874017  1
  Tm  Tm11  1  0.140169  0.993141  0.374265  1
  Tm  Tm12  1  0.506720  0.640302  0.624147  1
  Tm  Tm13  1  0.359594  0.493317  0.875702  1
  Tm  Tm14  1  0.640378  0.506770  0.375950  1
  Tm  Tm15  1  0.006881  0.859699  0.125884  1
  Tm  Tm16  1  0.318223  0.318227  0.500030  1
  Tm  Tm17  1  0.181818  0.818292  0.749990  1
  Tm  Tm18  1  0.818467  0.181603  0.250098  1
  Tm  Tm19  1  0.681998  0.682217  0.999879  1
  Si  Si20  1  0.289325  0.937647  0.561746  1
  Si  Si21  1  0.711145  0.061609  0.061505  1
  Si  Si22  1  0.937700  0.289293  0.438283  1
  Si  Si23  1  0.437494  0.210122  0.312275  1
  Si  Si24  1  0.562277  0.789411  0.811696  1
  Si  Si25  1  0.210637  0.437656  0.688252  1
  Si  Si26  1  0.790109  0.562951  0.188560  1
  Si  Si27  1  0.062319  0.710791  0.938255  1
  Si  Si28  1  0.795910  0.849017  0.687787  1
  Si  Si29  1  0.203326  0.150322  0.188125  1
  Si  Si30  1  0.849040  0.795712  0.312183  1
  Si  Si31  1  0.349007  0.704156  0.437829  1
  Si  Si32  1  0.651421  0.295646  0.937256  1
  Si  Si33  1  0.704158  0.349029  0.562239  1
  Si  Si34  1  0.295144  0.651924  0.061859  1
  Si  Si35  1  0.150987  0.204123  0.812181  1
