# generated using pymatgen
data_YbScReH6
_symmetry_space_group_name_H-M   'P 1'
_cell_length_a   4.91240156
_cell_length_b   4.91240216
_cell_length_c   4.91240200
_cell_angle_alpha   60.00001454
_cell_angle_beta   60.00001053
_cell_angle_gamma   60.00000325
_symmetry_Int_Tables_number   1
_chemical_formula_structural   YbScReH6
_chemical_formula_sum   'Yb1 Sc1 Re1 H6'
_cell_volume   83.82368889
_cell_formula_units_Z   1
loop_
 _symmetry_equiv_pos_site_id
 _symmetry_equiv_pos_as_xyz
  1  'x, y, z'
loop_
 _atom_site_type_symbol
 _atom_site_label
 _atom_site_symmetry_multiplicity
 _atom_site_fract_x
 _atom_site_fract_y
 _atom_site_fract_z
 _atom_site_occupancy
  Yb  Yb0  1  0.749999  0.749999  0.749999  1
  Sc  Sc1  1  0.250000  0.250000  0.250000  1
  Re  Re2  1  0.000000  0.000000  0.000000  1
  H  H3  1  0.744895  0.255106  0.255106  1
  H  H4  1  0.255106  0.744895  0.255106  1
  H  H5  1  0.744894  0.744894  0.255107  1
  H  H6  1  0.255106  0.255106  0.744895  1
  H  H7  1  0.744894  0.255107  0.744894  1
  H  H8  1  0.255107  0.744894  0.744894  1
