# generated using pymatgen
data_Y5Ho3Re3B24Ru
_symmetry_space_group_name_H-M   'P 1'
_cell_length_a   3.67814100
_cell_length_b   9.17225861
_cell_length_c   11.56182902
_cell_angle_alpha   90.10940879
_cell_angle_beta   90.00000000
_cell_angle_gamma   90.00000000
_symmetry_Int_Tables_number   1
_chemical_formula_structural   Y5Ho3Re3B24Ru
_chemical_formula_sum   'Y5 Ho3 Re3 B24 Ru1'
_cell_volume   390.05910132
_cell_formula_units_Z   1
loop_
 _symmetry_equiv_pos_site_id
 _symmetry_equiv_pos_as_xyz
  1  'x, y, z'
loop_
 _atom_site_type_symbol
 _atom_site_label
 _atom_site_symmetry_multiplicity
 _atom_site_fract_x
 _atom_site_fract_y
 _atom_site_fract_z
 _atom_site_occupancy
  Y  Y0  1  0.000000  0.322205  0.414240  1
  Y  Y1  1  0.000000  0.677213  0.587518  1
  Y  Y2  1  0.000000  0.824494  0.084225  1
  Y  Y3  1  0.000000  0.176630  0.913723  1
  Y  Y4  1  0.000000  0.942144  0.369922  1
  Ho  Ho5  1  0.000000  0.056388  0.629560  1
  Ho  Ho6  1  0.000000  0.443253  0.130436  1
  Ho  Ho7  1  0.000000  0.556786  0.870850  1
  Re  Re8  1  0.000000  0.361825  0.678374  1
  Re  Re9  1  0.000000  0.138883  0.179507  1
  Re  Re10  1  0.000000  0.861407  0.820682  1
  B  B11  1  0.500000  0.554160  0.432517  1
  B  B12  1  0.500000  0.446761  0.566925  1
  B  B13  1  0.500000  0.053421  0.066937  1
  B  B14  1  0.500000  0.946666  0.932816  1
  B  B15  1  0.500000  0.748335  0.418444  1
  B  B16  1  0.500000  0.250430  0.581297  1
  B  B17  1  0.500000  0.249647  0.081449  1
  B  B18  1  0.500000  0.750970  0.918642  1
  B  B19  1  0.500000  0.790632  0.265470  1
  B  B20  1  0.500000  0.207904  0.734134  1
  B  B21  1  0.500000  0.292032  0.234755  1
  B  B22  1  0.500000  0.707802  0.765908  1
  B  B23  1  0.500000  0.631337  0.185876  1
  B  B24  1  0.500000  0.369413  0.813986  1
  B  B25  1  0.500000  0.131337  0.314684  1
  B  B26  1  0.500000  0.868840  0.685715  1
  B  B27  1  0.500000  0.982801  0.211718  1
  B  B28  1  0.500000  0.017307  0.787631  1
  B  B29  1  0.500000  0.483798  0.288067  1
  B  B30  1  0.500000  0.517791  0.712155  1
  B  B31  1  0.500000  0.601628  0.028773  1
  B  B32  1  0.500000  0.398882  0.972215  1
  B  B33  1  0.500000  0.100870  0.471709  1
  B  B34  1  0.500000  0.897802  0.528383  1
  Ru  Ru35  1  0.000000  0.638207  0.320763  1
