# generated using pymatgen
data_Tm6C3Cl5
_symmetry_space_group_name_H-M   'P 1'
_cell_length_a   3.59661994
_cell_length_b   8.17855286
_cell_length_c   10.08835818
_cell_angle_alpha   85.58885285
_cell_angle_beta   79.64624344
_cell_angle_gamma   77.35854946
_symmetry_Int_Tables_number   1
_chemical_formula_structural   Tm6C3Cl5
_chemical_formula_sum   'Tm6 C3 Cl5'
_cell_volume   284.62361953
_cell_formula_units_Z   1
loop_
 _symmetry_equiv_pos_site_id
 _symmetry_equiv_pos_as_xyz
  1  'x, y, z'
loop_
 _atom_site_type_symbol
 _atom_site_label
 _atom_site_symmetry_multiplicity
 _atom_site_fract_x
 _atom_site_fract_y
 _atom_site_fract_z
 _atom_site_occupancy
  Tm  Tm0  1  0.573973  0.075398  0.778417  1
  Tm  Tm1  1  0.960081  0.428413  0.656158  1
  Tm  Tm2  1  0.683974  0.179346  0.455856  1
  Tm  Tm3  1  0.046095  0.569448  0.342979  1
  Tm  Tm4  1  0.320641  0.819516  0.542343  1
  Tm  Tm5  1  0.431084  0.922403  0.219731  1
  C  C6  1  0.128022  0.122560  0.624841  1
  C  C7  1  0.876613  0.875577  0.373383  1
  C  C8  1  0.503286  0.498835  0.499528  1
  Cl  Cl9  1  0.750393  0.745779  0.754971  1
  Cl  Cl10  1  0.380034  0.379721  0.868280  1
  Cl  Cl11  1  0.251717  0.252331  0.242748  1
  Cl  Cl12  1  0.628630  0.617171  0.131366  1
  Cl  Cl13  1  0.002679  0.997089  0.998716  1
