# generated using pymatgen
data_Y10Ir5Pt
_symmetry_space_group_name_H-M   'P 1'
_cell_length_a   10.99348004
_cell_length_b   10.99542000
_cell_length_c   6.37593502
_cell_angle_alpha   90.00000000
_cell_angle_beta   89.99031626
_cell_angle_gamma   90.00000000
_symmetry_Int_Tables_number   1
_chemical_formula_structural   Y10Ir5Pt
_chemical_formula_sum   'Y20 Ir10 Pt2'
_cell_volume   770.70981823
_cell_formula_units_Z   2
loop_
 _symmetry_equiv_pos_site_id
 _symmetry_equiv_pos_as_xyz
  1  'x, y, z'
loop_
 _atom_site_type_symbol
 _atom_site_label
 _atom_site_symmetry_multiplicity
 _atom_site_fract_x
 _atom_site_fract_y
 _atom_site_fract_z
 _atom_site_occupancy
  Y  Y0  1  0.291688  0.088418  0.376951  1
  Y  Y1  1  0.291688  0.911582  0.876951  1
  Y  Y2  1  0.705568  0.090206  0.874666  1
  Y  Y3  1  0.705568  0.909794  0.374666  1
  Y  Y4  1  0.584672  0.790949  0.879273  1
  Y  Y5  1  0.584672  0.209051  0.379273  1
  Y  Y6  1  0.410592  0.791425  0.378569  1
  Y  Y7  1  0.410592  0.208575  0.878569  1
  Y  Y8  1  0.208836  0.411346  0.621289  1
  Y  Y9  1  0.208836  0.588654  0.121289  1
  Y  Y10  1  0.790764  0.414519  0.121831  1
  Y  Y11  1  0.790764  0.585481  0.621831  1
  Y  Y12  1  0.913317  0.707191  0.125784  1
  Y  Y13  1  0.913317  0.292809  0.625784  1
  Y  Y14  1  0.091693  0.706571  0.621886  1
  Y  Y15  1  0.091693  0.293429  0.121886  1
  Y  Y16  1  0.002745  0.999644  0.499989  1
  Y  Y17  1  0.002745  0.000356  0.999989  1
  Y  Y18  1  0.499835  0.499728  0.999796  1
  Y  Y19  1  0.499835  0.500272  0.499796  1
  Ir  Ir20  1  0.153067  0.154058  0.749960  1
  Ir  Ir21  1  0.153067  0.845942  0.249960  1
  Ir  Ir22  1  0.655027  0.345757  0.749616  1
  Ir  Ir23  1  0.655027  0.654243  0.249616  1
  Ir  Ir24  1  0.346489  0.346119  0.250276  1
  Ir  Ir25  1  0.346489  0.653881  0.750276  1
  Ir  Ir26  1  0.500562  0.999869  0.125970  1
  Ir  Ir27  1  0.500562  0.000131  0.625970  1
  Ir  Ir28  1  0.999622  0.500299  0.874331  1
  Ir  Ir29  1  0.999622  0.499701  0.374331  1
  Pt  Pt30  1  0.845522  0.153308  0.249813  1
  Pt  Pt31  1  0.845522  0.846692  0.749813  1
