# generated using pymatgen
data_NdHgPt2O7
_symmetry_space_group_name_H-M   'P 1'
_cell_length_a   7.52836942
_cell_length_b   7.37566534
_cell_length_c   7.37566605
_cell_angle_alpha   59.45007300
_cell_angle_beta   59.31272997
_cell_angle_gamma   59.31272863
_symmetry_Int_Tables_number   1
_chemical_formula_structural   NdHgPt2O7
_chemical_formula_sum   'Nd2 Hg2 Pt4 O14'
_cell_volume   285.36355318
_cell_formula_units_Z   2
loop_
 _symmetry_equiv_pos_site_id
 _symmetry_equiv_pos_as_xyz
  1  'x, y, z'
loop_
 _atom_site_type_symbol
 _atom_site_label
 _atom_site_symmetry_multiplicity
 _atom_site_fract_x
 _atom_site_fract_y
 _atom_site_fract_z
 _atom_site_occupancy
  Nd  Nd0  1  0.125000  0.125000  0.125000  1
  Nd  Nd1  1  0.625000  0.125000  0.125000  1
  Hg  Hg2  1  0.125000  0.625000  0.125000  1
  Hg  Hg3  1  0.125000  0.125000  0.625000  1
  Pt  Pt4  1  0.625000  0.625000  0.125000  1
  Pt  Pt5  1  0.625000  0.625000  0.625000  1
  Pt  Pt6  1  0.625000  0.125000  0.625000  1
  Pt  Pt7  1  0.125000  0.625000  0.625000  1
  O  O8  1  0.713217  0.286783  0.286783  1
  O  O9  1  0.693738  0.293914  0.714798  1
  O  O10  1  0.013029  0.986971  0.986971  1
  O  O11  1  0.297549  0.714798  0.293914  1
  O  O12  1  0.693738  0.714798  0.293914  1
  O  O13  1  0.951305  0.548695  0.548695  1
  O  O14  1  0.298695  0.701305  0.701305  1
  O  O15  1  0.236971  0.263029  0.263029  1
  O  O16  1  0.952451  0.535202  0.956086  1
  O  O17  1  0.556262  0.956086  0.535202  1
  O  O18  1  0.556262  0.535202  0.956086  1
  O  O19  1  0.952451  0.956086  0.535202  1
  O  O20  1  0.536783  0.963217  0.963217  1
  O  O21  1  0.297549  0.293914  0.714798  1
