# generated using pymatgen
data_Nb5(NiAs)4
_symmetry_space_group_name_H-M   'P 1'
_cell_length_a   7.45630373
_cell_length_b   7.45630398
_cell_length_c   7.45630330
_cell_angle_alpha   93.47706597
_cell_angle_beta   93.47707062
_cell_angle_gamma   151.48616364
_symmetry_Int_Tables_number   1
_chemical_formula_structural   Nb5(NiAs)4
_chemical_formula_sum   'Nb5 Ni4 As4'
_cell_volume   191.79651603
_cell_formula_units_Z   1
loop_
 _symmetry_equiv_pos_site_id
 _symmetry_equiv_pos_as_xyz
  1  'x, y, z'
loop_
 _atom_site_type_symbol
 _atom_site_label
 _atom_site_symmetry_multiplicity
 _atom_site_fract_x
 _atom_site_fract_y
 _atom_site_fract_z
 _atom_site_occupancy
  Nb  Nb0  1  0.805333  0.129086  0.934419  1
  Nb  Nb1  1  0.129086  0.194667  0.323753  1
  Nb  Nb2  1  0.870914  0.805333  0.676247  1
  Nb  Nb3  1  0.194667  0.870914  0.065581  1
  Nb  Nb4  1  0.500000  0.500000  0.000000  1
  Ni  Ni5  1  0.917718  0.393281  0.310999  1
  Ni  Ni6  1  0.082282  0.606719  0.689001  1
  Ni  Ni7  1  0.606719  0.917718  0.524436  1
  Ni  Ni8  1  0.393281  0.082282  0.475564  1
  As  As9  1  0.558176  0.242054  0.800231  1
  As  As10  1  0.242054  0.441824  0.683877  1
  As  As11  1  0.757946  0.558176  0.316123  1
  As  As12  1  0.441824  0.757946  0.199769  1
