# generated using pymatgen
data_Zr4NbB4Ru10W
_symmetry_space_group_name_H-M   'P 1'
_cell_length_a   9.50706800
_cell_length_b   9.50706800
_cell_length_c   3.10612500
_cell_angle_alpha   90.00000000
_cell_angle_beta   90.00000000
_cell_angle_gamma   90.00000000
_symmetry_Int_Tables_number   1
_chemical_formula_structural   Zr4NbB4Ru10W
_chemical_formula_sum   'Zr4 Nb1 B4 Ru10 W1'
_cell_volume   280.74506416
_cell_formula_units_Z   1
loop_
 _symmetry_equiv_pos_site_id
 _symmetry_equiv_pos_as_xyz
  1  'x, y, z'
loop_
 _atom_site_type_symbol
 _atom_site_label
 _atom_site_symmetry_multiplicity
 _atom_site_fract_x
 _atom_site_fract_y
 _atom_site_fract_z
 _atom_site_occupancy
  Zr  Zr0  1  0.824163  0.676168  0.000000  1
  Zr  Zr1  1  0.175837  0.323832  0.000000  1
  Zr  Zr2  1  0.323832  0.824163  0.000000  1
  Zr  Zr3  1  0.676168  0.175837  0.000000  1
  Nb  Nb4  1  0.000000  0.000000  0.000000  1
  B  B5  1  0.621937  0.880092  0.000000  1
  B  B6  1  0.378063  0.119908  0.000000  1
  B  B7  1  0.119908  0.621937  0.000000  1
  B  B8  1  0.880092  0.378063  0.000000  1
  Ru  Ru9  1  0.568826  0.715924  0.500000  1
  Ru  Ru10  1  0.431174  0.284076  0.500000  1
  Ru  Ru11  1  0.071760  0.780930  0.500000  1
  Ru  Ru12  1  0.928240  0.219070  0.500000  1
  Ru  Ru13  1  0.284076  0.568826  0.500000  1
  Ru  Ru14  1  0.715924  0.431174  0.500000  1
  Ru  Ru15  1  0.219070  0.071760  0.500000  1
  Ru  Ru16  1  0.780930  0.928240  0.500000  1
  Ru  Ru17  1  0.500000  0.000000  0.500000  1
  Ru  Ru18  1  0.000000  0.500000  0.500000  1
  W  W19  1  0.500000  0.500000  0.000000  1
