# generated using pymatgen
data_TbYFe3Tc14C3
_symmetry_space_group_name_H-M   'P 1'
_cell_length_a   6.89872671
_cell_length_b   6.89872657
_cell_length_c   6.89872638
_cell_angle_alpha   82.43581589
_cell_angle_beta   82.43582283
_cell_angle_gamma   82.43581175
_symmetry_Int_Tables_number   1
_chemical_formula_structural   TbYFe3Tc14C3
_chemical_formula_sum   'Tb1 Y1 Fe3 Tc14 C3'
_cell_volume   320.44752662
_cell_formula_units_Z   1
loop_
 _symmetry_equiv_pos_site_id
 _symmetry_equiv_pos_as_xyz
  1  'x, y, z'
loop_
 _atom_site_type_symbol
 _atom_site_label
 _atom_site_symmetry_multiplicity
 _atom_site_fract_x
 _atom_site_fract_y
 _atom_site_fract_z
 _atom_site_occupancy
  Tb  Tb0  1  0.651682  0.651682  0.651682  1
  Y  Y1  1  0.348231  0.348231  0.348231  1
  Fe  Fe2  1  0.999947  0.999947  0.500057  1
  Fe  Fe3  1  0.500057  0.999947  0.999947  1
  Fe  Fe4  1  0.999947  0.500057  0.999947  1
  Tc  Tc5  1  0.724197  0.275822  0.000015  1
  Tc  Tc6  1  0.000015  0.724197  0.275822  1
  Tc  Tc7  1  0.275822  0.000015  0.724197  1
  Tc  Tc8  1  0.000015  0.275822  0.724197  1
  Tc  Tc9  1  0.724197  0.000015  0.275822  1
  Tc  Tc10  1  0.275822  0.724197  0.000015  1
  Tc  Tc11  1  0.348285  0.348285  0.860852  1
  Tc  Tc12  1  0.860852  0.348285  0.348285  1
  Tc  Tc13  1  0.348285  0.860852  0.348285  1
  Tc  Tc14  1  0.651694  0.651694  0.139235  1
  Tc  Tc15  1  0.139235  0.651694  0.651694  1
  Tc  Tc16  1  0.651694  0.139235  0.651694  1
  Tc  Tc17  1  0.899055  0.899055  0.899055  1
  Tc  Tc18  1  0.100925  0.100925  0.100925  1
  C  C19  1  0.499855  0.499855  0.000336  1
  C  C20  1  0.000336  0.499855  0.499855  1
  C  C21  1  0.499855  0.000336  0.499855  1
