# generated using pymatgen
data_La8Ga7SnRh8
_symmetry_space_group_name_H-M   'P 1'
_cell_length_a   4.24782900
_cell_length_b   7.40089490
_cell_length_c   16.34396841
_cell_angle_alpha   89.88553839
_cell_angle_beta   90.00000000
_cell_angle_gamma   90.00000000
_symmetry_Int_Tables_number   1
_chemical_formula_structural   La8Ga7SnRh8
_chemical_formula_sum   'La8 Ga7 Sn1 Rh8'
_cell_volume   513.81633819
_cell_formula_units_Z   1
loop_
 _symmetry_equiv_pos_site_id
 _symmetry_equiv_pos_as_xyz
  1  'x, y, z'
loop_
 _atom_site_type_symbol
 _atom_site_label
 _atom_site_symmetry_multiplicity
 _atom_site_fract_x
 _atom_site_fract_y
 _atom_site_fract_z
 _atom_site_occupancy
  La  La0  1  0.750000  0.326561  0.442563  1
  La  La1  1  0.250000  0.040295  0.719951  1
  La  La2  1  0.250000  0.539157  0.782319  1
  La  La3  1  0.250000  0.668343  0.562025  1
  La  La4  1  0.750000  0.832207  0.058334  1
  La  La5  1  0.250000  0.167333  0.940205  1
  La  La6  1  0.750000  0.452641  0.213642  1
  La  La7  1  0.750000  0.964132  0.279226  1
  Ga  Ga8  1  0.250000  0.128444  0.146571  1
  Ga  Ga9  1  0.250000  0.003726  0.439744  1
  Ga  Ga10  1  0.750000  0.868687  0.850745  1
  Ga  Ga11  1  0.750000  0.999742  0.565193  1
  Ga  Ga12  1  0.250000  0.503801  0.059797  1
  Ga  Ga13  1  0.750000  0.369168  0.650218  1
  Ga  Ga14  1  0.750000  0.499676  0.937476  1
  Sn  Sn15  1  0.250000  0.628837  0.349712  1
  Rh  Rh16  1  0.750000  0.248382  0.818913  1
  Rh  Rh17  1  0.250000  0.244909  0.317409  1
  Rh  Rh18  1  0.250000  0.732317  0.926971  1
  Rh  Rh19  1  0.250000  0.230791  0.573841  1
  Rh  Rh20  1  0.250000  0.753334  0.180137  1
  Rh  Rh21  1  0.750000  0.781834  0.433457  1
  Rh  Rh22  1  0.750000  0.268680  0.068475  1
  Rh  Rh23  1  0.750000  0.747001  0.683075  1
