# generated using pymatgen
data_Sc4ReTcOs6
_symmetry_space_group_name_H-M   'P 1'
_cell_length_a   5.23118471
_cell_length_b   5.20220457
_cell_length_c   8.70193100
_cell_angle_alpha   90.00000000
_cell_angle_beta   90.00000000
_cell_angle_gamma   120.81791912
_symmetry_Int_Tables_number   1
_chemical_formula_structural   Sc4ReTcOs6
_chemical_formula_sum   'Sc4 Re1 Tc1 Os6'
_cell_volume   203.37380217
_cell_formula_units_Z   1
loop_
 _symmetry_equiv_pos_site_id
 _symmetry_equiv_pos_as_xyz
  1  'x, y, z'
loop_
 _atom_site_type_symbol
 _atom_site_label
 _atom_site_symmetry_multiplicity
 _atom_site_fract_x
 _atom_site_fract_y
 _atom_site_fract_z
 _atom_site_occupancy
  Sc  Sc0  1  0.335617  0.667220  0.434629  1
  Sc  Sc1  1  0.668248  0.337837  0.565744  1
  Sc  Sc2  1  0.668248  0.337837  0.934256  1
  Sc  Sc3  1  0.335617  0.667220  0.065371  1
  Re  Re4  1  0.166276  0.334882  0.750000  1
  Tc  Tc5  1  0.338845  0.167090  0.250000  1
  Os  Os6  1  0.166852  0.821065  0.750000  1
  Os  Os7  1  0.822000  0.646711  0.250000  1
  Os  Os8  1  0.647709  0.819440  0.750000  1
  Os  Os9  1  0.013011  0.017347  0.000513  1
  Os  Os10  1  0.824566  0.166003  0.250000  1
  Os  Os11  1  0.013011  0.017347  0.499487  1
