# generated using pymatgen
data_Li2Pr8CoSi12Pd
_symmetry_space_group_name_H-M   'P 1'
_cell_length_a   8.24447900
_cell_length_b   8.24443829
_cell_length_c   8.51579400
_cell_angle_alpha   89.99935749
_cell_angle_beta   90.00059487
_cell_angle_gamma   120.00004864
_symmetry_Int_Tables_number   1
_chemical_formula_structural   Li2Pr8CoSi12Pd
_chemical_formula_sum   'Li2 Pr8 Co1 Si12 Pd1'
_cell_volume   501.27939545
_cell_formula_units_Z   1
loop_
 _symmetry_equiv_pos_site_id
 _symmetry_equiv_pos_as_xyz
  1  'x, y, z'
loop_
 _atom_site_type_symbol
 _atom_site_label
 _atom_site_symmetry_multiplicity
 _atom_site_fract_x
 _atom_site_fract_y
 _atom_site_fract_z
 _atom_site_occupancy
  Li  Li0  1  0.666668  0.333332  0.994810  1
  Li  Li1  1  0.333332  0.666669  0.005580  1
  Pr  Pr2  1  0.496635  0.503364  0.746208  1
  Pr  Pr3  1  0.498689  0.501313  0.254218  1
  Pr  Pr4  1  0.006719  0.503350  0.746222  1
  Pr  Pr5  1  0.002623  0.501317  0.254200  1
  Pr  Pr6  1  0.496649  0.993279  0.746221  1
  Pr  Pr7  1  0.498683  0.997377  0.254202  1
  Pr  Pr8  1  0.000008  0.999992  0.750653  1
  Pr  Pr9  1  0.999991  0.000008  0.249129  1
  Co  Co10  1  0.333341  0.666658  0.494766  1
  Si  Si11  1  0.833804  0.166195  0.000761  1
  Si  Si12  1  0.165685  0.834316  0.999274  1
  Si  Si13  1  0.332368  0.166171  0.000758  1
  Si  Si14  1  0.172733  0.827272  0.499974  1
  Si  Si15  1  0.668650  0.834332  0.999272  1
  Si  Si16  1  0.835376  0.164620  0.499824  1
  Si  Si17  1  0.833828  0.667631  0.000758  1
  Si  Si18  1  0.654547  0.827278  0.499972  1
  Si  Si19  1  0.165669  0.331351  0.999272  1
  Si  Si20  1  0.329233  0.164614  0.499815  1
  Si  Si21  1  0.172726  0.345456  0.499972  1
  Si  Si22  1  0.835383  0.670765  0.499816  1
  Pd  Pd23  1  0.666662  0.333340  0.504325  1
