# generated using pymatgen
data_Lu3Zr5Co4
_symmetry_space_group_name_H-M   'P 1'
_cell_length_a   4.50202000
_cell_length_b   6.67883297
_cell_length_c   7.88675746
_cell_angle_alpha   88.81652283
_cell_angle_beta   90.00000000
_cell_angle_gamma   90.00000000
_symmetry_Int_Tables_number   1
_chemical_formula_structural   Lu3Zr5Co4
_chemical_formula_sum   'Lu3 Zr5 Co4'
_cell_volume   237.09032661
_cell_formula_units_Z   1
loop_
 _symmetry_equiv_pos_site_id
 _symmetry_equiv_pos_as_xyz
  1  'x, y, z'
loop_
 _atom_site_type_symbol
 _atom_site_label
 _atom_site_symmetry_multiplicity
 _atom_site_fract_x
 _atom_site_fract_y
 _atom_site_fract_z
 _atom_site_occupancy
  Lu  Lu0  1  0.250000  0.479268  0.176354  1
  Lu  Lu1  1  0.750000  0.017430  0.671910  1
  Lu  Lu2  1  0.750000  0.515751  0.825622  1
  Zr  Zr3  1  0.250000  0.856930  0.921975  1
  Zr  Zr4  1  0.250000  0.355861  0.580306  1
  Zr  Zr5  1  0.750000  0.136132  0.085840  1
  Zr  Zr6  1  0.750000  0.651732  0.416015  1
  Zr  Zr7  1  0.250000  0.984577  0.330838  1
  Co  Co8  1  0.250000  0.231843  0.913716  1
  Co  Co9  1  0.250000  0.741677  0.580257  1
  Co  Co10  1  0.750000  0.764023  0.088371  1
  Co  Co11  1  0.750000  0.264777  0.408796  1
