# generated using pymatgen
data_YbEu2Tm(Ga2Ag)4
_symmetry_space_group_name_H-M   'P 1'
_cell_length_a   4.41693100
_cell_length_b   7.03475054
_cell_length_c   10.51725914
_cell_angle_alpha   90.57107072
_cell_angle_beta   90.00000000
_cell_angle_gamma   90.00000000
_symmetry_Int_Tables_number   1
_chemical_formula_structural   YbEu2Tm(Ga2Ag)4
_chemical_formula_sum   'Yb1 Eu2 Tm1 Ga8 Ag4'
_cell_volume   326.77612523
_cell_formula_units_Z   1
loop_
 _symmetry_equiv_pos_site_id
 _symmetry_equiv_pos_as_xyz
  1  'x, y, z'
loop_
 _atom_site_type_symbol
 _atom_site_label
 _atom_site_symmetry_multiplicity
 _atom_site_fract_x
 _atom_site_fract_y
 _atom_site_fract_z
 _atom_site_occupancy
  Yb  Yb0  1  0.250000  0.279360  0.672930  1
  Eu  Eu1  1  0.750000  0.219945  0.171763  1
  Eu  Eu2  1  0.750000  0.719629  0.328555  1
  Tm  Tm3  1  0.250000  0.782705  0.827304  1
  Ga  Ga4  1  0.250000  0.703438  0.539548  1
  Ga  Ga5  1  0.750000  0.299197  0.469835  1
  Ga  Ga6  1  0.750000  0.794977  0.030320  1
  Ga  Ga7  1  0.250000  0.199568  0.961545  1
  Ga  Ga8  1  0.250000  0.919763  0.146454  1
  Ga  Ga9  1  0.750000  0.074406  0.848342  1
  Ga  Ga10  1  0.750000  0.577479  0.652807  1
  Ga  Ga11  1  0.250000  0.421581  0.351776  1
  Ag  Ag12  1  0.250000  0.540845  0.092419  1
  Ag  Ag13  1  0.750000  0.461652  0.895449  1
  Ag  Ag14  1  0.750000  0.963051  0.603955  1
  Ag  Ag15  1  0.250000  0.042406  0.406999  1
