# generated using pymatgen
data_Er6Hf2Fe11Co5P12
_symmetry_space_group_name_H-M   'P 1'
_cell_length_a   3.71873600
_cell_length_b   10.80199441
_cell_length_c   12.28722197
_cell_angle_alpha   90.98214546
_cell_angle_beta   90.00000000
_cell_angle_gamma   90.00000000
_symmetry_Int_Tables_number   1
_chemical_formula_structural   Er6Hf2Fe11Co5P12
_chemical_formula_sum   'Er6 Hf2 Fe11 Co5 P12'
_cell_volume   493.50231161
_cell_formula_units_Z   1
loop_
 _symmetry_equiv_pos_site_id
 _symmetry_equiv_pos_as_xyz
  1  'x, y, z'
loop_
 _atom_site_type_symbol
 _atom_site_label
 _atom_site_symmetry_multiplicity
 _atom_site_fract_x
 _atom_site_fract_y
 _atom_site_fract_z
 _atom_site_occupancy
  Er  Er0  1  0.750000  0.257580  0.466350  1
  Er  Er1  1  0.250000  0.744029  0.536554  1
  Er  Er2  1  0.250000  0.921609  0.797856  1
  Er  Er3  1  0.250000  0.569978  0.794821  1
  Er  Er4  1  0.750000  0.077604  0.202159  1
  Er  Er5  1  0.750000  0.428125  0.203674  1
  Hf  Hf6  1  0.250000  0.246694  0.842413  1
  Hf  Hf7  1  0.750000  0.751260  0.157827  1
  Fe  Fe8  1  0.250000  0.418244  0.001409  1
  Fe  Fe9  1  0.250000  0.081586  0.003052  1
  Fe  Fe10  1  0.750000  0.580837  0.997757  1
  Fe  Fe11  1  0.750000  0.917248  0.996925  1
  Fe  Fe12  1  0.250000  0.457110  0.566982  1
  Fe  Fe13  1  0.250000  0.047116  0.568153  1
  Fe  Fe14  1  0.750000  0.545889  0.430593  1
  Fe  Fe15  1  0.750000  0.954410  0.432131  1
  Fe  Fe16  1  0.250000  0.873012  0.305057  1
  Fe  Fe17  1  0.250000  0.635188  0.299145  1
  Fe  Fe18  1  0.750000  0.125470  0.695111  1
  Co  Co19  1  0.250000  0.253675  0.292983  1
  Co  Co20  1  0.750000  0.745165  0.707243  1
  Co  Co21  1  0.750000  0.250681  0.012095  1
  Co  Co22  1  0.250000  0.748562  0.987183  1
  Co  Co23  1  0.750000  0.368883  0.702727  1
  P  P24  1  0.250000  0.252312  0.110763  1
  P  P25  1  0.750000  0.746482  0.888921  1
  P  P26  1  0.250000  0.263333  0.635609  1
  P  P27  1  0.750000  0.740856  0.366755  1
  P  P28  1  0.250000  0.443120  0.383276  1
  P  P29  1  0.250000  0.072147  0.380825  1
  P  P30  1  0.750000  0.556296  0.615426  1
  P  P31  1  0.750000  0.927532  0.619495  1
  P  P32  1  0.250000  0.913451  0.101833  1
  P  P33  1  0.250000  0.588061  0.104362  1
  P  P34  1  0.750000  0.085533  0.897886  1
  P  P35  1  0.750000  0.410923  0.894648  1
