# generated using pymatgen
data_AcEu(Zn2Ni)2
_symmetry_space_group_name_H-M   'P 1'
_cell_length_a   5.51086930
_cell_length_b   5.51087013
_cell_length_c   7.41376300
_cell_angle_alpha   90.00000000
_cell_angle_beta   90.00000000
_cell_angle_gamma   136.65569454
_symmetry_Int_Tables_number   1
_chemical_formula_structural   AcEu(Zn2Ni)2
_chemical_formula_sum   'Ac1 Eu1 Zn4 Ni2'
_cell_volume   154.54116673
_cell_formula_units_Z   1
loop_
 _symmetry_equiv_pos_site_id
 _symmetry_equiv_pos_as_xyz
  1  'x, y, z'
loop_
 _atom_site_type_symbol
 _atom_site_label
 _atom_site_symmetry_multiplicity
 _atom_site_fract_x
 _atom_site_fract_y
 _atom_site_fract_z
 _atom_site_occupancy
  Ac  Ac0  1  0.555270  0.444730  0.250000  1
  Eu  Eu1  1  0.443378  0.556622  0.750000  1
  Zn  Zn2  1  0.834313  0.165686  0.050898  1
  Zn  Zn3  1  0.834313  0.165686  0.449103  1
  Zn  Zn4  1  0.167538  0.832461  0.563859  1
  Zn  Zn5  1  0.167538  0.832461  0.936141  1
  Ni  Ni6  1  0.278159  0.721841  0.250000  1
  Ni  Ni7  1  0.719489  0.280511  0.750000  1
