# generated using pymatgen
data_Sm8Ge(Pd3Pt)6
_symmetry_space_group_name_H-M   'P 1'
_cell_length_a   8.44903301
_cell_length_b   8.44691901
_cell_length_c   8.44772900
_cell_angle_alpha   90.00000000
_cell_angle_beta   90.00000000
_cell_angle_gamma   90.00534437
_symmetry_Int_Tables_number   1
_chemical_formula_structural   Sm8Ge(Pd3Pt)6
_chemical_formula_sum   'Sm8 Ge1 Pd18 Pt6'
_cell_volume   602.90003414
_cell_formula_units_Z   1
loop_
 _symmetry_equiv_pos_site_id
 _symmetry_equiv_pos_as_xyz
  1  'x, y, z'
loop_
 _atom_site_type_symbol
 _atom_site_label
 _atom_site_symmetry_multiplicity
 _atom_site_fract_x
 _atom_site_fract_y
 _atom_site_fract_z
 _atom_site_occupancy
  Sm  Sm0  1  0.253211  0.253655  0.253209  1
  Sm  Sm1  1  0.747049  0.746515  0.746575  1
  Sm  Sm2  1  0.747049  0.746515  0.253425  1
  Sm  Sm3  1  0.746819  0.253452  0.746923  1
  Sm  Sm4  1  0.253211  0.253655  0.746791  1
  Sm  Sm5  1  0.253018  0.746271  0.253566  1
  Sm  Sm6  1  0.253018  0.746271  0.746434  1
  Sm  Sm7  1  0.746819  0.253452  0.253077  1
  Ge  Ge8  1  0.000031  0.000259  0.000000  1
  Pd  Pd9  1  0.500087  0.740366  0.000000  1
  Pd  Pd10  1  0.500093  0.000068  0.259775  1
  Pd  Pd11  1  0.259796  0.999913  0.500000  1
  Pd  Pd12  1  0.500093  0.000068  0.740225  1
  Pd  Pd13  1  0.740178  0.999937  0.500000  1
  Pd  Pd14  1  0.999937  0.500072  0.259676  1
  Pd  Pd15  1  0.999937  0.500072  0.740324  1
  Pd  Pd16  1  0.747198  0.500105  0.500000  1
  Pd  Pd17  1  0.499936  0.253105  0.500000  1
  Pd  Pd18  1  0.499950  0.746929  0.500000  1
  Pd  Pd19  1  0.499991  0.499979  0.253029  1
  Pd  Pd20  1  0.499991  0.499979  0.746971  1
  Pd  Pd21  1  0.290254  0.999981  0.000000  1
  Pd  Pd22  1  0.709868  0.000011  0.000000  1
  Pd  Pd23  1  0.999896  0.289892  0.000000  1
  Pd  Pd24  1  0.999939  0.710039  0.000000  1
  Pd  Pd25  1  0.999884  0.999959  0.290016  1
  Pd  Pd26  1  0.999884  0.999959  0.709984  1
  Pt  Pt27  1  0.259523  0.499912  0.000000  1
  Pt  Pt28  1  0.740377  0.499932  0.000000  1
  Pt  Pt29  1  0.000073  0.259444  0.500000  1
  Pt  Pt30  1  0.500090  0.259483  0.000000  1
  Pt  Pt31  1  0.000073  0.740640  0.500000  1
  Pt  Pt32  1  0.252726  0.500112  0.500000  1
