# generated using pymatgen
data_U6Rh2Se15
_symmetry_space_group_name_H-M   'P 1'
_cell_length_a   11.84740636
_cell_length_b   11.84740642
_cell_length_c   11.84740600
_cell_angle_alpha   109.47121820
_cell_angle_beta   109.47121830
_cell_angle_gamma   109.47122287
_symmetry_Int_Tables_number   1
_chemical_formula_structural   U6Rh2Se15
_chemical_formula_sum   'U12 Rh4 Se30'
_cell_volume   1280.11199318
_cell_formula_units_Z   2
loop_
 _symmetry_equiv_pos_site_id
 _symmetry_equiv_pos_as_xyz
  1  'x, y, z'
loop_
 _atom_site_type_symbol
 _atom_site_label
 _atom_site_symmetry_multiplicity
 _atom_site_fract_x
 _atom_site_fract_y
 _atom_site_fract_z
 _atom_site_occupancy
  U  U0  1  0.295134  0.295134  0.590270  1
  U  U1  1  0.704866  0.000000  0.295134  1
  U  U2  1  0.000000  0.704866  0.295134  1
  U  U3  1  0.704866  0.295134  0.000000  1
  U  U4  1  0.295134  0.590270  0.295134  1
  U  U5  1  0.000000  0.295134  0.704866  1
  U  U6  1  0.295134  0.704866  0.000000  1
  U  U7  1  0.295134  0.000000  0.704866  1
  U  U8  1  0.590270  0.295134  0.295134  1
  U  U9  1  0.704866  0.704866  0.409730  1
  U  U10  1  0.704866  0.409730  0.704866  1
  U  U11  1  0.409730  0.704866  0.704866  1
  Rh  Rh12  1  0.000000  0.000000  0.500000  1
  Rh  Rh13  1  0.000000  0.500000  0.000000  1
  Rh  Rh14  1  0.500000  0.000000  0.000000  1
  Rh  Rh15  1  0.500000  0.500000  0.500000  1
  Se  Se16  1  0.000000  0.183804  0.438225  1
  Se  Se17  1  0.816196  0.816196  0.254422  1
  Se  Se18  1  0.183804  0.000000  0.438225  1
  Se  Se19  1  0.000000  0.438225  0.183804  1
  Se  Se20  1  0.183804  0.438225  0.000000  1
  Se  Se21  1  0.816196  0.254422  0.816196  1
  Se  Se22  1  0.254422  0.816196  0.816196  1
  Se  Se23  1  0.438225  0.183804  0.000000  1
  Se  Se24  1  0.438225  0.000000  0.183804  1
  Se  Se25  1  0.745578  0.561775  0.561775  1
  Se  Se26  1  0.561775  0.561775  0.745578  1
  Se  Se27  1  0.561775  0.745578  0.561775  1
  Se  Se28  1  0.000000  0.816196  0.561775  1
  Se  Se29  1  0.183804  0.183804  0.745578  1
  Se  Se30  1  0.816196  0.000000  0.561775  1
  Se  Se31  1  0.000000  0.561775  0.816196  1
  Se  Se32  1  0.816196  0.561775  0.000000  1
  Se  Se33  1  0.183804  0.745578  0.183804  1
  Se  Se34  1  0.745578  0.183804  0.183804  1
  Se  Se35  1  0.561775  0.816196  0.000000  1
  Se  Se36  1  0.561775  0.000000  0.816196  1
  Se  Se37  1  0.254422  0.438225  0.438225  1
  Se  Se38  1  0.438225  0.438225  0.254422  1
  Se  Se39  1  0.438225  0.254422  0.438225  1
  Se  Se40  1  0.750000  0.250000  0.500000  1
  Se  Se41  1  0.750000  0.500000  0.250000  1
  Se  Se42  1  0.500000  0.250000  0.750000  1
  Se  Se43  1  0.250000  0.500000  0.750000  1
  Se  Se44  1  0.250000  0.750000  0.500000  1
  Se  Se45  1  0.500000  0.750000  0.250000  1
