# generated using pymatgen
data_Nd16Dy3HoSn16
_symmetry_space_group_name_H-M   'P 1'
_cell_length_a   8.24449300
_cell_length_b   8.39797300
_cell_length_c   15.92444600
_cell_angle_alpha   90.00000000
_cell_angle_beta   90.00000000
_cell_angle_gamma   90.00030299
_symmetry_Int_Tables_number   1
_chemical_formula_structural   Nd16Dy3HoSn16
_chemical_formula_sum   'Nd16 Dy3 Ho1 Sn16'
_cell_volume   1102.56133926
_cell_formula_units_Z   1
loop_
 _symmetry_equiv_pos_site_id
 _symmetry_equiv_pos_as_xyz
  1  'x, y, z'
loop_
 _atom_site_type_symbol
 _atom_site_label
 _atom_site_symmetry_multiplicity
 _atom_site_fract_x
 _atom_site_fract_y
 _atom_site_fract_z
 _atom_site_occupancy
  Nd  Nd0  1  0.017768  0.180985  0.401203  1
  Nd  Nd1  1  0.368157  0.837095  0.120716  1
  Nd  Nd2  1  0.131765  0.337146  0.620708  1
  Nd  Nd3  1  0.482286  0.680956  0.901192  1
  Nd  Nd4  1  0.868172  0.662909  0.120690  1
  Nd  Nd5  1  0.131765  0.337146  0.879292  1
  Nd  Nd6  1  0.482286  0.680956  0.598808  1
  Nd  Nd7  1  0.631884  0.162945  0.620728  1
  Nd  Nd8  1  0.868172  0.662909  0.379310  1
  Nd  Nd9  1  0.017768  0.180985  0.098797  1
  Nd  Nd10  1  0.982224  0.818989  0.901206  1
  Nd  Nd11  1  0.631884  0.162945  0.879272  1
  Nd  Nd12  1  0.517758  0.319013  0.098792  1
  Nd  Nd13  1  0.368157  0.837095  0.379284  1
  Nd  Nd14  1  0.982224  0.818989  0.598794  1
  Nd  Nd15  1  0.517758  0.319013  0.401208  1
  Dy  Dy16  1  0.199286  0.501998  0.250000  1
  Dy  Dy17  1  0.699285  0.997990  0.250000  1
  Dy  Dy18  1  0.300708  0.001991  0.750000  1
  Ho  Ho19  1  0.800569  0.497981  0.750000  1
  Sn  Sn20  1  0.791734  0.464641  0.543529  1
  Sn  Sn21  1  0.708271  0.964635  0.456552  1
  Sn  Sn22  1  0.675749  0.854249  0.750000  1
  Sn  Sn23  1  0.208270  0.535381  0.456551  1
  Sn  Sn24  1  0.291728  0.035363  0.956540  1
  Sn  Sn25  1  0.824244  0.354407  0.250000  1
  Sn  Sn26  1  0.791734  0.464641  0.956471  1
  Sn  Sn27  1  0.565191  0.616396  0.250000  1
  Sn  Sn28  1  0.208270  0.535381  0.043449  1
  Sn  Sn29  1  0.434990  0.383611  0.750000  1
  Sn  Sn30  1  0.175722  0.645577  0.750000  1
  Sn  Sn31  1  0.934772  0.116448  0.750000  1
  Sn  Sn32  1  0.291728  0.035363  0.543460  1
  Sn  Sn33  1  0.708271  0.964635  0.043448  1
  Sn  Sn34  1  0.324269  0.145613  0.250000  1
  Sn  Sn35  1  0.065186  0.883617  0.250000  1
