# generated using pymatgen
data_InBi3(MoO6)2
_symmetry_space_group_name_H-M   'P 1'
_cell_length_a   10.45227042
_cell_length_b   10.45227058
_cell_length_c   5.44191203
_cell_angle_alpha   77.81961755
_cell_angle_beta   77.81961333
_cell_angle_gamma   68.73163278
_symmetry_Int_Tables_number   1
_chemical_formula_structural   InBi3(MoO6)2
_chemical_formula_sum   'In2 Bi6 Mo4 O24'
_cell_volume   535.63176354
_cell_formula_units_Z   2
loop_
 _symmetry_equiv_pos_site_id
 _symmetry_equiv_pos_as_xyz
  1  'x, y, z'
loop_
 _atom_site_type_symbol
 _atom_site_label
 _atom_site_symmetry_multiplicity
 _atom_site_fract_x
 _atom_site_fract_y
 _atom_site_fract_z
 _atom_site_occupancy
  In  In0  1  0.092343  0.907657  0.750000  1
  In  In1  1  0.907657  0.092343  0.250000  1
  Bi  Bi2  1  0.725858  0.960753  0.936324  1
  Bi  Bi3  1  0.274142  0.039247  0.063676  1
  Bi  Bi4  1  0.039247  0.274142  0.563676  1
  Bi  Bi5  1  0.960753  0.725858  0.436324  1
  Bi  Bi6  1  0.662343  0.337657  0.750000  1
  Bi  Bi7  1  0.337657  0.662343  0.250000  1
  Mo  Mo8  1  0.539334  0.797635  0.571567  1
  Mo  Mo9  1  0.460666  0.202365  0.428433  1
  Mo  Mo10  1  0.202365  0.460666  0.928433  1
  Mo  Mo11  1  0.797635  0.539334  0.071567  1
  O  O12  1  0.551460  0.639130  0.776508  1
  O  O13  1  0.448540  0.360870  0.223492  1
  O  O14  1  0.360870  0.448540  0.723492  1
  O  O15  1  0.639130  0.551460  0.276508  1
  O  O16  1  0.892109  0.936474  0.588262  1
  O  O17  1  0.107891  0.063526  0.411738  1
  O  O18  1  0.063526  0.107891  0.911738  1
  O  O19  1  0.936474  0.892109  0.088262  1
  O  O20  1  0.599842  0.168145  0.621498  1
  O  O21  1  0.400158  0.831855  0.378502  1
  O  O22  1  0.831855  0.400158  0.878502  1
  O  O23  1  0.168145  0.599842  0.121498  1
  O  O24  1  0.298405  0.206986  0.631993  1
  O  O25  1  0.701595  0.793014  0.368007  1
  O  O26  1  0.793014  0.701595  0.868007  1
  O  O27  1  0.206986  0.298405  0.131993  1
  O  O28  1  0.741250  0.155089  0.026769  1
  O  O29  1  0.258750  0.844911  0.973231  1
  O  O30  1  0.844911  0.258750  0.473231  1
  O  O31  1  0.155089  0.741250  0.526769  1
  O  O32  1  0.503477  0.929172  0.766067  1
  O  O33  1  0.496523  0.070828  0.233933  1
  O  O34  1  0.070828  0.496523  0.733933  1
  O  O35  1  0.929172  0.503477  0.266067  1
