# generated using pymatgen
data_Hf12Fe9Re3N4
_symmetry_space_group_name_H-M   'P 1'
_cell_length_a   8.31693154
_cell_length_b   8.31693061
_cell_length_c   8.31693100
_cell_angle_alpha   59.98308115
_cell_angle_beta   59.98308485
_cell_angle_gamma   59.98308188
_symmetry_Int_Tables_number   1
_chemical_formula_structural   Hf12Fe9Re3N4
_chemical_formula_sum   'Hf12 Fe9 Re3 N4'
_cell_volume   406.63773565
_cell_formula_units_Z   1
loop_
 _symmetry_equiv_pos_site_id
 _symmetry_equiv_pos_as_xyz
  1  'x, y, z'
loop_
 _atom_site_type_symbol
 _atom_site_label
 _atom_site_symmetry_multiplicity
 _atom_site_fract_x
 _atom_site_fract_y
 _atom_site_fract_z
 _atom_site_occupancy
  Hf  Hf0  1  0.806378  0.806378  0.195283  1
  Hf  Hf1  1  0.192861  0.192861  0.806843  1
  Hf  Hf2  1  0.806378  0.195283  0.806378  1
  Hf  Hf3  1  0.192861  0.806843  0.192861  1
  Hf  Hf4  1  0.195283  0.806378  0.806378  1
  Hf  Hf5  1  0.806843  0.192861  0.192861  1
  Hf  Hf6  1  0.443622  0.443622  0.054717  1
  Hf  Hf7  1  0.057139  0.057139  0.443157  1
  Hf  Hf8  1  0.443622  0.054717  0.443622  1
  Hf  Hf9  1  0.057139  0.443157  0.057139  1
  Hf  Hf10  1  0.054717  0.443622  0.443622  1
  Hf  Hf11  1  0.443157  0.057139  0.057139  1
  Fe  Fe12  1  0.625000  0.625000  0.625000  1
  Fe  Fe13  1  0.728558  0.427324  0.427324  1
  Fe  Fe14  1  0.427324  0.728558  0.427324  1
  Fe  Fe15  1  0.427324  0.427324  0.728558  1
  Fe  Fe16  1  0.424336  0.424336  0.424336  1
  Fe  Fe17  1  0.521442  0.822676  0.822676  1
  Fe  Fe18  1  0.822676  0.521442  0.822676  1
  Fe  Fe19  1  0.822676  0.822676  0.521442  1
  Fe  Fe20  1  0.825664  0.825664  0.825664  1
  Re  Re21  1  0.125000  0.625000  0.625000  1
  Re  Re22  1  0.625000  0.125000  0.625000  1
  Re  Re23  1  0.625000  0.625000  0.125000  1
  N  N24  1  0.625000  0.125000  0.125000  1
  N  N25  1  0.125000  0.625000  0.125000  1
  N  N26  1  0.125000  0.125000  0.625000  1
  N  N27  1  0.125000  0.125000  0.125000  1
