# generated using pymatgen
data_Er10In7Ni4Hg
_symmetry_space_group_name_H-M   'P 1'
_cell_length_a   3.57034200
_cell_length_b   7.95555812
_cell_length_c   17.80260494
_cell_angle_alpha   90.14424528
_cell_angle_beta   90.00000000
_cell_angle_gamma   90.00000000
_symmetry_Int_Tables_number   1
_chemical_formula_structural   Er10In7Ni4Hg
_chemical_formula_sum   'Er10 In7 Ni4 Hg1'
_cell_volume   505.66471486
_cell_formula_units_Z   1
loop_
 _symmetry_equiv_pos_site_id
 _symmetry_equiv_pos_as_xyz
  1  'x, y, z'
loop_
 _atom_site_type_symbol
 _atom_site_label
 _atom_site_symmetry_multiplicity
 _atom_site_fract_x
 _atom_site_fract_y
 _atom_site_fract_z
 _atom_site_occupancy
  Er  Er0  1  0.500000  0.383888  0.588716  1
  Er  Er1  1  0.500000  0.884507  0.911992  1
  Er  Er2  1  0.500000  0.109335  0.088251  1
  Er  Er3  1  0.500000  0.754363  0.722469  1
  Er  Er4  1  0.500000  0.253591  0.777704  1
  Er  Er5  1  0.500000  0.504158  0.002259  1
  Er  Er6  1  0.500000  0.747408  0.218489  1
  Er  Er7  1  0.500000  0.245080  0.278649  1
  Er  Er8  1  0.500000  0.999602  0.499639  1
  Er  Er9  1  0.500000  0.617221  0.410313  1
  In  In10  1  0.000000  0.926164  0.347620  1
  In  In11  1  0.000000  0.071265  0.651328  1
  In  In12  1  0.000000  0.571199  0.849382  1
  In  In13  1  0.000000  0.706119  0.568909  1
  In  In14  1  0.000000  0.207715  0.931096  1
  In  In15  1  0.000000  0.295235  0.431614  1
  In  In16  1  0.000000  0.424036  0.151727  1
  Ni  Ni17  1  0.000000  0.976887  0.803883  1
  Ni  Ni18  1  0.000000  0.523800  0.303477  1
  Ni  Ni19  1  0.000000  0.477890  0.696123  1
  Ni  Ni20  1  0.000000  0.027855  0.197685  1
  Hg  Hg21  1  0.000000  0.792680  0.068675  1
