# generated using pymatgen
data_Dy2Tm2FeCo16(TcP4)3
_symmetry_space_group_name_H-M   'P 1'
_cell_length_a   3.68469000
_cell_length_b   10.31717657
_cell_length_c   11.76378100
_cell_angle_alpha   89.95954322
_cell_angle_beta   90.00000000
_cell_angle_gamma   90.00000000
_symmetry_Int_Tables_number   1
_chemical_formula_structural   Dy2Tm2FeCo16(TcP4)3
_chemical_formula_sum   'Dy2 Tm2 Fe1 Co16 Tc3 P12'
_cell_volume   447.20705024
_cell_formula_units_Z   1
loop_
 _symmetry_equiv_pos_site_id
 _symmetry_equiv_pos_as_xyz
  1  'x, y, z'
loop_
 _atom_site_type_symbol
 _atom_site_label
 _atom_site_symmetry_multiplicity
 _atom_site_fract_x
 _atom_site_fract_y
 _atom_site_fract_z
 _atom_site_occupancy
  Dy  Dy0  1  0.250000  0.581530  0.702386  1
  Dy  Dy1  1  0.250000  0.915610  0.205115  1
  Tm  Tm2  1  0.750000  0.415275  0.295650  1
  Tm  Tm3  1  0.750000  0.083755  0.795662  1
  Fe  Fe4  1  0.750000  0.212518  0.511185  1
  Co  Co5  1  0.250000  0.405720  0.486659  1
  Co  Co6  1  0.250000  0.093215  0.987530  1
  Co  Co7  1  0.750000  0.592345  0.510080  1
  Co  Co8  1  0.750000  0.907621  0.010624  1
  Co  Co9  1  0.250000  0.220712  0.177005  1
  Co  Co10  1  0.250000  0.277396  0.676501  1
  Co  Co11  1  0.750000  0.778849  0.822612  1
  Co  Co12  1  0.750000  0.721174  0.323230  1
  Co  Co13  1  0.250000  0.887187  0.701414  1
  Co  Co14  1  0.250000  0.612738  0.202867  1
  Co  Co15  1  0.750000  0.117272  0.301181  1
  Co  Co16  1  0.750000  0.385404  0.797826  1
  Co  Co17  1  0.250000  0.464076  0.932453  1
  Co  Co18  1  0.250000  0.036774  0.432896  1
  Co  Co19  1  0.750000  0.535286  0.069272  1
  Co  Co20  1  0.750000  0.967751  0.568793  1
  Tc  Tc21  1  0.250000  0.711203  0.989318  1
  Tc  Tc22  1  0.250000  0.789816  0.489635  1
  Tc  Tc23  1  0.750000  0.288493  0.010406  1
  P  P24  1  0.250000  0.419283  0.114691  1
  P  P25  1  0.250000  0.082317  0.612970  1
  P  P26  1  0.750000  0.579124  0.886413  1
  P  P27  1  0.750000  0.921238  0.387110  1
  P  P28  1  0.250000  0.268809  0.864451  1
  P  P29  1  0.250000  0.231891  0.367928  1
  P  P30  1  0.750000  0.730405  0.134386  1
  P  P31  1  0.750000  0.770434  0.633205  1
  P  P32  1  0.250000  0.595142  0.391313  1
  P  P33  1  0.250000  0.904515  0.890162  1
  P  P34  1  0.750000  0.398098  0.606419  1
  P  P35  1  0.750000  0.097023  0.110650  1
