# generated using pymatgen
data_Rb3YTe2O9
_symmetry_space_group_name_H-M   'P 1'
_cell_length_a   6.11807000
_cell_length_b   6.11806996
_cell_length_c   14.58329600
_cell_angle_alpha   90.00000000
_cell_angle_beta   90.00000000
_cell_angle_gamma   120.00000020
_symmetry_Int_Tables_number   1
_chemical_formula_structural   Rb3YTe2O9
_chemical_formula_sum   'Rb6 Y2 Te4 O18'
_cell_volume   472.73221881
_cell_formula_units_Z   2
loop_
 _symmetry_equiv_pos_site_id
 _symmetry_equiv_pos_as_xyz
  1  'x, y, z'
loop_
 _atom_site_type_symbol
 _atom_site_label
 _atom_site_symmetry_multiplicity
 _atom_site_fract_x
 _atom_site_fract_y
 _atom_site_fract_z
 _atom_site_occupancy
  Rb  Rb0  1  0.000000  0.000000  0.250000  1
  Rb  Rb1  1  0.000000  0.000000  0.750000  1
  Rb  Rb2  1  0.333333  0.666667  0.601883  1
  Rb  Rb3  1  0.666667  0.333333  0.398117  1
  Rb  Rb4  1  0.666667  0.333333  0.101883  1
  Rb  Rb5  1  0.333333  0.666667  0.898117  1
  Y  Y6  1  0.000000  0.000000  0.500000  1
  Y  Y7  1  0.000000  0.000000  0.000000  1
  Te  Te8  1  0.333333  0.666667  0.348330  1
  Te  Te9  1  0.666667  0.333333  0.651670  1
  Te  Te10  1  0.666667  0.333333  0.848330  1
  Te  Te11  1  0.333333  0.666667  0.151670  1
  O  O12  1  0.471526  0.528474  0.250000  1
  O  O13  1  0.471526  0.943052  0.250000  1
  O  O14  1  0.056948  0.528474  0.250000  1
  O  O15  1  0.528474  0.471526  0.750000  1
  O  O16  1  0.528474  0.056948  0.750000  1
  O  O17  1  0.943052  0.471526  0.750000  1
  O  O18  1  0.178106  0.821894  0.086549  1
  O  O19  1  0.178106  0.356214  0.086549  1
  O  O20  1  0.643786  0.821894  0.086549  1
  O  O21  1  0.821894  0.178106  0.913451  1
  O  O22  1  0.821894  0.643786  0.913451  1
  O  O23  1  0.356214  0.178106  0.913451  1
  O  O24  1  0.821894  0.178106  0.586549  1
  O  O25  1  0.821894  0.643786  0.586549  1
  O  O26  1  0.356214  0.178106  0.586549  1
  O  O27  1  0.178106  0.821894  0.413451  1
  O  O28  1  0.178106  0.356214  0.413451  1
  O  O29  1  0.643786  0.821894  0.413451  1
