# generated using pymatgen
data_Dy8Er12Si15Bi
_symmetry_space_group_name_H-M   'P 1'
_cell_length_a   7.48895823
_cell_length_b   7.66988161
_cell_length_c   14.61264368
_cell_angle_alpha   90.11273421
_cell_angle_beta   86.44823107
_cell_angle_gamma   90.11649527
_symmetry_Int_Tables_number   1
_chemical_formula_structural   Dy8Er12Si15Bi
_chemical_formula_sum   'Dy8 Er12 Si15 Bi1'
_cell_volume   837.72648220
_cell_formula_units_Z   1
loop_
 _symmetry_equiv_pos_site_id
 _symmetry_equiv_pos_as_xyz
  1  'x, y, z'
loop_
 _atom_site_type_symbol
 _atom_site_label
 _atom_site_symmetry_multiplicity
 _atom_site_fract_x
 _atom_site_fract_y
 _atom_site_fract_z
 _atom_site_occupancy
  Dy  Dy0  1  0.023117  0.183999  0.099412  1
  Dy  Dy1  1  0.976818  0.817616  0.900883  1
  Dy  Dy2  1  0.476769  0.683288  0.900639  1
  Dy  Dy3  1  0.001461  0.828221  0.601147  1
  Dy  Dy4  1  0.524082  0.316140  0.101203  1
  Dy  Dy5  1  0.993120  0.175148  0.398209  1
  Dy  Dy6  1  0.508638  0.312628  0.395390  1
  Dy  Dy7  1  0.517617  0.687346  0.604247  1
  Er  Er8  1  0.167269  0.505382  0.753318  1
  Er  Er9  1  0.830874  0.493884  0.253518  1
  Er  Er10  1  0.330974  0.008046  0.252555  1
  Er  Er11  1  0.671757  0.993094  0.749521  1
  Er  Er12  1  0.358898  0.150168  0.624357  1
  Er  Er13  1  0.645388  0.832291  0.378899  1
  Er  Er14  1  0.140636  0.680802  0.370340  1
  Er  Er15  1  0.673511  0.822028  0.121559  1
  Er  Er16  1  0.838342  0.330928  0.623395  1
  Er  Er17  1  0.324783  0.176831  0.878550  1
  Er  Er18  1  0.824461  0.322691  0.878081  1
  Er  Er19  1  0.174334  0.677476  0.122347  1
  Si  Si20  1  0.042324  0.111981  0.752375  1
  Si  Si21  1  0.955846  0.893241  0.245011  1
  Si  Si22  1  0.458060  0.609514  0.247010  1
  Si  Si23  1  0.538369  0.390527  0.753263  1
  Si  Si24  1  0.288143  0.866550  0.754224  1
  Si  Si25  1  0.714863  0.128052  0.245998  1
  Si  Si26  1  0.213452  0.371936  0.247241  1
  Si  Si27  1  0.789094  0.630423  0.753049  1
  Si  Si28  1  0.796825  0.535261  0.456736  1
  Si  Si29  1  0.299133  0.967071  0.456209  1
  Si  Si30  1  0.853155  0.529284  0.041495  1
  Si  Si31  1  0.701465  0.033183  0.542722  1
  Si  Si32  1  0.144870  0.471515  0.959252  1
  Si  Si33  1  0.645468  0.029546  0.959075  1
  Si  Si34  1  0.352841  0.971535  0.041861  1
  Bi  Bi35  1  0.203242  0.462375  0.536911  1
