# generated using pymatgen
data_Yb14GaBi11
_symmetry_space_group_name_H-M   'P 1'
_cell_length_a   16.62248978
_cell_length_b   16.62248993
_cell_length_c   16.62249000
_cell_angle_alpha   117.95788847
_cell_angle_beta   117.95788874
_cell_angle_gamma   93.57499998
_symmetry_Int_Tables_number   1
_chemical_formula_structural   Yb14GaBi11
_chemical_formula_sum   'Yb56 Ga4 Bi44'
_cell_volume   3340.88960585
_cell_formula_units_Z   4
loop_
 _symmetry_equiv_pos_site_id
 _symmetry_equiv_pos_as_xyz
  1  'x, y, z'
loop_
 _atom_site_type_symbol
 _atom_site_label
 _atom_site_symmetry_multiplicity
 _atom_site_fract_x
 _atom_site_fract_y
 _atom_site_fract_z
 _atom_site_occupancy
  Yb  Yb0  1  0.003501  0.722290  0.633337  1
  Yb  Yb1  1  0.503501  0.870164  0.281211  1
  Yb  Yb2  1  0.972290  0.753501  0.133337  1
  Yb  Yb3  1  0.472290  0.338953  0.218789  1
  Yb  Yb4  1  0.746499  0.527710  0.866663  1
  Yb  Yb5  1  0.246499  0.379836  0.218789  1
  Yb  Yb6  1  0.777710  0.496499  0.366663  1
  Yb  Yb7  1  0.277710  0.911047  0.281211  1
  Yb  Yb8  1  0.588953  0.222290  0.718789  1
  Yb  Yb9  1  0.088953  0.370164  0.366663  1
  Yb  Yb10  1  0.120164  0.253501  0.781211  1
  Yb  Yb11  1  0.620164  0.838953  0.866663  1
  Yb  Yb12  1  0.161047  0.027710  0.781211  1
  Yb  Yb13  1  0.661047  0.879836  0.133337  1
  Yb  Yb14  1  0.629836  0.996499  0.718789  1
  Yb  Yb15  1  0.129836  0.411047  0.633337  1
  Yb  Yb16  1  0.848734  0.744836  0.850812  1
  Yb  Yb17  1  0.348734  0.497922  0.103898  1
  Yb  Yb18  1  0.994836  0.598734  0.350812  1
  Yb  Yb19  1  0.494836  0.144024  0.396102  1
  Yb  Yb20  1  0.901266  0.505164  0.649188  1
  Yb  Yb21  1  0.401266  0.752078  0.396102  1
  Yb  Yb22  1  0.755164  0.651266  0.149188  1
  Yb  Yb23  1  0.255164  0.105976  0.103898  1
  Yb  Yb24  1  0.394024  0.244836  0.896102  1
  Yb  Yb25  1  0.894024  0.997922  0.149188  1
  Yb  Yb26  1  0.747922  0.098734  0.603898  1
  Yb  Yb27  1  0.247922  0.644024  0.649188  1
  Yb  Yb28  1  0.355976  0.005164  0.603898  1
  Yb  Yb29  1  0.855976  0.252078  0.350812  1
  Yb  Yb30  1  0.002078  0.151266  0.896102  1
  Yb  Yb31  1  0.502078  0.605976  0.850812  1
  Yb  Yb32  1  0.978845  0.375000  0.103845  1
  Yb  Yb33  1  0.478845  0.375000  0.603845  1
  Yb  Yb34  1  0.625000  0.728845  0.603845  1
  Yb  Yb35  1  0.125000  0.521155  0.896155  1
  Yb  Yb36  1  0.771155  0.875000  0.396155  1
  Yb  Yb37  1  0.271155  0.875000  0.896155  1
  Yb  Yb38  1  0.625000  0.228845  0.103845  1
  Yb  Yb39  1  0.125000  0.021155  0.396155  1
  Yb  Yb40  1  0.212369  0.192649  0.340291  1
  Yb  Yb41  1  0.712369  0.372078  0.019720  1
  Yb  Yb42  1  0.442649  0.962369  0.840291  1
  Yb  Yb43  1  0.942649  0.102358  0.480280  1
  Yb  Yb44  1  0.537631  0.057351  0.159709  1
  Yb  Yb45  1  0.037631  0.877922  0.480280  1
  Yb  Yb46  1  0.307351  0.287631  0.659709  1
  Yb  Yb47  1  0.807351  0.147642  0.019720  1
  Yb  Yb48  1  0.352358  0.692649  0.980280  1
  Yb  Yb49  1  0.852358  0.872078  0.659709  1
  Yb  Yb50  1  0.622078  0.462369  0.519720  1
  Yb  Yb51  1  0.122078  0.602358  0.159709  1
  Yb  Yb52  1  0.397642  0.557351  0.519720  1
  Yb  Yb53  1  0.897642  0.377922  0.840291  1
  Yb  Yb54  1  0.127922  0.787631  0.980280  1
  Yb  Yb55  1  0.627922  0.647642  0.340291  1
  Ga  Ga56  1  0.000000  0.000000  0.000000  1
  Ga  Ga57  1  0.500000  0.500000  0.000000  1
  Ga  Ga58  1  0.250000  0.750000  0.500000  1
  Ga  Ga59  1  0.750000  0.250000  0.500000  1
  Bi  Bi60  1  0.886659  0.886659  0.273318  1
  Bi  Bi61  1  0.386659  0.113341  0.000000  1
  Bi  Bi62  1  0.136659  0.636659  0.773318  1
  Bi  Bi63  1  0.636659  0.863341  0.500000  1
  Bi  Bi64  1  0.863341  0.363341  0.226682  1
  Bi  Bi65  1  0.363341  0.136659  0.500000  1
  Bi  Bi66  1  0.613341  0.613341  0.726682  1
  Bi  Bi67  1  0.113341  0.386659  0.000000  1
  Bi  Bi68  1  0.071070  0.923755  0.863413  1
  Bi  Bi69  1  0.571070  0.707657  0.147315  1
  Bi  Bi70  1  0.173755  0.821070  0.363413  1
  Bi  Bi71  1  0.673755  0.310342  0.352685  1
  Bi  Bi72  1  0.678930  0.326245  0.636587  1
  Bi  Bi73  1  0.178930  0.542343  0.352685  1
  Bi  Bi74  1  0.576245  0.428930  0.136587  1
  Bi  Bi75  1  0.076245  0.939658  0.147315  1
  Bi  Bi76  1  0.560342  0.423755  0.852685  1
  Bi  Bi77  1  0.060342  0.207657  0.136587  1
  Bi  Bi78  1  0.957657  0.321070  0.647315  1
  Bi  Bi79  1  0.457657  0.810342  0.636587  1
  Bi  Bi80  1  0.189658  0.826245  0.647315  1
  Bi  Bi81  1  0.689658  0.042343  0.363413  1
  Bi  Bi82  1  0.792343  0.928930  0.852685  1
  Bi  Bi83  1  0.292343  0.439658  0.863413  1
  Bi  Bi84  1  0.791316  0.645486  0.592298  1
  Bi  Bi85  1  0.291316  0.699018  0.145830  1
  Bi  Bi86  1  0.895486  0.541316  0.092298  1
  Bi  Bi87  1  0.395486  0.303188  0.354170  1
  Bi  Bi88  1  0.958684  0.604514  0.907702  1
  Bi  Bi89  1  0.458684  0.550982  0.354170  1
  Bi  Bi90  1  0.854514  0.708684  0.407702  1
  Bi  Bi91  1  0.354514  0.946812  0.145830  1
  Bi  Bi92  1  0.553188  0.145486  0.854170  1
  Bi  Bi93  1  0.053188  0.199018  0.407702  1
  Bi  Bi94  1  0.949018  0.041316  0.645830  1
  Bi  Bi95  1  0.449018  0.803188  0.907702  1
  Bi  Bi96  1  0.196812  0.104514  0.645830  1
  Bi  Bi97  1  0.696812  0.050982  0.092298  1
  Bi  Bi98  1  0.800982  0.208684  0.854170  1
  Bi  Bi99  1  0.300982  0.446812  0.592298  1
  Bi  Bi100  1  0.750000  0.750000  0.000000  1
  Bi  Bi101  1  0.250000  0.250000  0.000000  1
  Bi  Bi102  1  0.000000  0.500000  0.500000  1
  Bi  Bi103  1  0.500000  0.000000  0.500000  1
