# generated using pymatgen
data_LaZn9Cu2
_symmetry_space_group_name_H-M   'P 1'
_cell_length_a   8.20948645
_cell_length_b   8.21159328
_cell_length_c   8.20948697
_cell_angle_alpha   99.70520406
_cell_angle_beta   99.82248393
_cell_angle_gamma   131.34656481
_symmetry_Int_Tables_number   1
_chemical_formula_structural   LaZn9Cu2
_chemical_formula_sum   'La2 Zn18 Cu4'
_cell_volume   378.63101525
_cell_formula_units_Z   2
loop_
 _symmetry_equiv_pos_site_id
 _symmetry_equiv_pos_as_xyz
  1  'x, y, z'
loop_
 _atom_site_type_symbol
 _atom_site_label
 _atom_site_symmetry_multiplicity
 _atom_site_fract_x
 _atom_site_fract_y
 _atom_site_fract_z
 _atom_site_occupancy
  La  La0  1  0.250279  0.750262  0.499983  1
  La  La1  1  0.999721  0.999738  0.000017  1
  Zn  Zn2  1  0.895136  0.569046  0.082398  1
  Zn  Zn3  1  0.430918  0.513383  0.326187  1
  Zn  Zn4  1  0.486648  0.569046  0.673910  1
  Zn  Zn5  1  0.430812  0.104709  0.917488  1
  Zn  Zn6  1  0.763352  0.180954  0.826090  1
  Zn  Zn7  1  0.486756  0.812786  0.917588  1
  Zn  Zn8  1  0.499984  0.499904  0.999920  1
  Zn  Zn9  1  0.763244  0.937214  0.582412  1
  Zn  Zn10  1  0.750016  0.250096  0.500080  1
  Zn  Zn11  1  0.062779  0.645291  0.826103  1
  Zn  Zn12  1  0.354864  0.180954  0.417602  1
  Zn  Zn13  1  0.819188  0.645291  0.582512  1
  Zn  Zn14  1  0.895198  0.812786  0.326030  1
  Zn  Zn15  1  0.187221  0.104709  0.673897  1
  Zn  Zn16  1  0.062805  0.236617  0.417536  1
  Zn  Zn17  1  0.354802  0.937214  0.173970  1
  Zn  Zn18  1  0.819082  0.236617  0.173813  1
  Zn  Zn19  1  0.187195  0.513383  0.082464  1
  Cu  Cu20  1  0.625000  0.875000  0.250000  1
  Cu  Cu21  1  0.125000  0.375000  0.750000  1
  Cu  Cu22  1  0.625000  0.375000  0.250000  1
  Cu  Cu23  1  0.625000  0.375000  0.750000  1
