# generated using pymatgen
data_Yb7Dy(LuSn3)2
_symmetry_space_group_name_H-M   'P 1'
_cell_length_a   9.26087170
_cell_length_b   9.26087124
_cell_length_c   9.24940200
_cell_angle_alpha   96.68180626
_cell_angle_beta   96.92818289
_cell_angle_gamma   139.75712697
_symmetry_Int_Tables_number   1
_chemical_formula_structural   Yb7Dy(LuSn3)2
_chemical_formula_sum   'Yb7 Dy1 Lu2 Sn6'
_cell_volume   481.11125335
_cell_formula_units_Z   1
loop_
 _symmetry_equiv_pos_site_id
 _symmetry_equiv_pos_as_xyz
  1  'x, y, z'
loop_
 _atom_site_type_symbol
 _atom_site_label
 _atom_site_symmetry_multiplicity
 _atom_site_fract_x
 _atom_site_fract_y
 _atom_site_fract_z
 _atom_site_occupancy
  Yb  Yb0  1  0.915861  0.212005  0.127866  1
  Yb  Yb1  1  0.212500  0.080977  0.293476  1
  Yb  Yb2  1  0.785719  0.918583  0.704303  1
  Yb  Yb3  1  0.086177  0.787817  0.873995  1
  Yb  Yb4  1  0.714727  0.415736  0.130463  1
  Yb  Yb5  1  0.286448  0.584751  0.871199  1
  Yb  Yb6  1  0.585653  0.714087  0.299741  1
  Dy  Dy7  1  0.414796  0.287169  0.701966  1
  Lu  Lu8  1  0.747746  0.248919  0.498563  1
  Lu  Lu9  1  0.249644  0.750816  0.498563  1
  Sn  Sn10  1  0.744945  0.743648  0.996586  1
  Sn  Sn11  1  0.252938  0.251641  0.996586  1
  Sn  Sn12  1  0.850659  0.656279  0.506938  1
  Sn  Sn13  1  0.649456  0.153668  0.803124  1
  Sn  Sn14  1  0.348085  0.846623  0.194707  1
  Sn  Sn15  1  0.154646  0.347279  0.501925  1
