# generated using pymatgen
data_Tb15Er(TlPd)4
_symmetry_space_group_name_H-M   'P 1'
_cell_length_a   9.77490575
_cell_length_b   9.78708838
_cell_length_c   9.77491700
_cell_angle_alpha   59.95827059
_cell_angle_beta   59.87245651
_cell_angle_gamma   59.95806390
_symmetry_Int_Tables_number   1
_chemical_formula_structural   Tb15Er(TlPd)4
_chemical_formula_sum   'Tb15 Er1 Tl4 Pd4'
_cell_volume   660.19074799
_cell_formula_units_Z   1
loop_
 _symmetry_equiv_pos_site_id
 _symmetry_equiv_pos_as_xyz
  1  'x, y, z'
loop_
 _atom_site_type_symbol
 _atom_site_label
 _atom_site_symmetry_multiplicity
 _atom_site_fract_x
 _atom_site_fract_y
 _atom_site_fract_z
 _atom_site_occupancy
  Tb  Tb0  1  0.188858  0.189393  0.810711  1
  Tb  Tb1  1  0.436056  0.061689  0.063827  1
  Tb  Tb2  1  0.435987  0.064008  0.435989  1
  Tb  Tb3  1  0.061508  0.438478  0.061509  1
  Tb  Tb4  1  0.648048  0.055934  0.648033  1
  Tb  Tb5  1  0.188868  0.811022  0.810702  1
  Tb  Tb6  1  0.063818  0.061687  0.436050  1
  Tb  Tb7  1  0.810699  0.189383  0.188874  1
  Tb  Tb8  1  0.810710  0.811021  0.188868  1
  Tb  Tb9  1  0.647053  0.646574  0.059774  1
  Tb  Tb10  1  0.648028  0.647978  0.648051  1
  Tb  Tb11  1  0.063820  0.438437  0.436043  1
  Tb  Tb12  1  0.059756  0.646592  0.647054  1
  Tb  Tb13  1  0.810388  0.189591  0.810394  1
  Tb  Tb14  1  0.436052  0.438433  0.063829  1
  Er  Er15  1  0.189743  0.810424  0.189753  1
  Tl  Tl16  1  0.413561  0.759862  0.413560  1
  Tl  Tl17  1  0.414958  0.413994  0.757043  1
  Tl  Tl18  1  0.757035  0.413993  0.414963  1
  Tl  Tl19  1  0.413557  0.413004  0.413559  1
  Pd  Pd20  1  0.855869  0.433311  0.855808  1
  Pd  Pd21  1  0.859212  0.855062  0.430541  1
  Pd  Pd22  1  0.430578  0.855161  0.859202  1
  Pd  Pd23  1  0.855840  0.854970  0.855861  1
