# generated using pymatgen
data_NaNd6CuBr12
_symmetry_space_group_name_H-M   'P 1'
_cell_length_a   9.52449538
_cell_length_b   9.52888978
_cell_length_c   9.52361700
_cell_angle_alpha   107.11765420
_cell_angle_beta   107.12745759
_cell_angle_gamma   107.16329983
_symmetry_Int_Tables_number   1
_chemical_formula_structural   NaNd6CuBr12
_chemical_formula_sum   'Na1 Nd6 Cu1 Br12'
_cell_volume   717.14314538
_cell_formula_units_Z   1
loop_
 _symmetry_equiv_pos_site_id
 _symmetry_equiv_pos_as_xyz
  1  'x, y, z'
loop_
 _atom_site_type_symbol
 _atom_site_label
 _atom_site_symmetry_multiplicity
 _atom_site_fract_x
 _atom_site_fract_y
 _atom_site_fract_z
 _atom_site_occupancy
  Na  Na0  1  0.500000  0.500000  0.500000  1
  Nd  Nd1  1  0.324123  0.112645  0.031531  1
  Nd  Nd2  1  0.031393  0.323928  0.112294  1
  Nd  Nd3  1  0.112486  0.031585  0.324121  1
  Nd  Nd4  1  0.887513  0.968415  0.675879  1
  Nd  Nd5  1  0.968607  0.676072  0.887705  1
  Nd  Nd6  1  0.675877  0.887355  0.968468  1
  Cu  Cu7  1  0.000000  0.000000  0.000000  1
  Br  Br8  1  0.685418  0.219145  0.073316  1
  Br  Br9  1  0.371462  0.452594  0.153299  1
  Br  Br10  1  0.073414  0.685579  0.219548  1
  Br  Br11  1  0.780546  0.926946  0.314668  1
  Br  Br12  1  0.452609  0.153394  0.371453  1
  Br  Br13  1  0.153160  0.371348  0.452417  1
  Br  Br14  1  0.846841  0.628652  0.547584  1
  Br  Br15  1  0.547391  0.846607  0.628547  1
  Br  Br16  1  0.219453  0.073054  0.685332  1
  Br  Br17  1  0.926586  0.314421  0.780451  1
  Br  Br18  1  0.628539  0.547407  0.846701  1
  Br  Br19  1  0.314582  0.780854  0.926684  1
