# generated using pymatgen
data_La8TbPt6
_symmetry_space_group_name_H-M   'P 1'
_cell_length_a   7.81871249
_cell_length_b   7.81871338
_cell_length_c   7.81871300
_cell_angle_alpha   71.72413842
_cell_angle_beta   71.72413460
_cell_angle_gamma   71.72414035
_symmetry_Int_Tables_number   1
_chemical_formula_structural   La8TbPt6
_chemical_formula_sum   'La8 Tb1 Pt6'
_cell_volume   418.51045602
_cell_formula_units_Z   1
loop_
 _symmetry_equiv_pos_site_id
 _symmetry_equiv_pos_as_xyz
  1  'x, y, z'
loop_
 _atom_site_type_symbol
 _atom_site_label
 _atom_site_symmetry_multiplicity
 _atom_site_fract_x
 _atom_site_fract_y
 _atom_site_fract_z
 _atom_site_occupancy
  La  La0  1  0.800515  0.800515  0.800515  1
  La  La1  1  0.199485  0.199485  0.199485  1
  La  La2  1  0.328040  0.610666  0.836335  1
  La  La3  1  0.836335  0.328040  0.610666  1
  La  La4  1  0.610666  0.836335  0.328040  1
  La  La5  1  0.671960  0.389334  0.163665  1
  La  La6  1  0.163665  0.671960  0.389334  1
  La  La7  1  0.389334  0.163665  0.671960  1
  Tb  Tb8  1  0.000000  0.000000  0.000000  1
  Pt  Pt9  1  0.162081  0.960149  0.595879  1
  Pt  Pt10  1  0.595879  0.162081  0.960149  1
  Pt  Pt11  1  0.960149  0.595879  0.162081  1
  Pt  Pt12  1  0.837919  0.039851  0.404121  1
  Pt  Pt13  1  0.404121  0.837919  0.039851  1
  Pt  Pt14  1  0.039851  0.404121  0.837919  1
