# generated using pymatgen
data_La3Nd5Cd2PdRu
_symmetry_space_group_name_H-M   'P 1'
_cell_length_a   10.00575879
_cell_length_b   10.06019200
_cell_length_c   10.13115024
_cell_angle_alpha   59.41041472
_cell_angle_beta   59.94186152
_cell_angle_gamma   59.84609766
_symmetry_Int_Tables_number   1
_chemical_formula_structural   La3Nd5Cd2PdRu
_chemical_formula_sum   'La6 Nd10 Cd4 Pd2 Ru2'
_cell_volume   716.69639116
_cell_formula_units_Z   2
loop_
 _symmetry_equiv_pos_site_id
 _symmetry_equiv_pos_as_xyz
  1  'x, y, z'
loop_
 _atom_site_type_symbol
 _atom_site_label
 _atom_site_symmetry_multiplicity
 _atom_site_fract_x
 _atom_site_fract_y
 _atom_site_fract_z
 _atom_site_occupancy
  La  La0  1  0.346645  0.346221  0.358266  1
  La  La1  1  0.346221  0.346645  0.948869  1
  La  La2  1  0.344571  0.957410  0.345783  1
  La  La3  1  0.957410  0.344571  0.352236  1
  La  La4  1  0.822832  0.186157  0.189290  1
  La  La5  1  0.186157  0.822832  0.801720  1
  Nd  Nd6  1  0.190744  0.812843  0.193146  1
  Nd  Nd7  1  0.812843  0.190744  0.803266  1
  Nd  Nd8  1  0.189835  0.189835  0.810165  1
  Nd  Nd9  1  0.804153  0.804153  0.195847  1
  Nd  Nd10  1  0.933773  0.562017  0.569509  1
  Nd  Nd11  1  0.562017  0.933773  0.934702  1
  Nd  Nd12  1  0.560355  0.934674  0.566510  1
  Nd  Nd13  1  0.934674  0.560355  0.938459  1
  Nd  Nd14  1  0.562887  0.562887  0.937113  1
  Nd  Nd15  1  0.936219  0.936219  0.563781  1
  Cd  Cd16  1  0.581269  0.579515  0.580363  1
  Cd  Cd17  1  0.579515  0.581269  0.258851  1
  Cd  Cd18  1  0.581298  0.256012  0.582738  1
  Cd  Cd19  1  0.256012  0.581298  0.579951  1
  Pd  Pd20  1  0.148952  0.575946  0.135649  1
  Pd  Pd21  1  0.575946  0.148952  0.139455  1
  Ru  Ru22  1  0.135699  0.149971  0.139384  1
  Ru  Ru23  1  0.149971  0.135699  0.574947  1
