# generated using pymatgen
data_DyTmAlRe3
_symmetry_space_group_name_H-M   'P 1'
_cell_length_a   5.34433600
_cell_length_b   5.34433622
_cell_length_c   9.00140100
_cell_angle_alpha   90.00000000
_cell_angle_beta   90.00000000
_cell_angle_gamma   119.99999862
_symmetry_Int_Tables_number   1
_chemical_formula_structural   DyTmAlRe3
_chemical_formula_sum   'Dy2 Tm2 Al2 Re6'
_cell_volume   222.65285808
_cell_formula_units_Z   2
loop_
 _symmetry_equiv_pos_site_id
 _symmetry_equiv_pos_as_xyz
  1  'x, y, z'
loop_
 _atom_site_type_symbol
 _atom_site_label
 _atom_site_symmetry_multiplicity
 _atom_site_fract_x
 _atom_site_fract_y
 _atom_site_fract_z
 _atom_site_occupancy
  Dy  Dy0  1  0.333333  0.666667  0.433101  1
  Dy  Dy1  1  0.666667  0.333333  0.566899  1
  Tm  Tm2  1  0.666667  0.333333  0.933096  1
  Tm  Tm3  1  0.333333  0.666667  0.066904  1
  Al  Al4  1  0.000000  0.000000  0.500000  1
  Al  Al5  1  0.000000  0.000000  0.000000  1
  Re  Re6  1  0.830474  0.169526  0.248567  1
  Re  Re7  1  0.830474  0.660947  0.248567  1
  Re  Re8  1  0.339053  0.169526  0.248567  1
  Re  Re9  1  0.169526  0.830474  0.751433  1
  Re  Re10  1  0.169526  0.339053  0.751433  1
  Re  Re11  1  0.660947  0.830474  0.751433  1
