# generated using pymatgen
data_Tb3YbIr3Ru5
_symmetry_space_group_name_H-M   'P 1'
_cell_length_a   5.21066580
_cell_length_b   5.33840521
_cell_length_c   8.91385575
_cell_angle_alpha   90.03625067
_cell_angle_beta   90.00713996
_cell_angle_gamma   119.51313013
_symmetry_Int_Tables_number   1
_chemical_formula_structural   Tb3YbIr3Ru5
_chemical_formula_sum   'Tb3 Yb1 Ir3 Ru5'
_cell_volume   215.77974128
_cell_formula_units_Z   1
loop_
 _symmetry_equiv_pos_site_id
 _symmetry_equiv_pos_as_xyz
  1  'x, y, z'
loop_
 _atom_site_type_symbol
 _atom_site_label
 _atom_site_symmetry_multiplicity
 _atom_site_fract_x
 _atom_site_fract_y
 _atom_site_fract_z
 _atom_site_occupancy
  Tb  Tb0  1  0.666084  0.332889  0.575333  1
  Tb  Tb1  1  0.333741  0.667412  0.431654  1
  Tb  Tb2  1  0.333587  0.666796  0.062143  1
  Yb  Yb3  1  0.666222  0.332729  0.933850  1
  Ir  Ir4  1  0.998776  0.998013  0.499345  1
  Ir  Ir5  1  0.999284  0.998922  0.998523  1
  Ir  Ir6  1  0.169331  0.339416  0.749524  1
  Ru  Ru7  1  0.172154  0.830587  0.749815  1
  Ru  Ru8  1  0.659147  0.830781  0.749795  1
  Ru  Ru9  1  0.829474  0.659002  0.249829  1
  Ru  Ru10  1  0.829355  0.171425  0.250037  1
  Ru  Ru11  1  0.342847  0.172027  0.250151  1
