# generated using pymatgen
data_Tb4Dy(In2Au)2
_symmetry_space_group_name_H-M   'P 1'
_cell_length_a   3.68698900
_cell_length_b   8.23742730
_cell_length_c   18.49144700
_cell_angle_alpha   89.94870286
_cell_angle_beta   90.00000000
_cell_angle_gamma   90.00000000
_symmetry_Int_Tables_number   1
_chemical_formula_structural   Tb4Dy(In2Au)2
_chemical_formula_sum   'Tb8 Dy2 In8 Au4'
_cell_volume   561.60913035
_cell_formula_units_Z   2
loop_
 _symmetry_equiv_pos_site_id
 _symmetry_equiv_pos_as_xyz
  1  'x, y, z'
loop_
 _atom_site_type_symbol
 _atom_site_label
 _atom_site_symmetry_multiplicity
 _atom_site_fract_x
 _atom_site_fract_y
 _atom_site_fract_z
 _atom_site_occupancy
  Tb  Tb0  1  0.000000  0.500000  0.500000  1
  Tb  Tb1  1  0.000000  0.000000  0.000000  1
  Tb  Tb2  1  0.000000  0.736074  0.283192  1
  Tb  Tb3  1  0.000000  0.263926  0.716808  1
  Tb  Tb4  1  0.000000  0.764206  0.782295  1
  Tb  Tb5  1  0.000000  0.235794  0.217705  1
  Tb  Tb6  1  0.000000  0.619820  0.079772  1
  Tb  Tb7  1  0.000000  0.380180  0.920228  1
  Dy  Dy8  1  0.000000  0.880117  0.579866  1
  Dy  Dy9  1  0.000000  0.119883  0.420134  1
  In  In10  1  0.500000  0.710877  0.932548  1
  In  In11  1  0.500000  0.289123  0.067452  1
  In  In12  1  0.500000  0.791060  0.433850  1
  In  In13  1  0.500000  0.208940  0.566150  1
  In  In14  1  0.500000  0.581568  0.646663  1
  In  In15  1  0.500000  0.418432  0.353337  1
  In  In16  1  0.500000  0.920231  0.147586  1
  In  In17  1  0.500000  0.079769  0.852414  1
  Au  Au18  1  0.500000  0.526351  0.196840  1
  Au  Au19  1  0.500000  0.473649  0.803160  1
  Au  Au20  1  0.500000  0.973193  0.695491  1
  Au  Au21  1  0.500000  0.026807  0.304509  1
