# generated using pymatgen
data_Ca2Co2PtN3
_symmetry_space_group_name_H-M   'P 1'
_cell_length_a   6.24604841
_cell_length_b   6.24604947
_cell_length_c   6.29010100
_cell_angle_alpha   89.91792804
_cell_angle_beta   89.91792803
_cell_angle_gamma   116.30388596
_symmetry_Int_Tables_number   1
_chemical_formula_structural   Ca2Co2PtN3
_chemical_formula_sum   'Ca4 Co4 Pt2 N6'
_cell_volume   219.98645725
_cell_formula_units_Z   2
loop_
 _symmetry_equiv_pos_site_id
 _symmetry_equiv_pos_as_xyz
  1  'x, y, z'
loop_
 _atom_site_type_symbol
 _atom_site_label
 _atom_site_symmetry_multiplicity
 _atom_site_fract_x
 _atom_site_fract_y
 _atom_site_fract_z
 _atom_site_occupancy
  Ca  Ca0  1  0.827651  0.677129  0.889663  1
  Ca  Ca1  1  0.322871  0.172349  0.610337  1
  Ca  Ca2  1  0.172349  0.322871  0.110337  1
  Ca  Ca3  1  0.677129  0.827651  0.389663  1
  Co  Co4  1  0.569366  0.174851  0.098404  1
  Co  Co5  1  0.430634  0.825149  0.901596  1
  Co  Co6  1  0.825149  0.430634  0.401596  1
  Co  Co7  1  0.174851  0.569366  0.598404  1
  Pt  Pt8  1  0.814996  0.185004  0.750000  1
  Pt  Pt9  1  0.185004  0.814996  0.250000  1
  N  N10  1  0.420721  0.579279  0.750000  1
  N  N11  1  0.579279  0.420721  0.250000  1
  N  N12  1  0.995249  0.731049  0.525433  1
  N  N13  1  0.731049  0.995249  0.025433  1
  N  N14  1  0.004751  0.268951  0.474567  1
  N  N15  1  0.268951  0.004751  0.974567  1
