# generated using pymatgen
data_Cs2VCuS4
_symmetry_space_group_name_H-M   'P 1'
_cell_length_a   14.27515241
_cell_length_b   12.69293463
_cell_length_c   7.59830005
_cell_angle_alpha   85.52060717
_cell_angle_beta   62.43009436
_cell_angle_gamma   32.04929289
_symmetry_Int_Tables_number   1
_chemical_formula_structural   Cs2VCuS4
_chemical_formula_sum   'Cs4 V2 Cu2 S8'
_cell_volume   481.97049897
_cell_formula_units_Z   2
loop_
 _symmetry_equiv_pos_site_id
 _symmetry_equiv_pos_as_xyz
  1  'x, y, z'
loop_
 _atom_site_type_symbol
 _atom_site_label
 _atom_site_symmetry_multiplicity
 _atom_site_fract_x
 _atom_site_fract_y
 _atom_site_fract_z
 _atom_site_occupancy
  Cs  Cs0  1  0.572576  0.572576  0.927424  1
  Cs  Cs1  1  0.927424  0.927424  0.572576  1
  Cs  Cs2  1  0.322576  0.322576  0.677424  1
  Cs  Cs3  1  0.677424  0.677424  0.322576  1
  V  V4  1  0.750000  0.750000  0.750000  1
  V  V5  1  0.500000  0.500000  0.500000  1
  Cu  Cu6  1  0.000000  0.000000  0.000000  1
  Cu  Cu7  1  0.250000  0.250000  0.250000  1
  S  S8  1  0.230824  0.870110  0.591253  1
  S  S9  1  0.307813  0.591253  0.870110  1
  S  S10  1  0.591253  0.307813  0.230824  1
  S  S11  1  0.870110  0.230824  0.307813  1
  S  S12  1  0.379890  0.019176  0.942187  1
  S  S13  1  0.942187  0.658747  0.379890  1
  S  S14  1  0.658747  0.942187  0.019176  1
  S  S15  1  0.019176  0.379890  0.658747  1
