# generated using pymatgen
data_Li3Tb3InHg2
_symmetry_space_group_name_H-M   'P 1'
_cell_length_a   7.13048200
_cell_length_b   7.13048339
_cell_length_c   4.85751500
_cell_angle_alpha   90.00000000
_cell_angle_beta   90.00000000
_cell_angle_gamma   120.00001212
_symmetry_Int_Tables_number   1
_chemical_formula_structural   Li3Tb3InHg2
_chemical_formula_sum   'Li3 Tb3 In1 Hg2'
_cell_volume   213.88611363
_cell_formula_units_Z   1
loop_
 _symmetry_equiv_pos_site_id
 _symmetry_equiv_pos_as_xyz
  1  'x, y, z'
loop_
 _atom_site_type_symbol
 _atom_site_label
 _atom_site_symmetry_multiplicity
 _atom_site_fract_x
 _atom_site_fract_y
 _atom_site_fract_z
 _atom_site_occupancy
  Li  Li0  1  0.767485  0.767485  0.500000  1
  Li  Li1  1  0.232515  0.000000  0.500000  1
  Li  Li2  1  0.000000  0.232515  0.500000  1
  Tb  Tb3  1  0.436351  0.436351  0.000000  1
  Tb  Tb4  1  0.563649  0.000000  0.000000  1
  Tb  Tb5  1  0.000000  0.563649  0.000000  1
  In  In6  1  0.000000  0.000000  0.000000  1
  Hg  Hg7  1  0.666667  0.333333  0.500000  1
  Hg  Hg8  1  0.333333  0.666667  0.500000  1
