# generated using pymatgen
data_Ho5Pa3(TlPt2)4
_symmetry_space_group_name_H-M   'P 1'
_cell_length_a   7.94823800
_cell_length_b   7.94823789
_cell_length_c   7.18917200
_cell_angle_alpha   90.00000000
_cell_angle_beta   90.00000000
_cell_angle_gamma   90.64963259
_symmetry_Int_Tables_number   1
_chemical_formula_structural   Ho5Pa3(TlPt2)4
_chemical_formula_sum   'Ho5 Pa3 Tl4 Pt8'
_cell_volume   454.14305607
_cell_formula_units_Z   1
loop_
 _symmetry_equiv_pos_site_id
 _symmetry_equiv_pos_as_xyz
  1  'x, y, z'
loop_
 _atom_site_type_symbol
 _atom_site_label
 _atom_site_symmetry_multiplicity
 _atom_site_fract_x
 _atom_site_fract_y
 _atom_site_fract_z
 _atom_site_occupancy
  Ho  Ho0  1  0.339709  0.343314  0.500000  1
  Ho  Ho1  1  0.656686  0.660291  0.500000  1
  Ho  Ho2  1  0.177442  0.822558  0.500000  1
  Ho  Ho3  1  0.840388  0.159612  0.000000  1
  Ho  Ho4  1  0.158884  0.841116  0.000000  1
  Pa  Pa5  1  0.679648  0.676063  0.000000  1
  Pa  Pa6  1  0.824731  0.175269  0.500000  1
  Pa  Pa7  1  0.323937  0.320352  0.000000  1
  Tl  Tl8  1  0.496249  0.997525  0.747844  1
  Tl  Tl9  1  0.496249  0.997525  0.252156  1
  Tl  Tl10  1  0.002475  0.503751  0.747844  1
  Tl  Tl11  1  0.002475  0.503751  0.252156  1
  Pt  Pt12  1  0.865462  0.873693  0.732783  1
  Pt  Pt13  1  0.126307  0.134538  0.732783  1
  Pt  Pt14  1  0.631899  0.368101  0.767386  1
  Pt  Pt15  1  0.631899  0.368101  0.232614  1
  Pt  Pt16  1  0.376896  0.623104  0.220396  1
  Pt  Pt17  1  0.126307  0.134538  0.267217  1
  Pt  Pt18  1  0.865462  0.873693  0.267217  1
  Pt  Pt19  1  0.376896  0.623104  0.779604  1
