# generated using pymatgen
data_Dy9Lu3Ga9Si9Ge2
_symmetry_space_group_name_H-M   'P 1'
_cell_length_a   5.94567259
_cell_length_b   5.94567350
_cell_length_c   18.58259000
_cell_angle_alpha   90.00000000
_cell_angle_beta   90.00000000
_cell_angle_gamma   102.82533762
_symmetry_Int_Tables_number   1
_chemical_formula_structural   Dy9Lu3Ga9Si9Ge2
_chemical_formula_sum   'Dy9 Lu3 Ga9 Si9 Ge2'
_cell_volume   640.52450726
_cell_formula_units_Z   1
loop_
 _symmetry_equiv_pos_site_id
 _symmetry_equiv_pos_as_xyz
  1  'x, y, z'
loop_
 _atom_site_type_symbol
 _atom_site_label
 _atom_site_symmetry_multiplicity
 _atom_site_fract_x
 _atom_site_fract_y
 _atom_site_fract_z
 _atom_site_occupancy
  Dy  Dy0  1  0.659672  0.659672  0.500000  1
  Dy  Dy1  1  0.200896  0.801778  0.128075  1
  Dy  Dy2  1  0.198887  0.801376  0.625242  1
  Dy  Dy3  1  0.200896  0.801778  0.871925  1
  Dy  Dy4  1  0.198887  0.801376  0.374758  1
  Dy  Dy5  1  0.801778  0.200896  0.128075  1
  Dy  Dy6  1  0.801376  0.198887  0.625242  1
  Dy  Dy7  1  0.801376  0.198887  0.374758  1
  Dy  Dy8  1  0.801778  0.200896  0.871925  1
  Lu  Lu9  1  0.652899  0.652899  0.000000  1
  Lu  Lu10  1  0.339615  0.339615  0.250412  1
  Lu  Lu11  1  0.339615  0.339615  0.749588  1
  Ga  Ga12  1  0.318687  0.318687  0.901634  1
  Ga  Ga13  1  0.323486  0.323486  0.401503  1
  Ga  Ga14  1  0.677073  0.677073  0.347666  1
  Ga  Ga15  1  0.676586  0.676586  0.848235  1
  Ga  Ga16  1  0.318687  0.318687  0.098366  1
  Ga  Ga17  1  0.323486  0.323486  0.598497  1
  Ga  Ga18  1  0.676586  0.676586  0.151765  1
  Ga  Ga19  1  0.677073  0.677073  0.652334  1
  Ga  Ga20  1  0.037827  0.037827  0.000000  1
  Si  Si21  1  0.483079  0.088964  0.500000  1
  Si  Si22  1  0.914232  0.517876  0.250383  1
  Si  Si23  1  0.914232  0.517876  0.749617  1
  Si  Si24  1  0.517876  0.914232  0.250383  1
  Si  Si25  1  0.517876  0.914232  0.749617  1
  Si  Si26  1  0.088964  0.483079  0.500000  1
  Si  Si27  1  0.052583  0.052583  0.500000  1
  Si  Si28  1  0.949920  0.949920  0.250750  1
  Si  Si29  1  0.949920  0.949920  0.749250  1
  Ge  Ge30  1  0.497914  0.086238  0.000000  1
  Ge  Ge31  1  0.086238  0.497914  0.000000  1
