# generated using pymatgen
data_Ac5Nd3(Y3In4)4
_symmetry_space_group_name_H-M   'P 1'
_cell_length_a   8.48294917
_cell_length_b   8.48623739
_cell_length_c   15.78507700
_cell_angle_alpha   89.77435380
_cell_angle_beta   90.13392297
_cell_angle_gamma   89.88062579
_symmetry_Int_Tables_number   1
_chemical_formula_structural   Ac5Nd3(Y3In4)4
_chemical_formula_sum   'Ac5 Nd3 Y12 In16'
_cell_volume   1136.32677711
_cell_formula_units_Z   1
loop_
 _symmetry_equiv_pos_site_id
 _symmetry_equiv_pos_as_xyz
  1  'x, y, z'
loop_
 _atom_site_type_symbol
 _atom_site_label
 _atom_site_symmetry_multiplicity
 _atom_site_fract_x
 _atom_site_fract_y
 _atom_site_fract_z
 _atom_site_occupancy
  Ac  Ac0  1  0.645091  0.989836  0.461823  1
  Ac  Ac1  1  0.351990  0.012377  0.965053  1
  Ac  Ac2  1  0.990021  0.646986  0.535118  1
  Ac  Ac3  1  0.487141  0.851423  0.212954  1
  Ac  Ac4  1  0.512298  0.149391  0.715533  1
  Nd  Nd5  1  0.861111  0.497990  0.789668  1
  Nd  Nd6  1  0.142852  0.500111  0.287411  1
  Nd  Nd7  1  0.001125  0.359837  0.036965  1
  Y  Y8  1  0.502742  0.348851  0.124846  1
  Y  Y9  1  0.993333  0.152061  0.627505  1
  Y  Y10  1  0.849792  0.000017  0.876607  1
  Y  Y11  1  0.154646  0.002673  0.372374  1
  Y  Y12  1  0.499348  0.652000  0.625805  1
  Y  Y13  1  0.346947  0.494857  0.877787  1
  Y  Y14  1  0.650168  0.503083  0.372160  1
  Y  Y15  1  0.006367  0.847821  0.126068  1
  Y  Y16  1  0.320713  0.323740  0.500191  1
  Y  Y17  1  0.176160  0.822351  0.751779  1
  Y  Y18  1  0.826611  0.177009  0.249129  1
  Y  Y19  1  0.679008  0.674115  0.000954  1
  In  In20  1  0.281423  0.946756  0.564885  1
  In  In21  1  0.722824  0.056597  0.064898  1
  In  In22  1  0.946630  0.285838  0.433373  1
  In  In23  1  0.442412  0.222331  0.313616  1
  In  In24  1  0.555106  0.777840  0.816431  1
  In  In25  1  0.209678  0.447827  0.685905  1
  In  In26  1  0.795588  0.549790  0.183655  1
  In  In27  1  0.050680  0.706855  0.935339  1
  In  In28  1  0.802353  0.849631  0.687818  1
  In  In29  1  0.194388  0.155091  0.179664  1
  In  In30  1  0.867194  0.794703  0.314601  1
  In  In31  1  0.351836  0.696536  0.430401  1
  In  In32  1  0.654769  0.306735  0.932120  1
  In  In33  1  0.697654  0.358502  0.563512  1
  In  In34  1  0.294274  0.633528  0.067185  1
  In  In35  1  0.135727  0.204912  0.816865  1
