# generated using pymatgen
data_La4PrP12PdRu18
_symmetry_space_group_name_H-M   'P 1'
_cell_length_a   12.66676821
_cell_length_b   12.75581757
_cell_length_c   4.04209200
_cell_angle_alpha   90.00000000
_cell_angle_beta   90.00000000
_cell_angle_gamma   119.74825974
_symmetry_Int_Tables_number   1
_chemical_formula_structural   La4PrP12PdRu18
_chemical_formula_sum   'La4 Pr1 P12 Pd1 Ru18'
_cell_volume   567.03131568
_cell_formula_units_Z   1
loop_
 _symmetry_equiv_pos_site_id
 _symmetry_equiv_pos_as_xyz
  1  'x, y, z'
loop_
 _atom_site_type_symbol
 _atom_site_label
 _atom_site_symmetry_multiplicity
 _atom_site_fract_x
 _atom_site_fract_y
 _atom_site_fract_z
 _atom_site_occupancy
  La  La0  1  0.818468  0.999823  0.500000  1
  La  La1  1  0.000790  0.816811  0.500000  1
  La  La2  1  0.184127  0.183071  0.500000  1
  La  La3  1  0.331627  0.662532  0.000000  1
  Pr  Pr4  1  0.669246  0.337819  0.000000  1
  P  P5  1  0.192730  0.000539  0.000000  1
  P  P6  1  0.998708  0.187698  0.000000  1
  P  P7  1  0.811270  0.812301  0.000000  1
  P  P8  1  0.522700  0.694334  0.500000  1
  P  P9  1  0.297411  0.820059  0.500000  1
  P  P10  1  0.168575  0.472606  0.500000  1
  P  P11  1  0.478319  0.180751  0.500000  1
  P  P12  1  0.696006  0.526589  0.500000  1
  P  P13  1  0.827509  0.305529  0.500000  1
  P  P14  1  0.631181  0.999977  0.000000  1
  P  P15  1  0.998963  0.622916  0.000000  1
  P  P16  1  0.376145  0.377225  0.000000  1
  Pd  Pd17  1  0.447256  0.000012  0.000000  1
  Ru  Ru18  1  0.998308  0.444146  0.000000  1
  Ru  Ru19  1  0.554574  0.555559  0.000000  1
  Ru  Ru20  1  0.291604  0.000263  0.500000  1
  Ru  Ru21  1  0.997771  0.284569  0.500000  1
  Ru  Ru22  1  0.713374  0.714921  0.500000  1
  Ru  Ru23  1  0.619349  0.805027  0.000000  1
  Ru  Ru24  1  0.194664  0.814324  0.000000  1
  Ru  Ru25  1  0.182815  0.376387  0.000000  1
  Ru  Ru26  1  0.380919  0.186022  0.000000  1
  Ru  Ru27  1  0.806556  0.623114  0.000000  1
  Ru  Ru28  1  0.813931  0.194918  0.000000  1
  Ru  Ru29  1  0.507874  0.876454  0.500000  1
  Ru  Ru30  1  0.120878  0.629427  0.500000  1
  Ru  Ru31  1  0.365732  0.490671  0.500000  1
  Ru  Ru32  1  0.492344  0.371009  0.500000  1
  Ru  Ru33  1  0.874236  0.508299  0.500000  1
  Ru  Ru34  1  0.631438  0.124312  0.500000  1
  Ru  Ru35  1  0.002604  0.999984  0.000000  1
