# generated using pymatgen
data_YbY5ErCo6Sn23
_symmetry_space_group_name_H-M   'P 1'
_cell_length_a   9.72440101
_cell_length_b   9.72398795
_cell_length_c   9.95707401
_cell_angle_alpha   89.99999998
_cell_angle_beta   90.00528085
_cell_angle_gamma   119.99859876
_symmetry_Int_Tables_number   1
_chemical_formula_structural   YbY5ErCo6Sn23
_chemical_formula_sum   'Yb1 Y5 Er1 Co6 Sn23'
_cell_volume   815.40950306
_cell_formula_units_Z   1
loop_
 _symmetry_equiv_pos_site_id
 _symmetry_equiv_pos_as_xyz
  1  'x, y, z'
loop_
 _atom_site_type_symbol
 _atom_site_label
 _atom_site_symmetry_multiplicity
 _atom_site_fract_x
 _atom_site_fract_y
 _atom_site_fract_z
 _atom_site_occupancy
  Yb  Yb0  1  0.000041  0.000021  0.000046  1
  Y  Y1  1  0.478412  0.956778  0.306107  1
  Y  Y2  1  0.478412  0.521634  0.306107  1
  Y  Y3  1  0.956739  0.478369  0.693771  1
  Y  Y4  1  0.521625  0.043210  0.693868  1
  Y  Y5  1  0.521625  0.478415  0.693868  1
  Er  Er6  1  0.042387  0.521194  0.305731  1
  Co  Co7  1  0.168090  0.831881  0.801852  1
  Co  Co8  1  0.663779  0.831889  0.801923  1
  Co  Co9  1  0.168090  0.336209  0.801852  1
  Co  Co10  1  0.832325  0.168835  0.198304  1
  Co  Co11  1  0.336103  0.168051  0.198190  1
  Co  Co12  1  0.832325  0.663491  0.198304  1
  Sn  Sn13  1  0.000059  0.000030  0.499942  1
  Sn  Sn14  1  0.116827  0.882629  0.273774  1
  Sn  Sn15  1  0.766362  0.883182  0.273776  1
  Sn  Sn16  1  0.116827  0.234199  0.273774  1
  Sn  Sn17  1  0.883175  0.116869  0.726317  1
  Sn  Sn18  1  0.233623  0.116811  0.726242  1
  Sn  Sn19  1  0.883175  0.766303  0.726317  1
  Sn  Sn20  1  0.345403  0.999961  0.000052  1
  Sn  Sn21  1  0.654578  0.654502  0.000082  1
  Sn  Sn22  1  0.000129  0.345656  0.000177  1
  Sn  Sn23  1  0.345403  0.345442  0.000052  1
  Sn  Sn24  1  0.000129  0.654473  0.000177  1
  Sn  Sn25  1  0.654578  0.000076  0.000082  1
  Sn  Sn26  1  0.781857  0.562440  0.451027  1
  Sn  Sn27  1  0.781857  0.219416  0.451027  1
  Sn  Sn28  1  0.437528  0.218763  0.451274  1
  Sn  Sn29  1  0.218485  0.437647  0.548261  1
  Sn  Sn30  1  0.218485  0.780840  0.548261  1
  Sn  Sn31  1  0.562467  0.781234  0.548679  1
  Sn  Sn32  1  0.666956  0.333477  0.184224  1
  Sn  Sn33  1  0.333294  0.666648  0.815886  1
  Sn  Sn34  1  0.666684  0.333341  0.883360  1
  Sn  Sn35  1  0.332169  0.666085  0.117314  1
