# generated using pymatgen
data_Ce2Lu(SnIr)3
_symmetry_space_group_name_H-M   'P 1'
_cell_length_a   7.47098004
_cell_length_b   7.47098048
_cell_length_c   4.03020700
_cell_angle_alpha   90.00000000
_cell_angle_beta   90.00000000
_cell_angle_gamma   120.13312852
_symmetry_Int_Tables_number   1
_chemical_formula_structural   Ce2Lu(SnIr)3
_chemical_formula_sum   'Ce2 Lu1 Sn3 Ir3'
_cell_volume   194.54899702
_cell_formula_units_Z   1
loop_
 _symmetry_equiv_pos_site_id
 _symmetry_equiv_pos_as_xyz
  1  'x, y, z'
loop_
 _atom_site_type_symbol
 _atom_site_label
 _atom_site_symmetry_multiplicity
 _atom_site_fract_x
 _atom_site_fract_y
 _atom_site_fract_z
 _atom_site_occupancy
  Ce  Ce0  1  0.586199  0.999186  0.000000  1
  Ce  Ce1  1  0.999186  0.586199  0.000000  1
  Lu  Lu2  1  0.406034  0.406034  0.000000  1
  Sn  Sn3  1  0.006252  0.256599  0.500000  1
  Sn  Sn4  1  0.740197  0.740197  0.500000  1
  Sn  Sn5  1  0.256599  0.006252  0.500000  1
  Ir  Ir6  1  0.001420  0.001420  0.000000  1
  Ir  Ir7  1  0.671278  0.332835  0.500000  1
  Ir  Ir8  1  0.332835  0.671278  0.500000  1
