# generated using pymatgen
data_Tb2Er3Si12Ir19
_symmetry_space_group_name_H-M   'P 1'
_cell_length_a   12.83310700
_cell_length_b   12.83310667
_cell_length_c   3.98269800
_cell_angle_alpha   90.00000000
_cell_angle_beta   90.00000000
_cell_angle_gamma   120.00000343
_symmetry_Int_Tables_number   1
_chemical_formula_structural   Tb2Er3Si12Ir19
_chemical_formula_sum   'Tb2 Er3 Si12 Ir19'
_cell_volume   568.03044330
_cell_formula_units_Z   1
loop_
 _symmetry_equiv_pos_site_id
 _symmetry_equiv_pos_as_xyz
  1  'x, y, z'
loop_
 _atom_site_type_symbol
 _atom_site_label
 _atom_site_symmetry_multiplicity
 _atom_site_fract_x
 _atom_site_fract_y
 _atom_site_fract_z
 _atom_site_occupancy
  Tb  Tb0  1  0.666667  0.333333  0.000000  1
  Tb  Tb1  1  0.333333  0.666667  0.000000  1
  Er  Er2  1  0.814864  0.814864  0.500000  1
  Er  Er3  1  0.185136  0.000000  0.500000  1
  Er  Er4  1  0.000000  0.185136  0.500000  1
  Si  Si5  1  0.688048  0.168783  0.500000  1
  Si  Si6  1  0.831217  0.519265  0.500000  1
  Si  Si7  1  0.480735  0.311952  0.500000  1
  Si  Si8  1  0.168783  0.688048  0.500000  1
  Si  Si9  1  0.519265  0.831217  0.500000  1
  Si  Si10  1  0.311952  0.480735  0.500000  1
  Si  Si11  1  0.632241  0.632241  0.000000  1
  Si  Si12  1  0.367759  0.000000  0.000000  1
  Si  Si13  1  0.000000  0.367759  0.000000  1
  Si  Si14  1  0.180947  0.180947  0.000000  1
  Si  Si15  1  0.819053  0.000000  0.000000  1
  Si  Si16  1  0.000000  0.819053  0.000000  1
  Ir  Ir17  1  0.806365  0.182490  0.000000  1
  Ir  Ir18  1  0.817510  0.623875  0.000000  1
  Ir  Ir19  1  0.376125  0.193635  0.000000  1
  Ir  Ir20  1  0.182490  0.806365  0.000000  1
  Ir  Ir21  1  0.623875  0.817510  0.000000  1
  Ir  Ir22  1  0.193635  0.376125  0.000000  1
  Ir  Ir23  1  0.447094  0.447094  0.000000  1
  Ir  Ir24  1  0.552906  0.000000  0.000000  1
  Ir  Ir25  1  0.000000  0.552906  0.000000  1
  Ir  Ir26  1  0.282429  0.282429  0.500000  1
  Ir  Ir27  1  0.717571  0.000000  0.500000  1
  Ir  Ir28  1  0.000000  0.717571  0.500000  1
  Ir  Ir29  1  0.873862  0.361578  0.500000  1
  Ir  Ir30  1  0.638422  0.512287  0.500000  1
  Ir  Ir31  1  0.487713  0.126138  0.500000  1
  Ir  Ir32  1  0.361578  0.873862  0.500000  1
  Ir  Ir33  1  0.512287  0.638422  0.500000  1
  Ir  Ir34  1  0.126138  0.487713  0.500000  1
  Ir  Ir35  1  0.000000  0.000000  0.000000  1
