# generated using pymatgen
data_Er4HgPd11
_symmetry_space_group_name_H-M   'P 1'
_cell_length_a   4.19535000
_cell_length_b   5.80540510
_cell_length_c   11.62305600
_cell_angle_alpha   86.79185934
_cell_angle_beta   90.00000000
_cell_angle_gamma   90.00000000
_symmetry_Int_Tables_number   1
_chemical_formula_structural   Er4HgPd11
_chemical_formula_sum   'Er4 Hg1 Pd11'
_cell_volume   282.64408936
_cell_formula_units_Z   1
loop_
 _symmetry_equiv_pos_site_id
 _symmetry_equiv_pos_as_xyz
  1  'x, y, z'
loop_
 _atom_site_type_symbol
 _atom_site_label
 _atom_site_symmetry_multiplicity
 _atom_site_fract_x
 _atom_site_fract_y
 _atom_site_fract_z
 _atom_site_occupancy
  Er  Er0  1  0.500000  0.755389  0.376749  1
  Er  Er1  1  0.500000  0.721348  0.862206  1
  Er  Er2  1  0.500000  0.278652  0.137794  1
  Er  Er3  1  0.500000  0.244611  0.623251  1
  Hg  Hg4  1  0.000000  0.000000  0.000000  1
  Pd  Pd5  1  0.000000  0.013221  0.250738  1
  Pd  Pd6  1  0.000000  0.986779  0.749262  1
  Pd  Pd7  1  0.000000  0.500000  0.000000  1
  Pd  Pd8  1  0.000000  0.500000  0.500000  1
  Pd  Pd9  1  0.000000  0.515673  0.250801  1
  Pd  Pd10  1  0.000000  0.484327  0.749199  1
  Pd  Pd11  1  0.500000  0.254271  0.377366  1
  Pd  Pd12  1  0.500000  0.232087  0.878984  1
  Pd  Pd13  1  0.500000  0.767913  0.121016  1
  Pd  Pd14  1  0.500000  0.745729  0.622634  1
  Pd  Pd15  1  0.000000  0.000000  0.500000  1
