# generated using pymatgen
data_Hf18CoRe8Ni
_symmetry_space_group_name_H-M   'P 1'
_cell_length_a   8.58257100
_cell_length_b   8.58256980
_cell_length_c   8.49221200
_cell_angle_alpha   90.00000000
_cell_angle_beta   90.00000000
_cell_angle_gamma   119.99999305
_symmetry_Int_Tables_number   1
_chemical_formula_structural   Hf18CoRe8Ni
_chemical_formula_sum   'Hf18 Co1 Re8 Ni1'
_cell_volume   541.73418118
_cell_formula_units_Z   1
loop_
 _symmetry_equiv_pos_site_id
 _symmetry_equiv_pos_as_xyz
  1  'x, y, z'
loop_
 _atom_site_type_symbol
 _atom_site_label
 _atom_site_symmetry_multiplicity
 _atom_site_fract_x
 _atom_site_fract_y
 _atom_site_fract_z
 _atom_site_occupancy
  Hf  Hf0  1  0.197965  0.802035  0.443246  1
  Hf  Hf1  1  0.197965  0.395932  0.443246  1
  Hf  Hf2  1  0.604068  0.802035  0.443246  1
  Hf  Hf3  1  0.800554  0.199446  0.558230  1
  Hf  Hf4  1  0.800554  0.601106  0.558230  1
  Hf  Hf5  1  0.398894  0.199446  0.558230  1
  Hf  Hf6  1  0.800554  0.199446  0.941770  1
  Hf  Hf7  1  0.800554  0.601106  0.941770  1
  Hf  Hf8  1  0.398894  0.199446  0.941770  1
  Hf  Hf9  1  0.197965  0.802035  0.056754  1
  Hf  Hf10  1  0.197965  0.395932  0.056754  1
  Hf  Hf11  1  0.604068  0.802035  0.056754  1
  Hf  Hf12  1  0.541585  0.458415  0.250000  1
  Hf  Hf13  1  0.541585  0.083169  0.250000  1
  Hf  Hf14  1  0.916831  0.458415  0.250000  1
  Hf  Hf15  1  0.458635  0.541365  0.750000  1
  Hf  Hf16  1  0.458635  0.917270  0.750000  1
  Hf  Hf17  1  0.082730  0.541365  0.750000  1
  Co  Co18  1  0.666667  0.333333  0.750000  1
  Re  Re19  1  0.889413  0.110587  0.250000  1
  Re  Re20  1  0.889413  0.778827  0.250000  1
  Re  Re21  1  0.221173  0.110587  0.250000  1
  Re  Re22  1  0.110328  0.889672  0.750000  1
  Re  Re23  1  0.110328  0.220655  0.750000  1
  Re  Re24  1  0.779345  0.889672  0.750000  1
  Re  Re25  1  0.000000  0.000000  0.499792  1
  Re  Re26  1  0.000000  0.000000  0.000208  1
  Ni  Ni27  1  0.333333  0.666667  0.250000  1
