# generated using pymatgen
data_RbFe3Sb12Pt
_symmetry_space_group_name_H-M   'P 1'
_cell_length_a   8.05638051
_cell_length_b   8.05637985
_cell_length_c   8.03792900
_cell_angle_alpha   109.42483662
_cell_angle_beta   109.42483495
_cell_angle_gamma   109.51756813
_symmetry_Int_Tables_number   1
_chemical_formula_structural   RbFe3Sb12Pt
_chemical_formula_sum   'Rb1 Fe3 Sb12 Pt1'
_cell_volume   401.83749540
_cell_formula_units_Z   1
loop_
 _symmetry_equiv_pos_site_id
 _symmetry_equiv_pos_as_xyz
  1  'x, y, z'
loop_
 _atom_site_type_symbol
 _atom_site_label
 _atom_site_symmetry_multiplicity
 _atom_site_fract_x
 _atom_site_fract_y
 _atom_site_fract_z
 _atom_site_occupancy
  Rb  Rb0  1  0.000000  0.000000  0.000000  1
  Fe  Fe1  1  0.500000  0.000000  0.000000  1
  Fe  Fe2  1  0.000000  0.500000  0.000000  1
  Fe  Fe3  1  0.500000  0.500000  0.500000  1
  Sb  Sb4  1  0.353808  0.186324  0.852484  1
  Sb  Sb5  1  0.646192  0.813676  0.147516  1
  Sb  Sb6  1  0.663514  0.501020  0.836111  1
  Sb  Sb7  1  0.336486  0.498980  0.163889  1
  Sb  Sb8  1  0.186324  0.832516  0.333839  1
  Sb  Sb9  1  0.813676  0.167484  0.666161  1
  Sb  Sb10  1  0.501020  0.837505  0.664909  1
  Sb  Sb11  1  0.498980  0.162495  0.335091  1
  Sb  Sb12  1  0.837505  0.336486  0.172597  1
  Sb  Sb13  1  0.162495  0.663514  0.827403  1
  Sb  Sb14  1  0.832516  0.646192  0.498676  1
  Sb  Sb15  1  0.167484  0.353808  0.501324  1
  Pt  Pt16  1  0.000000  0.000000  0.500000  1
