# generated using pymatgen
data_Y5ErTiAl23Os8
_symmetry_space_group_name_H-M   'P 1'
_cell_length_a   8.84925410
_cell_length_b   8.84961362
_cell_length_c   9.55302700
_cell_angle_alpha   89.99808514
_cell_angle_beta   90.00235399
_cell_angle_gamma   120.01546957
_symmetry_Int_Tables_number   1
_chemical_formula_structural   Y5ErTiAl23Os8
_chemical_formula_sum   'Y5 Er1 Ti1 Al23 Os8'
_cell_volume   647.79097330
_cell_formula_units_Z   1
loop_
 _symmetry_equiv_pos_site_id
 _symmetry_equiv_pos_as_xyz
  1  'x, y, z'
loop_
 _atom_site_type_symbol
 _atom_site_label
 _atom_site_symmetry_multiplicity
 _atom_site_fract_x
 _atom_site_fract_y
 _atom_site_fract_z
 _atom_site_occupancy
  Y  Y0  1  0.193490  0.386951  0.249967  1
  Y  Y1  1  0.807574  0.614820  0.748345  1
  Y  Y2  1  0.613056  0.806516  0.249970  1
  Y  Y3  1  0.385188  0.192418  0.748349  1
  Y  Y4  1  0.193561  0.806446  0.249984  1
  Er  Er5  1  0.806493  0.193409  0.747942  1
  Ti  Ti6  1  0.333422  0.666571  0.990953  1
  Al  Al7  1  0.666785  0.333194  0.980716  1
  Al  Al8  1  0.666756  0.333245  0.516592  1
  Al  Al9  1  0.333393  0.666613  0.482397  1
  Al  Al10  1  0.162120  0.324819  0.575268  1
  Al  Al11  1  0.837091  0.674224  0.424781  1
  Al  Al12  1  0.675184  0.837887  0.575269  1
  Al  Al13  1  0.836634  0.673300  0.076497  1
  Al  Al14  1  0.325781  0.162909  0.424778  1
  Al  Al15  1  0.159245  0.319267  0.925712  1
  Al  Al16  1  0.162621  0.837391  0.575067  1
  Al  Al17  1  0.326709  0.163365  0.076499  1
  Al  Al18  1  0.837210  0.162785  0.425315  1
  Al  Al19  1  0.680732  0.840765  0.925709  1
  Al  Al20  1  0.836752  0.163237  0.075962  1
  Al  Al21  1  0.159812  0.840208  0.925952  1
  Al  Al22  1  0.561706  0.123178  0.253271  1
  Al  Al23  1  0.441822  0.882601  0.750239  1
  Al  Al24  1  0.876815  0.438291  0.253278  1
  Al  Al25  1  0.117415  0.558190  0.750231  1
  Al  Al26  1  0.561664  0.438337  0.253258  1
  Al  Al27  1  0.441017  0.558990  0.750123  1
  Al  Al28  1  0.000051  0.999951  0.250274  1
  Al  Al29  1  0.999058  0.000946  0.749660  1
  Os  Os30  1  0.499569  0.998427  0.002447  1
  Os  Os31  1  0.001587  0.500437  0.002451  1
  Os  Os32  1  0.500131  0.999444  0.503340  1
  Os  Os33  1  0.499080  0.500913  0.002734  1
  Os  Os34  1  0.000558  0.499870  0.503340  1
  Os  Os35  1  0.499660  0.500341  0.502984  1
  Os  Os36  1  0.000123  0.999881  0.000554  1
  Os  Os37  1  0.000134  0.999867  0.499791  1
