# generated using pymatgen
data_SrSm2(H6Ru)2
_symmetry_space_group_name_H-M   'P 1'
_cell_length_a   5.01004000
_cell_length_b   5.01004007
_cell_length_c   8.38973600
_cell_angle_alpha   90.00000000
_cell_angle_beta   90.00000000
_cell_angle_gamma   119.99999951
_symmetry_Int_Tables_number   1
_chemical_formula_structural   SrSm2(H6Ru)2
_chemical_formula_sum   'Sr1 Sm2 H12 Ru2'
_cell_volume   182.37332743
_cell_formula_units_Z   1
loop_
 _symmetry_equiv_pos_site_id
 _symmetry_equiv_pos_as_xyz
  1  'x, y, z'
loop_
 _atom_site_type_symbol
 _atom_site_label
 _atom_site_symmetry_multiplicity
 _atom_site_fract_x
 _atom_site_fract_y
 _atom_site_fract_z
 _atom_site_occupancy
  Sr  Sr0  1  0.000000  0.000000  0.000000  1
  Sm  Sm1  1  0.666667  0.333333  0.360675  1
  Sm  Sm2  1  0.333333  0.666667  0.639325  1
  H  H3  1  0.169559  0.830441  0.382953  1
  H  H4  1  0.660882  0.830441  0.382953  1
  H  H5  1  0.169559  0.339118  0.382953  1
  H  H6  1  0.830441  0.169559  0.617047  1
  H  H7  1  0.339118  0.169559  0.617047  1
  H  H8  1  0.830441  0.660882  0.617047  1
  H  H9  1  0.510320  0.020641  0.855984  1
  H  H10  1  0.510320  0.489680  0.855984  1
  H  H11  1  0.979359  0.489680  0.855984  1
  H  H12  1  0.489680  0.979359  0.144016  1
  H  H13  1  0.489680  0.510320  0.144016  1
  H  H14  1  0.020641  0.510320  0.144016  1
  Ru  Ru15  1  0.666667  0.333333  0.731068  1
  Ru  Ru16  1  0.333333  0.666667  0.268932  1
