# generated using pymatgen
data_ScTa(ReSi)2
_symmetry_space_group_name_H-M   'P 1'
_cell_length_a   7.66266921
_cell_length_b   7.68581937
_cell_length_c   7.66266913
_cell_angle_alpha   126.21219159
_cell_angle_beta   128.28707355
_cell_angle_gamma   77.78825985
_symmetry_Int_Tables_number   1
_chemical_formula_structural   ScTa(ReSi)2
_chemical_formula_sum   'Sc3 Ta3 Re6 Si6'
_cell_volume   277.15947353
_cell_formula_units_Z   3
loop_
 _symmetry_equiv_pos_site_id
 _symmetry_equiv_pos_as_xyz
  1  'x, y, z'
loop_
 _atom_site_type_symbol
 _atom_site_label
 _atom_site_symmetry_multiplicity
 _atom_site_fract_x
 _atom_site_fract_y
 _atom_site_fract_z
 _atom_site_occupancy
  Sc  Sc0  1  0.549385  0.092705  0.043320  1
  Sc  Sc1  1  0.451420  0.495914  0.544494  1
  Sc  Sc2  1  0.949970  0.494716  0.044745  1
  Ta  Ta3  1  0.048888  0.092190  0.543302  1
  Ta  Ta4  1  0.750566  0.903892  0.653326  1
  Ta  Ta5  1  0.250638  0.896992  0.146354  1
  Re  Re6  1  0.495277  0.233123  0.732419  1
  Re  Re7  1  0.000705  0.233123  0.237846  1
  Re  Re8  1  0.122806  0.759445  0.627045  1
  Re  Re9  1  0.877627  0.500532  0.631287  1
  Re  Re10  1  0.632400  0.759445  0.136639  1
  Re  Re11  1  0.369245  0.500532  0.122905  1
  Si  Si12  1  0.748601  0.495407  0.246806  1
  Si  Si13  1  0.252220  0.498595  0.746375  1
  Si  Si14  1  0.331268  0.828584  0.493655  1
  Si  Si15  1  0.667764  0.164210  0.497917  1
  Si  Si16  1  0.834929  0.828584  0.997316  1
  Si  Si17  1  0.166292  0.164210  0.996446  1
