# generated using pymatgen
data_Y3Lu2Tl3Zn
_symmetry_space_group_name_H-M   'P 1'
_cell_length_a   9.11486800
_cell_length_b   9.11486779
_cell_length_c   6.63457900
_cell_angle_alpha   90.00000000
_cell_angle_beta   90.00000000
_cell_angle_gamma   120.00000075
_symmetry_Int_Tables_number   1
_chemical_formula_structural   Y3Lu2Tl3Zn
_chemical_formula_sum   'Y6 Lu4 Tl6 Zn2'
_cell_volume   477.35860483
_cell_formula_units_Z   2
loop_
 _symmetry_equiv_pos_site_id
 _symmetry_equiv_pos_as_xyz
  1  'x, y, z'
loop_
 _atom_site_type_symbol
 _atom_site_label
 _atom_site_symmetry_multiplicity
 _atom_site_fract_x
 _atom_site_fract_y
 _atom_site_fract_z
 _atom_site_occupancy
  Y  Y0  1  0.275248  0.000000  0.750000  1
  Y  Y1  1  0.724752  0.000000  0.250000  1
  Y  Y2  1  0.000000  0.275248  0.750000  1
  Y  Y3  1  0.000000  0.724752  0.250000  1
  Y  Y4  1  0.724752  0.724752  0.750000  1
  Y  Y5  1  0.275248  0.275248  0.250000  1
  Lu  Lu6  1  0.333333  0.666667  0.500000  1
  Lu  Lu7  1  0.666667  0.333333  0.500000  1
  Lu  Lu8  1  0.666667  0.333333  0.000000  1
  Lu  Lu9  1  0.333333  0.666667  0.000000  1
  Tl  Tl10  1  0.621636  0.000000  0.750000  1
  Tl  Tl11  1  0.378364  0.000000  0.250000  1
  Tl  Tl12  1  0.000000  0.621636  0.750000  1
  Tl  Tl13  1  0.000000  0.378364  0.250000  1
  Tl  Tl14  1  0.378364  0.378364  0.750000  1
  Tl  Tl15  1  0.621636  0.621636  0.250000  1
  Zn  Zn16  1  0.000000  0.000000  0.500000  1
  Zn  Zn17  1  0.000000  0.000000  0.000000  1
