# generated using pymatgen
data_CrTc2F12
_symmetry_space_group_name_H-M   'P 1'
_cell_length_a   5.17812603
_cell_length_b   5.55198769
_cell_length_c   9.04012728
_cell_angle_alpha   105.16417064
_cell_angle_beta   91.52523084
_cell_angle_gamma   118.51529826
_symmetry_Int_Tables_number   1
_chemical_formula_structural   CrTc2F12
_chemical_formula_sum   'Cr1 Tc2 F12'
_cell_volume   216.86908390
_cell_formula_units_Z   1
loop_
 _symmetry_equiv_pos_site_id
 _symmetry_equiv_pos_as_xyz
  1  'x, y, z'
loop_
 _atom_site_type_symbol
 _atom_site_label
 _atom_site_symmetry_multiplicity
 _atom_site_fract_x
 _atom_site_fract_y
 _atom_site_fract_z
 _atom_site_occupancy
  Cr  Cr0  1  0.000000  0.000000  0.000000  1
  Tc  Tc1  1  0.778412  0.504900  0.255241  1
  Tc  Tc2  1  0.221588  0.495100  0.744759  1
  F  F3  1  0.809275  0.265141  0.704803  1
  F  F4  1  0.190725  0.734859  0.295197  1
  F  F5  1  0.183121  0.758830  0.938327  1
  F  F6  1  0.712970  0.730657  0.422381  1
  F  F7  1  0.287030  0.269343  0.577619  1
  F  F8  1  0.766359  0.257677  0.362569  1
  F  F9  1  0.233641  0.742323  0.637431  1
  F  F10  1  0.324241  0.245070  0.180503  1
  F  F11  1  0.675759  0.754930  0.819497  1
  F  F12  1  0.764385  0.745741  0.118826  1
  F  F13  1  0.235615  0.254259  0.881174  1
  F  F14  1  0.816879  0.241170  0.061673  1
