# generated using pymatgen
data_Zr7Co16P12W
_symmetry_space_group_name_H-M   'P 1'
_cell_length_a   12.05839065
_cell_length_b   12.05839115
_cell_length_c   3.67667100
_cell_angle_alpha   90.00000000
_cell_angle_beta   90.00000000
_cell_angle_gamma   120.05994654
_symmetry_Int_Tables_number   1
_chemical_formula_structural   Zr7Co16P12W
_chemical_formula_sum   'Zr7 Co16 P12 W1'
_cell_volume   462.70208925
_cell_formula_units_Z   1
loop_
 _symmetry_equiv_pos_site_id
 _symmetry_equiv_pos_as_xyz
  1  'x, y, z'
loop_
 _atom_site_type_symbol
 _atom_site_label
 _atom_site_symmetry_multiplicity
 _atom_site_fract_x
 _atom_site_fract_y
 _atom_site_fract_z
 _atom_site_occupancy
  Zr  Zr0  1  0.556410  0.999868  0.000000  1
  Zr  Zr1  1  0.999868  0.556410  0.000000  1
  Zr  Zr2  1  0.666265  0.334571  0.000000  1
  Zr  Zr3  1  0.334571  0.666265  0.000000  1
  Zr  Zr4  1  0.818943  0.818943  0.500000  1
  Zr  Zr5  1  0.176432  0.999878  0.500000  1
  Zr  Zr6  1  0.999878  0.176432  0.500000  1
  Co  Co7  1  0.198099  0.373561  0.000000  1
  Co  Co8  1  0.180125  0.808270  0.000000  1
  Co  Co9  1  0.817331  0.626321  0.000000  1
  Co  Co10  1  0.808270  0.180125  0.000000  1
  Co  Co11  1  0.373561  0.198099  0.000000  1
  Co  Co12  1  0.129898  0.480921  0.500000  1
  Co  Co13  1  0.354952  0.874928  0.500000  1
  Co  Co14  1  0.514860  0.640486  0.500000  1
  Co  Co15  1  0.640486  0.514860  0.500000  1
  Co  Co16  1  0.874928  0.354952  0.500000  1
  Co  Co17  1  0.480921  0.129898  0.500000  1
  Co  Co18  1  0.000223  0.000223  0.000000  1
  Co  Co19  1  0.722976  0.000246  0.500000  1
  Co  Co20  1  0.000246  0.722976  0.500000  1
  Co  Co21  1  0.626321  0.817331  0.000000  1
  Co  Co22  1  0.279987  0.279987  0.500000  1
  P  P23  1  0.642924  0.642924  0.000000  1
  P  P24  1  0.347638  0.003861  0.000000  1
  P  P25  1  0.003861  0.347638  0.000000  1
  P  P26  1  0.479600  0.313851  0.500000  1
  P  P27  1  0.692461  0.174425  0.500000  1
  P  P28  1  0.825310  0.518450  0.500000  1
  P  P29  1  0.518450  0.825310  0.500000  1
  P  P30  1  0.174425  0.692461  0.500000  1
  P  P31  1  0.823408  0.998221  0.000000  1
  P  P32  1  0.998221  0.823408  0.000000  1
  P  P33  1  0.313851  0.479600  0.500000  1
  P  P34  1  0.176400  0.176400  0.000000  1
  W  W35  1  0.447898  0.447898  0.000000  1
