# generated using pymatgen
data_LaSmBi2(TeO4)4
_symmetry_space_group_name_H-M   'P 1'
_cell_length_a   7.09256518
_cell_length_b   7.09256383
_cell_length_c   10.36428379
_cell_angle_alpha   66.79976822
_cell_angle_beta   66.79977471
_cell_angle_gamma   47.69317385
_symmetry_Int_Tables_number   1
_chemical_formula_structural   LaSmBi2(TeO4)4
_chemical_formula_sum   'La1 Sm1 Bi2 Te4 O16'
_cell_volume   347.98085415
_cell_formula_units_Z   1
loop_
 _symmetry_equiv_pos_site_id
 _symmetry_equiv_pos_as_xyz
  1  'x, y, z'
loop_
 _atom_site_type_symbol
 _atom_site_label
 _atom_site_symmetry_multiplicity
 _atom_site_fract_x
 _atom_site_fract_y
 _atom_site_fract_z
 _atom_site_occupancy
  La  La0  1  0.054915  0.945085  0.500000  1
  Sm  Sm1  1  0.945336  0.054664  0.000000  1
  Bi  Bi2  1  0.667116  0.775902  0.904720  1
  Bi  Bi3  1  0.224098  0.332884  0.095280  1
  Te  Te4  1  0.508974  0.498321  0.750121  1
  Te  Te5  1  0.501679  0.491026  0.249879  1
  Te  Te6  1  0.359620  0.188363  0.629292  1
  Te  Te7  1  0.811637  0.640380  0.370708  1
  O  O8  1  0.791838  0.356165  0.592189  1
  O  O9  1  0.643835  0.208162  0.407811  1
  O  O10  1  0.201266  0.652691  0.902389  1
  O  O11  1  0.347309  0.798734  0.097611  1
  O  O12  1  0.720917  0.479059  0.837876  1
  O  O13  1  0.520941  0.279083  0.162124  1
  O  O14  1  0.297934  0.487884  0.666485  1
  O  O15  1  0.512116  0.702066  0.333515  1
  O  O16  1  0.912564  0.723334  0.159431  1
  O  O17  1  0.276666  0.087436  0.840569  1
  O  O18  1  0.076963  0.289171  0.344128  1
  O  O19  1  0.710829  0.923037  0.655872  1
  O  O20  1  0.155886  0.642248  0.367558  1
  O  O21  1  0.357752  0.844114  0.632442  1
  O  O22  1  0.842000  0.362394  0.122398  1
  O  O23  1  0.637606  0.158000  0.877602  1
