# generated using pymatgen
data_DyEr3MoRu7
_symmetry_space_group_name_H-M   'P 1'
_cell_length_a   5.46216300
_cell_length_b   5.17131940
_cell_length_c   9.01118604
_cell_angle_alpha   89.99040261
_cell_angle_beta   90.00000000
_cell_angle_gamma   121.87858120
_symmetry_Int_Tables_number   1
_chemical_formula_structural   DyEr3MoRu7
_chemical_formula_sum   'Dy1 Er3 Mo1 Ru7'
_cell_volume   216.14350320
_cell_formula_units_Z   1
loop_
 _symmetry_equiv_pos_site_id
 _symmetry_equiv_pos_as_xyz
  1  'x, y, z'
loop_
 _atom_site_type_symbol
 _atom_site_label
 _atom_site_symmetry_multiplicity
 _atom_site_fract_x
 _atom_site_fract_y
 _atom_site_fract_z
 _atom_site_occupancy
  Dy  Dy0  1  0.333704  0.667409  0.431648  1
  Er  Er1  1  0.671555  0.343110  0.563662  1
  Er  Er2  1  0.671562  0.343125  0.936557  1
  Er  Er3  1  0.333328  0.666658  0.068411  1
  Mo  Mo4  1  0.163710  0.327421  0.750460  1
  Ru  Ru5  1  0.169291  0.821119  0.750420  1
  Ru  Ru6  1  0.334994  0.165072  0.249383  1
  Ru  Ru7  1  0.824804  0.649608  0.249504  1
  Ru  Ru8  1  0.651828  0.821119  0.750420  1
  Ru  Ru9  1  0.007722  0.015443  0.001370  1
  Ru  Ru10  1  0.830078  0.165072  0.249383  1
  Ru  Ru11  1  0.007422  0.014843  0.498783  1
