# generated using pymatgen
data_Y9ErIn7Hg
_symmetry_space_group_name_H-M   'P 1'
_cell_length_a   9.29459900
_cell_length_b   9.29460024
_cell_length_c   6.71618200
_cell_angle_alpha   90.00000000
_cell_angle_beta   90.00000000
_cell_angle_gamma   119.99999913
_symmetry_Int_Tables_number   1
_chemical_formula_structural   Y9ErIn7Hg
_chemical_formula_sum   'Y9 Er1 In7 Hg1'
_cell_volume   502.47500743
_cell_formula_units_Z   1
loop_
 _symmetry_equiv_pos_site_id
 _symmetry_equiv_pos_as_xyz
  1  'x, y, z'
loop_
 _atom_site_type_symbol
 _atom_site_label
 _atom_site_symmetry_multiplicity
 _atom_site_fract_x
 _atom_site_fract_y
 _atom_site_fract_z
 _atom_site_occupancy
  Y  Y0  1  0.333333  0.666667  0.500000  1
  Y  Y1  1  0.666667  0.333333  0.500000  1
  Y  Y2  1  0.666667  0.333333  0.000000  1
  Y  Y3  1  0.287594  0.999407  0.750532  1
  Y  Y4  1  0.711813  0.999407  0.249468  1
  Y  Y5  1  0.000593  0.288187  0.750532  1
  Y  Y6  1  0.000593  0.712406  0.249468  1
  Y  Y7  1  0.711813  0.712406  0.750532  1
  Y  Y8  1  0.287594  0.288187  0.249468  1
  Er  Er9  1  0.333333  0.666667  0.000000  1
  In  In10  1  0.000000  0.000000  0.000000  1
  In  In11  1  0.626498  0.999518  0.750549  1
  In  In12  1  0.373021  0.999518  0.249451  1
  In  In13  1  0.000482  0.626979  0.750549  1
  In  In14  1  0.000482  0.373502  0.249451  1
  In  In15  1  0.373021  0.373502  0.750549  1
  In  In16  1  0.626498  0.626979  0.249451  1
  Hg  Hg17  1  0.000000  0.000000  0.500000  1
