# generated using pymatgen
data_Tb9Yb11Si16
_symmetry_space_group_name_H-M   'P 1'
_cell_length_a   7.44020210
_cell_length_b   7.81032634
_cell_length_c   15.10528111
_cell_angle_alpha   89.93157495
_cell_angle_beta   89.97714603
_cell_angle_gamma   90.10125611
_symmetry_Int_Tables_number   1
_chemical_formula_structural   Tb9Yb11Si16
_chemical_formula_sum   'Tb9 Yb11 Si16'
_cell_volume   877.77195688
_cell_formula_units_Z   1
loop_
 _symmetry_equiv_pos_site_id
 _symmetry_equiv_pos_as_xyz
  1  'x, y, z'
loop_
 _atom_site_type_symbol
 _atom_site_label
 _atom_site_symmetry_multiplicity
 _atom_site_fract_x
 _atom_site_fract_y
 _atom_site_fract_z
 _atom_site_occupancy
  Tb  Tb0  1  0.313013  0.176933  0.121702  1
  Tb  Tb1  1  0.815665  0.320825  0.378278  1
  Tb  Tb2  1  0.186640  0.677124  0.878938  1
  Tb  Tb3  1  0.686535  0.822501  0.621262  1
  Tb  Tb4  1  0.314726  0.179715  0.379826  1
  Tb  Tb5  1  0.813036  0.323179  0.121606  1
  Tb  Tb6  1  0.185688  0.677540  0.621605  1
  Tb  Tb7  1  0.686268  0.822547  0.879021  1
  Tb  Tb8  1  0.966755  0.812118  0.400869  1
  Yb  Yb9  1  0.471329  0.683239  0.096461  1
  Yb  Yb10  1  0.529884  0.315569  0.596966  1
  Yb  Yb11  1  0.029640  0.183977  0.903629  1
  Yb  Yb12  1  0.030369  0.184676  0.595997  1
  Yb  Yb13  1  0.529366  0.315736  0.903379  1
  Yb  Yb14  1  0.469960  0.683885  0.403004  1
  Yb  Yb15  1  0.970433  0.816321  0.097570  1
  Yb  Yb16  1  0.355333  0.019406  0.750249  1
  Yb  Yb17  1  0.855010  0.480228  0.750252  1
  Yb  Yb18  1  0.147064  0.516491  0.248543  1
  Yb  Yb19  1  0.641135  0.982530  0.248690  1
  Si  Si20  1  0.857503  0.537234  0.535430  1
  Si  Si21  1  0.358194  0.967246  0.962221  1
  Si  Si22  1  0.646244  0.027460  0.459802  1
  Si  Si23  1  0.141169  0.467445  0.038864  1
  Si  Si24  1  0.139479  0.475399  0.459344  1
  Si  Si25  1  0.641137  0.032561  0.038811  1
  Si  Si26  1  0.358203  0.966598  0.536992  1
  Si  Si27  1  0.858526  0.532453  0.962064  1
  Si  Si28  1  0.979035  0.888705  0.750020  1
  Si  Si29  1  0.478994  0.611210  0.749830  1
  Si  Si30  1  0.523716  0.390681  0.251271  1
  Si  Si31  1  0.019812  0.107640  0.252740  1
  Si  Si32  1  0.248556  0.392278  0.749789  1
  Si  Si33  1  0.749188  0.107069  0.749471  1
  Si  Si34  1  0.246971  0.889746  0.253444  1
  Si  Si35  1  0.755424  0.611732  0.252060  1
