# generated using pymatgen
data_LiEr6Zn22Ge
_symmetry_space_group_name_H-M   'P 1'
_cell_length_a   9.05265508
_cell_length_b   9.05265525
_cell_length_c   9.05265600
_cell_angle_alpha   59.99999727
_cell_angle_beta   59.99999662
_cell_angle_gamma   60.00000050
_symmetry_Int_Tables_number   1
_chemical_formula_structural   LiEr6Zn22Ge
_chemical_formula_sum   'Li1 Er6 Zn22 Ge1'
_cell_volume   524.58148252
_cell_formula_units_Z   1
loop_
 _symmetry_equiv_pos_site_id
 _symmetry_equiv_pos_as_xyz
  1  'x, y, z'
loop_
 _atom_site_type_symbol
 _atom_site_label
 _atom_site_symmetry_multiplicity
 _atom_site_fract_x
 _atom_site_fract_y
 _atom_site_fract_z
 _atom_site_occupancy
  Li  Li0  1  0.000000  0.000000  0.000000  1
  Er  Er1  1  0.716227  0.283773  0.283773  1
  Er  Er2  1  0.716227  0.283773  0.716227  1
  Er  Er3  1  0.716227  0.716227  0.283773  1
  Er  Er4  1  0.283773  0.716227  0.716227  1
  Er  Er5  1  0.283773  0.716227  0.283773  1
  Er  Er6  1  0.283773  0.283773  0.716227  1
  Zn  Zn7  1  0.623980  0.125340  0.125340  1
  Zn  Zn8  1  0.125340  0.623980  0.125340  1
  Zn  Zn9  1  0.125340  0.125340  0.623980  1
  Zn  Zn10  1  0.125340  0.125340  0.125340  1
  Zn  Zn11  1  0.376020  0.874660  0.874660  1
  Zn  Zn12  1  0.874660  0.376020  0.874660  1
  Zn  Zn13  1  0.874660  0.874660  0.376020  1
  Zn  Zn14  1  0.874660  0.874660  0.874660  1
  Zn  Zn15  1  0.500000  0.000000  0.000000  1
  Zn  Zn16  1  0.500000  0.000000  0.500000  1
  Zn  Zn17  1  0.500000  0.500000  0.000000  1
  Zn  Zn18  1  0.000000  0.500000  0.500000  1
  Zn  Zn19  1  0.000000  0.500000  0.000000  1
  Zn  Zn20  1  0.000000  0.000000  0.500000  1
  Zn  Zn21  1  0.005734  0.331422  0.331422  1
  Zn  Zn22  1  0.331422  0.005734  0.331422  1
  Zn  Zn23  1  0.331422  0.331422  0.005734  1
  Zn  Zn24  1  0.331422  0.331422  0.331422  1
  Zn  Zn25  1  0.994266  0.668578  0.668578  1
  Zn  Zn26  1  0.668578  0.994266  0.668578  1
  Zn  Zn27  1  0.668578  0.668578  0.994266  1
  Zn  Zn28  1  0.668578  0.668578  0.668578  1
  Ge  Ge29  1  0.500000  0.500000  0.500000  1
