# generated using pymatgen
data_Mn2TeCl2O3
_symmetry_space_group_name_H-M   'P 1'
_cell_length_a   6.94620500
_cell_length_b   5.23830355
_cell_length_c   8.92046259
_cell_angle_alpha   73.53677810
_cell_angle_beta   90.00000000
_cell_angle_gamma   90.00000000
_symmetry_Int_Tables_number   1
_chemical_formula_structural   Mn2TeCl2O3
_chemical_formula_sum   'Mn4 Te2 Cl4 O6'
_cell_volume   311.27559871
_cell_formula_units_Z   2
loop_
 _symmetry_equiv_pos_site_id
 _symmetry_equiv_pos_as_xyz
  1  'x, y, z'
loop_
 _atom_site_type_symbol
 _atom_site_label
 _atom_site_symmetry_multiplicity
 _atom_site_fract_x
 _atom_site_fract_y
 _atom_site_fract_z
 _atom_site_occupancy
  Mn  Mn0  1  0.250000  0.757093  0.766310  1
  Mn  Mn1  1  0.750000  0.242907  0.233690  1
  Mn  Mn2  1  0.500000  0.000000  0.000000  1
  Mn  Mn3  1  0.000000  0.000000  0.000000  1
  Te  Te4  1  0.750000  0.600615  0.760810  1
  Te  Te5  1  0.250000  0.399385  0.239190  1
  Cl  Cl6  1  0.250000  0.842900  0.489278  1
  Cl  Cl7  1  0.250000  0.251267  0.793469  1
  Cl  Cl8  1  0.750000  0.748733  0.206531  1
  Cl  Cl9  1  0.750000  0.157100  0.510722  1
  O  O10  1  0.041340  0.243092  0.158940  1
  O  O11  1  0.541340  0.756908  0.841060  1
  O  O12  1  0.958660  0.756908  0.841060  1
  O  O13  1  0.750000  0.264040  0.925687  1
  O  O14  1  0.250000  0.735960  0.074313  1
  O  O15  1  0.458660  0.243092  0.158940  1
