# generated using pymatgen
data_Ta3Ti4Nb3(Ge3B)2
_symmetry_space_group_name_H-M   'P 1'
_cell_length_a   7.72405500
_cell_length_b   7.72405401
_cell_length_c   5.25176800
_cell_angle_alpha   90.00000000
_cell_angle_beta   90.00000000
_cell_angle_gamma   119.99999994
_symmetry_Int_Tables_number   1
_chemical_formula_structural   Ta3Ti4Nb3(Ge3B)2
_chemical_formula_sum   'Ta3 Ti4 Nb3 Ge6 B2'
_cell_volume   271.34812454
_cell_formula_units_Z   1
loop_
 _symmetry_equiv_pos_site_id
 _symmetry_equiv_pos_as_xyz
  1  'x, y, z'
loop_
 _atom_site_type_symbol
 _atom_site_label
 _atom_site_symmetry_multiplicity
 _atom_site_fract_x
 _atom_site_fract_y
 _atom_site_fract_z
 _atom_site_occupancy
  Ta  Ta0  1  0.243428  0.243428  0.750000  1
  Ta  Ta1  1  0.756572  0.000000  0.750000  1
  Ta  Ta2  1  0.000000  0.756572  0.750000  1
  Ti  Ti3  1  0.666667  0.333333  0.500547  1
  Ti  Ti4  1  0.333333  0.666667  0.500547  1
  Ti  Ti5  1  0.333333  0.666667  0.999453  1
  Ti  Ti6  1  0.666667  0.333333  0.999453  1
  Nb  Nb7  1  0.755739  0.755739  0.250000  1
  Nb  Nb8  1  0.244261  0.000000  0.250000  1
  Nb  Nb9  1  0.000000  0.244261  0.250000  1
  Ge  Ge10  1  0.403988  0.403988  0.250000  1
  Ge  Ge11  1  0.596012  0.000000  0.250000  1
  Ge  Ge12  1  0.000000  0.596012  0.250000  1
  Ge  Ge13  1  0.595709  0.595709  0.750000  1
  Ge  Ge14  1  0.404291  0.000000  0.750000  1
  Ge  Ge15  1  0.000000  0.404291  0.750000  1
  B  B16  1  0.000000  0.000000  0.499383  1
  B  B17  1  0.000000  0.000000  0.000617  1
