# generated using pymatgen
data_Sm3Be2IrRh4
_symmetry_space_group_name_H-M   'P 1'
_cell_length_a   9.87902600
_cell_length_b   9.87902600
_cell_length_c   3.52110700
_cell_angle_alpha   90.00000000
_cell_angle_beta   90.00000000
_cell_angle_gamma   90.00000000
_symmetry_Int_Tables_number   1
_chemical_formula_structural   Sm3Be2IrRh4
_chemical_formula_sum   'Sm6 Be4 Ir2 Rh8'
_cell_volume   343.64298241
_cell_formula_units_Z   2
loop_
 _symmetry_equiv_pos_site_id
 _symmetry_equiv_pos_as_xyz
  1  'x, y, z'
loop_
 _atom_site_type_symbol
 _atom_site_label
 _atom_site_symmetry_multiplicity
 _atom_site_fract_x
 _atom_site_fract_y
 _atom_site_fract_z
 _atom_site_occupancy
  Sm  Sm0  1  0.175236  0.675236  0.000000  1
  Sm  Sm1  1  0.324764  0.175236  0.000000  1
  Sm  Sm2  1  0.824764  0.324764  0.000000  1
  Sm  Sm3  1  0.500000  0.500000  0.000000  1
  Sm  Sm4  1  0.675236  0.824764  0.000000  1
  Sm  Sm5  1  0.000000  0.000000  0.000000  1
  Be  Be6  1  0.382691  0.882691  0.000000  1
  Be  Be7  1  0.117309  0.382691  0.000000  1
  Be  Be8  1  0.882691  0.617309  0.000000  1
  Be  Be9  1  0.617309  0.117309  0.000000  1
  Ir  Ir10  1  0.000000  0.500000  0.500000  1
  Ir  Ir11  1  0.500000  0.000000  0.500000  1
  Rh  Rh12  1  0.225992  0.930275  0.500000  1
  Rh  Rh13  1  0.930275  0.774008  0.500000  1
  Rh  Rh14  1  0.430275  0.725992  0.500000  1
  Rh  Rh15  1  0.569725  0.274008  0.500000  1
  Rh  Rh16  1  0.725992  0.569725  0.500000  1
  Rh  Rh17  1  0.274008  0.430275  0.500000  1
  Rh  Rh18  1  0.069725  0.225992  0.500000  1
  Rh  Rh19  1  0.774008  0.069725  0.500000  1
