# generated using pymatgen
data_NdEr2Cd3Ga2Hg
_symmetry_space_group_name_H-M   'P 1'
_cell_length_a   7.39245303
_cell_length_b   7.36749490
_cell_length_c   4.47452000
_cell_angle_alpha   90.00000000
_cell_angle_beta   90.00000000
_cell_angle_gamma   119.88837209
_symmetry_Int_Tables_number   1
_chemical_formula_structural   NdEr2Cd3Ga2Hg
_chemical_formula_sum   'Nd1 Er2 Cd3 Ga2 Hg1'
_cell_volume   211.28706722
_cell_formula_units_Z   1
loop_
 _symmetry_equiv_pos_site_id
 _symmetry_equiv_pos_as_xyz
  1  'x, y, z'
loop_
 _atom_site_type_symbol
 _atom_site_label
 _atom_site_symmetry_multiplicity
 _atom_site_fract_x
 _atom_site_fract_y
 _atom_site_fract_z
 _atom_site_occupancy
  Nd  Nd0  1  0.000000  0.575722  0.500000  1
  Er  Er1  1  0.423946  0.423480  0.500000  1
  Er  Er2  1  0.576054  0.999535  0.500000  1
  Cd  Cd3  1  0.742968  0.744440  0.000000  1
  Cd  Cd4  1  0.257032  0.001472  0.000000  1
  Cd  Cd5  1  0.000000  0.254115  0.000000  1
  Ga  Ga6  1  0.662967  0.330532  0.000000  1
  Ga  Ga7  1  0.337033  0.667566  0.000000  1
  Hg  Hg8  1  0.000000  0.003138  0.500000  1
