# generated using pymatgen
data_Tm3Hf3CoSn6Ir5
_symmetry_space_group_name_H-M   'P 1'
_cell_length_a   7.41880200
_cell_length_b   7.41880027
_cell_length_c   7.46015300
_cell_angle_alpha   90.00000000
_cell_angle_beta   90.00000000
_cell_angle_gamma   120.00000771
_symmetry_Int_Tables_number   1
_chemical_formula_structural   Tm3Hf3CoSn6Ir5
_chemical_formula_sum   'Tm3 Hf3 Co1 Sn6 Ir5'
_cell_volume   355.58693188
_cell_formula_units_Z   1
loop_
 _symmetry_equiv_pos_site_id
 _symmetry_equiv_pos_as_xyz
  1  'x, y, z'
loop_
 _atom_site_type_symbol
 _atom_site_label
 _atom_site_symmetry_multiplicity
 _atom_site_fract_x
 _atom_site_fract_y
 _atom_site_fract_z
 _atom_site_occupancy
  Tm  Tm0  1  0.000120  0.408867  0.750000  1
  Tm  Tm1  1  0.591133  0.591252  0.750000  1
  Tm  Tm2  1  0.408748  0.999880  0.750000  1
  Hf  Hf3  1  0.999494  0.389534  0.250000  1
  Hf  Hf4  1  0.610466  0.609959  0.250000  1
  Hf  Hf5  1  0.390041  0.000506  0.250000  1
  Co  Co6  1  0.000000  0.000000  0.250000  1
  Sn  Sn7  1  0.260994  0.261283  0.488217  1
  Sn  Sn8  1  0.000288  0.739006  0.488217  1
  Sn  Sn9  1  0.000288  0.739006  0.011783  1
  Sn  Sn10  1  0.738717  0.999712  0.488217  1
  Sn  Sn11  1  0.738717  0.999712  0.011783  1
  Sn  Sn12  1  0.260994  0.261283  0.011783  1
  Ir  Ir13  1  0.333333  0.666667  0.465956  1
  Ir  Ir14  1  0.666667  0.333333  0.466966  1
  Ir  Ir15  1  0.333333  0.666667  0.034044  1
  Ir  Ir16  1  0.000000  0.000000  0.750000  1
  Ir  Ir17  1  0.666667  0.333333  0.033034  1
