# generated using pymatgen
data_Ho3Er2SnSb2
_symmetry_space_group_name_H-M   'P 1'
_cell_length_a   8.91821807
_cell_length_b   8.90563463
_cell_length_c   6.37690400
_cell_angle_alpha   90.00000000
_cell_angle_beta   90.00000000
_cell_angle_gamma   119.95334057
_symmetry_Int_Tables_number   1
_chemical_formula_structural   Ho3Er2SnSb2
_chemical_formula_sum   'Ho6 Er4 Sn2 Sb4'
_cell_volume   438.82107083
_cell_formula_units_Z   2
loop_
 _symmetry_equiv_pos_site_id
 _symmetry_equiv_pos_as_xyz
  1  'x, y, z'
loop_
 _atom_site_type_symbol
 _atom_site_label
 _atom_site_symmetry_multiplicity
 _atom_site_fract_x
 _atom_site_fract_y
 _atom_site_fract_z
 _atom_site_occupancy
  Ho  Ho0  1  0.755416  0.999256  0.750000  1
  Ho  Ho1  1  0.755416  0.756160  0.250000  1
  Ho  Ho2  1  0.000974  0.243809  0.250000  1
  Ho  Ho3  1  0.000974  0.757164  0.750000  1
  Ho  Ho4  1  0.243939  0.242295  0.750000  1
  Ho  Ho5  1  0.243939  0.001644  0.250000  1
  Er  Er6  1  0.333761  0.666881  0.000000  1
  Er  Er7  1  0.665150  0.332575  0.500000  1
  Er  Er8  1  0.665150  0.332575  0.000000  1
  Er  Er9  1  0.333761  0.666881  0.500000  1
  Sn  Sn10  1  0.391655  0.998941  0.750000  1
  Sn  Sn11  1  0.391655  0.392714  0.250000  1
  Sb  Sb12  1  0.999365  0.609170  0.250000  1
  Sb  Sb13  1  0.999365  0.390197  0.750000  1
  Sb  Sb14  1  0.609740  0.609468  0.750000  1
  Sb  Sb15  1  0.609740  0.000272  0.250000  1
