# generated using pymatgen
data_Rb4P4IrPt3
_symmetry_space_group_name_H-M   'P 1'
_cell_length_a   6.81620316
_cell_length_b   6.82844542
_cell_length_c   7.75019219
_cell_angle_alpha   90.38507202
_cell_angle_beta   90.25513744
_cell_angle_gamma   110.68483628
_symmetry_Int_Tables_number   1
_chemical_formula_structural   Rb4P4IrPt3
_chemical_formula_sum   'Rb4 P4 Ir1 Pt3'
_cell_volume   337.45563989
_cell_formula_units_Z   1
loop_
 _symmetry_equiv_pos_site_id
 _symmetry_equiv_pos_as_xyz
  1  'x, y, z'
loop_
 _atom_site_type_symbol
 _atom_site_label
 _atom_site_symmetry_multiplicity
 _atom_site_fract_x
 _atom_site_fract_y
 _atom_site_fract_z
 _atom_site_occupancy
  Rb  Rb0  1  0.186500  0.807921  0.508735  1
  Rb  Rb1  1  0.687809  0.309368  0.992379  1
  Rb  Rb2  1  0.810329  0.189613  0.491830  1
  Rb  Rb3  1  0.312426  0.690385  0.009844  1
  P  P4  1  0.170233  0.180912  0.824299  1
  P  P5  1  0.658097  0.670245  0.673698  1
  P  P6  1  0.836924  0.823632  0.169847  1
  P  P7  1  0.331693  0.320869  0.335843  1
  Ir  Ir8  1  0.371375  0.379492  0.624598  1
  Pt  Pt9  1  0.630599  0.622375  0.373487  1
  Pt  Pt10  1  0.131826  0.124578  0.123305  1
  Pt  Pt11  1  0.872189  0.880609  0.872135  1
