# generated using pymatgen
data_Be(PPd4)3
_symmetry_space_group_name_H-M   'P 1'
_cell_length_a   5.19674946
_cell_length_b   5.93450261
_cell_length_c   7.57722000
_cell_angle_alpha   90.00000000
_cell_angle_beta   90.00000000
_cell_angle_gamma   89.81787831
_symmetry_Int_Tables_number   1
_chemical_formula_structural   Be(PPd4)3
_chemical_formula_sum   'Be1 P3 Pd12'
_cell_volume   233.68121820
_cell_formula_units_Z   1
loop_
 _symmetry_equiv_pos_site_id
 _symmetry_equiv_pos_as_xyz
  1  'x, y, z'
loop_
 _atom_site_type_symbol
 _atom_site_label
 _atom_site_symmetry_multiplicity
 _atom_site_fract_x
 _atom_site_fract_y
 _atom_site_fract_z
 _atom_site_occupancy
  Be  Be0  1  0.451641  0.886119  0.250000  1
  P  P1  1  0.957196  0.617694  0.750000  1
  P  P2  1  0.047752  0.381212  0.250000  1
  P  P3  1  0.542056  0.112449  0.750000  1
  Pd  Pd4  1  0.876166  0.018636  0.250000  1
  Pd  Pd5  1  0.375923  0.479291  0.750000  1
  Pd  Pd6  1  0.628591  0.526180  0.250000  1
  Pd  Pd7  1  0.123345  0.979968  0.750000  1
  Pd  Pd8  1  0.335472  0.175309  0.061606  1
  Pd  Pd9  1  0.831699  0.324197  0.938618  1
  Pd  Pd10  1  0.167356  0.676400  0.437777  1
  Pd  Pd11  1  0.664139  0.823320  0.557903  1
  Pd  Pd12  1  0.664139  0.823320  0.942097  1
  Pd  Pd13  1  0.167356  0.676400  0.062223  1
  Pd  Pd14  1  0.831699  0.324197  0.561382  1
  Pd  Pd15  1  0.335472  0.175309  0.438394  1
