# generated using pymatgen
data_ErTm7Sc12Si15Au
_symmetry_space_group_name_H-M   'P 1'
_cell_length_a   7.07980493
_cell_length_b   7.34130218
_cell_length_c   13.98792405
_cell_angle_alpha   89.93721238
_cell_angle_beta   89.66455680
_cell_angle_gamma   90.15829590
_symmetry_Int_Tables_number   1
_chemical_formula_structural   ErTm7Sc12Si15Au
_chemical_formula_sum   'Er1 Tm7 Sc12 Si15 Au1'
_cell_volume   727.00649212
_cell_formula_units_Z   1
loop_
 _symmetry_equiv_pos_site_id
 _symmetry_equiv_pos_as_xyz
  1  'x, y, z'
loop_
 _atom_site_type_symbol
 _atom_site_label
 _atom_site_symmetry_multiplicity
 _atom_site_fract_x
 _atom_site_fract_y
 _atom_site_fract_z
 _atom_site_occupancy
  Er  Er0  1  0.012497  0.176154  0.097207  1
  Tm  Tm1  1  0.987292  0.824253  0.903699  1
  Tm  Tm2  1  0.487186  0.677559  0.903528  1
  Tm  Tm3  1  0.988087  0.826818  0.597539  1
  Tm  Tm4  1  0.512145  0.322973  0.096492  1
  Tm  Tm5  1  0.010939  0.174941  0.400164  1
  Tm  Tm6  1  0.509589  0.324023  0.401317  1
  Tm  Tm7  1  0.490761  0.676388  0.598654  1
  Sc  Sc8  1  0.162706  0.502344  0.751079  1
  Sc  Sc9  1  0.837502  0.497605  0.250769  1
  Sc  Sc10  1  0.338219  0.001713  0.249423  1
  Sc  Sc11  1  0.663506  0.995302  0.750695  1
  Sc  Sc12  1  0.337697  0.175928  0.625732  1
  Sc  Sc13  1  0.666842  0.823445  0.373698  1
  Sc  Sc14  1  0.169122  0.673817  0.373369  1
  Sc  Sc15  1  0.670040  0.824039  0.125305  1
  Sc  Sc16  1  0.828448  0.325449  0.625464  1
  Sc  Sc17  1  0.328903  0.175447  0.875797  1
  Sc  Sc18  1  0.830268  0.322684  0.875724  1
  Sc  Sc19  1  0.169347  0.676817  0.125163  1
  Si  Si20  1  0.034336  0.116669  0.750675  1
  Si  Si21  1  0.967086  0.886233  0.249281  1
  Si  Si22  1  0.467083  0.613476  0.248459  1
  Si  Si23  1  0.534259  0.386715  0.752189  1
  Si  Si24  1  0.284574  0.871748  0.750791  1
  Si  Si25  1  0.713674  0.130080  0.249120  1
  Si  Si26  1  0.214806  0.369019  0.248040  1
  Si  Si27  1  0.786734  0.629409  0.752566  1
  Si  Si28  1  0.834056  0.536195  0.459562  1
  Si  Si29  1  0.339694  0.964025  0.459997  1
  Si  Si30  1  0.842290  0.535096  0.038943  1
  Si  Si31  1  0.659168  0.035338  0.538006  1
  Si  Si32  1  0.157345  0.464952  0.961612  1
  Si  Si33  1  0.658173  0.034387  0.961099  1
  Si  Si34  1  0.342179  0.964866  0.039274  1
  Au  Au35  1  0.163447  0.464093  0.539568  1
