# generated using pymatgen
data_Dy7YAl3Co
_symmetry_space_group_name_H-M   'P 1'
_cell_length_a   10.20144700
_cell_length_b   10.20144789
_cell_length_c   6.85950900
_cell_angle_alpha   90.00000000
_cell_angle_beta   90.00000000
_cell_angle_gamma   120.00000035
_symmetry_Int_Tables_number   1
_chemical_formula_structural   Dy7YAl3Co
_chemical_formula_sum   'Dy14 Y2 Al6 Co2'
_cell_volume   618.22598282
_cell_formula_units_Z   2
loop_
 _symmetry_equiv_pos_site_id
 _symmetry_equiv_pos_as_xyz
  1  'x, y, z'
loop_
 _atom_site_type_symbol
 _atom_site_label
 _atom_site_symmetry_multiplicity
 _atom_site_fract_x
 _atom_site_fract_y
 _atom_site_fract_z
 _atom_site_occupancy
  Dy  Dy0  1  0.175244  0.824756  0.997383  1
  Dy  Dy1  1  0.824756  0.175244  0.497383  1
  Dy  Dy2  1  0.175244  0.350488  0.997383  1
  Dy  Dy3  1  0.649512  0.824756  0.997383  1
  Dy  Dy4  1  0.350488  0.175244  0.497383  1
  Dy  Dy5  1  0.824756  0.649512  0.497383  1
  Dy  Dy6  1  0.333333  0.666667  0.671671  1
  Dy  Dy7  1  0.666667  0.333333  0.171671  1
  Dy  Dy8  1  0.466284  0.533716  0.289709  1
  Dy  Dy9  1  0.533716  0.466284  0.789709  1
  Dy  Dy10  1  0.466284  0.932567  0.289709  1
  Dy  Dy11  1  0.067433  0.533716  0.289709  1
  Dy  Dy12  1  0.932567  0.466284  0.789709  1
  Dy  Dy13  1  0.533716  0.067433  0.789709  1
  Y  Y14  1  0.000000  0.000000  0.275802  1
  Y  Y15  1  0.000000  0.000000  0.775802  1
  Al  Al16  1  0.162812  0.837188  0.533416  1
  Al  Al17  1  0.837188  0.162812  0.033416  1
  Al  Al18  1  0.162812  0.325625  0.533416  1
  Al  Al19  1  0.674375  0.837188  0.533416  1
  Al  Al20  1  0.325625  0.162812  0.033416  1
  Al  Al21  1  0.837188  0.674375  0.033416  1
  Co  Co22  1  0.333333  0.666667  0.064063  1
  Co  Co23  1  0.666667  0.333333  0.564063  1
