# generated using pymatgen
data_Zr4Fe3Si4Ir
_symmetry_space_group_name_H-M   'P 1'
_cell_length_a   3.97462000
_cell_length_b   6.46865693
_cell_length_c   7.14163094
_cell_angle_alpha   89.35584872
_cell_angle_beta   90.00000000
_cell_angle_gamma   90.00000000
_symmetry_Int_Tables_number   1
_chemical_formula_structural   Zr4Fe3Si4Ir
_chemical_formula_sum   'Zr4 Fe3 Si4 Ir1'
_cell_volume   183.60296423
_cell_formula_units_Z   1
loop_
 _symmetry_equiv_pos_site_id
 _symmetry_equiv_pos_as_xyz
  1  'x, y, z'
loop_
 _atom_site_type_symbol
 _atom_site_label
 _atom_site_symmetry_multiplicity
 _atom_site_fract_x
 _atom_site_fract_y
 _atom_site_fract_z
 _atom_site_occupancy
  Zr  Zr0  1  0.250000  0.994571  0.310300  1
  Zr  Zr1  1  0.250000  0.504889  0.200651  1
  Zr  Zr2  1  0.750000  0.995990  0.685683  1
  Zr  Zr3  1  0.750000  0.500214  0.799988  1
  Fe  Fe4  1  0.250000  0.654109  0.566095  1
  Fe  Fe5  1  0.750000  0.848392  0.066591  1
  Fe  Fe6  1  0.750000  0.348151  0.432860  1
  Si  Si7  1  0.250000  0.292412  0.598054  1
  Si  Si8  1  0.250000  0.782828  0.892094  1
  Si  Si9  1  0.750000  0.709142  0.393016  1
  Si  Si10  1  0.750000  0.212353  0.121685  1
  Ir  Ir11  1  0.250000  0.156948  0.932982  1
