# generated using pymatgen
data_TaF17
_symmetry_space_group_name_H-M   'P 1'
_cell_length_a   8.77962724
_cell_length_b   8.04492972
_cell_length_c   10.34294676
_cell_angle_alpha   85.84072662
_cell_angle_beta   89.45624080
_cell_angle_gamma   68.88900948
_symmetry_Int_Tables_number   1
_chemical_formula_structural   TaF17
_chemical_formula_sum   'Ta2 F34'
_cell_volume   679.60373447
_cell_formula_units_Z   2
loop_
 _symmetry_equiv_pos_site_id
 _symmetry_equiv_pos_as_xyz
  1  'x, y, z'
loop_
 _atom_site_type_symbol
 _atom_site_label
 _atom_site_symmetry_multiplicity
 _atom_site_fract_x
 _atom_site_fract_y
 _atom_site_fract_z
 _atom_site_occupancy
  Ta  Ta0  1  0.852982  0.252531  0.783232  1
  Ta  Ta1  1  0.147018  0.747469  0.216768  1
  F  F2  1  0.592042  0.211906  0.497418  1
  F  F3  1  0.407958  0.788094  0.502582  1
  F  F4  1  0.833803  0.692342  0.692997  1
  F  F5  1  0.166197  0.307658  0.307003  1
  F  F6  1  0.079856  0.776417  0.849652  1
  F  F7  1  0.920144  0.223583  0.150348  1
  F  F8  1  0.556630  0.151554  0.378488  1
  F  F9  1  0.443370  0.848446  0.621512  1
  F  F10  1  0.638331  0.316725  0.712091  1
  F  F11  1  0.361669  0.683275  0.287909  1
  F  F12  1  0.936086  0.097505  0.634607  1
  F  F13  1  0.063914  0.902495  0.365393  1
  F  F14  1  0.911945  0.373975  0.619002  1
  F  F15  1  0.088055  0.626025  0.380998  1
  F  F16  1  0.860707  0.823720  0.606360  1
  F  F17  1  0.139293  0.176280  0.393640  1
  F  F18  1  0.793599  0.469618  0.862166  1
  F  F19  1  0.206401  0.530382  0.137834  1
  F  F20  1  0.219294  0.688615  0.774993  1
  F  F21  1  0.780706  0.311385  0.225007  1
  F  F22  1  0.928865  0.814886  0.156006  1
  F  F23  1  0.071135  0.185114  0.843994  1
  F  F24  1  0.817566  0.080539  0.899047  1
  F  F25  1  0.182434  0.919461  0.100953  1
  F  F26  1  0.475880  0.593748  0.984336  1
  F  F27  1  0.524120  0.406252  0.015664  1
  F  F28  1  0.462757  0.076529  0.867621  1
  F  F29  1  0.537243  0.923471  0.132379  1
  F  F30  1  0.289235  0.226834  0.621410  1
  F  F31  1  0.710765  0.773166  0.378590  1
  F  F32  1  0.245809  0.396349  0.673276  1
  F  F33  1  0.754191  0.603651  0.326724  1
  F  F34  1  0.557452  0.896288  0.845535  1
  F  F35  1  0.442548  0.103712  0.154465  1
