# generated using pymatgen
data_Ho3In3GaCu2
_symmetry_space_group_name_H-M   'P 1'
_cell_length_a   7.26443000
_cell_length_b   7.26442970
_cell_length_c   4.24185100
_cell_angle_alpha   90.00000000
_cell_angle_beta   90.00000000
_cell_angle_gamma   120.00001047
_symmetry_Int_Tables_number   1
_chemical_formula_structural   Ho3In3GaCu2
_chemical_formula_sum   'Ho3 In3 Ga1 Cu2'
_cell_volume   193.86038182
_cell_formula_units_Z   1
loop_
 _symmetry_equiv_pos_site_id
 _symmetry_equiv_pos_as_xyz
  1  'x, y, z'
loop_
 _atom_site_type_symbol
 _atom_site_label
 _atom_site_symmetry_multiplicity
 _atom_site_fract_x
 _atom_site_fract_y
 _atom_site_fract_z
 _atom_site_occupancy
  Ho  Ho0  1  0.996438  0.586331  0.500000  1
  Ho  Ho1  1  0.413669  0.410107  0.500000  1
  Ho  Ho2  1  0.589893  0.003562  0.500000  1
  In  In3  1  0.754450  0.744669  0.000000  1
  In  In4  1  0.990218  0.245550  0.000000  1
  In  In5  1  0.255331  0.009782  0.000000  1
  Ga  Ga6  1  0.333333  0.666667  0.000000  1
  Cu  Cu7  1  0.000000  0.000000  0.500000  1
  Cu  Cu8  1  0.666667  0.333333  0.000000  1
