# generated using pymatgen
data_Tb3Zr(Al3Rh)6
_symmetry_space_group_name_H-M   'P 1'
_cell_length_a   7.54953974
_cell_length_b   7.53446509
_cell_length_c   9.42597500
_cell_angle_alpha   90.00000000
_cell_angle_beta   90.00000000
_cell_angle_gamma   119.49252447
_symmetry_Int_Tables_number   1
_chemical_formula_structural   Tb3Zr(Al3Rh)6
_chemical_formula_sum   'Tb3 Zr1 Al18 Rh6'
_cell_volume   466.68948296
_cell_formula_units_Z   1
loop_
 _symmetry_equiv_pos_site_id
 _symmetry_equiv_pos_as_xyz
  1  'x, y, z'
loop_
 _atom_site_type_symbol
 _atom_site_label
 _atom_site_symmetry_multiplicity
 _atom_site_fract_x
 _atom_site_fract_y
 _atom_site_fract_z
 _atom_site_occupancy
  Tb  Tb0  1  0.006138  0.327763  0.750000  1
  Tb  Tb1  1  0.671783  0.995508  0.250000  1
  Tb  Tb2  1  0.328690  0.006390  0.750000  1
  Zr  Zr3  1  0.996304  0.672143  0.250000  1
  Al  Al4  1  0.124537  0.121837  0.250000  1
  Al  Al5  1  0.871235  0.869689  0.750000  1
  Al  Al6  1  0.000239  0.339010  0.079794  1
  Al  Al7  1  0.999485  0.664877  0.929092  1
  Al  Al8  1  0.999485  0.664877  0.570908  1
  Al  Al9  1  0.331961  0.997395  0.420141  1
  Al  Al10  1  0.000239  0.339010  0.420206  1
  Al  Al11  1  0.664348  0.998181  0.575196  1
  Al  Al12  1  0.664348  0.998181  0.924804  1
  Al  Al13  1  0.331961  0.997395  0.079859  1
  Al  Al14  1  0.333698  0.333681  0.547088  1
  Al  Al15  1  0.669755  0.667277  0.444961  1
  Al  Al16  1  0.669755  0.667277  0.055039  1
  Al  Al17  1  0.333698  0.333681  0.952912  1
  Al  Al18  1  0.336029  0.551386  0.250000  1
  Al  Al19  1  0.660704  0.450977  0.750000  1
  Al  Al20  1  0.557071  0.345147  0.250000  1
  Al  Al21  1  0.449584  0.658820  0.750000  1
  Rh  Rh22  1  0.672709  0.328434  0.001347  1
  Rh  Rh23  1  0.327417  0.672272  0.002021  1
  Rh  Rh24  1  0.327417  0.672272  0.497979  1
  Rh  Rh25  1  0.672709  0.328434  0.498653  1
  Rh  Rh26  1  0.999351  0.999042  0.001298  1
  Rh  Rh27  1  0.999351  0.999042  0.498702  1
