# generated using pymatgen
data_Pr2NiIr3
_symmetry_space_group_name_H-M   'P 1'
_cell_length_a   5.48130666
_cell_length_b   5.32814465
_cell_length_c   5.48130700
_cell_angle_alpha   59.04445472
_cell_angle_beta   60.00000396
_cell_angle_gamma   59.04445335
_symmetry_Int_Tables_number   1
_chemical_formula_structural   Pr2NiIr3
_chemical_formula_sum   'Pr2 Ni1 Ir3'
_cell_volume   111.53298482
_cell_formula_units_Z   1
loop_
 _symmetry_equiv_pos_site_id
 _symmetry_equiv_pos_as_xyz
  1  'x, y, z'
loop_
 _atom_site_type_symbol
 _atom_site_label
 _atom_site_symmetry_multiplicity
 _atom_site_fract_x
 _atom_site_fract_y
 _atom_site_fract_z
 _atom_site_occupancy
  Pr  Pr0  1  0.499965  0.500105  0.499965  1
  Pr  Pr1  1  0.750035  0.749895  0.750035  1
  Ni  Ni2  1  0.125000  0.625000  0.125000  1
  Ir  Ir3  1  0.625000  0.125000  0.125000  1
  Ir  Ir4  1  0.125000  0.125000  0.125000  1
  Ir  Ir5  1  0.125000  0.125000  0.625000  1
