# generated using pymatgen
data_Dy5Ho12(TmBi4)3
_symmetry_space_group_name_H-M   'P 1'
_cell_length_a   8.23081617
_cell_length_b   9.50508417
_cell_length_c   12.00594300
_cell_angle_alpha   89.99066277
_cell_angle_beta   90.03054544
_cell_angle_gamma   90.00523720
_symmetry_Int_Tables_number   1
_chemical_formula_structural   Dy5Ho12(TmBi4)3
_chemical_formula_sum   'Dy5 Ho12 Tm3 Bi12'
_cell_volume   939.28000372
_cell_formula_units_Z   1
loop_
 _symmetry_equiv_pos_site_id
 _symmetry_equiv_pos_as_xyz
  1  'x, y, z'
loop_
 _atom_site_type_symbol
 _atom_site_label
 _atom_site_symmetry_multiplicity
 _atom_site_fract_x
 _atom_site_fract_y
 _atom_site_fract_z
 _atom_site_occupancy
  Dy  Dy0  1  0.192155  0.563880  0.440911  1
  Dy  Dy1  1  0.312991  0.250027  0.218177  1
  Dy  Dy2  1  0.813077  0.250022  0.281618  1
  Dy  Dy3  1  0.687067  0.750064  0.781851  1
  Dy  Dy4  1  0.187099  0.750148  0.718463  1
  Ho  Ho5  1  0.353387  0.750247  0.216288  1
  Ho  Ho6  1  0.852642  0.750214  0.283364  1
  Ho  Ho7  1  0.647044  0.250102  0.783757  1
  Ho  Ho8  1  0.147075  0.250249  0.716641  1
  Ho  Ho9  1  0.692382  0.564702  0.058982  1
  Ho  Ho10  1  0.192333  0.935137  0.440817  1
  Ho  Ho11  1  0.307479  0.064726  0.941030  1
  Ho  Ho12  1  0.807994  0.435320  0.559061  1
  Ho  Ho13  1  0.307603  0.435268  0.940962  1
  Ho  Ho14  1  0.807432  0.064473  0.559283  1
  Ho  Ho15  1  0.692426  0.935349  0.058949  1
  Ho  Ho16  1  0.475742  0.250086  0.488166  1
  Tm  Tm17  1  0.975881  0.250122  0.011582  1
  Tm  Tm18  1  0.524469  0.750041  0.511765  1
  Tm  Tm19  1  0.024157  0.750019  0.988262  1
  Bi  Bi20  1  0.405768  0.749982  0.957798  1
  Bi  Bi21  1  0.905641  0.750196  0.542308  1
  Bi  Bi22  1  0.594227  0.250013  0.042177  1
  Bi  Bi23  1  0.093459  0.248850  0.458019  1
  Bi  Bi24  1  0.565699  0.995179  0.325954  1
  Bi  Bi25  1  0.065479  0.504815  0.173605  1
  Bi  Bi26  1  0.434461  0.495585  0.674107  1
  Bi  Bi27  1  0.934465  0.004856  0.826262  1
  Bi  Bi28  1  0.434467  0.004604  0.674042  1
  Bi  Bi29  1  0.934372  0.495359  0.826264  1
  Bi  Bi30  1  0.565961  0.505048  0.325896  1
  Bi  Bi31  1  0.065568  0.995316  0.173636  1
