# generated using pymatgen
data_ReOsBr8N
_symmetry_space_group_name_H-M   'P 1'
_cell_length_a   7.11919184
_cell_length_b   7.15138350
_cell_length_c   7.01967997
_cell_angle_alpha   91.16219906
_cell_angle_beta   96.76517690
_cell_angle_gamma   96.02701209
_symmetry_Int_Tables_number   1
_chemical_formula_structural   ReOsBr8N
_chemical_formula_sum   'Re1 Os1 Br8 N1'
_cell_volume   352.74340564
_cell_formula_units_Z   1
loop_
 _symmetry_equiv_pos_site_id
 _symmetry_equiv_pos_as_xyz
  1  'x, y, z'
loop_
 _atom_site_type_symbol
 _atom_site_label
 _atom_site_symmetry_multiplicity
 _atom_site_fract_x
 _atom_site_fract_y
 _atom_site_fract_z
 _atom_site_occupancy
  Re  Re0  1  0.950445  0.584847  0.224788  1
  Os  Os1  1  0.047522  0.417848  0.765327  1
  Br  Br2  1  0.650679  0.379622  0.214844  1
  Br  Br3  1  0.891627  0.687523  0.590960  1
  Br  Br4  1  0.261484  0.772203  0.294295  1
  Br  Br5  1  0.790548  0.857122  0.119420  1
  Br  Br6  1  0.206266  0.144387  0.884355  1
  Br  Br7  1  0.353948  0.615068  0.789042  1
  Br  Br8  1  0.109335  0.315880  0.412555  1
  Br  Br9  1  0.739748  0.223743  0.704817  1
  N  N10  1  0.998397  0.501757  0.999596  1
