# generated using pymatgen
data_ErTm5CrFeB14
_symmetry_space_group_name_H-M   'P 1'
_cell_length_a   7.94932200
_cell_length_b   7.94932167
_cell_length_c   9.22900700
_cell_angle_alpha   90.00000000
_cell_angle_beta   90.00000000
_cell_angle_gamma   155.32997005
_symmetry_Int_Tables_number   1
_chemical_formula_structural   ErTm5CrFeB14
_chemical_formula_sum   'Er1 Tm5 Cr1 Fe1 B14'
_cell_volume   243.42156271
_cell_formula_units_Z   1
loop_
 _symmetry_equiv_pos_site_id
 _symmetry_equiv_pos_as_xyz
  1  'x, y, z'
loop_
 _atom_site_type_symbol
 _atom_site_label
 _atom_site_symmetry_multiplicity
 _atom_site_fract_x
 _atom_site_fract_y
 _atom_site_fract_z
 _atom_site_occupancy
  Er  Er0  1  0.757334  0.242666  0.750000  1
  Tm  Tm1  1  0.894457  0.105543  0.440518  1
  Tm  Tm2  1  0.105052  0.894948  0.560352  1
  Tm  Tm3  1  0.894457  0.105543  0.059482  1
  Tm  Tm4  1  0.105052  0.894948  0.939648  1
  Tm  Tm5  1  0.243123  0.756877  0.250000  1
  Cr  Cr6  1  0.052417  0.947583  0.250000  1
  Fe  Fe7  1  0.946226  0.053774  0.750000  1
  B  B8  1  0.728124  0.271876  0.467307  1
  B  B9  1  0.272890  0.727110  0.533962  1
  B  B10  1  0.728124  0.271876  0.032693  1
  B  B11  1  0.272890  0.727110  0.966038  1
  B  B12  1  0.631720  0.368280  0.150898  1
  B  B13  1  0.370065  0.629935  0.847420  1
  B  B14  1  0.631720  0.368280  0.349102  1
  B  B15  1  0.370065  0.629935  0.652580  1
  B  B16  1  0.520367  0.479633  0.095021  1
  B  B17  1  0.479002  0.520998  0.902888  1
  B  B18  1  0.520367  0.479633  0.404979  1
  B  B19  1  0.479002  0.520998  0.597112  1
  B  B20  1  0.455915  0.544085  0.250000  1
  B  B21  1  0.541630  0.458370  0.750000  1
