# generated using pymatgen
data_Nd6Zn5SiRh12
_symmetry_space_group_name_H-M   'P 1'
_cell_length_a   5.59186015
_cell_length_b   5.59114596
_cell_length_c   16.05365000
_cell_angle_alpha   90.00000000
_cell_angle_beta   90.00000000
_cell_angle_gamma   120.03054052
_symmetry_Int_Tables_number   1
_chemical_formula_structural   Nd6Zn5SiRh12
_chemical_formula_sum   'Nd6 Zn5 Si1 Rh12'
_cell_volume   434.53805694
_cell_formula_units_Z   1
loop_
 _symmetry_equiv_pos_site_id
 _symmetry_equiv_pos_as_xyz
  1  'x, y, z'
loop_
 _atom_site_type_symbol
 _atom_site_label
 _atom_site_symmetry_multiplicity
 _atom_site_fract_x
 _atom_site_fract_y
 _atom_site_fract_z
 _atom_site_occupancy
  Nd  Nd0  1  0.666664  0.333299  0.038282  1
  Nd  Nd1  1  0.666670  0.333347  0.250000  1
  Nd  Nd2  1  0.666664  0.333299  0.461718  1
  Nd  Nd3  1  0.333328  0.666701  0.543130  1
  Nd  Nd4  1  0.333337  0.666680  0.750000  1
  Nd  Nd5  1  0.333328  0.666701  0.956870  1
  Zn  Zn6  1  0.000016  0.000017  0.996865  1
  Zn  Zn7  1  0.000056  0.000043  0.250000  1
  Zn  Zn8  1  0.333263  0.666609  0.250000  1
  Zn  Zn9  1  0.000016  0.000017  0.503135  1
  Zn  Zn10  1  0.999982  0.000015  0.750000  1
  Si  Si11  1  0.666684  0.333291  0.750000  1
  Rh  Rh12  1  0.167865  0.335712  0.123904  1
  Rh  Rh13  1  0.167882  0.832119  0.123864  1
  Rh  Rh14  1  0.664306  0.832145  0.123856  1
  Rh  Rh15  1  0.167865  0.335712  0.376096  1
  Rh  Rh16  1  0.167882  0.832119  0.376136  1
  Rh  Rh17  1  0.664306  0.832145  0.376144  1
  Rh  Rh18  1  0.337248  0.168637  0.632185  1
  Rh  Rh19  1  0.831356  0.168621  0.632212  1
  Rh  Rh20  1  0.831339  0.662757  0.632187  1
  Rh  Rh21  1  0.337248  0.168637  0.867815  1
  Rh  Rh22  1  0.831356  0.168621  0.867788  1
  Rh  Rh23  1  0.831339  0.662757  0.867813  1
