# generated using pymatgen
data_Sc2GaSi2Ru5
_symmetry_space_group_name_H-M   'P 1'
_cell_length_a   9.75907500
_cell_length_b   9.75907500
_cell_length_c   3.17217000
_cell_angle_alpha   90.00000000
_cell_angle_beta   90.00000000
_cell_angle_gamma   90.00000000
_symmetry_Int_Tables_number   1
_chemical_formula_structural   Sc2GaSi2Ru5
_chemical_formula_sum   'Sc4 Ga2 Si4 Ru10'
_cell_volume   302.11602700
_cell_formula_units_Z   2
loop_
 _symmetry_equiv_pos_site_id
 _symmetry_equiv_pos_as_xyz
  1  'x, y, z'
loop_
 _atom_site_type_symbol
 _atom_site_label
 _atom_site_symmetry_multiplicity
 _atom_site_fract_x
 _atom_site_fract_y
 _atom_site_fract_z
 _atom_site_occupancy
  Sc  Sc0  1  0.671648  0.171648  0.000000  1
  Sc  Sc1  1  0.328352  0.828352  0.000000  1
  Sc  Sc2  1  0.171648  0.328352  0.000000  1
  Sc  Sc3  1  0.828352  0.671648  0.000000  1
  Ga  Ga4  1  0.000000  0.000000  0.000000  1
  Ga  Ga5  1  0.500000  0.500000  0.000000  1
  Si  Si6  1  0.129563  0.629563  0.000000  1
  Si  Si7  1  0.870437  0.370437  0.000000  1
  Si  Si8  1  0.629563  0.870437  0.000000  1
  Si  Si9  1  0.370437  0.129563  0.000000  1
  Ru  Ru10  1  0.203231  0.067184  0.500000  1
  Ru  Ru11  1  0.796769  0.932816  0.500000  1
  Ru  Ru12  1  0.067184  0.796769  0.500000  1
  Ru  Ru13  1  0.703231  0.432816  0.500000  1
  Ru  Ru14  1  0.932816  0.203231  0.500000  1
  Ru  Ru15  1  0.296769  0.567184  0.500000  1
  Ru  Ru16  1  0.567184  0.703231  0.500000  1
  Ru  Ru17  1  0.432816  0.296769  0.500000  1
  Ru  Ru18  1  0.500000  0.000000  0.500000  1
  Ru  Ru19  1  0.000000  0.500000  0.500000  1
