# generated using pymatgen
data_Ca2DyCoSn6
_symmetry_space_group_name_H-M   'P 1'
_cell_length_a   8.42199517
_cell_length_b   8.42199600
_cell_length_c   13.38114500
_cell_angle_alpha   90.00000000
_cell_angle_beta   90.00000000
_cell_angle_gamma   147.69340559
_symmetry_Int_Tables_number   1
_chemical_formula_structural   Ca2DyCoSn6
_chemical_formula_sum   'Ca4 Dy2 Co2 Sn12'
_cell_volume   507.25936911
_cell_formula_units_Z   2
loop_
 _symmetry_equiv_pos_site_id
 _symmetry_equiv_pos_as_xyz
  1  'x, y, z'
loop_
 _atom_site_type_symbol
 _atom_site_label
 _atom_site_symmetry_multiplicity
 _atom_site_fract_x
 _atom_site_fract_y
 _atom_site_fract_z
 _atom_site_occupancy
  Ca  Ca0  1  0.901125  0.098875  0.096149  1
  Ca  Ca1  1  0.098875  0.901125  0.596149  1
  Ca  Ca2  1  0.098875  0.901125  0.903851  1
  Ca  Ca3  1  0.901125  0.098875  0.403851  1
  Dy  Dy4  1  0.900593  0.099407  0.750000  1
  Dy  Dy5  1  0.099407  0.900593  0.250000  1
  Co  Co6  1  0.295690  0.704310  0.250000  1
  Co  Co7  1  0.704310  0.295690  0.750000  1
  Sn  Sn8  1  0.757312  0.242688  0.572267  1
  Sn  Sn9  1  0.425740  0.574260  0.579311  1
  Sn  Sn10  1  0.574260  0.425740  0.420689  1
  Sn  Sn11  1  0.732471  0.267529  0.250000  1
  Sn  Sn12  1  0.267529  0.732471  0.750000  1
  Sn  Sn13  1  0.242688  0.757312  0.072267  1
  Sn  Sn14  1  0.242688  0.757312  0.427733  1
  Sn  Sn15  1  0.574260  0.425740  0.079311  1
  Sn  Sn16  1  0.454337  0.545663  0.250000  1
  Sn  Sn17  1  0.545663  0.454337  0.750000  1
  Sn  Sn18  1  0.757312  0.242688  0.927733  1
  Sn  Sn19  1  0.425740  0.574260  0.920689  1
