# generated using pymatgen
data_TbDy(Al5Rh)4
_symmetry_space_group_name_H-M   'P 1'
_cell_length_a   6.85077548
_cell_length_b   6.85077525
_cell_length_c   9.13778300
_cell_angle_alpha   90.00000000
_cell_angle_beta   90.00000000
_cell_angle_gamma   97.25713647
_symmetry_Int_Tables_number   1
_chemical_formula_structural   TbDy(Al5Rh)4
_chemical_formula_sum   'Tb1 Dy1 Al20 Rh4'
_cell_volume   425.42915499
_cell_formula_units_Z   1
loop_
 _symmetry_equiv_pos_site_id
 _symmetry_equiv_pos_as_xyz
  1  'x, y, z'
loop_
 _atom_site_type_symbol
 _atom_site_label
 _atom_site_symmetry_multiplicity
 _atom_site_fract_x
 _atom_site_fract_y
 _atom_site_fract_z
 _atom_site_occupancy
  Tb  Tb0  1  0.872085  0.127915  0.750000  1
  Dy  Dy1  1  0.128638  0.871362  0.250000  1
  Al  Al2  1  0.621935  0.378065  0.549785  1
  Al  Al3  1  0.377773  0.622227  0.449839  1
  Al  Al4  1  0.377773  0.622227  0.050161  1
  Al  Al5  1  0.621935  0.378065  0.950215  1
  Al  Al6  1  0.221562  0.221491  0.499988  1
  Al  Al7  1  0.778509  0.778438  0.499988  1
  Al  Al8  1  0.778509  0.778438  0.000012  1
  Al  Al9  1  0.221562  0.221491  0.000012  1
  Al  Al10  1  0.846112  0.153888  0.103636  1
  Al  Al11  1  0.153770  0.846230  0.897254  1
  Al  Al12  1  0.153770  0.846230  0.602746  1
  Al  Al13  1  0.846112  0.153888  0.396364  1
  Al  Al14  1  0.858124  0.592436  0.750000  1
  Al  Al15  1  0.141953  0.408130  0.250000  1
  Al  Al16  1  0.407564  0.141876  0.750000  1
  Al  Al17  1  0.591870  0.858047  0.250000  1
  Al  Al18  1  0.226420  0.480586  0.750000  1
  Al  Al19  1  0.773532  0.519221  0.250000  1
  Al  Al20  1  0.519414  0.773580  0.750000  1
  Al  Al21  1  0.480779  0.226468  0.250000  1
  Rh  Rh22  1  0.999976  0.499826  0.500094  1
  Rh  Rh23  1  0.999976  0.499826  0.999906  1
  Rh  Rh24  1  0.500174  0.000024  0.999906  1
  Rh  Rh25  1  0.500174  0.000024  0.500094  1
