# generated using pymatgen
data_ErTm2Lu(Si3Rh)2
_symmetry_space_group_name_H-M   'P 1'
_cell_length_a   8.12781217
_cell_length_b   8.12497100
_cell_length_c   7.75676500
_cell_angle_alpha   90.00000000
_cell_angle_beta   90.00000000
_cell_angle_gamma   119.98844315
_symmetry_Int_Tables_number   1
_chemical_formula_structural   ErTm2Lu(Si3Rh)2
_chemical_formula_sum   'Er2 Tm4 Lu2 Si12 Rh4'
_cell_volume   443.66718442
_cell_formula_units_Z   2
loop_
 _symmetry_equiv_pos_site_id
 _symmetry_equiv_pos_as_xyz
  1  'x, y, z'
loop_
 _atom_site_type_symbol
 _atom_site_label
 _atom_site_symmetry_multiplicity
 _atom_site_fract_x
 _atom_site_fract_y
 _atom_site_fract_z
 _atom_site_occupancy
  Er  Er0  1  0.999917  0.999942  0.750000  1
  Er  Er1  1  0.000083  0.000025  0.250000  1
  Tm  Tm2  1  0.981311  0.490605  0.250000  1
  Tm  Tm3  1  0.509269  0.490597  0.250000  1
  Tm  Tm4  1  0.490731  0.981328  0.750000  1
  Tm  Tm5  1  0.018689  0.509295  0.750000  1
  Lu  Lu6  1  0.490805  0.509240  0.750000  1
  Lu  Lu7  1  0.509195  0.018435  0.250000  1
  Si  Si8  1  0.167036  0.833090  0.499758  1
  Si  Si9  1  0.167125  0.334015  0.500005  1
  Si  Si10  1  0.665950  0.832920  0.499961  1
  Si  Si11  1  0.334050  0.166971  0.999961  1
  Si  Si12  1  0.832964  0.666054  0.500242  1
  Si  Si13  1  0.832875  0.166890  0.000005  1
  Si  Si14  1  0.832964  0.666054  0.999758  1
  Si  Si15  1  0.167125  0.334015  0.999995  1
  Si  Si16  1  0.665950  0.832920  0.000039  1
  Si  Si17  1  0.334050  0.166971  0.500039  1
  Si  Si18  1  0.832875  0.166890  0.499995  1
  Si  Si19  1  0.167036  0.833090  0.000242  1
  Rh  Rh20  1  0.333673  0.667001  0.034948  1
  Rh  Rh21  1  0.666327  0.333326  0.965052  1
  Rh  Rh22  1  0.666327  0.333326  0.534948  1
  Rh  Rh23  1  0.333673  0.667001  0.465052  1
