# generated using pymatgen
data_La16Cd4Os3Rh
_symmetry_space_group_name_H-M   'P 1'
_cell_length_a   10.06881137
_cell_length_b   10.12906747
_cell_length_c   10.12906600
_cell_angle_alpha   59.99999828
_cell_angle_beta   59.80183665
_cell_angle_gamma   59.80183982
_symmetry_Int_Tables_number   1
_chemical_formula_structural   La16Cd4Os3Rh
_chemical_formula_sum   'La16 Cd4 Os3 Rh1'
_cell_volume   728.27390185
_cell_formula_units_Z   1
loop_
 _symmetry_equiv_pos_site_id
 _symmetry_equiv_pos_as_xyz
  1  'x, y, z'
loop_
 _atom_site_type_symbol
 _atom_site_label
 _atom_site_symmetry_multiplicity
 _atom_site_fract_x
 _atom_site_fract_y
 _atom_site_fract_z
 _atom_site_occupancy
  La  La0  1  0.345075  0.347803  0.347803  1
  La  La1  1  0.345075  0.347803  0.959320  1
  La  La2  1  0.345075  0.959320  0.347803  1
  La  La3  1  0.962766  0.345744  0.345744  1
  La  La4  1  0.812959  0.189649  0.189649  1
  La  La5  1  0.188796  0.811412  0.811412  1
  La  La6  1  0.188796  0.811412  0.188381  1
  La  La7  1  0.812959  0.189649  0.807743  1
  La  La8  1  0.188796  0.188381  0.811412  1
  La  La9  1  0.812959  0.807743  0.189649  1
  La  La10  1  0.940577  0.559079  0.559079  1
  La  La11  1  0.556788  0.940451  0.940451  1
  La  La12  1  0.556788  0.940451  0.562312  1
  La  La13  1  0.940577  0.559079  0.941264  1
  La  La14  1  0.556788  0.562312  0.940451  1
  La  La15  1  0.940577  0.941264  0.559079  1
  Cd  Cd16  1  0.579387  0.579644  0.579644  1
  Cd  Cd17  1  0.579387  0.579644  0.261324  1
  Cd  Cd18  1  0.579387  0.261324  0.579644  1
  Cd  Cd19  1  0.261257  0.579581  0.579581  1
  Os  Os20  1  0.140639  0.137465  0.137465  1
  Os  Os21  1  0.140639  0.137465  0.584430  1
  Os  Os22  1  0.140639  0.584430  0.137465  1
  Rh  Rh23  1  0.583309  0.138897  0.138897  1
