# generated using pymatgen
data_Ho5Os2C7
_symmetry_space_group_name_H-M   'P 1'
_cell_length_a   8.14371116
_cell_length_b   8.14371037
_cell_length_c   3.50464700
_cell_angle_alpha   90.00000000
_cell_angle_beta   90.00000000
_cell_angle_gamma   121.96152413
_symmetry_Int_Tables_number   1
_chemical_formula_structural   Ho5Os2C7
_chemical_formula_sum   'Ho5 Os2 C7'
_cell_volume   197.19302444
_cell_formula_units_Z   1
loop_
 _symmetry_equiv_pos_site_id
 _symmetry_equiv_pos_as_xyz
  1  'x, y, z'
loop_
 _atom_site_type_symbol
 _atom_site_label
 _atom_site_symmetry_multiplicity
 _atom_site_fract_x
 _atom_site_fract_y
 _atom_site_fract_z
 _atom_site_occupancy
  Ho  Ho0  1  0.500000  0.500000  0.000000  1
  Ho  Ho1  1  0.076844  0.337435  0.500000  1
  Ho  Ho2  1  0.923156  0.662565  0.500000  1
  Ho  Ho3  1  0.662565  0.923156  0.500000  1
  Ho  Ho4  1  0.337435  0.076844  0.500000  1
  Os  Os5  1  0.713876  0.286124  0.000000  1
  Os  Os6  1  0.286124  0.713876  0.000000  1
  C  C7  1  0.631389  0.368611  0.500000  1
  C  C8  1  0.368611  0.631389  0.500000  1
  C  C9  1  0.000000  0.000000  0.000000  1
  C  C10  1  0.172122  0.172122  0.000000  1
  C  C11  1  0.827878  0.827878  0.000000  1
  C  C12  1  0.000000  0.500000  0.000000  1
  C  C13  1  0.500000  0.000000  0.000000  1
