# generated using pymatgen
data_Tm2GaB2IrRu4
_symmetry_space_group_name_H-M   'P 1'
_cell_length_a   9.55500606
_cell_length_b   9.54663406
_cell_length_c   3.08553700
_cell_angle_alpha   90.00000000
_cell_angle_beta   90.00000000
_cell_angle_gamma   90.01294594
_symmetry_Int_Tables_number   1
_chemical_formula_structural   Tm2GaB2IrRu4
_chemical_formula_sum   'Tm4 Ga2 B4 Ir2 Ru8'
_cell_volume   281.45695834
_cell_formula_units_Z   2
loop_
 _symmetry_equiv_pos_site_id
 _symmetry_equiv_pos_as_xyz
  1  'x, y, z'
loop_
 _atom_site_type_symbol
 _atom_site_label
 _atom_site_symmetry_multiplicity
 _atom_site_fract_x
 _atom_site_fract_y
 _atom_site_fract_z
 _atom_site_occupancy
  Tm  Tm0  1  0.822238  0.324121  0.000000  1
  Tm  Tm1  1  0.177762  0.675879  0.000000  1
  Tm  Tm2  1  0.326664  0.174720  0.000000  1
  Tm  Tm3  1  0.673336  0.825280  0.000000  1
  Ga  Ga4  1  0.500000  0.500000  0.000000  1
  Ga  Ga5  1  0.000000  0.000000  0.000000  1
  B  B6  1  0.622893  0.123124  0.000000  1
  B  B7  1  0.377107  0.876876  0.000000  1
  B  B8  1  0.124185  0.379718  0.000000  1
  B  B9  1  0.875815  0.620282  0.000000  1
  Ir  Ir10  1  0.069570  0.216799  0.500000  1
  Ir  Ir11  1  0.930430  0.783201  0.500000  1
  Ru  Ru12  1  0.500000  0.000000  0.500000  1
  Ru  Ru13  1  0.000000  0.500000  0.500000  1
  Ru  Ru14  1  0.717298  0.569357  0.500000  1
  Ru  Ru15  1  0.282702  0.430643  0.500000  1
  Ru  Ru16  1  0.216314  0.931195  0.500000  1
  Ru  Ru17  1  0.783686  0.068805  0.500000  1
  Ru  Ru18  1  0.430434  0.716696  0.500000  1
  Ru  Ru19  1  0.569566  0.283304  0.500000  1
