# generated using pymatgen
data_K4Ga7GePt8
_symmetry_space_group_name_H-M   'P 1'
_cell_length_a   6.64990280
_cell_length_b   8.23751646
_cell_length_c   8.53465769
_cell_angle_alpha   85.13737098
_cell_angle_beta   90.31127219
_cell_angle_gamma   90.33918915
_symmetry_Int_Tables_number   1
_chemical_formula_structural   K4Ga7GePt8
_chemical_formula_sum   'K4 Ga7 Ge1 Pt8'
_cell_volume   465.82075851
_cell_formula_units_Z   1
loop_
 _symmetry_equiv_pos_site_id
 _symmetry_equiv_pos_as_xyz
  1  'x, y, z'
loop_
 _atom_site_type_symbol
 _atom_site_label
 _atom_site_symmetry_multiplicity
 _atom_site_fract_x
 _atom_site_fract_y
 _atom_site_fract_z
 _atom_site_occupancy
  K  K0  1  0.884665  0.503286  0.768310  1
  K  K1  1  0.383730  0.996363  0.230383  1
  K  K2  1  0.613546  0.003290  0.766276  1
  K  K3  1  0.118373  0.496817  0.232206  1
  Ga  Ga4  1  0.076537  0.870676  0.928521  1
  Ga  Ga5  1  0.648147  0.308554  0.439373  1
  Ga  Ga6  1  0.143489  0.191498  0.557856  1
  Ga  Ga7  1  0.581106  0.630765  0.073274  1
  Ga  Ga8  1  0.922624  0.132660  0.069485  1
  Ga  Ga9  1  0.353143  0.689257  0.563391  1
  Ga  Ga10  1  0.421005  0.371832  0.927861  1
  Ge  Ge11  1  0.853604  0.808648  0.439043  1
  Pt  Pt12  1  0.891270  0.103013  0.370971  1
  Pt  Pt13  1  0.100244  0.891124  0.626374  1
  Pt  Pt14  1  0.171128  0.168669  0.852050  1
  Pt  Pt15  1  0.397768  0.391644  0.626892  1
  Pt  Pt16  1  0.328506  0.670897  0.857275  1
  Pt  Pt17  1  0.833656  0.832066  0.148742  1
  Pt  Pt18  1  0.670919  0.331154  0.145270  1
  Pt  Pt19  1  0.606537  0.607786  0.376448  1
