# generated using pymatgen
data_LuMg(SnRu)2
_symmetry_space_group_name_H-M   'P 1'
_cell_length_a   4.46703300
_cell_length_b   4.46703300
_cell_length_c   6.42812300
_cell_angle_alpha   90.00000000
_cell_angle_beta   90.00000000
_cell_angle_gamma   90.00000000
_symmetry_Int_Tables_number   1
_chemical_formula_structural   LuMg(SnRu)2
_chemical_formula_sum   'Lu1 Mg1 Sn2 Ru2'
_cell_volume   128.26923360
_cell_formula_units_Z   1
loop_
 _symmetry_equiv_pos_site_id
 _symmetry_equiv_pos_as_xyz
  1  'x, y, z'
loop_
 _atom_site_type_symbol
 _atom_site_label
 _atom_site_symmetry_multiplicity
 _atom_site_fract_x
 _atom_site_fract_y
 _atom_site_fract_z
 _atom_site_occupancy
  Lu  Lu0  1  0.000000  0.500000  0.275686  1
  Mg  Mg1  1  0.500000  0.000000  0.722645  1
  Sn  Sn2  1  0.500000  0.000000  0.240752  1
  Sn  Sn3  1  0.000000  0.500000  0.761934  1
  Ru  Ru4  1  0.000000  0.000000  0.999493  1
  Ru  Ru5  1  0.500000  0.500000  0.999493  1
