# generated using pymatgen
data_V13Rh3
_symmetry_space_group_name_H-M   'P 1'
_cell_length_a   4.78412600
_cell_length_b   4.77395600
_cell_length_c   9.55030400
_cell_angle_alpha   90.00000000
_cell_angle_beta   90.00000000
_cell_angle_gamma   90.00000000
_symmetry_Int_Tables_number   1
_chemical_formula_structural   V13Rh3
_chemical_formula_sum   'V13 Rh3'
_cell_volume   218.12137018
_cell_formula_units_Z   1
loop_
 _symmetry_equiv_pos_site_id
 _symmetry_equiv_pos_as_xyz
  1  'x, y, z'
loop_
 _atom_site_type_symbol
 _atom_site_label
 _atom_site_symmetry_multiplicity
 _atom_site_fract_x
 _atom_site_fract_y
 _atom_site_fract_z
 _atom_site_occupancy
  V  V0  1  0.500000  0.500000  0.500000  1
  V  V1  1  0.500000  0.000000  0.626407  1
  V  V2  1  0.500000  0.000000  0.122009  1
  V  V3  1  0.749005  0.500000  0.252193  1
  V  V4  1  0.749005  0.500000  0.747807  1
  V  V5  1  0.000000  0.746946  0.500000  1
  V  V6  1  0.000000  0.750052  0.000000  1
  V  V7  1  0.500000  0.000000  0.373593  1
  V  V8  1  0.500000  0.000000  0.877991  1
  V  V9  1  0.250995  0.500000  0.252193  1
  V  V10  1  0.250995  0.500000  0.747807  1
  V  V11  1  0.000000  0.253054  0.500000  1
  V  V12  1  0.000000  0.249948  0.000000  1
  Rh  Rh13  1  0.500000  0.500000  0.000000  1
  Rh  Rh14  1  0.000000  0.000000  0.249531  1
  Rh  Rh15  1  0.000000  0.000000  0.750469  1
