# generated using pymatgen
data_TbDy11Th4(MgRh)4
_symmetry_space_group_name_H-M   'P 1'
_cell_length_a   9.80319250
_cell_length_b   9.80319225
_cell_length_c   9.82153000
_cell_angle_alpha   59.93810208
_cell_angle_beta   59.93810293
_cell_angle_gamma   59.86175129
_symmetry_Int_Tables_number   1
_chemical_formula_structural   TbDy11Th4(MgRh)4
_chemical_formula_sum   'Tb1 Dy11 Th4 Mg4 Rh4'
_cell_volume   666.09670481
_cell_formula_units_Z   1
loop_
 _symmetry_equiv_pos_site_id
 _symmetry_equiv_pos_as_xyz
  1  'x, y, z'
loop_
 _atom_site_type_symbol
 _atom_site_label
 _atom_site_symmetry_multiplicity
 _atom_site_fract_x
 _atom_site_fract_y
 _atom_site_fract_z
 _atom_site_occupancy
  Tb  Tb0  1  0.934414  0.934414  0.565586  1
  Dy  Dy1  1  0.812840  0.187098  0.187083  1
  Dy  Dy2  1  0.187098  0.812840  0.812979  1
  Dy  Dy3  1  0.187098  0.812840  0.187083  1
  Dy  Dy4  1  0.812840  0.187098  0.812979  1
  Dy  Dy5  1  0.187616  0.187616  0.812384  1
  Dy  Dy6  1  0.813319  0.813319  0.186681  1
  Dy  Dy7  1  0.934825  0.565579  0.565968  1
  Dy  Dy8  1  0.565579  0.934825  0.933628  1
  Dy  Dy9  1  0.565579  0.934825  0.565968  1
  Dy  Dy10  1  0.934825  0.565579  0.933628  1
  Dy  Dy11  1  0.566139  0.566139  0.933861  1
  Th  Th12  1  0.348352  0.348352  0.347631  1
  Th  Th13  1  0.348352  0.348352  0.955667  1
  Th  Th14  1  0.349223  0.954231  0.348273  1
  Th  Th15  1  0.954231  0.349223  0.348273  1
  Mg  Mg16  1  0.579996  0.579996  0.580874  1
  Mg  Mg17  1  0.579996  0.579996  0.259134  1
  Mg  Mg18  1  0.579805  0.258980  0.580608  1
  Mg  Mg19  1  0.258980  0.579805  0.580608  1
  Rh  Rh20  1  0.144094  0.144094  0.144775  1
  Rh  Rh21  1  0.144094  0.144094  0.567035  1
  Rh  Rh22  1  0.143705  0.567001  0.144646  1
  Rh  Rh23  1  0.567001  0.143705  0.144646  1
