# generated using pymatgen
data_AcSi2IrRu
_symmetry_space_group_name_H-M   'P 1'
_cell_length_a   6.06754575
_cell_length_b   6.06754482
_cell_length_c   6.06754459
_cell_angle_alpha   139.11026822
_cell_angle_beta   139.11025882
_cell_angle_gamma   59.20676350
_symmetry_Int_Tables_number   1
_chemical_formula_structural   AcSi2IrRu
_chemical_formula_sum   'Ac1 Si2 Ir1 Ru1'
_cell_volume   94.79019465
_cell_formula_units_Z   1
loop_
 _symmetry_equiv_pos_site_id
 _symmetry_equiv_pos_as_xyz
  1  'x, y, z'
loop_
 _atom_site_type_symbol
 _atom_site_label
 _atom_site_symmetry_multiplicity
 _atom_site_fract_x
 _atom_site_fract_y
 _atom_site_fract_z
 _atom_site_occupancy
  Ac  Ac0  1  0.000000  0.000000  0.000000  1
  Si  Si1  1  0.639736  0.639736  0.000000  1
  Si  Si2  1  0.360264  0.360264  0.000000  1
  Ir  Ir3  1  0.250000  0.750000  0.500000  1
  Ru  Ru4  1  0.750000  0.250000  0.500000  1
