# generated using pymatgen
data_Ce3ZnCd2AgPt2
_symmetry_space_group_name_H-M   'P 1'
_cell_length_a   7.82073347
_cell_length_b   7.82073224
_cell_length_c   3.87897600
_cell_angle_alpha   90.00000000
_cell_angle_beta   90.00000000
_cell_angle_gamma   120.33521995
_symmetry_Int_Tables_number   1
_chemical_formula_structural   Ce3ZnCd2AgPt2
_chemical_formula_sum   'Ce3 Zn1 Cd2 Ag1 Pt2'
_cell_volume   204.76969837
_cell_formula_units_Z   1
loop_
 _symmetry_equiv_pos_site_id
 _symmetry_equiv_pos_as_xyz
  1  'x, y, z'
loop_
 _atom_site_type_symbol
 _atom_site_label
 _atom_site_symmetry_multiplicity
 _atom_site_fract_x
 _atom_site_fract_y
 _atom_site_fract_z
 _atom_site_occupancy
  Ce  Ce0  1  0.425520  0.425520  0.000000  1
  Ce  Ce1  1  0.584683  0.996466  0.000000  1
  Ce  Ce2  1  0.996466  0.584683  0.000000  1
  Zn  Zn3  1  0.736474  0.736474  0.500000  1
  Cd  Cd4  1  0.257779  0.004033  0.500000  1
  Cd  Cd5  1  0.004033  0.257779  0.500000  1
  Ag  Ag6  1  0.980673  0.980673  0.000000  1
  Pt  Pt7  1  0.670760  0.343611  0.500000  1
  Pt  Pt8  1  0.343611  0.670760  0.500000  1
