# generated using pymatgen
data_Hf8NbCo2Rh
_symmetry_space_group_name_H-M   'P 1'
_cell_length_a   8.66196815
_cell_length_b   8.66219002
_cell_length_c   8.66880000
_cell_angle_alpha   59.97504448
_cell_angle_beta   59.97412754
_cell_angle_gamma   60.04721727
_symmetry_Int_Tables_number   1
_chemical_formula_structural   Hf8NbCo2Rh
_chemical_formula_sum   'Hf16 Nb2 Co4 Rh2'
_cell_volume   459.91328799
_cell_formula_units_Z   2
loop_
 _symmetry_equiv_pos_site_id
 _symmetry_equiv_pos_as_xyz
  1  'x, y, z'
loop_
 _atom_site_type_symbol
 _atom_site_label
 _atom_site_symmetry_multiplicity
 _atom_site_fract_x
 _atom_site_fract_y
 _atom_site_fract_z
 _atom_site_occupancy
  Hf  Hf0  1  0.046835  0.649481  0.652021  1
  Hf  Hf1  1  0.649515  0.046844  0.652000  1
  Hf  Hf2  1  0.651519  0.651467  0.047746  1
  Hf  Hf3  1  0.651319  0.651267  0.649487  1
  Hf  Hf4  1  0.800257  0.800232  0.199521  1
  Hf  Hf5  1  0.202008  0.202071  0.797970  1
  Hf  Hf6  1  0.805279  0.197514  0.800846  1
  Hf  Hf7  1  0.197748  0.805250  0.196189  1
  Hf  Hf8  1  0.197488  0.805272  0.800847  1
  Hf  Hf9  1  0.805252  0.197777  0.196158  1
  Hf  Hf10  1  0.438062  0.438023  0.061953  1
  Hf  Hf11  1  0.066118  0.066138  0.433896  1
  Hf  Hf12  1  0.436203  0.064354  0.434853  1
  Hf  Hf13  1  0.064321  0.436248  0.064535  1
  Hf  Hf14  1  0.064339  0.436204  0.434884  1
  Hf  Hf15  1  0.436251  0.064336  0.064552  1
  Nb  Nb16  1  0.743428  0.417041  0.419785  1
  Nb  Nb17  1  0.417039  0.743413  0.419793  1
  Co  Co18  1  0.422147  0.859426  0.859232  1
  Co  Co19  1  0.859417  0.422142  0.859237  1
  Co  Co20  1  0.860064  0.860066  0.421903  1
  Co  Co21  1  0.860037  0.860044  0.857987  1
  Rh  Rh22  1  0.412679  0.412698  0.760615  1
  Rh  Rh23  1  0.412673  0.412691  0.413991  1
