# generated using pymatgen
data_Dy4Ga5Ir9
_symmetry_space_group_name_H-M   'P 1'
_cell_length_a   12.31927611
_cell_length_b   12.31927573
_cell_length_c   12.31927688
_cell_angle_alpha   26.05740166
_cell_angle_beta   26.05740267
_cell_angle_gamma   26.05739913
_symmetry_Int_Tables_number   1
_chemical_formula_structural   Dy4Ga5Ir9
_chemical_formula_sum   'Dy4 Ga5 Ir9'
_cell_volume   317.81011506
_cell_formula_units_Z   1
loop_
 _symmetry_equiv_pos_site_id
 _symmetry_equiv_pos_as_xyz
  1  'x, y, z'
loop_
 _atom_site_type_symbol
 _atom_site_label
 _atom_site_symmetry_multiplicity
 _atom_site_fract_x
 _atom_site_fract_y
 _atom_site_fract_z
 _atom_site_occupancy
  Dy  Dy0  1  0.952027  0.952027  0.952027  1
  Dy  Dy1  1  0.047973  0.047973  0.047973  1
  Dy  Dy2  1  0.854016  0.854016  0.854016  1
  Dy  Dy3  1  0.145984  0.145984  0.145984  1
  Ga  Ga4  1  0.500000  0.500000  0.500000  1
  Ga  Ga5  1  0.722007  0.722007  0.722007  1
  Ga  Ga6  1  0.277993  0.277993  0.277993  1
  Ga  Ga7  1  0.610117  0.610117  0.610117  1
  Ga  Ga8  1  0.389883  0.389883  0.389883  1
  Ir  Ir9  1  0.500000  0.500000  0.000000  1
  Ir  Ir10  1  0.000000  0.500000  0.500000  1
  Ir  Ir11  1  0.500000  0.000000  0.500000  1
  Ir  Ir12  1  0.384991  0.896327  0.384991  1
  Ir  Ir13  1  0.384991  0.384991  0.896327  1
  Ir  Ir14  1  0.896327  0.384991  0.384991  1
  Ir  Ir15  1  0.615009  0.103673  0.615009  1
  Ir  Ir16  1  0.615009  0.615009  0.103673  1
  Ir  Ir17  1  0.103673  0.615009  0.615009  1
