# generated using pymatgen
data_Y2Ho3Tm3(WO6)4
_symmetry_space_group_name_H-M   'P 1'
_cell_length_a   5.37846245
_cell_length_b   7.67516324
_cell_length_c   11.41422409
_cell_angle_alpha   75.45268615
_cell_angle_beta   89.99929709
_cell_angle_gamma   90.04543359
_symmetry_Int_Tables_number   1
_chemical_formula_structural   Y2Ho3Tm3(WO6)4
_chemical_formula_sum   'Y2 Ho3 Tm3 W4 O24'
_cell_volume   456.07964999
_cell_formula_units_Z   1
loop_
 _symmetry_equiv_pos_site_id
 _symmetry_equiv_pos_as_xyz
  1  'x, y, z'
loop_
 _atom_site_type_symbol
 _atom_site_label
 _atom_site_symmetry_multiplicity
 _atom_site_fract_x
 _atom_site_fract_y
 _atom_site_fract_z
 _atom_site_occupancy
  Y  Y0  1  0.684411  0.499537  0.750569  1
  Y  Y1  1  0.315953  0.499820  0.249833  1
  Ho  Ho2  1  0.740544  0.000325  0.750735  1
  Ho  Ho3  1  0.259591  0.000250  0.249434  1
  Ho  Ho4  1  0.185179  0.795935  0.577811  1
  Tm  Tm5  1  0.815424  0.795145  0.078262  1
  Tm  Tm6  1  0.184700  0.204864  0.921688  1
  Tm  Tm7  1  0.814788  0.205203  0.421504  1
  W  W8  1  0.255253  0.723765  0.886212  1
  W  W9  1  0.745287  0.723796  0.385064  1
  W  W10  1  0.254813  0.275825  0.614268  1
  W  W11  1  0.745114  0.275988  0.114273  1
  O  O12  1  0.043708  0.941152  0.896566  1
  O  O13  1  0.534999  0.846772  0.932488  1
  O  O14  1  0.956244  0.941540  0.395633  1
  O  O15  1  0.459209  0.791098  0.727648  1
  O  O16  1  0.466652  0.847808  0.430243  1
  O  O17  1  0.981427  0.712325  0.771336  1
  O  O18  1  0.542630  0.791221  0.225878  1
  O  O19  1  0.851184  0.634931  0.548489  1
  O  O20  1  0.358200  0.488428  0.887023  1
  O  O21  1  0.018583  0.712646  0.270083  1
  O  O22  1  0.360271  0.510325  0.613212  1
  O  O23  1  0.853706  0.364041  0.951173  1
  O  O24  1  0.146324  0.635655  0.049174  1
  O  O25  1  0.641238  0.488394  0.386336  1
  O  O26  1  0.982397  0.287843  0.730206  1
  O  O27  1  0.641779  0.511265  0.113056  1
  O  O28  1  0.146445  0.364355  0.451071  1
  O  O29  1  0.457275  0.207980  0.773831  1
  O  O30  1  0.018075  0.287304  0.229809  1
  O  O31  1  0.534153  0.152674  0.568250  1
  O  O32  1  0.542431  0.208478  0.273539  1
  O  O33  1  0.040766  0.060711  0.603652  1
  O  O34  1  0.464682  0.153636  0.068150  1
  O  O35  1  0.956566  0.058964  0.103501  1
