# generated using pymatgen
data_MgZn3(BiO3)8
_symmetry_space_group_name_H-M   'P 1'
_cell_length_a   4.94638478
_cell_length_b   9.89433667
_cell_length_c   9.94297900
_cell_angle_alpha   90.00001158
_cell_angle_beta   90.00000000
_cell_angle_gamma   90.11514550
_symmetry_Int_Tables_number   1
_chemical_formula_structural   MgZn3(BiO3)8
_chemical_formula_sum   'Mg1 Zn3 Bi8 O24'
_cell_volume   486.62030460
_cell_formula_units_Z   1
loop_
 _symmetry_equiv_pos_site_id
 _symmetry_equiv_pos_as_xyz
  1  'x, y, z'
loop_
 _atom_site_type_symbol
 _atom_site_label
 _atom_site_symmetry_multiplicity
 _atom_site_fract_x
 _atom_site_fract_y
 _atom_site_fract_z
 _atom_site_occupancy
  Mg  Mg0  1  0.500005  0.250009  0.500000  1
  Zn  Zn1  1  0.999806  0.500112  0.000000  1
  Zn  Zn2  1  0.499997  0.749996  0.500000  1
  Zn  Zn3  1  0.000193  0.999891  0.999999  1
  Bi  Bi4  1  0.000334  0.000500  0.332861  1
  Bi  Bi5  1  0.999663  0.499502  0.332855  1
  Bi  Bi6  1  0.000334  0.000500  0.667139  1
  Bi  Bi7  1  0.999663  0.499502  0.667145  1
  Bi  Bi8  1  0.500001  0.250004  0.167396  1
  Bi  Bi9  1  0.499997  0.750000  0.167565  1
  Bi  Bi10  1  0.500001  0.250004  0.832604  1
  Bi  Bi11  1  0.499997  0.749999  0.832435  1
  O  O12  1  0.197259  0.401165  0.500000  1
  O  O13  1  0.197282  0.901468  0.500000  1
  O  O14  1  0.302346  0.151107  0.000000  1
  O  O15  1  0.302134  0.651050  0.000000  1
  O  O16  1  0.697650  0.348898  0.000000  1
  O  O17  1  0.697879  0.848944  0.000000  1
  O  O18  1  0.802738  0.098832  0.500000  1
  O  O19  1  0.802718  0.598527  0.500000  1
  O  O20  1  0.191323  0.403976  0.164341  1
  O  O21  1  0.191361  0.904527  0.164461  1
  O  O22  1  0.191323  0.403976  0.835659  1
  O  O23  1  0.191361  0.904527  0.835539  1
  O  O24  1  0.309041  0.154536  0.336552  1
  O  O25  1  0.308357  0.654017  0.336174  1
  O  O26  1  0.309041  0.154536  0.663448  1
  O  O27  1  0.308357  0.654017  0.663827  1
  O  O28  1  0.690955  0.345468  0.336552  1
  O  O29  1  0.691656  0.845975  0.336174  1
  O  O30  1  0.690955  0.345468  0.663448  1
  O  O31  1  0.691657  0.845975  0.663826  1
  O  O32  1  0.808682  0.096025  0.164342  1
  O  O33  1  0.808625  0.595469  0.164461  1
  O  O34  1  0.808682  0.096024  0.835658  1
  O  O35  1  0.808626  0.595470  0.835539  1
