# generated using pymatgen
data_CaTb6FeBr12
_symmetry_space_group_name_H-M   'P 1'
_cell_length_a   9.24617553
_cell_length_b   9.24617590
_cell_length_c   9.24617635
_cell_angle_alpha   106.92631791
_cell_angle_beta   106.92633018
_cell_angle_gamma   106.92631143
_symmetry_Int_Tables_number   1
_chemical_formula_structural   CaTb6FeBr12
_chemical_formula_sum   'Ca1 Tb6 Fe1 Br12'
_cell_volume   659.63127389
_cell_formula_units_Z   1
loop_
 _symmetry_equiv_pos_site_id
 _symmetry_equiv_pos_as_xyz
  1  'x, y, z'
loop_
 _atom_site_type_symbol
 _atom_site_label
 _atom_site_symmetry_multiplicity
 _atom_site_fract_x
 _atom_site_fract_y
 _atom_site_fract_z
 _atom_site_occupancy
  Ca  Ca0  1  0.000000  0.000000  0.000000  1
  Tb  Tb1  1  0.805060  0.523807  0.599112  1
  Tb  Tb2  1  0.523807  0.599112  0.805060  1
  Tb  Tb3  1  0.194940  0.476193  0.400888  1
  Tb  Tb4  1  0.476193  0.400888  0.194940  1
  Tb  Tb5  1  0.599112  0.805060  0.523807  1
  Tb  Tb6  1  0.400888  0.194940  0.476193  1
  Fe  Fe7  1  0.500000  0.500000  0.500000  1
  Br  Br8  1  0.721731  0.182505  0.572493  1
  Br  Br9  1  0.952689  0.875242  0.653632  1
  Br  Br10  1  0.572493  0.721731  0.182505  1
  Br  Br11  1  0.124758  0.346368  0.047311  1
  Br  Br12  1  0.653632  0.952689  0.875242  1
  Br  Br13  1  0.875242  0.653632  0.952689  1
  Br  Br14  1  0.047311  0.124758  0.346368  1
  Br  Br15  1  0.817495  0.427507  0.278269  1
  Br  Br16  1  0.346368  0.047311  0.124758  1
  Br  Br17  1  0.278269  0.817495  0.427507  1
  Br  Br18  1  0.182505  0.572493  0.721731  1
  Br  Br19  1  0.427507  0.278269  0.817495  1
