# generated using pymatgen
data_ScTaNb(Ni10B3)2
_symmetry_space_group_name_H-M   'P 1'
_cell_length_a   7.50149008
_cell_length_b   7.50149068
_cell_length_c   7.50149000
_cell_angle_alpha   60.00000302
_cell_angle_beta   60.00000036
_cell_angle_gamma   60.00000799
_symmetry_Int_Tables_number   1
_chemical_formula_structural   ScTaNb(Ni10B3)2
_chemical_formula_sum   'Sc1 Ta1 Nb1 Ni20 B6'
_cell_volume   298.48855792
_cell_formula_units_Z   1
loop_
 _symmetry_equiv_pos_site_id
 _symmetry_equiv_pos_as_xyz
  1  'x, y, z'
loop_
 _atom_site_type_symbol
 _atom_site_label
 _atom_site_symmetry_multiplicity
 _atom_site_fract_x
 _atom_site_fract_y
 _atom_site_fract_z
 _atom_site_occupancy
  Sc  Sc0  1  0.750000  0.750000  0.750000  1
  Ta  Ta1  1  0.250000  0.250000  0.250000  1
  Nb  Nb2  1  0.000000  0.000000  0.000000  1
  Ni  Ni3  1  0.613283  0.613283  0.160149  1
  Ni  Ni4  1  0.613283  0.160149  0.613283  1
  Ni  Ni5  1  0.160149  0.613283  0.613283  1
  Ni  Ni6  1  0.613283  0.613283  0.613283  1
  Ni  Ni7  1  0.383607  0.383607  0.849180  1
  Ni  Ni8  1  0.383607  0.849180  0.383607  1
  Ni  Ni9  1  0.849180  0.383607  0.383607  1
  Ni  Ni10  1  0.383607  0.383607  0.383607  1
  Ni  Ni11  1  0.001872  0.001872  0.341223  1
  Ni  Ni12  1  0.655033  0.001872  0.341223  1
  Ni  Ni13  1  0.001872  0.655033  0.341223  1
  Ni  Ni14  1  0.655033  0.341223  0.001872  1
  Ni  Ni15  1  0.001872  0.341223  0.001872  1
  Ni  Ni16  1  0.001872  0.341223  0.655033  1
  Ni  Ni17  1  0.341223  0.655033  0.001872  1
  Ni  Ni18  1  0.341223  0.001872  0.655033  1
  Ni  Ni19  1  0.341223  0.001872  0.001872  1
  Ni  Ni20  1  0.001872  0.001872  0.655033  1
  Ni  Ni21  1  0.001872  0.655033  0.001872  1
  Ni  Ni22  1  0.655033  0.001872  0.001872  1
  B  B23  1  0.731701  0.731701  0.268299  1
  B  B24  1  0.268299  0.731701  0.268299  1
  B  B25  1  0.731701  0.268299  0.268299  1
  B  B26  1  0.268299  0.268299  0.731701  1
  B  B27  1  0.731701  0.268299  0.731701  1
  B  B28  1  0.268299  0.731701  0.731701  1
