# generated using pymatgen
data_LaTb5TaSbO14
_symmetry_space_group_name_H-M   'P 1'
_cell_length_a   6.52709967
_cell_length_b   6.52710017
_cell_length_c   7.60728795
_cell_angle_alpha   90.13073311
_cell_angle_beta   89.86926438
_cell_angle_gamma   109.15185050
_symmetry_Int_Tables_number   1
_chemical_formula_structural   LaTb5TaSbO14
_chemical_formula_sum   'La1 Tb5 Ta1 Sb1 O14'
_cell_volume   306.15454440
_cell_formula_units_Z   1
loop_
 _symmetry_equiv_pos_site_id
 _symmetry_equiv_pos_as_xyz
  1  'x, y, z'
loop_
 _atom_site_type_symbol
 _atom_site_label
 _atom_site_symmetry_multiplicity
 _atom_site_fract_x
 _atom_site_fract_y
 _atom_site_fract_z
 _atom_site_occupancy
  La  La0  1  0.500000  0.500000  0.500000  1
  Tb  Tb1  1  0.500000  0.500000  0.000000  1
  Tb  Tb2  1  0.532774  0.000660  0.751964  1
  Tb  Tb3  1  0.000660  0.532774  0.248036  1
  Tb  Tb4  1  0.467226  0.999340  0.248036  1
  Tb  Tb5  1  0.999340  0.467226  0.751964  1
  Ta  Ta6  1  0.000000  0.000000  0.500000  1
  Sb  Sb7  1  0.000000  0.000000  0.000000  1
  O  O8  1  0.681361  0.933409  0.468339  1
  O  O9  1  0.933409  0.681361  0.531661  1
  O  O10  1  0.680006  0.928485  0.030239  1
  O  O11  1  0.928485  0.680006  0.969761  1
  O  O12  1  0.318639  0.066591  0.531661  1
  O  O13  1  0.066591  0.318639  0.468339  1
  O  O14  1  0.319994  0.071515  0.969761  1
  O  O15  1  0.071515  0.319994  0.030239  1
  O  O16  1  0.933316  0.066684  0.749995  1
  O  O17  1  0.066684  0.933316  0.250005  1
  O  O18  1  0.366486  0.633514  0.760027  1
  O  O19  1  0.633514  0.366486  0.239973  1
  O  O20  1  0.639284  0.360716  0.758635  1
  O  O21  1  0.360716  0.639284  0.241365  1
