# generated using pymatgen
data_YbHf3(Nb3Si4)2
_symmetry_space_group_name_H-M   'P 1'
_cell_length_a   6.91019619
_cell_length_b   6.91282733
_cell_length_c   12.78848800
_cell_angle_alpha   90.00000000
_cell_angle_beta   90.00000000
_cell_angle_gamma   90.26850546
_symmetry_Int_Tables_number   1
_chemical_formula_structural   YbHf3(Nb3Si4)2
_chemical_formula_sum   'Yb2 Hf6 Nb12 Si16'
_cell_volume   610.88648639
_cell_formula_units_Z   2
loop_
 _symmetry_equiv_pos_site_id
 _symmetry_equiv_pos_as_xyz
  1  'x, y, z'
loop_
 _atom_site_type_symbol
 _atom_site_label
 _atom_site_symmetry_multiplicity
 _atom_site_fract_x
 _atom_site_fract_y
 _atom_site_fract_z
 _atom_site_occupancy
  Yb  Yb0  1  0.994672  0.337130  0.219842  1
  Yb  Yb1  1  0.005328  0.662870  0.719842  1
  Hf  Hf2  1  0.158612  0.501567  0.466604  1
  Hf  Hf3  1  0.498829  0.841384  0.031006  1
  Hf  Hf4  1  0.841388  0.498433  0.966604  1
  Hf  Hf5  1  0.501171  0.158616  0.531006  1
  Hf  Hf6  1  0.344392  0.003733  0.781864  1
  Hf  Hf7  1  0.655608  0.996267  0.281864  1
  Nb  Nb8  1  0.170462  0.168969  0.999535  1
  Nb  Nb9  1  0.829538  0.831031  0.499535  1
  Nb  Nb10  1  0.332825  0.672997  0.249869  1
  Nb  Nb11  1  0.667175  0.327003  0.749869  1
  Nb  Nb12  1  0.155751  0.997541  0.377521  1
  Nb  Nb13  1  0.844249  0.002459  0.877521  1
  Nb  Nb14  1  0.503345  0.650056  0.624961  1
  Nb  Nb15  1  0.349220  0.493270  0.875347  1
  Nb  Nb16  1  0.496655  0.349944  0.124961  1
  Nb  Nb17  1  0.650780  0.506730  0.375347  1
  Nb  Nb18  1  0.994976  0.150384  0.623776  1
  Nb  Nb19  1  0.005024  0.849616  0.123776  1
  Si  Si20  1  0.301390  0.045056  0.186555  1
  Si  Si21  1  0.698610  0.954944  0.686555  1
  Si  Si22  1  0.456409  0.800787  0.436133  1
  Si  Si23  1  0.199290  0.543990  0.063435  1
  Si  Si24  1  0.543591  0.199213  0.936133  1
  Si  Si25  1  0.800710  0.456010  0.563435  1
  Si  Si26  1  0.043416  0.295965  0.813390  1
  Si  Si27  1  0.956584  0.704035  0.313390  1
  Si  Si28  1  0.367032  0.293727  0.322659  1
  Si  Si29  1  0.632968  0.706273  0.822659  1
  Si  Si30  1  0.209930  0.865178  0.570203  1
  Si  Si31  1  0.138157  0.794334  0.929732  1
  Si  Si32  1  0.790070  0.134822  0.070203  1
  Si  Si33  1  0.861843  0.205666  0.429732  1
  Si  Si34  1  0.294016  0.361176  0.677566  1
  Si  Si35  1  0.705984  0.638824  0.177566  1
