# generated using pymatgen
data_Nd17Ho3(Ga5Sn)2
_symmetry_space_group_name_H-M   'P 1'
_cell_length_a   8.02456900
_cell_length_b   8.02456900
_cell_length_c   14.27149500
_cell_angle_alpha   90.00000000
_cell_angle_beta   90.00000000
_cell_angle_gamma   90.00000000
_symmetry_Int_Tables_number   1
_chemical_formula_structural   Nd17Ho3(Ga5Sn)2
_chemical_formula_sum   'Nd17 Ho3 Ga10 Sn2'
_cell_volume   918.99447656
_cell_formula_units_Z   1
loop_
 _symmetry_equiv_pos_site_id
 _symmetry_equiv_pos_as_xyz
  1  'x, y, z'
loop_
 _atom_site_type_symbol
 _atom_site_label
 _atom_site_symmetry_multiplicity
 _atom_site_fract_x
 _atom_site_fract_y
 _atom_site_fract_z
 _atom_site_occupancy
  Nd  Nd0  1  0.000000  0.500000  0.793351  1
  Nd  Nd1  1  0.678985  0.662882  0.609581  1
  Nd  Nd2  1  0.675478  0.336614  0.099856  1
  Nd  Nd3  1  0.823253  0.836616  0.389878  1
  Nd  Nd4  1  0.178664  0.839754  0.899944  1
  Nd  Nd5  1  0.321015  0.337118  0.609581  1
  Nd  Nd6  1  0.324522  0.663386  0.099856  1
  Nd  Nd7  1  0.176747  0.163384  0.389878  1
  Nd  Nd8  1  0.821336  0.160246  0.899944  1
  Nd  Nd9  1  0.663384  0.323253  0.389878  1
  Nd  Nd10  1  0.339754  0.321336  0.899944  1
  Nd  Nd11  1  0.162882  0.821015  0.609581  1
  Nd  Nd12  1  0.836614  0.824522  0.099856  1
  Nd  Nd13  1  0.336616  0.676747  0.389878  1
  Nd  Nd14  1  0.660246  0.678664  0.899944  1
  Nd  Nd15  1  0.837118  0.178985  0.609581  1
  Nd  Nd16  1  0.163386  0.175478  0.099856  1
  Ho  Ho17  1  0.000000  0.500000  0.245856  1
  Ho  Ho18  1  0.500000  0.000000  0.216299  1
  Ho  Ho19  1  0.500000  0.000000  0.749285  1
  Ga  Ga20  1  0.000000  0.500000  0.010058  1
  Ga  Ga21  1  0.500000  0.000000  0.998319  1
  Ga  Ga22  1  0.873271  0.879175  0.752146  1
  Ga  Ga23  1  0.875748  0.125498  0.246394  1
  Ga  Ga24  1  0.625498  0.624252  0.246394  1
  Ga  Ga25  1  0.379175  0.626729  0.752146  1
  Ga  Ga26  1  0.126729  0.120825  0.752146  1
  Ga  Ga27  1  0.124252  0.874502  0.246394  1
  Ga  Ga28  1  0.374502  0.375748  0.246394  1
  Ga  Ga29  1  0.620825  0.373271  0.752146  1
  Sn  Sn30  1  0.000000  0.500000  0.486194  1
  Sn  Sn31  1  0.500000  0.000000  0.509445  1
