# generated using pymatgen
data_Ce(Er2Os)2
_symmetry_space_group_name_H-M   'P 1'
_cell_length_a   6.37091060
_cell_length_b   7.22296858
_cell_length_c   8.47070412
_cell_angle_alpha   96.55972898
_cell_angle_beta   112.08956118
_cell_angle_gamma   89.99999858
_symmetry_Int_Tables_number   1
_chemical_formula_structural   Ce(Er2Os)2
_chemical_formula_sum   'Ce2 Er8 Os4'
_cell_volume   358.42782254
_cell_formula_units_Z   2
loop_
 _symmetry_equiv_pos_site_id
 _symmetry_equiv_pos_as_xyz
  1  'x, y, z'
loop_
 _atom_site_type_symbol
 _atom_site_label
 _atom_site_symmetry_multiplicity
 _atom_site_fract_x
 _atom_site_fract_y
 _atom_site_fract_z
 _atom_site_occupancy
  Ce  Ce0  1  0.798634  0.596544  0.808440  1
  Ce  Ce1  1  0.990194  0.903456  0.191560  1
  Er  Er2  1  0.211811  0.419628  0.179970  1
  Er  Er3  1  0.031840  0.080372  0.820030  1
  Er  Er4  1  0.204703  0.678480  0.564222  1
  Er  Er5  1  0.640481  0.821520  0.435778  1
  Er  Er6  1  0.785558  0.313072  0.435002  1
  Er  Er7  1  0.350556  0.186928  0.564998  1
  Er  Er8  1  0.429471  0.750000  0.000000  1
  Er  Er9  1  0.581666  0.250000  0.000000  1
  Os  Os10  1  0.611162  0.915291  0.779815  1
  Os  Os11  1  0.831347  0.584709  0.220185  1
  Os  Os12  1  0.374804  0.071807  0.217031  1
  Os  Os13  1  0.157774  0.428193  0.782969  1
