# generated using pymatgen
data_LaTh2(B2C)3
_symmetry_space_group_name_H-M   'P 1'
_cell_length_a   5.46573527
_cell_length_b   5.46573675
_cell_length_c   5.46573639
_cell_angle_alpha   75.65311535
_cell_angle_beta   75.65310805
_cell_angle_gamma   75.65310147
_symmetry_Int_Tables_number   1
_chemical_formula_structural   LaTh2(B2C)3
_chemical_formula_sum   'La1 Th2 B6 C3'
_cell_volume   150.20671304
_cell_formula_units_Z   1
loop_
 _symmetry_equiv_pos_site_id
 _symmetry_equiv_pos_as_xyz
  1  'x, y, z'
loop_
 _atom_site_type_symbol
 _atom_site_label
 _atom_site_symmetry_multiplicity
 _atom_site_fract_x
 _atom_site_fract_y
 _atom_site_fract_z
 _atom_site_occupancy
  La  La0  1  0.000000  0.000000  0.000000  1
  Th  Th1  1  0.686662  0.686662  0.686662  1
  Th  Th2  1  0.313338  0.313338  0.313338  1
  B  B3  1  0.500000  0.776512  0.223488  1
  B  B4  1  0.223488  0.500000  0.776512  1
  B  B5  1  0.776512  0.223488  0.500000  1
  B  B6  1  0.500000  0.223488  0.776512  1
  B  B7  1  0.223488  0.776512  0.500000  1
  B  B8  1  0.776512  0.500000  0.223488  1
  C  C9  1  0.000000  0.000000  0.500000  1
  C  C10  1  0.000000  0.500000  0.000000  1
  C  C11  1  0.500000  0.000000  0.000000  1
