# generated using pymatgen
data_Er15TmIn2(HgRh2)2
_symmetry_space_group_name_H-M   'P 1'
_cell_length_a   9.55372412
_cell_length_b   9.54428117
_cell_length_c   9.54428034
_cell_angle_alpha   59.91710013
_cell_angle_beta   59.95358060
_cell_angle_gamma   59.95358549
_symmetry_Int_Tables_number   1
_chemical_formula_structural   Er15TmIn2(HgRh2)2
_chemical_formula_sum   'Er15 Tm1 In2 Hg2 Rh4'
_cell_volume   614.56327932
_cell_formula_units_Z   1
loop_
 _symmetry_equiv_pos_site_id
 _symmetry_equiv_pos_as_xyz
  1  'x, y, z'
loop_
 _atom_site_type_symbol
 _atom_site_label
 _atom_site_symmetry_multiplicity
 _atom_site_fract_x
 _atom_site_fract_y
 _atom_site_fract_z
 _atom_site_occupancy
  Er  Er0  1  0.060691  0.065322  0.437655  1
  Er  Er1  1  0.436411  0.065225  0.437701  1
  Er  Er2  1  0.060691  0.437655  0.065322  1
  Er  Er3  1  0.051194  0.649515  0.649515  1
  Er  Er4  1  0.436411  0.437701  0.065225  1
  Er  Er5  1  0.648960  0.053677  0.648379  1
  Er  Er6  1  0.189122  0.811720  0.189464  1
  Er  Er7  1  0.189122  0.189464  0.811720  1
  Er  Er8  1  0.809629  0.811625  0.189610  1
  Er  Er9  1  0.436642  0.063376  0.063376  1
  Er  Er10  1  0.811340  0.188681  0.188681  1
  Er  Er11  1  0.062621  0.437343  0.437343  1
  Er  Er12  1  0.809629  0.189610  0.811625  1
  Er  Er13  1  0.190374  0.809715  0.809715  1
  Er  Er14  1  0.648960  0.648379  0.053677  1
  Tm  Tm15  1  0.649857  0.649582  0.649582  1
  In  In16  1  0.418232  0.746681  0.417110  1
  In  In17  1  0.418232  0.417110  0.746681  1
  Hg  Hg18  1  0.414117  0.414232  0.414232  1
  Hg  Hg19  1  0.757427  0.414285  0.414285  1
  Rh  Rh20  1  0.856937  0.856817  0.428695  1
  Rh  Rh21  1  0.857019  0.856959  0.856959  1
  Rh  Rh22  1  0.429446  0.856633  0.856633  1
  Rh  Rh23  1  0.856937  0.428695  0.856817  1
