# generated using pymatgen
data_Nd19TmIr5Pt7
_symmetry_space_group_name_H-M   'P 1'
_cell_length_a   11.40688286
_cell_length_b   11.40897515
_cell_length_c   6.48596734
_cell_angle_alpha   90.03626329
_cell_angle_beta   90.06397012
_cell_angle_gamma   90.00713830
_symmetry_Int_Tables_number   1
_chemical_formula_structural   Nd19TmIr5Pt7
_chemical_formula_sum   'Nd19 Tm1 Ir5 Pt7'
_cell_volume   844.08855687
_cell_formula_units_Z   1
loop_
 _symmetry_equiv_pos_site_id
 _symmetry_equiv_pos_as_xyz
  1  'x, y, z'
loop_
 _atom_site_type_symbol
 _atom_site_label
 _atom_site_symmetry_multiplicity
 _atom_site_fract_x
 _atom_site_fract_y
 _atom_site_fract_z
 _atom_site_occupancy
  Nd  Nd0  1  0.294589  0.088161  0.374539  1
  Nd  Nd1  1  0.295252  0.907096  0.874820  1
  Nd  Nd2  1  0.704547  0.088080  0.874848  1
  Nd  Nd3  1  0.704428  0.910407  0.373534  1
  Nd  Nd4  1  0.585469  0.791258  0.873424  1
  Nd  Nd5  1  0.588298  0.208046  0.377279  1
  Nd  Nd6  1  0.409696  0.789650  0.381044  1
  Nd  Nd7  1  0.410794  0.205373  0.875492  1
  Nd  Nd8  1  0.209808  0.414779  0.625045  1
  Nd  Nd9  1  0.209403  0.590486  0.120404  1
  Nd  Nd10  1  0.792677  0.411346  0.124082  1
  Nd  Nd11  1  0.793677  0.588967  0.622722  1
  Nd  Nd12  1  0.911782  0.705121  0.125342  1
  Nd  Nd13  1  0.911718  0.295285  0.625386  1
  Nd  Nd14  1  0.093039  0.704780  0.624753  1
  Nd  Nd15  1  0.089736  0.295644  0.126408  1
  Nd  Nd16  1  0.998967  0.999551  0.500328  1
  Nd  Nd17  1  0.000359  0.001089  0.999777  1
  Nd  Nd18  1  0.498077  0.500717  0.999375  1
  Tm  Tm19  1  0.499105  0.502231  0.500502  1
  Ir  Ir20  1  0.350737  0.648801  0.744314  1
  Ir  Ir21  1  0.500045  0.999945  0.116885  1
  Ir  Ir22  1  0.499991  0.000568  0.615266  1
  Ir  Ir23  1  0.999348  0.500030  0.884628  1
  Ir  Ir24  1  0.000097  0.500001  0.383306  1
  Pt  Pt25  1  0.845861  0.154389  0.250155  1
  Pt  Pt26  1  0.844907  0.846517  0.750780  1
  Pt  Pt27  1  0.153723  0.154813  0.749256  1
  Pt  Pt28  1  0.153111  0.846768  0.249918  1
  Pt  Pt29  1  0.650117  0.350705  0.743286  1
  Pt  Pt30  1  0.650794  0.650959  0.256339  1
  Pt  Pt31  1  0.349844  0.348438  0.256764  1
