# generated using pymatgen
data_Rb4Ho3Bi4(SbSe4)5
_symmetry_space_group_name_H-M   'P 1'
_cell_length_a   4.13374700
_cell_length_b   12.40912486
_cell_length_c   22.27152747
_cell_angle_alpha   89.95779088
_cell_angle_beta   90.00000000
_cell_angle_gamma   90.00000000
_symmetry_Int_Tables_number   1
_chemical_formula_structural   Rb4Ho3Bi4(SbSe4)5
_chemical_formula_sum   'Rb4 Ho3 Bi4 Sb5 Se20'
_cell_volume   1142.44403172
_cell_formula_units_Z   1
loop_
 _symmetry_equiv_pos_site_id
 _symmetry_equiv_pos_as_xyz
  1  'x, y, z'
loop_
 _atom_site_type_symbol
 _atom_site_label
 _atom_site_symmetry_multiplicity
 _atom_site_fract_x
 _atom_site_fract_y
 _atom_site_fract_z
 _atom_site_occupancy
  Rb  Rb0  1  0.250000  0.489324  0.210123  1
  Rb  Rb1  1  0.750000  0.510489  0.790091  1
  Rb  Rb2  1  0.750000  0.988916  0.289424  1
  Rb  Rb3  1  0.250000  0.010282  0.710189  1
  Ho  Ho4  1  0.250000  0.365521  0.023778  1
  Ho  Ho5  1  0.750000  0.634427  0.976189  1
  Ho  Ho6  1  0.750000  0.864745  0.475136  1
  Bi  Bi7  1  0.250000  0.593058  0.426514  1
  Bi  Bi8  1  0.750000  0.404455  0.572276  1
  Bi  Bi9  1  0.750000  0.095526  0.074105  1
  Bi  Bi10  1  0.250000  0.904432  0.925885  1
  Sb  Sb11  1  0.250000  0.128539  0.524367  1
  Sb  Sb12  1  0.250000  0.806388  0.126402  1
  Sb  Sb13  1  0.750000  0.193580  0.873526  1
  Sb  Sb14  1  0.750000  0.307211  0.373574  1
  Sb  Sb15  1  0.250000  0.691807  0.627482  1
  Se  Se16  1  0.250000  0.812010  0.390498  1
  Se  Se17  1  0.750000  0.190645  0.611789  1
  Se  Se18  1  0.750000  0.310540  0.109762  1
  Se  Se19  1  0.250000  0.689416  0.890173  1
  Se  Se20  1  0.250000  0.252110  0.298729  1
  Se  Se21  1  0.750000  0.747331  0.701875  1
  Se  Se22  1  0.750000  0.752411  0.201445  1
  Se  Se23  1  0.250000  0.247538  0.798388  1
  Se  Se24  1  0.250000  0.362135  0.479459  1
  Se  Se25  1  0.750000  0.645308  0.519523  1
  Se  Se26  1  0.750000  0.854569  0.019600  1
  Se  Se27  1  0.250000  0.145400  0.980312  1
  Se  Se28  1  0.250000  0.020045  0.159005  1
  Se  Se29  1  0.750000  0.979985  0.840919  1
  Se  Se30  1  0.750000  0.520242  0.340839  1
  Se  Se31  1  0.250000  0.481766  0.659159  1
  Se  Se32  1  0.250000  0.583420  0.060063  1
  Se  Se33  1  0.750000  0.416532  0.939903  1
  Se  Se34  1  0.750000  0.082163  0.438596  1
  Se  Se35  1  0.250000  0.917735  0.560903  1
