# generated using pymatgen
data_Nd8Tc3MoO24
_symmetry_space_group_name_H-M   'P 1'
_cell_length_a   10.20052759
_cell_length_b   10.20701189
_cell_length_c   5.60443582
_cell_angle_alpha   75.16677131
_cell_angle_beta   75.14979349
_cell_angle_gamma   69.10246085
_symmetry_Int_Tables_number   1
_chemical_formula_structural   Nd8Tc3MoO24
_chemical_formula_sum   'Nd8 Tc3 Mo1 O24'
_cell_volume   518.09862017
_cell_formula_units_Z   1
loop_
 _symmetry_equiv_pos_site_id
 _symmetry_equiv_pos_as_xyz
  1  'x, y, z'
loop_
 _atom_site_type_symbol
 _atom_site_label
 _atom_site_symmetry_multiplicity
 _atom_site_fract_x
 _atom_site_fract_y
 _atom_site_fract_z
 _atom_site_occupancy
  Nd  Nd0  1  0.109947  0.890271  0.751267  1
  Nd  Nd1  1  0.889778  0.110251  0.250691  1
  Nd  Nd2  1  0.060389  0.285717  0.627422  1
  Nd  Nd3  1  0.713069  0.939236  0.875791  1
  Nd  Nd4  1  0.939791  0.714462  0.372718  1
  Nd  Nd5  1  0.287668  0.059448  0.125615  1
  Nd  Nd6  1  0.629671  0.368264  0.750972  1
  Nd  Nd7  1  0.369674  0.629960  0.247380  1
  Tc  Tc8  1  0.199190  0.493998  0.946654  1
  Tc  Tc9  1  0.494157  0.199301  0.445292  1
  Tc  Tc10  1  0.800524  0.505566  0.053270  1
  Mo  Mo11  1  0.506053  0.797705  0.554849  1
  O  O12  1  0.612744  0.179005  0.145283  1
  O  O13  1  0.822064  0.388030  0.353491  1
  O  O14  1  0.386328  0.825989  0.858450  1
  O  O15  1  0.178047  0.611803  0.646456  1
  O  O16  1  0.472848  0.070727  0.733192  1
  O  O17  1  0.928803  0.528069  0.764201  1
  O  O18  1  0.525721  0.932085  0.261451  1
  O  O19  1  0.070109  0.472453  0.234738  1
  O  O20  1  0.322072  0.214225  0.372983  1
  O  O21  1  0.785995  0.677308  0.128028  1
  O  O22  1  0.675587  0.787466  0.627903  1
  O  O23  1  0.213865  0.322217  0.873687  1
  O  O24  1  0.889073  0.925432  0.074387  1
  O  O25  1  0.075726  0.110443  0.425208  1
  O  O26  1  0.110618  0.075218  0.925593  1
  O  O27  1  0.925627  0.888664  0.574643  1
  O  O28  1  0.161166  0.689204  0.090276  1
  O  O29  1  0.313003  0.836972  0.415652  1
  O  O30  1  0.838396  0.310915  0.910512  1
  O  O31  1  0.689604  0.160824  0.590210  1
  O  O32  1  0.382235  0.460924  0.977900  1
  O  O33  1  0.542778  0.615484  0.517683  1
  O  O34  1  0.617505  0.539986  0.019019  1
  O  O35  1  0.460175  0.382378  0.477134  1
