# generated using pymatgen
data_Tb3ErBCl6
_symmetry_space_group_name_H-M   'P 1'
_cell_length_a   3.87683900
_cell_length_b   12.65294185
_cell_length_c   13.13955618
_cell_angle_alpha   89.62509329
_cell_angle_beta   90.00000000
_cell_angle_gamma   90.00000000
_symmetry_Int_Tables_number   1
_chemical_formula_structural   Tb3ErBCl6
_chemical_formula_sum   'Tb6 Er2 B2 Cl12'
_cell_volume   644.52634939
_cell_formula_units_Z   2
loop_
 _symmetry_equiv_pos_site_id
 _symmetry_equiv_pos_as_xyz
  1  'x, y, z'
loop_
 _atom_site_type_symbol
 _atom_site_label
 _atom_site_symmetry_multiplicity
 _atom_site_fract_x
 _atom_site_fract_y
 _atom_site_fract_z
 _atom_site_occupancy
  Tb  Tb0  1  0.000000  0.107387  0.084734  1
  Tb  Tb1  1  0.000000  0.892613  0.915266  1
  Tb  Tb2  1  0.500000  0.127727  0.849802  1
  Tb  Tb3  1  0.500000  0.872273  0.150198  1
  Tb  Tb4  1  0.500000  0.626310  0.648795  1
  Tb  Tb5  1  0.500000  0.373690  0.351205  1
  Er  Er6  1  0.000000  0.604858  0.416995  1
  Er  Er7  1  0.000000  0.395142  0.583005  1
  B  B8  1  0.500000  0.000000  0.000000  1
  B  B9  1  0.500000  0.500000  0.500000  1
  Cl  Cl10  1  0.500000  0.271490  0.680176  1
  Cl  Cl11  1  0.500000  0.728510  0.319824  1
  Cl  Cl12  1  0.500000  0.766817  0.816464  1
  Cl  Cl13  1  0.500000  0.233183  0.183536  1
  Cl  Cl14  1  0.000000  0.258112  0.928292  1
  Cl  Cl15  1  0.000000  0.741888  0.071708  1
  Cl  Cl16  1  0.000000  0.481702  0.244370  1
  Cl  Cl17  1  0.000000  0.518298  0.755630  1
  Cl  Cl18  1  0.000000  0.977552  0.257873  1
  Cl  Cl19  1  0.000000  0.022448  0.742127  1
  Cl  Cl20  1  0.000000  0.243660  0.432585  1
  Cl  Cl21  1  0.000000  0.756340  0.567415  1
