# generated using pymatgen
data_Y20Ir3Ru5Au4
_symmetry_space_group_name_H-M   'P 1'
_cell_length_a   11.16578379
_cell_length_b   11.17820740
_cell_length_c   6.39518400
_cell_angle_alpha   90.12435905
_cell_angle_beta   89.74940870
_cell_angle_gamma   89.59496055
_symmetry_Int_Tables_number   1
_chemical_formula_structural   Y20Ir3Ru5Au4
_chemical_formula_sum   'Y20 Ir3 Ru5 Au4'
_cell_volume   798.17544613
_cell_formula_units_Z   1
loop_
 _symmetry_equiv_pos_site_id
 _symmetry_equiv_pos_as_xyz
  1  'x, y, z'
loop_
 _atom_site_type_symbol
 _atom_site_label
 _atom_site_symmetry_multiplicity
 _atom_site_fract_x
 _atom_site_fract_y
 _atom_site_fract_z
 _atom_site_occupancy
  Y  Y0  1  0.293890  0.093224  0.375064  1
  Y  Y1  1  0.296650  0.916335  0.860845  1
  Y  Y2  1  0.693789  0.080845  0.863182  1
  Y  Y3  1  0.698476  0.908466  0.363483  1
  Y  Y4  1  0.578153  0.789593  0.874027  1
  Y  Y5  1  0.573340  0.201677  0.364084  1
  Y  Y6  1  0.417517  0.792475  0.374843  1
  Y  Y7  1  0.402755  0.204904  0.878877  1
  Y  Y8  1  0.211814  0.410629  0.623629  1
  Y  Y9  1  0.207299  0.579076  0.125011  1
  Y  Y10  1  0.797621  0.423635  0.137793  1
  Y  Y11  1  0.796788  0.586695  0.623408  1
  Y  Y12  1  0.912316  0.700256  0.133802  1
  Y  Y13  1  0.927422  0.297960  0.640132  1
  Y  Y14  1  0.092967  0.695941  0.636161  1
  Y  Y15  1  0.095927  0.296763  0.126374  1
  Y  Y16  1  0.006237  0.004263  0.502244  1
  Y  Y17  1  0.003676  0.009868  0.999600  1
  Y  Y18  1  0.496903  0.502291  0.999738  1
  Y  Y19  1  0.497403  0.504732  0.497804  1
  Ir  Ir20  1  0.653445  0.651725  0.249455  1
  Ir  Ir21  1  0.349555  0.348698  0.249115  1
  Ir  Ir22  1  0.346322  0.655188  0.752633  1
  Ru  Ru23  1  0.149498  0.151059  0.748881  1
  Ru  Ru24  1  0.499110  0.998588  0.121104  1
  Ru  Ru25  1  0.498994  0.999453  0.621151  1
  Ru  Ru26  1  0.000813  0.500423  0.878516  1
  Ru  Ru27  1  0.000368  0.500807  0.378837  1
  Au  Au28  1  0.840513  0.159553  0.253347  1
  Au  Au29  1  0.845691  0.848036  0.752155  1
  Au  Au30  1  0.156955  0.842801  0.248014  1
  Au  Au31  1  0.657793  0.344043  0.746692  1
