# generated using pymatgen
data_Yb4Si3Rh4
_symmetry_space_group_name_H-M   'P 1'
_cell_length_a   10.55271155
_cell_length_b   10.55271157
_cell_length_c   7.54612720
_cell_angle_alpha   72.57336410
_cell_angle_beta   72.57336336
_cell_angle_gamma   31.14631071
_symmetry_Int_Tables_number   1
_chemical_formula_structural   Yb4Si3Rh4
_chemical_formula_sum   'Yb8 Si6 Rh8'
_cell_volume   413.10285868
_cell_formula_units_Z   2
loop_
 _symmetry_equiv_pos_site_id
 _symmetry_equiv_pos_as_xyz
  1  'x, y, z'
loop_
 _atom_site_type_symbol
 _atom_site_label
 _atom_site_symmetry_multiplicity
 _atom_site_fract_x
 _atom_site_fract_y
 _atom_site_fract_z
 _atom_site_occupancy
  Yb  Yb0  1  0.211169  0.445298  0.410164  1
  Yb  Yb1  1  0.554702  0.788831  0.089836  1
  Yb  Yb2  1  0.445298  0.211169  0.910164  1
  Yb  Yb3  1  0.922596  0.212597  0.335732  1
  Yb  Yb4  1  0.787403  0.077404  0.164268  1
  Yb  Yb5  1  0.077404  0.787403  0.664268  1
  Yb  Yb6  1  0.212597  0.922596  0.835732  1
  Yb  Yb7  1  0.788831  0.554702  0.589836  1
  Si  Si8  1  0.600433  0.399567  0.750000  1
  Si  Si9  1  0.399567  0.600433  0.250000  1
  Si  Si10  1  0.306566  0.040403  0.438671  1
  Si  Si11  1  0.959597  0.693434  0.061329  1
  Si  Si12  1  0.693434  0.959597  0.561329  1
  Si  Si13  1  0.040403  0.306566  0.938671  1
  Rh  Rh14  1  0.293020  0.582531  0.024696  1
  Rh  Rh15  1  0.582531  0.293020  0.524696  1
  Rh  Rh16  1  0.706980  0.417469  0.975304  1
  Rh  Rh17  1  0.078483  0.362608  0.189702  1
  Rh  Rh18  1  0.637392  0.921517  0.310298  1
  Rh  Rh19  1  0.417469  0.706980  0.475304  1
  Rh  Rh20  1  0.921517  0.637392  0.810298  1
  Rh  Rh21  1  0.362608  0.078483  0.689702  1
