# generated using pymatgen
data_PrSmCuSi3
_symmetry_space_group_name_H-M   'P 1'
_cell_length_a   11.03972494
_cell_length_b   9.44209183
_cell_length_c   8.09638189
_cell_angle_alpha   77.60101747
_cell_angle_beta   56.65071132
_cell_angle_gamma   45.74827999
_symmetry_Int_Tables_number   1
_chemical_formula_structural   PrSmCuSi3
_chemical_formula_sum   'Pr4 Sm4 Cu4 Si12'
_cell_volume   484.42917840
_cell_formula_units_Z   4
loop_
 _symmetry_equiv_pos_site_id
 _symmetry_equiv_pos_as_xyz
  1  'x, y, z'
loop_
 _atom_site_type_symbol
 _atom_site_label
 _atom_site_symmetry_multiplicity
 _atom_site_fract_x
 _atom_site_fract_y
 _atom_site_fract_z
 _atom_site_occupancy
  Pr  Pr0  1  0.377341  0.377341  0.622659  1
  Pr  Pr1  1  0.622659  0.622659  0.377341  1
  Pr  Pr2  1  0.872659  0.872659  0.627341  1
  Pr  Pr3  1  0.627341  0.627341  0.872659  1
  Sm  Sm4  1  0.875363  0.875363  0.124637  1
  Sm  Sm5  1  0.124637  0.124637  0.875363  1
  Sm  Sm6  1  0.374637  0.374637  0.125363  1
  Sm  Sm7  1  0.125363  0.125363  0.374637  1
  Cu  Cu8  1  0.833463  0.166537  0.833463  1
  Cu  Cu9  1  0.166537  0.833463  0.166537  1
  Cu  Cu10  1  0.416537  0.083463  0.416537  1
  Cu  Cu11  1  0.083463  0.416537  0.083463  1
  Si  Si12  1  0.669636  0.330364  0.669636  1
  Si  Si13  1  0.330364  0.669636  0.330364  1
  Si  Si14  1  0.580364  0.919636  0.580364  1
  Si  Si15  1  0.919636  0.580364  0.919636  1
  Si  Si16  1  0.327606  0.667694  0.841916  1
  Si  Si17  1  0.162782  0.841916  0.667694  1
  Si  Si18  1  0.841916  0.162782  0.327606  1
  Si  Si19  1  0.667694  0.327606  0.162782  1
  Si  Si20  1  0.922394  0.582306  0.408084  1
  Si  Si21  1  0.087218  0.408084  0.582306  1
  Si  Si22  1  0.408084  0.087218  0.922394  1
  Si  Si23  1  0.582306  0.922394  0.087218  1
