# generated using pymatgen
data_Na(V3Se4)4
_symmetry_space_group_name_H-M   'P 1'
_cell_length_a   10.19595333
_cell_length_b   10.19595227
_cell_length_c   9.62686649
_cell_angle_alpha   61.80694848
_cell_angle_beta   61.80695093
_cell_angle_gamma   38.58956174
_symmetry_Int_Tables_number   1
_chemical_formula_structural   Na(V3Se4)4
_chemical_formula_sum   'Na1 V12 Se16'
_cell_volume   540.39415240
_cell_formula_units_Z   1
loop_
 _symmetry_equiv_pos_site_id
 _symmetry_equiv_pos_as_xyz
  1  'x, y, z'
loop_
 _atom_site_type_symbol
 _atom_site_label
 _atom_site_symmetry_multiplicity
 _atom_site_fract_x
 _atom_site_fract_y
 _atom_site_fract_z
 _atom_site_occupancy
  Na  Na0  1  0.374856  0.374856  0.999354  1
  V  V1  1  0.929860  0.929860  0.510225  1
  V  V2  1  0.428999  0.428999  0.512395  1
  V  V3  1  0.130436  0.130436  0.382035  1
  V  V4  1  0.631072  0.631072  0.377970  1
  V  V5  1  0.063844  0.063844  0.110122  1
  V  V6  1  0.565953  0.565953  0.107233  1
  V  V7  1  0.068961  0.572408  0.492591  1
  V  V8  1  0.572408  0.068961  0.492591  1
  V  V9  1  0.880529  0.361762  0.616066  1
  V  V10  1  0.361762  0.880529  0.616066  1
  V  V11  1  0.925300  0.441025  0.891464  1
  V  V12  1  0.441025  0.925300  0.891464  1
  Se  Se13  1  0.520618  0.520618  0.657050  1
  Se  Se14  1  0.016832  0.016832  0.659128  1
  Se  Se15  1  0.704542  0.704542  0.056620  1
  Se  Se16  1  0.203512  0.203512  0.052423  1
  Se  Se17  1  0.401825  0.401825  0.288490  1
  Se  Se18  1  0.902592  0.902592  0.286949  1
  Se  Se19  1  0.483968  0.983285  0.337636  1
  Se  Se20  1  0.983285  0.483968  0.337636  1
  Se  Se21  1  0.292558  0.795171  0.945105  1
  Se  Se22  1  0.795171  0.292558  0.945105  1
  Se  Se23  1  0.599449  0.095856  0.717061  1
  Se  Se24  1  0.095856  0.599449  0.717061  1
  Se  Se25  1  0.707450  0.707450  0.665486  1
  Se  Se26  1  0.208921  0.208921  0.668134  1
  Se  Se27  1  0.292033  0.791381  0.333271  1
  Se  Se28  1  0.791381  0.292033  0.333271  1
