# generated using pymatgen
data_In13Ga5
_symmetry_space_group_name_H-M   'P 1'
_cell_length_a   17.52162452
_cell_length_b   17.52162411
_cell_length_c   7.43029200
_cell_angle_alpha   95.88449613
_cell_angle_beta   95.88449599
_cell_angle_gamma   11.47330136
_symmetry_Int_Tables_number   1
_chemical_formula_structural   In13Ga5
_chemical_formula_sum   'In13 Ga5'
_cell_volume   451.33211314
_cell_formula_units_Z   1
loop_
 _symmetry_equiv_pos_site_id
 _symmetry_equiv_pos_as_xyz
  1  'x, y, z'
loop_
 _atom_site_type_symbol
 _atom_site_label
 _atom_site_symmetry_multiplicity
 _atom_site_fract_x
 _atom_site_fract_y
 _atom_site_fract_z
 _atom_site_occupancy
  In  In0  1  0.112267  0.112267  0.067931  1
  In  In1  1  0.221379  0.221379  0.120212  1
  In  In2  1  0.335670  0.335670  0.170514  1
  In  In3  1  0.444273  0.444273  0.216939  1
  In  In4  1  0.556654  0.556654  0.289104  1
  In  In5  1  0.780925  0.780925  0.401356  1
  In  In6  1  0.000000  0.000000  0.500000  1
  In  In7  1  0.219075  0.219075  0.598645  1
  In  In8  1  0.443346  0.443346  0.710896  1
  In  In9  1  0.555727  0.555727  0.783060  1
  In  In10  1  0.664329  0.664329  0.829486  1
  In  In11  1  0.778620  0.778620  0.879787  1
  In  In12  1  0.887734  0.887734  0.932070  1
  Ga  Ga13  1  0.000000  0.000000  0.000000  1
  Ga  Ga14  1  0.663669  0.663669  0.341421  1
  Ga  Ga15  1  0.887949  0.887949  0.442118  1
  Ga  Ga16  1  0.112051  0.112051  0.557883  1
  Ga  Ga17  1  0.336331  0.336331  0.658579  1
