# generated using pymatgen
data_Ti8Al14Fe7As
_symmetry_space_group_name_H-M   'P 1'
_cell_length_a   8.43756460
_cell_length_b   8.43756308
_cell_length_c   8.43756358
_cell_angle_alpha   120.19060023
_cell_angle_beta   119.88722615
_cell_angle_gamma   89.93281637
_symmetry_Int_Tables_number   1
_chemical_formula_structural   Ti8Al14Fe7As
_chemical_formula_sum   'Ti8 Al14 Fe7 As1'
_cell_volume   424.49887972
_cell_formula_units_Z   1
loop_
 _symmetry_equiv_pos_site_id
 _symmetry_equiv_pos_as_xyz
  1  'x, y, z'
loop_
 _atom_site_type_symbol
 _atom_site_label
 _atom_site_symmetry_multiplicity
 _atom_site_fract_x
 _atom_site_fract_y
 _atom_site_fract_z
 _atom_site_occupancy
  Ti  Ti0  1  0.794439  0.285505  0.073395  1
  Ti  Ti1  1  0.212111  0.285505  0.491065  1
  Ti  Ti2  1  0.210414  0.710414  0.500000  1
  Ti  Ti3  1  0.212111  0.721046  0.926605  1
  Ti  Ti4  1  0.794439  0.721046  0.508935  1
  Ti  Ti5  1  0.783894  0.283894  0.500000  1
  Ti  Ti6  1  0.380839  0.119726  0.738887  1
  Ti  Ti7  1  0.380839  0.641953  0.261113  1
  Al  Al8  1  0.163465  0.339869  0.176403  1
  Al  Al9  1  0.163465  0.987062  0.823597  1
  Al  Al10  1  0.159894  0.341002  0.818893  1
  Al  Al11  1  0.522107  0.341002  0.181107  1
  Al  Al12  1  0.837976  0.659340  0.821367  1
  Al  Al13  1  0.837976  0.016609  0.178633  1
  Al  Al14  1  0.838476  0.659272  0.179205  1
  Al  Al15  1  0.480068  0.659272  0.820795  1
  Al  Al16  1  0.383307  0.120069  0.263238  1
  Al  Al17  1  0.856831  0.120069  0.736762  1
  Al  Al18  1  0.618184  0.877864  0.259680  1
  Al  Al19  1  0.618184  0.358504  0.740320  1
  Al  Al20  1  0.616595  0.878908  0.737688  1
  Al  Al21  1  0.141219  0.878908  0.262312  1
  Fe  Fe22  1  0.000747  0.999899  0.501054  1
  Fe  Fe23  1  0.498844  0.999899  0.999151  1
  Fe  Fe24  1  0.498389  0.498389  0.000000  1
  Fe  Fe25  1  0.498844  0.499693  0.498946  1
  Fe  Fe26  1  0.000747  0.499693  0.000849  1
  Fe  Fe27  1  0.000632  0.000632  0.000000  1
  Fe  Fe28  1  0.498181  0.998181  0.500000  1
  As  As29  1  0.996780  0.496780  0.500000  1
