# generated using pymatgen
data_Tb2Dy2SiSe3
_symmetry_space_group_name_H-M   'P 1'
_cell_length_a   7.13016901
_cell_length_b   7.13016869
_cell_length_c   7.13016909
_cell_angle_alpha   132.03806303
_cell_angle_beta   132.03806416
_cell_angle_gamma   70.16891623
_symmetry_Int_Tables_number   1
_chemical_formula_structural   Tb2Dy2SiSe3
_chemical_formula_sum   'Tb2 Dy2 Si1 Se3'
_cell_volume   195.99874720
_cell_formula_units_Z   1
loop_
 _symmetry_equiv_pos_site_id
 _symmetry_equiv_pos_as_xyz
  1  'x, y, z'
loop_
 _atom_site_type_symbol
 _atom_site_label
 _atom_site_symmetry_multiplicity
 _atom_site_fract_x
 _atom_site_fract_y
 _atom_site_fract_z
 _atom_site_occupancy
  Tb  Tb0  1  0.240743  0.240743  0.000000  1
  Tb  Tb1  1  0.759257  0.759257  0.000000  1
  Dy  Dy2  1  0.500000  0.000000  0.500000  1
  Dy  Dy3  1  0.000000  0.500000  0.500000  1
  Si  Si4  1  0.000000  0.000000  0.000000  1
  Se  Se5  1  0.500000  0.500000  0.000000  1
  Se  Se6  1  0.750000  0.250000  0.500000  1
  Se  Se7  1  0.250000  0.750000  0.500000  1
