# generated using pymatgen
data_SmHo3Al24Pt7Au2
_symmetry_space_group_name_H-M   'P 1'
_cell_length_a   7.56020231
_cell_length_b   7.58414696
_cell_length_c   13.18144200
_cell_angle_alpha   84.56931403
_cell_angle_beta   79.03930689
_cell_angle_gamma   59.90743734
_symmetry_Int_Tables_number   1
_chemical_formula_structural   SmHo3Al24Pt7Au2
_chemical_formula_sum   'Sm1 Ho3 Al24 Pt7 Au2'
_cell_volume   641.99570045
_cell_formula_units_Z   1
loop_
 _symmetry_equiv_pos_site_id
 _symmetry_equiv_pos_as_xyz
  1  'x, y, z'
loop_
 _atom_site_type_symbol
 _atom_site_label
 _atom_site_symmetry_multiplicity
 _atom_site_fract_x
 _atom_site_fract_y
 _atom_site_fract_z
 _atom_site_occupancy
  Sm  Sm0  1  0.391781  0.169662  0.809904  1
  Ho  Ho1  1  0.607574  0.830575  0.190875  1
  Ho  Ho2  1  0.733869  0.499004  0.809860  1
  Ho  Ho3  1  0.266205  0.500779  0.190132  1
  Al  Al4  1  0.683460  0.833611  0.945625  1
  Al  Al5  1  0.316706  0.165575  0.055932  1
  Al  Al6  1  0.145935  0.839044  0.561831  1
  Al  Al7  1  0.854323  0.160878  0.437764  1
  Al  Al8  1  0.488164  0.159189  0.559134  1
  Al  Al9  1  0.512024  0.840736  0.440378  1
  Al  Al10  1  0.223525  0.160467  0.325192  1
  Al  Al11  1  0.777408  0.839041  0.673786  1
  Al  Al12  1  0.440560  0.507055  0.674022  1
  Al  Al13  1  0.559906  0.493479  0.324908  1
  Al  Al14  1  0.108855  0.154772  0.672184  1
  Al  Al15  1  0.891136  0.845077  0.326696  1
  Al  Al16  1  0.352940  0.499831  0.945287  1
  Al  Al17  1  0.646491  0.501146  0.055812  1
  Al  Al18  1  0.014076  0.167526  0.954734  1
  Al  Al19  1  0.984522  0.832388  0.046504  1
  Al  Al20  1  0.195701  0.499575  0.437396  1
  Al  Al21  1  0.804536  0.500587  0.562214  1
  Al  Al22  1  0.732599  0.164258  0.183237  1
  Al  Al23  1  0.267967  0.833582  0.816847  1
  Al  Al24  1  0.058205  0.635526  0.817961  1
  Al  Al25  1  0.939731  0.366207  0.182222  1
  Al  Al26  1  0.855467  0.043483  0.816475  1
  Al  Al27  1  0.146209  0.956817  0.183645  1
  Pt  Pt28  1  0.657307  0.171509  0.000209  1
  Pt  Pt29  1  0.342633  0.827970  0.000601  1
  Pt  Pt30  1  0.537416  0.166951  0.362038  1
  Pt  Pt31  1  0.462615  0.832254  0.637458  1
  Pt  Pt32  1  0.780614  0.175103  0.636300  1
  Pt  Pt33  1  0.220632  0.824686  0.362985  1
  Pt  Pt34  1  0.999422  0.500527  0.000467  1
  Au  Au35  1  0.119386  0.491815  0.637677  1
  Au  Au36  1  0.880101  0.509317  0.361707  1
