# generated using pymatgen
data_La6PrNi3
_symmetry_space_group_name_H-M   'P 1'
_cell_length_a   10.05665800
_cell_length_b   10.05665687
_cell_length_c   6.42803900
_cell_angle_alpha   90.00000000
_cell_angle_beta   90.00000000
_cell_angle_gamma   120.00000372
_symmetry_Int_Tables_number   1
_chemical_formula_structural   La6PrNi3
_chemical_formula_sum   'La12 Pr2 Ni6'
_cell_volume   563.01041913
_cell_formula_units_Z   2
loop_
 _symmetry_equiv_pos_site_id
 _symmetry_equiv_pos_as_xyz
  1  'x, y, z'
loop_
 _atom_site_type_symbol
 _atom_site_label
 _atom_site_symmetry_multiplicity
 _atom_site_fract_x
 _atom_site_fract_y
 _atom_site_fract_z
 _atom_site_occupancy
  La  La0  1  0.873220  0.746440  0.752040  1
  La  La1  1  0.253560  0.126780  0.752040  1
  La  La2  1  0.873220  0.126780  0.752040  1
  La  La3  1  0.126780  0.253560  0.252040  1
  La  La4  1  0.746440  0.873220  0.252040  1
  La  La5  1  0.126780  0.873220  0.252040  1
  La  La6  1  0.461081  0.922164  0.566219  1
  La  La7  1  0.077836  0.538919  0.566219  1
  La  La8  1  0.461081  0.538919  0.566219  1
  La  La9  1  0.538919  0.077836  0.066219  1
  La  La10  1  0.922164  0.461081  0.066219  1
  La  La11  1  0.538919  0.461081  0.066219  1
  Pr  Pr12  1  0.666667  0.333333  0.539452  1
  Pr  Pr13  1  0.333333  0.666667  0.039452  1
  Ni  Ni14  1  0.186886  0.373772  0.804346  1
  Ni  Ni15  1  0.626228  0.813114  0.804346  1
  Ni  Ni16  1  0.186886  0.813114  0.804346  1
  Ni  Ni17  1  0.813114  0.626228  0.304346  1
  Ni  Ni18  1  0.373772  0.186886  0.304346  1
  Ni  Ni19  1  0.813114  0.186886  0.304346  1
