# generated using pymatgen
data_Gd2DyEr(GaIr)4
_symmetry_space_group_name_H-M   'P 1'
_cell_length_a   4.38199500
_cell_length_b   6.87159923
_cell_length_c   7.82196815
_cell_angle_alpha   89.93426229
_cell_angle_beta   90.00000000
_cell_angle_gamma   90.00000000
_symmetry_Int_Tables_number   1
_chemical_formula_structural   Gd2DyEr(GaIr)4
_chemical_formula_sum   'Gd2 Dy1 Er1 Ga4 Ir4'
_cell_volume   235.52957992
_cell_formula_units_Z   1
loop_
 _symmetry_equiv_pos_site_id
 _symmetry_equiv_pos_as_xyz
  1  'x, y, z'
loop_
 _atom_site_type_symbol
 _atom_site_label
 _atom_site_symmetry_multiplicity
 _atom_site_fract_x
 _atom_site_fract_y
 _atom_site_fract_z
 _atom_site_occupancy
  Gd  Gd0  1  0.750000  0.020294  0.692177  1
  Gd  Gd1  1  0.750000  0.520044  0.808005  1
  Dy  Dy2  1  0.250000  0.979756  0.308858  1
  Er  Er3  1  0.250000  0.479749  0.189908  1
  Ga  Ga4  1  0.250000  0.339247  0.573310  1
  Ga  Ga5  1  0.250000  0.837938  0.926913  1
  Ga  Ga6  1  0.750000  0.661078  0.428385  1
  Ga  Ga7  1  0.750000  0.162104  0.071727  1
  Ir  Ir8  1  0.250000  0.229878  0.893915  1
  Ir  Ir9  1  0.250000  0.728652  0.607339  1
  Ir  Ir10  1  0.750000  0.769355  0.103843  1
  Ir  Ir11  1  0.750000  0.271905  0.395619  1
