# generated using pymatgen
data_NdHf3(Co4P3)2
_symmetry_space_group_name_H-M   'P 1'
_cell_length_a   12.20794400
_cell_length_b   12.20794209
_cell_length_c   3.66772400
_cell_angle_alpha   90.00000000
_cell_angle_beta   90.00000000
_cell_angle_gamma   119.99999977
_symmetry_Int_Tables_number   1
_chemical_formula_structural   NdHf3(Co4P3)2
_chemical_formula_sum   'Nd2 Hf6 Co16 P12'
_cell_volume   473.38257602
_cell_formula_units_Z   2
loop_
 _symmetry_equiv_pos_site_id
 _symmetry_equiv_pos_as_xyz
  1  'x, y, z'
loop_
 _atom_site_type_symbol
 _atom_site_label
 _atom_site_symmetry_multiplicity
 _atom_site_fract_x
 _atom_site_fract_y
 _atom_site_fract_z
 _atom_site_occupancy
  Nd  Nd0  1  0.333333  0.666667  0.000000  1
  Nd  Nd1  1  0.666667  0.333333  0.000000  1
  Hf  Hf2  1  0.823301  0.000000  0.500000  1
  Hf  Hf3  1  0.000000  0.823301  0.500000  1
  Hf  Hf4  1  0.176699  0.176699  0.500000  1
  Hf  Hf5  1  0.443220  0.000000  0.000000  1
  Hf  Hf6  1  0.000000  0.443220  0.000000  1
  Hf  Hf7  1  0.556780  0.556780  0.000000  1
  Co  Co8  1  0.274004  0.000000  0.500000  1
  Co  Co9  1  0.000000  0.274004  0.500000  1
  Co  Co10  1  0.725996  0.725996  0.500000  1
  Co  Co11  1  0.636055  0.810296  0.000000  1
  Co  Co12  1  0.189704  0.825760  0.000000  1
  Co  Co13  1  0.174240  0.363945  0.000000  1
  Co  Co14  1  0.363945  0.174240  0.000000  1
  Co  Co15  1  0.810296  0.636055  0.000000  1
  Co  Co16  1  0.825760  0.189704  0.000000  1
  Co  Co17  1  0.526372  0.878740  0.500000  1
  Co  Co18  1  0.121260  0.647631  0.500000  1
  Co  Co19  1  0.352369  0.473628  0.500000  1
  Co  Co20  1  0.473628  0.352369  0.500000  1
  Co  Co21  1  0.878740  0.526372  0.500000  1
  Co  Co22  1  0.647631  0.121260  0.500000  1
  Co  Co23  1  0.000000  0.000000  0.000000  1
  P  P24  1  0.171121  0.000000  0.000000  1
  P  P25  1  0.000000  0.171121  0.000000  1
  P  P26  1  0.828879  0.828879  0.000000  1
  P  P27  1  0.527712  0.695381  0.500000  1
  P  P28  1  0.304619  0.832331  0.500000  1
  P  P29  1  0.167669  0.472288  0.500000  1
  P  P30  1  0.472288  0.167669  0.500000  1
  P  P31  1  0.695381  0.527712  0.500000  1
  P  P32  1  0.832331  0.304619  0.500000  1
  P  P33  1  0.654308  0.000000  0.000000  1
  P  P34  1  0.000000  0.654308  0.000000  1
  P  P35  1  0.345692  0.345692  0.000000  1
