# generated using pymatgen
data_Hf4Ta2Nb2Si3P
_symmetry_space_group_name_H-M   'P 1'
_cell_length_a   3.60566300
_cell_length_b   6.96656022
_cell_length_c   8.41122459
_cell_angle_alpha   89.75691429
_cell_angle_beta   90.00000000
_cell_angle_gamma   90.00000000
_symmetry_Int_Tables_number   1
_chemical_formula_structural   Hf4Ta2Nb2Si3P
_chemical_formula_sum   'Hf4 Ta2 Nb2 Si3 P1'
_cell_volume   211.28022451
_cell_formula_units_Z   1
loop_
 _symmetry_equiv_pos_site_id
 _symmetry_equiv_pos_as_xyz
  1  'x, y, z'
loop_
 _atom_site_type_symbol
 _atom_site_label
 _atom_site_symmetry_multiplicity
 _atom_site_fract_x
 _atom_site_fract_y
 _atom_site_fract_z
 _atom_site_occupancy
  Hf  Hf0  1  0.250000  0.041959  0.667750  1
  Hf  Hf1  1  0.250000  0.538184  0.833804  1
  Hf  Hf2  1  0.750000  0.460689  0.166768  1
  Hf  Hf3  1  0.750000  0.957601  0.334134  1
  Ta  Ta4  1  0.750000  0.866630  0.939781  1
  Ta  Ta5  1  0.250000  0.632353  0.440578  1
  Nb  Nb6  1  0.750000  0.364014  0.562155  1
  Nb  Nb7  1  0.250000  0.138208  0.055853  1
  Si  Si8  1  0.250000  0.255399  0.358225  1
  Si  Si9  1  0.250000  0.758103  0.141876  1
  Si  Si10  1  0.750000  0.744632  0.641747  1
  P  P11  1  0.750000  0.242227  0.857330  1
