# generated using pymatgen
data_Pm4CuPt3
_symmetry_space_group_name_H-M   'P 1'
_cell_length_a   7.31581335
_cell_length_b   5.72723527
_cell_length_c   4.56066700
_cell_angle_alpha   90.00000000
_cell_angle_beta   90.00000000
_cell_angle_gamma   90.14615110
_symmetry_Int_Tables_number   1
_chemical_formula_structural   Pm4CuPt3
_chemical_formula_sum   'Pm4 Cu1 Pt3'
_cell_volume   191.08851748
_cell_formula_units_Z   1
loop_
 _symmetry_equiv_pos_site_id
 _symmetry_equiv_pos_as_xyz
  1  'x, y, z'
loop_
 _atom_site_type_symbol
 _atom_site_label
 _atom_site_symmetry_multiplicity
 _atom_site_fract_x
 _atom_site_fract_y
 _atom_site_fract_z
 _atom_site_occupancy
  Pm  Pm0  1  0.104075  0.506723  0.000000  1
  Pm  Pm1  1  0.592969  0.738052  0.000000  1
  Pm  Pm2  1  0.236232  0.016891  0.499999  1
  Pm  Pm3  1  0.732232  0.236861  0.499999  1
  Cu  Cu4  1  0.880791  0.743044  0.499999  1
  Pt  Pt5  1  0.462965  0.223242  0.000000  1
  Pt  Pt6  1  0.952190  0.999965  0.000000  1
  Pt  Pt7  1  0.371877  0.535222  0.499999  1
