# generated using pymatgen
data_Yb4Sn3Sb3Ir7
_symmetry_space_group_name_H-M   'P 1'
_cell_length_a   7.56830495
_cell_length_b   7.57458372
_cell_length_c   7.56830500
_cell_angle_alpha   109.48802982
_cell_angle_beta   109.45441523
_cell_angle_gamma   109.48802834
_symmetry_Int_Tables_number   1
_chemical_formula_structural   Yb4Sn3Sb3Ir7
_chemical_formula_sum   'Yb4 Sn3 Sb3 Ir7'
_cell_volume   333.92116899
_cell_formula_units_Z   1
loop_
 _symmetry_equiv_pos_site_id
 _symmetry_equiv_pos_as_xyz
  1  'x, y, z'
loop_
 _atom_site_type_symbol
 _atom_site_label
 _atom_site_symmetry_multiplicity
 _atom_site_fract_x
 _atom_site_fract_y
 _atom_site_fract_z
 _atom_site_occupancy
  Yb  Yb0  1  0.501990  0.997345  0.000000  1
  Yb  Yb1  1  0.000000  0.491819  0.000000  1
  Yb  Yb2  1  0.000000  0.997345  0.501990  1
  Yb  Yb3  1  0.498010  0.495354  0.498010  1
  Sn  Sn4  1  0.305971  0.994786  0.305971  1
  Sn  Sn5  1  0.000000  0.688815  0.694029  1
  Sn  Sn6  1  0.694029  0.688815  0.000000  1
  Sb  Sb7  1  0.677364  0.995273  0.677364  1
  Sb  Sb8  1  0.000000  0.317909  0.322636  1
  Sb  Sb9  1  0.322636  0.317909  0.000000  1
  Ir  Ir10  1  0.253391  0.502596  0.753275  1
  Ir  Ir11  1  0.499884  0.249205  0.746609  1
  Ir  Ir12  1  0.746609  0.249205  0.499884  1
  Ir  Ir13  1  0.500116  0.749321  0.246725  1
  Ir  Ir14  1  0.000000  0.012392  0.000000  1
  Ir  Ir15  1  0.246725  0.749321  0.500116  1
  Ir  Ir16  1  0.753275  0.502596  0.253391  1
