# generated using pymatgen
data_Y6Ho14(Ir3Os)3
_symmetry_space_group_name_H-M   'P 1'
_cell_length_a   10.82758239
_cell_length_b   10.82690700
_cell_length_c   6.42082281
_cell_angle_alpha   89.99918537
_cell_angle_beta   89.94216319
_cell_angle_gamma   89.99879326
_symmetry_Int_Tables_number   1
_chemical_formula_structural   Y6Ho14(Ir3Os)3
_chemical_formula_sum   'Y6 Ho14 Ir9 Os3'
_cell_volume   752.70771494
_cell_formula_units_Z   1
loop_
 _symmetry_equiv_pos_site_id
 _symmetry_equiv_pos_as_xyz
  1  'x, y, z'
loop_
 _atom_site_type_symbol
 _atom_site_label
 _atom_site_symmetry_multiplicity
 _atom_site_fract_x
 _atom_site_fract_y
 _atom_site_fract_z
 _atom_site_occupancy
  Y  Y0  1  0.791421  0.412138  0.120069  1
  Y  Y1  1  0.790694  0.587775  0.624563  1
  Y  Y2  1  0.912175  0.708507  0.120082  1
  Y  Y3  1  0.912296  0.290737  0.624419  1
  Y  Y4  1  0.088259  0.709376  0.624506  1
  Y  Y5  1  0.088393  0.291386  0.120207  1
  Ho  Ho6  1  0.294258  0.086230  0.378382  1
  Ho  Ho7  1  0.294319  0.914090  0.878581  1
  Ho  Ho8  1  0.705712  0.085919  0.878526  1
  Ho  Ho9  1  0.705763  0.913783  0.378307  1
  Ho  Ho10  1  0.585826  0.794272  0.878441  1
  Ho  Ho11  1  0.586139  0.205782  0.378230  1
  Ho  Ho12  1  0.413467  0.793916  0.378491  1
  Ho  Ho13  1  0.413770  0.206028  0.878692  1
  Ho  Ho14  1  0.208758  0.412454  0.623809  1
  Ho  Ho15  1  0.208041  0.587637  0.119673  1
  Ho  Ho16  1  0.000168  0.999929  0.498684  1
  Ho  Ho17  1  0.000167  0.000093  0.999018  1
  Ho  Ho18  1  0.499603  0.500092  0.999363  1
  Ho  Ho19  1  0.499611  0.499916  0.499086  1
  Ir  Ir20  1  0.847829  0.151014  0.249395  1
  Ir  Ir21  1  0.847516  0.849348  0.748940  1
  Ir  Ir22  1  0.152641  0.151632  0.748148  1
  Ir  Ir23  1  0.152318  0.848036  0.248627  1
  Ir  Ir24  1  0.650500  0.347443  0.748877  1
  Ir  Ir25  1  0.650852  0.652207  0.249376  1
  Ir  Ir26  1  0.347941  0.348762  0.250739  1
  Ir  Ir27  1  0.348239  0.651534  0.750282  1
  Ir  Ir28  1  0.001876  0.499947  0.376330  1
  Os  Os29  1  0.499926  0.999940  0.127443  1
  Os  Os30  1  0.499931  0.000052  0.627281  1
  Os  Os31  1  0.001593  0.500024  0.873433  1
