# generated using pymatgen
data_Tb2Nd8Be3Zn2Si15
_symmetry_space_group_name_H-M   'P 1'
_cell_length_a   4.17366991
_cell_length_b   4.11913462
_cell_length_c   34.60378412
_cell_angle_alpha   86.58327887
_cell_angle_beta   86.54539963
_cell_angle_gamma   90.00043696
_symmetry_Int_Tables_number   1
_chemical_formula_structural   Tb2Nd8Be3Zn2Si15
_chemical_formula_sum   'Tb2 Nd8 Be3 Zn2 Si15'
_cell_volume   592.76465196
_cell_formula_units_Z   1
loop_
 _symmetry_equiv_pos_site_id
 _symmetry_equiv_pos_as_xyz
  1  'x, y, z'
loop_
 _atom_site_type_symbol
 _atom_site_label
 _atom_site_symmetry_multiplicity
 _atom_site_fract_x
 _atom_site_fract_y
 _atom_site_fract_z
 _atom_site_occupancy
  Tb  Tb0  1  0.948507  0.448853  0.103117  1
  Tb  Tb1  1  0.350871  0.850863  0.298293  1
  Nd  Nd2  1  0.752576  0.252011  0.494737  1
  Nd  Nd3  1  0.149773  0.649722  0.699981  1
  Nd  Nd4  1  0.547281  0.047685  0.905760  1
  Nd  Nd5  1  0.997611  0.998266  0.004626  1
  Nd  Nd6  1  0.399973  0.400016  0.200288  1
  Nd  Nd7  1  0.802142  0.801799  0.395545  1
  Nd  Nd8  1  0.202599  0.202189  0.594331  1
  Nd  Nd9  1  0.600389  0.600140  0.799800  1
  Be  Be10  1  0.465442  0.965959  0.069601  1
  Be  Be11  1  0.867455  0.367846  0.264893  1
  Be  Be12  1  0.268863  0.768874  0.461256  1
  Zn  Zn13  1  0.684891  0.684387  0.630028  1
  Zn  Zn14  1  0.082591  0.082310  0.835601  1
  Si  Si15  1  0.667058  0.166721  0.665447  1
  Si  Si16  1  0.065066  0.564889  0.870572  1
  Si  Si17  1  0.916859  0.916794  0.166436  1
  Si  Si18  1  0.319201  0.318787  0.361642  1
  Si  Si19  1  0.719687  0.719061  0.560496  1
  Si  Si20  1  0.116773  0.116791  0.766332  1
  Si  Si21  1  0.514155  0.514697  0.971604  1
  Si  Si22  1  0.433630  0.934089  0.132854  1
  Si  Si23  1  0.835967  0.335943  0.328032  1
  Si  Si24  1  0.236932  0.736580  0.526168  1
  Si  Si25  1  0.633132  0.133132  0.733441  1
  Si  Si26  1  0.030734  0.531336  0.938544  1
  Si  Si27  1  0.479747  0.480455  0.040436  1
  Si  Si28  1  0.882449  0.882660  0.235339  1
  Si  Si29  1  0.284848  0.284347  0.430404  1
