# generated using pymatgen
data_La3In3IrPd2
_symmetry_space_group_name_H-M   'P 1'
_cell_length_a   7.78189910
_cell_length_b   7.77869517
_cell_length_c   4.16094300
_cell_angle_alpha   90.00000000
_cell_angle_beta   90.00000000
_cell_angle_gamma   119.99627566
_symmetry_Int_Tables_number   1
_chemical_formula_structural   La3In3IrPd2
_chemical_formula_sum   'La3 In3 Ir1 Pd2'
_cell_volume   218.13785784
_cell_formula_units_Z   1
loop_
 _symmetry_equiv_pos_site_id
 _symmetry_equiv_pos_as_xyz
  1  'x, y, z'
loop_
 _atom_site_type_symbol
 _atom_site_label
 _atom_site_symmetry_multiplicity
 _atom_site_fract_x
 _atom_site_fract_y
 _atom_site_fract_z
 _atom_site_occupancy
  La  La0  1  0.013797  0.591209  0.000000  1
  La  La1  1  0.408819  0.422038  0.000000  1
  La  La2  1  0.577628  0.986612  0.000000  1
  In  In3  1  0.753822  0.751038  0.500000  1
  In  In4  1  0.997248  0.246337  0.500000  1
  In  In5  1  0.248786  0.002593  0.500000  1
  Ir  Ir6  1  0.333514  0.666889  0.500000  1
  Pd  Pd7  1  0.000079  0.000295  0.000000  1
  Pd  Pd8  1  0.666307  0.332990  0.500000  1
