# generated using pymatgen
data_Sc5Si12Ir19
_symmetry_space_group_name_H-M   'P 1'
_cell_length_a   12.72937500
_cell_length_b   12.72937514
_cell_length_c   3.93133400
_cell_angle_alpha   90.00000000
_cell_angle_beta   90.00000000
_cell_angle_gamma   120.00000223
_symmetry_Int_Tables_number   1
_chemical_formula_structural   Sc5Si12Ir19
_chemical_formula_sum   'Sc5 Si12 Ir19'
_cell_volume   551.67681264
_cell_formula_units_Z   1
loop_
 _symmetry_equiv_pos_site_id
 _symmetry_equiv_pos_as_xyz
  1  'x, y, z'
loop_
 _atom_site_type_symbol
 _atom_site_label
 _atom_site_symmetry_multiplicity
 _atom_site_fract_x
 _atom_site_fract_y
 _atom_site_fract_z
 _atom_site_occupancy
  Sc  Sc0  1  0.333333  0.666667  0.000000  1
  Sc  Sc1  1  0.666667  0.333333  0.000000  1
  Sc  Sc2  1  0.816681  0.000000  0.500000  1
  Sc  Sc3  1  0.000000  0.816681  0.500000  1
  Sc  Sc4  1  0.183319  0.183319  0.500000  1
  Si  Si5  1  0.179391  0.000000  0.000000  1
  Si  Si6  1  0.000000  0.179391  0.000000  1
  Si  Si7  1  0.820609  0.820609  0.000000  1
  Si  Si8  1  0.170013  0.482938  0.500000  1
  Si  Si9  1  0.517062  0.687074  0.500000  1
  Si  Si10  1  0.312926  0.829987  0.500000  1
  Si  Si11  1  0.687074  0.517062  0.500000  1
  Si  Si12  1  0.829987  0.312926  0.500000  1
  Si  Si13  1  0.482938  0.170013  0.500000  1
  Si  Si14  1  0.635262  0.000000  0.000000  1
  Si  Si15  1  0.000000  0.635262  0.000000  1
  Si  Si16  1  0.364738  0.364738  0.000000  1
  Ir  Ir17  1  0.447989  0.000000  0.000000  1
  Ir  Ir18  1  0.000000  0.447989  0.000000  1
  Ir  Ir19  1  0.552011  0.552011  0.000000  1
  Ir  Ir20  1  0.360518  0.487881  0.500000  1
  Ir  Ir21  1  0.512119  0.872637  0.500000  1
  Ir  Ir22  1  0.127363  0.639482  0.500000  1
  Ir  Ir23  1  0.872637  0.512119  0.500000  1
  Ir  Ir24  1  0.639482  0.127363  0.500000  1
  Ir  Ir25  1  0.487881  0.360518  0.500000  1
  Ir  Ir26  1  0.182159  0.375294  0.000000  1
  Ir  Ir27  1  0.624706  0.806865  0.000000  1
  Ir  Ir28  1  0.193135  0.817841  0.000000  1
  Ir  Ir29  1  0.806865  0.624706  0.000000  1
  Ir  Ir30  1  0.817841  0.193135  0.000000  1
  Ir  Ir31  1  0.375294  0.182159  0.000000  1
  Ir  Ir32  1  0.282137  0.000000  0.500000  1
  Ir  Ir33  1  0.000000  0.282137  0.500000  1
  Ir  Ir34  1  0.717863  0.717863  0.500000  1
  Ir  Ir35  1  0.000000  0.000000  0.000000  1
