# generated using pymatgen
data_Pr2Er4TcBi2
_symmetry_space_group_name_H-M   'P 1'
_cell_length_a   8.40295700
_cell_length_b   8.35110890
_cell_length_c   4.34739000
_cell_angle_alpha   90.00000000
_cell_angle_beta   90.00000000
_cell_angle_gamma   120.20557795
_symmetry_Int_Tables_number   1
_chemical_formula_structural   Pr2Er4TcBi2
_chemical_formula_sum   'Pr2 Er4 Tc1 Bi2'
_cell_volume   263.65264425
_cell_formula_units_Z   1
loop_
 _symmetry_equiv_pos_site_id
 _symmetry_equiv_pos_as_xyz
  1  'x, y, z'
loop_
 _atom_site_type_symbol
 _atom_site_label
 _atom_site_symmetry_multiplicity
 _atom_site_fract_x
 _atom_site_fract_y
 _atom_site_fract_z
 _atom_site_occupancy
  Pr  Pr0  1  0.002550  0.605323  0.500000  1
  Pr  Pr1  1  0.397227  0.394677  0.500000  1
  Er  Er2  1  0.224308  0.000000  0.000000  1
  Er  Er3  1  0.768557  0.769578  0.000000  1
  Er  Er4  1  0.998980  0.230422  0.000000  1
  Er  Er5  1  0.612676  0.000000  0.500000  1
  Tc  Tc6  1  0.989343  0.000000  0.500000  1
  Bi  Bi7  1  0.341292  0.676224  0.000000  1
  Bi  Bi8  1  0.665068  0.323776  0.000000  1
