# generated using pymatgen
data_Mn2CrFe9(W6C)2
_symmetry_space_group_name_H-M   'P 1'
_cell_length_a   7.74538654
_cell_length_b   7.77162402
_cell_length_c   7.77162396
_cell_angle_alpha   59.86059709
_cell_angle_beta   59.72897223
_cell_angle_gamma   59.72895629
_symmetry_Int_Tables_number   1
_chemical_formula_structural   Mn2CrFe9(W6C)2
_chemical_formula_sum   'Mn2 Cr1 Fe9 W12 C2'
_cell_volume   329.08222554
_cell_formula_units_Z   1
loop_
 _symmetry_equiv_pos_site_id
 _symmetry_equiv_pos_as_xyz
  1  'x, y, z'
loop_
 _atom_site_type_symbol
 _atom_site_label
 _atom_site_symmetry_multiplicity
 _atom_site_fract_x
 _atom_site_fract_y
 _atom_site_fract_z
 _atom_site_occupancy
  Mn  Mn0  1  0.125000  0.125000  0.625000  1
  Mn  Mn1  1  0.125000  0.625000  0.125000  1
  Cr  Cr2  1  0.625000  0.125000  0.125000  1
  Fe  Fe3  1  0.921922  0.234231  0.922018  1
  Fe  Fe4  1  0.328078  0.015769  0.327982  1
  Fe  Fe5  1  0.327996  0.328198  0.328198  1
  Fe  Fe6  1  0.014972  0.328238  0.328238  1
  Fe  Fe7  1  0.921922  0.922018  0.234231  1
  Fe  Fe8  1  0.235028  0.921762  0.921762  1
  Fe  Fe9  1  0.328078  0.327982  0.015769  1
  Fe  Fe10  1  0.922004  0.921802  0.921802  1
  Fe  Fe11  1  0.125000  0.125000  0.125000  1
  W  W12  1  0.302747  0.697314  0.697314  1
  W  W13  1  0.301940  0.302206  0.698704  1
  W  W14  1  0.552188  0.946552  0.554491  1
  W  W15  1  0.947253  0.552686  0.552686  1
  W  W16  1  0.551023  0.947059  0.947059  1
  W  W17  1  0.698977  0.302941  0.302941  1
  W  W18  1  0.948060  0.551296  0.947794  1
  W  W19  1  0.301940  0.698704  0.302206  1
  W  W20  1  0.552188  0.554491  0.946552  1
  W  W21  1  0.697812  0.303448  0.695509  1
  W  W22  1  0.697812  0.695509  0.303448  1
  W  W23  1  0.948060  0.947794  0.551296  1
  C  C24  1  0.751358  0.749889  0.749889  1
  C  C25  1  0.498642  0.500111  0.500111  1
