# generated using pymatgen
data_Zr2Nb3GaSi3
_symmetry_space_group_name_H-M   'P 1'
_cell_length_a   6.94019837
_cell_length_b   6.93945997
_cell_length_c   12.85600517
_cell_angle_alpha   90.04816265
_cell_angle_beta   89.99002661
_cell_angle_gamma   90.09427004
_symmetry_Int_Tables_number   1
_chemical_formula_structural   Zr2Nb3GaSi3
_chemical_formula_sum   'Zr8 Nb12 Ga4 Si12'
_cell_volume   619.15994031
_cell_formula_units_Z   4
loop_
 _symmetry_equiv_pos_site_id
 _symmetry_equiv_pos_as_xyz
  1  'x, y, z'
loop_
 _atom_site_type_symbol
 _atom_site_label
 _atom_site_symmetry_multiplicity
 _atom_site_fract_x
 _atom_site_fract_y
 _atom_site_fract_z
 _atom_site_occupancy
  Zr  Zr0  1  0.999088  0.663847  0.030032  1
  Zr  Zr1  1  0.000855  0.341773  0.532329  1
  Zr  Zr2  1  0.654630  0.998524  0.968577  1
  Zr  Zr3  1  0.159391  0.501487  0.780370  1
  Zr  Zr4  1  0.836924  0.498911  0.280551  1
  Zr  Zr5  1  0.501634  0.154099  0.218168  1
  Zr  Zr6  1  0.498623  0.840560  0.720263  1
  Zr  Zr7  1  0.341623  0.001212  0.468247  1
  Nb  Nb8  1  0.353270  0.502445  0.378423  1
  Nb  Nb9  1  0.844943  0.999558  0.369463  1
  Nb  Nb10  1  0.002843  0.147118  0.127827  1
  Nb  Nb11  1  0.999382  0.844585  0.631067  1
  Nb  Nb12  1  0.648212  0.497770  0.875351  1
  Nb  Nb13  1  0.502223  0.352380  0.625166  1
  Nb  Nb14  1  0.499669  0.655600  0.121969  1
  Nb  Nb15  1  0.155891  0.000447  0.872595  1
  Nb  Nb16  1  0.665908  0.665622  0.500067  1
  Nb  Nb17  1  0.830299  0.170166  0.750103  1
  Nb  Nb18  1  0.171378  0.835938  0.249025  1
  Nb  Nb19  1  0.335450  0.328244  0.998983  1
  Ga  Ga20  1  0.041698  0.702767  0.435333  1
  Ga  Ga21  1  0.958225  0.299742  0.936598  1
  Ga  Ga22  1  0.702634  0.041257  0.563986  1
  Ga  Ga23  1  0.199973  0.458223  0.185555  1
  Si  Si24  1  0.798172  0.544623  0.686566  1
  Si  Si25  1  0.455815  0.201851  0.812709  1
  Si  Si26  1  0.544621  0.796018  0.313783  1
  Si  Si27  1  0.295860  0.955722  0.062912  1
  Si  Si28  1  0.863252  0.793425  0.823258  1
  Si  Si29  1  0.136634  0.208478  0.323499  1
  Si  Si30  1  0.793434  0.861841  0.177979  1
  Si  Si31  1  0.293307  0.637671  0.572228  1
  Si  Si32  1  0.707230  0.363668  0.073267  1
  Si  Si33  1  0.637386  0.292650  0.428193  1
  Si  Si34  1  0.362412  0.705279  0.928340  1
  Si  Si35  1  0.207112  0.136499  0.677218  1
