# generated using pymatgen
data_Ca4Cd8PdRh3
_symmetry_space_group_name_H-M   'P 1'
_cell_length_a   5.54398114
_cell_length_b   7.89337522
_cell_length_c   8.27187200
_cell_angle_alpha   90.00000000
_cell_angle_beta   90.00000000
_cell_angle_gamma   89.81585234
_symmetry_Int_Tables_number   1
_chemical_formula_structural   Ca4Cd8PdRh3
_chemical_formula_sum   'Ca4 Cd8 Pd1 Rh3'
_cell_volume   361.98123252
_cell_formula_units_Z   1
loop_
 _symmetry_equiv_pos_site_id
 _symmetry_equiv_pos_as_xyz
  1  'x, y, z'
loop_
 _atom_site_type_symbol
 _atom_site_label
 _atom_site_symmetry_multiplicity
 _atom_site_fract_x
 _atom_site_fract_y
 _atom_site_fract_z
 _atom_site_occupancy
  Ca  Ca0  1  0.402548  0.533512  0.250000  1
  Ca  Ca1  1  0.098508  0.033162  0.250000  1
  Ca  Ca2  1  0.600478  0.460293  0.750000  1
  Ca  Ca3  1  0.900802  0.971789  0.750000  1
  Cd  Cd4  1  0.900640  0.669733  0.056440  1
  Cd  Cd5  1  0.598220  0.170966  0.445964  1
  Cd  Cd6  1  0.097693  0.327074  0.551495  1
  Cd  Cd7  1  0.405390  0.832038  0.945779  1
  Cd  Cd8  1  0.097693  0.327074  0.948505  1
  Cd  Cd9  1  0.405390  0.832038  0.554221  1
  Cd  Cd10  1  0.900640  0.669733  0.443560  1
  Cd  Cd11  1  0.598220  0.170966  0.054036  1
  Pd  Pd12  1  0.115694  0.623268  0.750000  1
  Rh  Rh13  1  0.616192  0.876990  0.250000  1
  Rh  Rh14  1  0.882498  0.375331  0.250000  1
  Rh  Rh15  1  0.379395  0.126034  0.750000  1
