# generated using pymatgen
data_La12Zn(OsI4)3
_symmetry_space_group_name_H-M   'P 1'
_cell_length_a   11.10894589
_cell_length_b   11.10894614
_cell_length_c   11.10894585
_cell_angle_alpha   109.90911612
_cell_angle_beta   109.90911644
_cell_angle_gamma   109.90911429
_symmetry_Int_Tables_number   1
_chemical_formula_structural   La12Zn(OsI4)3
_chemical_formula_sum   'La12 Zn1 Os3 I12'
_cell_volume   1037.88798328
_cell_formula_units_Z   1
loop_
 _symmetry_equiv_pos_site_id
 _symmetry_equiv_pos_as_xyz
  1  'x, y, z'
loop_
 _atom_site_type_symbol
 _atom_site_label
 _atom_site_symmetry_multiplicity
 _atom_site_fract_x
 _atom_site_fract_y
 _atom_site_fract_z
 _atom_site_occupancy
  La  La0  1  0.459652  0.491208  0.220719  1
  La  La1  1  0.750000  0.229497  0.270503  1
  La  La2  1  0.750000  0.021349  0.478651  1
  La  La3  1  0.220719  0.459652  0.491208  1
  La  La4  1  0.270503  0.750000  0.229497  1
  La  La5  1  0.040348  0.279281  0.008792  1
  La  La6  1  0.008792  0.040348  0.279281  1
  La  La7  1  0.478651  0.750000  0.021349  1
  La  La8  1  0.491208  0.220719  0.459652  1
  La  La9  1  0.021349  0.478651  0.750000  1
  La  La10  1  0.279281  0.008792  0.040348  1
  La  La11  1  0.229497  0.270503  0.750000  1
  Zn  Zn12  1  0.250000  0.250000  0.250000  1
  Os  Os13  1  0.499693  0.000307  0.250000  1
  Os  Os14  1  0.000307  0.250000  0.499693  1
  Os  Os15  1  0.250000  0.499693  0.000307  1
  I  I16  1  0.250000  0.760654  0.739346  1
  I  I17  1  0.515547  0.506280  0.756975  1
  I  I18  1  0.984453  0.743025  0.993720  1
  I  I19  1  0.739346  0.250000  0.760654  1
  I  I20  1  0.993720  0.984453  0.743025  1
  I  I21  1  0.250000  0.993332  0.506668  1
  I  I22  1  0.756975  0.515547  0.506280  1
  I  I23  1  0.506668  0.250000  0.993332  1
  I  I24  1  0.760654  0.739346  0.250000  1
  I  I25  1  0.743025  0.993720  0.984453  1
  I  I26  1  0.993332  0.506668  0.250000  1
  I  I27  1  0.506280  0.756975  0.515547  1
