# generated using pymatgen
data_PrTh3(TlPt2)2
_symmetry_space_group_name_H-M   'P 1'
_cell_length_a   8.02836800
_cell_length_b   8.02836834
_cell_length_c   3.79693800
_cell_angle_alpha   90.00000000
_cell_angle_beta   90.00000000
_cell_angle_gamma   89.01833218
_symmetry_Int_Tables_number   1
_chemical_formula_structural   PrTh3(TlPt2)2
_chemical_formula_sum   'Pr1 Th3 Tl2 Pt4'
_cell_volume   244.69456293
_cell_formula_units_Z   1
loop_
 _symmetry_equiv_pos_site_id
 _symmetry_equiv_pos_as_xyz
  1  'x, y, z'
loop_
 _atom_site_type_symbol
 _atom_site_label
 _atom_site_symmetry_multiplicity
 _atom_site_fract_x
 _atom_site_fract_y
 _atom_site_fract_z
 _atom_site_occupancy
  Pr  Pr0  1  0.674602  0.174602  0.500000  1
  Th  Th1  1  0.328658  0.828658  0.500000  1
  Th  Th2  1  0.825972  0.671810  0.500000  1
  Th  Th3  1  0.171810  0.325972  0.500000  1
  Tl  Tl4  1  0.995546  0.000389  0.000000  1
  Tl  Tl5  1  0.500389  0.495546  0.000000  1
  Pt  Pt6  1  0.363776  0.124022  0.000000  1
  Pt  Pt7  1  0.881752  0.381752  0.000000  1
  Pt  Pt8  1  0.133472  0.633472  0.000000  1
  Pt  Pt9  1  0.624022  0.863776  0.000000  1
