# generated using pymatgen
data_TbYI6
_symmetry_space_group_name_H-M   'P 1'
_cell_length_a   8.78580904
_cell_length_b   8.78580952
_cell_length_c   8.78580807
_cell_angle_alpha   52.11472206
_cell_angle_beta   52.11472274
_cell_angle_gamma   52.11472717
_symmetry_Int_Tables_number   1
_chemical_formula_structural   TbYI6
_chemical_formula_sum   'Tb1 Y1 I6'
_cell_volume   390.67308780
_cell_formula_units_Z   1
loop_
 _symmetry_equiv_pos_site_id
 _symmetry_equiv_pos_as_xyz
  1  'x, y, z'
loop_
 _atom_site_type_symbol
 _atom_site_label
 _atom_site_symmetry_multiplicity
 _atom_site_fract_x
 _atom_site_fract_y
 _atom_site_fract_z
 _atom_site_occupancy
  Tb  Tb0  1  0.166408  0.166408  0.166408  1
  Y  Y1  1  0.833591  0.833591  0.833591  1
  I  I2  1  0.577912  0.221573  0.935101  1
  I  I3  1  0.778166  0.064639  0.422609  1
  I  I4  1  0.064639  0.422609  0.778166  1
  I  I5  1  0.422609  0.778166  0.064639  1
  I  I6  1  0.935101  0.577912  0.221573  1
  I  I7  1  0.221573  0.935101  0.577912  1
