# generated using pymatgen
data_Na2NiRhF7
_symmetry_space_group_name_H-M   'P 1'
_cell_length_a   7.41662039
_cell_length_b   7.41662056
_cell_length_c   7.41662048
_cell_angle_alpha   120.80912547
_cell_angle_beta   119.11053383
_cell_angle_gamma   90.07587644
_symmetry_Int_Tables_number   1
_chemical_formula_structural   Na2NiRhF7
_chemical_formula_sum   'Na4 Ni2 Rh2 F14'
_cell_volume   288.56740036
_cell_formula_units_Z   2
loop_
 _symmetry_equiv_pos_site_id
 _symmetry_equiv_pos_as_xyz
  1  'x, y, z'
loop_
 _atom_site_type_symbol
 _atom_site_label
 _atom_site_symmetry_multiplicity
 _atom_site_fract_x
 _atom_site_fract_y
 _atom_site_fract_z
 _atom_site_occupancy
  Na  Na0  1  0.500000  0.000000  0.000000  1
  Na  Na1  1  0.500000  0.500000  0.500000  1
  Na  Na2  1  0.000000  0.000000  0.000000  1
  Na  Na3  1  0.500000  0.500000  0.000000  1
  Ni  Ni4  1  0.000000  0.000000  0.500000  1
  Ni  Ni5  1  0.000000  0.500000  0.000000  1
  Rh  Rh6  1  0.500000  0.000000  0.500000  1
  Rh  Rh7  1  0.000000  0.500000  0.500000  1
  F  F8  1  0.097292  0.250000  0.847292  1
  F  F9  1  0.902708  0.750000  0.152708  1
  F  F10  1  0.669934  0.403381  0.266552  1
  F  F11  1  0.330066  0.596619  0.733448  1
  F  F12  1  0.636830  0.903381  0.733448  1
  F  F13  1  0.363170  0.096619  0.266552  1
  F  F14  1  0.941279  0.174337  0.350110  1
  F  F15  1  0.058721  0.408831  0.233058  1
  F  F16  1  0.324228  0.674337  0.233058  1
  F  F17  1  0.675772  0.908831  0.350110  1
  F  F18  1  0.058721  0.825663  0.649890  1
  F  F19  1  0.941279  0.591169  0.766942  1
  F  F20  1  0.675772  0.325663  0.766942  1
  F  F21  1  0.324228  0.091169  0.649890  1
