# generated using pymatgen
data_Sm3Ho9Si11Rh
_symmetry_space_group_name_H-M   'P 1'
_cell_length_a   3.86230700
_cell_length_b   5.72462977
_cell_length_c   23.97308223
_cell_angle_alpha   82.69921505
_cell_angle_beta   90.00000000
_cell_angle_gamma   90.00000000
_symmetry_Int_Tables_number   1
_chemical_formula_structural   Sm3Ho9Si11Rh
_chemical_formula_sum   'Sm3 Ho9 Si11 Rh1'
_cell_volume   525.75421851
_cell_formula_units_Z   1
loop_
 _symmetry_equiv_pos_site_id
 _symmetry_equiv_pos_as_xyz
  1  'x, y, z'
loop_
 _atom_site_type_symbol
 _atom_site_label
 _atom_site_symmetry_multiplicity
 _atom_site_fract_x
 _atom_site_fract_y
 _atom_site_fract_z
 _atom_site_occupancy
  Sm  Sm0  1  0.500000  0.081405  0.059253  1
  Sm  Sm1  1  0.500000  0.083390  0.564541  1
  Sm  Sm2  1  0.000000  0.926475  0.439376  1
  Ho  Ho3  1  0.000000  0.915536  0.939052  1
  Ho  Ho4  1  0.500000  0.451812  0.391910  1
  Ho  Ho5  1  0.500000  0.441294  0.892862  1
  Ho  Ho6  1  0.000000  0.555824  0.105820  1
  Ho  Ho7  1  0.000000  0.549116  0.608776  1
  Ho  Ho8  1  0.500000  0.256305  0.225799  1
  Ho  Ho9  1  0.500000  0.247865  0.725069  1
  Ho  Ho10  1  0.000000  0.748233  0.272865  1
  Ho  Ho11  1  0.000000  0.736153  0.775166  1
  Si  Si12  1  0.500000  0.621600  0.010940  1
  Si  Si13  1  0.500000  0.619404  0.512693  1
  Si  Si14  1  0.000000  0.386704  0.487176  1
  Si  Si15  1  0.000000  0.380802  0.985346  1
  Si  Si16  1  0.500000  0.766696  0.179286  1
  Si  Si17  1  0.500000  0.767818  0.681365  1
  Si  Si18  1  0.000000  0.238364  0.319239  1
  Si  Si19  1  0.000000  0.222237  0.821086  1
  Si  Si20  1  0.500000  0.964713  0.343563  1
  Si  Si21  1  0.500000  0.954169  0.845602  1
  Si  Si22  1  0.000000  0.040286  0.154967  1
  Rh  Rh23  1  0.000000  0.043799  0.658242  1
