# generated using pymatgen
data_Na3Eu(DyTe2)4
_symmetry_space_group_name_H-M   'P 1'
_cell_length_a   8.91984960
_cell_length_b   8.91984920
_cell_length_c   8.96447597
_cell_angle_alpha   60.16453129
_cell_angle_beta   60.16453456
_cell_angle_gamma   59.99999937
_symmetry_Int_Tables_number   1
_chemical_formula_structural   Na3Eu(DyTe2)4
_chemical_formula_sum   'Na3 Eu1 Dy4 Te8'
_cell_volume   505.59240267
_cell_formula_units_Z   1
loop_
 _symmetry_equiv_pos_site_id
 _symmetry_equiv_pos_as_xyz
  1  'x, y, z'
loop_
 _atom_site_type_symbol
 _atom_site_label
 _atom_site_symmetry_multiplicity
 _atom_site_fract_x
 _atom_site_fract_y
 _atom_site_fract_z
 _atom_site_occupancy
  Na  Na0  1  0.125000  0.625000  0.125000  1
  Na  Na1  1  0.625000  0.125000  0.125000  1
  Na  Na2  1  0.125000  0.125000  0.125000  1
  Eu  Eu3  1  0.125000  0.125000  0.625000  1
  Dy  Dy4  1  0.625000  0.125000  0.625000  1
  Dy  Dy5  1  0.625000  0.625000  0.625000  1
  Dy  Dy6  1  0.125000  0.625000  0.625000  1
  Dy  Dy7  1  0.625000  0.625000  0.125000  1
  Te  Te8  1  0.380714  0.861616  0.376955  1
  Te  Te9  1  0.869286  0.388384  0.873045  1
  Te  Te10  1  0.870054  0.870054  0.389838  1
  Te  Te11  1  0.869286  0.869286  0.873045  1
  Te  Te12  1  0.861616  0.380714  0.376955  1
  Te  Te13  1  0.379946  0.379946  0.860162  1
  Te  Te14  1  0.380714  0.380714  0.376955  1
  Te  Te15  1  0.388384  0.869286  0.873045  1
