# generated using pymatgen
data_Tb11Tm(Si3Pt)4
_symmetry_space_group_name_H-M   'P 1'
_cell_length_a   4.22518900
_cell_length_b   10.60350814
_cell_length_c   12.23521100
_cell_angle_alpha   89.99068981
_cell_angle_beta   90.00000000
_cell_angle_gamma   90.00000000
_symmetry_Int_Tables_number   1
_chemical_formula_structural   Tb11Tm(Si3Pt)4
_chemical_formula_sum   'Tb11 Tm1 Si12 Pt4'
_cell_volume   548.15978650
_cell_formula_units_Z   1
loop_
 _symmetry_equiv_pos_site_id
 _symmetry_equiv_pos_as_xyz
  1  'x, y, z'
loop_
 _atom_site_type_symbol
 _atom_site_label
 _atom_site_symmetry_multiplicity
 _atom_site_fract_x
 _atom_site_fract_y
 _atom_site_fract_z
 _atom_site_occupancy
  Tb  Tb0  1  0.250000  0.879693  0.019954  1
  Tb  Tb1  1  0.250000  0.620627  0.520442  1
  Tb  Tb2  1  0.750000  0.120688  0.978880  1
  Tb  Tb3  1  0.750000  0.378713  0.480126  1
  Tb  Tb4  1  0.250000  0.919828  0.601790  1
  Tb  Tb5  1  0.250000  0.580756  0.101638  1
  Tb  Tb6  1  0.750000  0.080625  0.399286  1
  Tb  Tb7  1  0.750000  0.418831  0.897762  1
  Tb  Tb8  1  0.250000  0.660021  0.802160  1
  Tb  Tb9  1  0.250000  0.840395  0.302257  1
  Tb  Tb10  1  0.750000  0.339680  0.197777  1
  Tm  Tm11  1  0.750000  0.160666  0.698483  1
  Si  Si12  1  0.250000  0.016974  0.821189  1
  Si  Si13  1  0.250000  0.483712  0.322151  1
  Si  Si14  1  0.750000  0.984244  0.177941  1
  Si  Si15  1  0.750000  0.516165  0.677850  1
  Si  Si16  1  0.250000  0.244716  0.842123  1
  Si  Si17  1  0.250000  0.254468  0.343807  1
  Si  Si18  1  0.750000  0.754807  0.156951  1
  Si  Si19  1  0.750000  0.745389  0.656913  1
  Si  Si20  1  0.250000  0.194774  0.542740  1
  Si  Si21  1  0.250000  0.304406  0.039787  1
  Si  Si22  1  0.750000  0.804442  0.459848  1
  Si  Si23  1  0.750000  0.695307  0.959634  1
  Pt  Pt24  1  0.250000  0.388254  0.681299  1
  Pt  Pt25  1  0.250000  0.110439  0.181742  1
  Pt  Pt26  1  0.750000  0.610091  0.318514  1
  Pt  Pt27  1  0.750000  0.891290  0.816956  1
