# generated using pymatgen
data_Er16Al4Pd3Rh
_symmetry_space_group_name_H-M   'P 1'
_cell_length_a   9.51305600
_cell_length_b   9.51305642
_cell_length_c   9.51305650
_cell_angle_alpha   59.70819689
_cell_angle_beta   59.70819170
_cell_angle_gamma   59.70820231
_symmetry_Int_Tables_number   1
_chemical_formula_structural   Er16Al4Pd3Rh
_chemical_formula_sum   'Er16 Al4 Pd3 Rh1'
_cell_volume   604.72391566
_cell_formula_units_Z   1
loop_
 _symmetry_equiv_pos_site_id
 _symmetry_equiv_pos_as_xyz
  1  'x, y, z'
loop_
 _atom_site_type_symbol
 _atom_site_label
 _atom_site_symmetry_multiplicity
 _atom_site_fract_x
 _atom_site_fract_y
 _atom_site_fract_z
 _atom_site_occupancy
  Er  Er0  1  0.193215  0.193215  0.807211  1
  Er  Er1  1  0.437429  0.065055  0.065055  1
  Er  Er2  1  0.435125  0.065860  0.435125  1
  Er  Er3  1  0.065055  0.437429  0.065055  1
  Er  Er4  1  0.646462  0.065369  0.646462  1
  Er  Er5  1  0.187492  0.808639  0.808639  1
  Er  Er6  1  0.065055  0.065055  0.437429  1
  Er  Er7  1  0.807211  0.193215  0.193215  1
  Er  Er8  1  0.808639  0.808639  0.187492  1
  Er  Er9  1  0.646462  0.646462  0.065369  1
  Er  Er10  1  0.643810  0.643810  0.643810  1
  Er  Er11  1  0.065860  0.435125  0.435125  1
  Er  Er12  1  0.065369  0.646462  0.646462  1
  Er  Er13  1  0.808639  0.187492  0.808639  1
  Er  Er14  1  0.435125  0.435125  0.065860  1
  Er  Er15  1  0.193215  0.807211  0.193215  1
  Al  Al16  1  0.421056  0.734385  0.421056  1
  Al  Al17  1  0.421056  0.421056  0.734385  1
  Al  Al18  1  0.734385  0.421056  0.421056  1
  Al  Al19  1  0.420760  0.420760  0.420760  1
  Pd  Pd20  1  0.854649  0.433384  0.854649  1
  Pd  Pd21  1  0.854649  0.854649  0.433384  1
  Pd  Pd22  1  0.433384  0.854649  0.854649  1
  Rh  Rh23  1  0.855900  0.855900  0.855900  1
