# generated using pymatgen
data_Tm4Ga3Re2Os3
_symmetry_space_group_name_H-M   'P 1'
_cell_length_a   5.35315509
_cell_length_b   5.25822380
_cell_length_c   8.90987800
_cell_angle_alpha   90.00000000
_cell_angle_beta   90.00000000
_cell_angle_gamma   119.45750187
_symmetry_Int_Tables_number   1
_chemical_formula_structural   Tm4Ga3Re2Os3
_chemical_formula_sum   'Tm4 Ga3 Re2 Os3'
_cell_volume   218.37329189
_cell_formula_units_Z   1
loop_
 _symmetry_equiv_pos_site_id
 _symmetry_equiv_pos_as_xyz
  1  'x, y, z'
loop_
 _atom_site_type_symbol
 _atom_site_label
 _atom_site_symmetry_multiplicity
 _atom_site_fract_x
 _atom_site_fract_y
 _atom_site_fract_z
 _atom_site_occupancy
  Tm  Tm0  1  0.665091  0.332608  0.555273  1
  Tm  Tm1  1  0.331469  0.665451  0.436891  1
  Tm  Tm2  1  0.331469  0.665451  0.063109  1
  Tm  Tm3  1  0.665091  0.332608  0.944727  1
  Ga  Ga4  1  0.165834  0.331407  0.750000  1
  Ga  Ga5  1  0.167683  0.835947  0.750000  1
  Ga  Ga6  1  0.667968  0.834809  0.750000  1
  Re  Re7  1  0.837256  0.665548  0.250000  1
  Re  Re8  1  0.835995  0.171012  0.250000  1
  Os  Os9  1  0.989871  0.994275  0.500414  1
  Os  Os10  1  0.989871  0.994275  0.999586  1
  Os  Os11  1  0.352402  0.176611  0.250000  1
