# generated using pymatgen
data_Hf18FeCoRe8
_symmetry_space_group_name_H-M   'P 1'
_cell_length_a   8.56118400
_cell_length_b   8.56118278
_cell_length_c   8.47486800
_cell_angle_alpha   90.00000000
_cell_angle_beta   90.00000000
_cell_angle_gamma   119.99999698
_symmetry_Int_Tables_number   1
_chemical_formula_structural   Hf18FeCoRe8
_chemical_formula_sum   'Hf18 Fe1 Co1 Re8'
_cell_volume   537.93671675
_cell_formula_units_Z   1
loop_
 _symmetry_equiv_pos_site_id
 _symmetry_equiv_pos_as_xyz
  1  'x, y, z'
loop_
 _atom_site_type_symbol
 _atom_site_label
 _atom_site_symmetry_multiplicity
 _atom_site_fract_x
 _atom_site_fract_y
 _atom_site_fract_z
 _atom_site_occupancy
  Hf  Hf0  1  0.200073  0.799927  0.441549  1
  Hf  Hf1  1  0.200073  0.400147  0.441549  1
  Hf  Hf2  1  0.599853  0.799927  0.441549  1
  Hf  Hf3  1  0.800497  0.199503  0.558351  1
  Hf  Hf4  1  0.800497  0.600994  0.558351  1
  Hf  Hf5  1  0.399006  0.199503  0.558351  1
  Hf  Hf6  1  0.800497  0.199503  0.941649  1
  Hf  Hf7  1  0.800497  0.600994  0.941649  1
  Hf  Hf8  1  0.399006  0.199503  0.941649  1
  Hf  Hf9  1  0.200073  0.799927  0.058451  1
  Hf  Hf10  1  0.200073  0.400147  0.058451  1
  Hf  Hf11  1  0.599853  0.799927  0.058451  1
  Hf  Hf12  1  0.540720  0.459280  0.250000  1
  Hf  Hf13  1  0.540720  0.081441  0.250000  1
  Hf  Hf14  1  0.918559  0.459280  0.250000  1
  Hf  Hf15  1  0.458960  0.541040  0.750000  1
  Hf  Hf16  1  0.458960  0.917920  0.750000  1
  Hf  Hf17  1  0.082080  0.541040  0.750000  1
  Fe  Fe18  1  0.333333  0.666667  0.250000  1
  Co  Co19  1  0.666667  0.333333  0.750000  1
  Re  Re20  1  0.889290  0.110710  0.250000  1
  Re  Re21  1  0.889290  0.778581  0.250000  1
  Re  Re22  1  0.221419  0.110710  0.250000  1
  Re  Re23  1  0.110769  0.889231  0.750000  1
  Re  Re24  1  0.110769  0.221537  0.750000  1
  Re  Re25  1  0.778463  0.889231  0.750000  1
  Re  Re26  1  0.000000  0.000000  0.499783  1
  Re  Re27  1  0.000000  0.000000  0.000217  1
