# generated using pymatgen
data_SmY3Al5Tc3
_symmetry_space_group_name_H-M   'P 1'
_cell_length_a   5.52796654
_cell_length_b   5.58780202
_cell_length_c   8.78926600
_cell_angle_alpha   90.00000000
_cell_angle_beta   90.02538318
_cell_angle_gamma   120.35868816
_symmetry_Int_Tables_number   1
_chemical_formula_structural   SmY3Al5Tc3
_chemical_formula_sum   'Sm1 Y3 Al5 Tc3'
_cell_volume   234.26559933
_cell_formula_units_Z   1
loop_
 _symmetry_equiv_pos_site_id
 _symmetry_equiv_pos_as_xyz
  1  'x, y, z'
loop_
 _atom_site_type_symbol
 _atom_site_label
 _atom_site_symmetry_multiplicity
 _atom_site_fract_x
 _atom_site_fract_y
 _atom_site_fract_z
 _atom_site_occupancy
  Sm  Sm0  1  0.336519  0.668260  0.443480  1
  Y  Y1  1  0.664226  0.332113  0.555195  1
  Y  Y2  1  0.664749  0.332374  0.944377  1
  Y  Y3  1  0.337562  0.668782  0.056505  1
  Al  Al4  1  0.838283  0.162502  0.248852  1
  Al  Al5  1  0.838283  0.675780  0.248852  1
  Al  Al6  1  0.323121  0.161561  0.249149  1
  Al  Al7  1  0.182321  0.841245  0.751397  1
  Al  Al8  1  0.182321  0.341077  0.751397  1
  Tc  Tc9  1  0.976753  0.988377  0.511325  1
  Tc  Tc10  1  0.976542  0.988271  0.989109  1
  Tc  Tc11  1  0.679321  0.839659  0.750363  1
