# generated using pymatgen
data_Sc4Cu2B4RuRh9
_symmetry_space_group_name_H-M   'P 1'
_cell_length_a   9.36865359
_cell_length_b   3.04352300
_cell_length_c   9.36865359
_cell_angle_alpha   90.00000000
_cell_angle_beta   90.40871242
_cell_angle_gamma   90.00000000
_symmetry_Int_Tables_number   1
_chemical_formula_structural   Sc4Cu2B4RuRh9
_chemical_formula_sum   'Sc4 Cu2 B4 Ru1 Rh9'
_cell_volume   267.12830013
_cell_formula_units_Z   1
loop_
 _symmetry_equiv_pos_site_id
 _symmetry_equiv_pos_as_xyz
  1  'x, y, z'
loop_
 _atom_site_type_symbol
 _atom_site_label
 _atom_site_symmetry_multiplicity
 _atom_site_fract_x
 _atom_site_fract_y
 _atom_site_fract_z
 _atom_site_occupancy
  Sc  Sc0  1  0.672795  0.000000  0.172795  1
  Sc  Sc1  1  0.178104  0.000000  0.321896  1
  Sc  Sc2  1  0.821896  0.000000  0.678104  1
  Sc  Sc3  1  0.327205  0.000000  0.827205  1
  Cu  Cu4  1  0.000000  0.000000  0.000000  1
  Cu  Cu5  1  0.500001  0.000000  0.500001  1
  B  B6  1  0.376665  0.000000  0.123335  1
  B  B7  1  0.871305  0.000000  0.371304  1
  B  B8  1  0.128696  0.000000  0.628696  1
  B  B9  1  0.623335  0.000000  0.876666  1
  Ru  Ru10  1  0.500001  0.499999  0.000000  1
  Rh  Rh11  1  0.215210  0.499999  0.071579  1
  Rh  Rh12  1  0.928994  0.499999  0.216579  1
  Rh  Rh13  1  0.428421  0.499999  0.284789  1
  Rh  Rh14  1  0.716580  0.499999  0.428994  1
  Rh  Rh15  1  0.000000  0.499999  0.500001  1
  Rh  Rh16  1  0.283420  0.499999  0.571007  1
  Rh  Rh17  1  0.571580  0.499999  0.715211  1
  Rh  Rh18  1  0.071006  0.499999  0.783421  1
  Rh  Rh19  1  0.784790  0.499999  0.928421  1
