# generated using pymatgen
data_ZrSc19N19
_symmetry_space_group_name_H-M   'P 1'
_cell_length_a   8.46769132
_cell_length_b   8.46847580
_cell_length_c   8.46834026
_cell_angle_alpha   106.56266108
_cell_angle_beta   106.59674794
_cell_angle_gamma   115.43894545
_symmetry_Int_Tables_number   1
_chemical_formula_structural   ZrSc19N19
_chemical_formula_sum   'Zr1 Sc19 N19'
_cell_volume   463.53949365
_cell_formula_units_Z   1
loop_
 _symmetry_equiv_pos_site_id
 _symmetry_equiv_pos_as_xyz
  1  'x, y, z'
loop_
 _atom_site_type_symbol
 _atom_site_label
 _atom_site_symmetry_multiplicity
 _atom_site_fract_x
 _atom_site_fract_y
 _atom_site_fract_z
 _atom_site_occupancy
  Zr  Zr0  1  0.047541  0.649851  0.200640  1
  Sc  Sc1  1  0.397936  0.708433  0.102963  1
  Sc  Sc2  1  0.100262  0.799439  0.897104  1
  Sc  Sc3  1  0.757281  0.759317  0.998365  1
  Sc  Sc4  1  0.798732  0.899948  0.698580  1
  Sc  Sc5  1  0.449661  0.846966  0.799799  1
  Sc  Sc6  1  0.502535  0.001764  0.501447  1
  Sc  Sc7  1  0.153215  0.954171  0.604271  1
  Sc  Sc8  1  0.202178  0.102753  0.301966  1
  Sc  Sc9  1  0.846944  0.047721  0.397718  1
  Sc  Sc10  1  0.899323  0.198836  0.100553  1
  Sc  Sc11  1  0.550580  0.152975  0.200473  1
  Sc  Sc12  1  0.601650  0.289493  0.894121  1
  Sc  Sc13  1  0.241214  0.240855  0.999803  1
  Sc  Sc14  1  0.291959  0.395659  0.687642  1
  Sc  Sc15  1  0.952368  0.348616  0.797832  1
  Sc  Sc16  1  0.999685  0.499029  0.501772  1
  Sc  Sc17  1  0.649661  0.449269  0.602075  1
  Sc  Sc18  1  0.706087  0.604233  0.313314  1
  Sc  Sc19  1  0.351650  0.550136  0.398684  1
  N  N20  1  0.898803  0.699541  0.598565  1
  N  N21  1  0.550263  0.650002  0.702141  1
  N  N22  1  0.600214  0.799024  0.399046  1
  N  N23  1  0.249033  0.749511  0.498622  1
  N  N24  1  0.299546  0.897862  0.199237  1
  N  N25  1  0.948151  0.847443  0.297644  1
  N  N26  1  0.000027  0.000249  0.000127  1
  N  N27  1  0.649839  0.947959  0.099797  1
  N  N28  1  0.699308  0.101041  0.800591  1
  N  N29  1  0.350118  0.052149  0.900344  1
  N  N30  1  0.052184  0.151866  0.702111  1
  N  N31  1  0.749930  0.249986  0.499901  1
  N  N32  1  0.400263  0.201330  0.601472  1
  N  N33  1  0.449842  0.350017  0.298041  1
  N  N34  1  0.101148  0.300267  0.401576  1
  N  N35  1  0.151219  0.450829  0.100293  1
  N  N36  1  0.201114  0.600058  0.800954  1
  N  N37  1  0.799649  0.400845  0.199025  1
  N  N38  1  0.848887  0.550559  0.901391  1
