# generated using pymatgen
data_Li2Ac3(MgSn2)2
_symmetry_space_group_name_H-M   'P 1'
_cell_length_a   9.09667869
_cell_length_b   9.31076827
_cell_length_c   9.31077000
_cell_angle_alpha   149.73618481
_cell_angle_beta   130.23663867
_cell_angle_gamma   59.57217895
_symmetry_Int_Tables_number   1
_chemical_formula_structural   Li2Ac3(MgSn2)2
_chemical_formula_sum   'Li2 Ac3 Mg2 Sn4'
_cell_volume   300.67110899
_cell_formula_units_Z   1
loop_
 _symmetry_equiv_pos_site_id
 _symmetry_equiv_pos_as_xyz
  1  'x, y, z'
loop_
 _atom_site_type_symbol
 _atom_site_label
 _atom_site_symmetry_multiplicity
 _atom_site_fract_x
 _atom_site_fract_y
 _atom_site_fract_z
 _atom_site_occupancy
  Li  Li0  1  0.014514  0.328668  0.685846  1
  Li  Li1  1  0.985486  0.671332  0.314154  1
  Ac  Ac2  1  0.360244  0.875198  0.485035  1
  Ac  Ac3  1  0.639756  0.124802  0.514965  1
  Ac  Ac4  1  0.000000  0.000000  0.000000  1
  Mg  Mg5  1  0.638339  0.327520  0.310827  1
  Mg  Mg6  1  0.361661  0.672480  0.689173  1
  Sn  Sn7  1  0.202661  0.216715  0.985937  1
  Sn  Sn8  1  0.797339  0.783285  0.014063  1
  Sn  Sn9  1  0.695004  0.501283  0.193712  1
  Sn  Sn10  1  0.304996  0.498717  0.806288  1
