# generated using pymatgen
data_SrYbNbH9
_symmetry_space_group_name_H-M   'P 1'
_cell_length_a   8.74123800
_cell_length_b   8.74123785
_cell_length_c   5.03637600
_cell_angle_alpha   90.00000000
_cell_angle_beta   90.00000000
_cell_angle_gamma   120.00000055
_symmetry_Int_Tables_number   1
_chemical_formula_structural   SrYbNbH9
_chemical_formula_sum   'Sr3 Yb3 Nb3 H27'
_cell_volume   333.26880008
_cell_formula_units_Z   3
loop_
 _symmetry_equiv_pos_site_id
 _symmetry_equiv_pos_as_xyz
  1  'x, y, z'
loop_
 _atom_site_type_symbol
 _atom_site_label
 _atom_site_symmetry_multiplicity
 _atom_site_fract_x
 _atom_site_fract_y
 _atom_site_fract_z
 _atom_site_occupancy
  Sr  Sr0  1  0.000000  0.604333  0.000000  1
  Sr  Sr1  1  0.395667  0.395667  0.000000  1
  Sr  Sr2  1  0.604333  0.000000  0.000000  1
  Yb  Yb3  1  0.000000  0.265994  0.500000  1
  Yb  Yb4  1  0.734006  0.734006  0.500000  1
  Yb  Yb5  1  0.265994  0.000000  0.500000  1
  Nb  Nb6  1  0.666667  0.333333  0.500000  1
  Nb  Nb7  1  0.333333  0.666667  0.500000  1
  Nb  Nb8  1  0.000000  0.000000  0.000000  1
  H  H9  1  0.816445  0.329329  0.760758  1
  H  H10  1  0.670671  0.487115  0.760758  1
  H  H11  1  0.512885  0.183555  0.760758  1
  H  H12  1  0.183555  0.512885  0.239242  1
  H  H13  1  0.512885  0.183555  0.239242  1
  H  H14  1  0.816445  0.329329  0.239242  1
  H  H15  1  0.670671  0.487115  0.239242  1
  H  H16  1  0.329329  0.816445  0.760758  1
  H  H17  1  0.487115  0.670671  0.760758  1
  H  H18  1  0.210677  0.000000  0.000000  1
  H  H19  1  0.789323  0.789323  0.000000  1
  H  H20  1  0.000000  0.210677  0.000000  1
  H  H21  1  0.852052  0.000000  0.263780  1
  H  H22  1  0.147948  0.147948  0.736220  1
  H  H23  1  0.000000  0.852052  0.736220  1
  H  H24  1  0.000000  0.852052  0.263780  1
  H  H25  1  0.147948  0.147948  0.263780  1
  H  H26  1  0.852052  0.000000  0.736220  1
  H  H27  1  0.130115  0.676555  0.500000  1
  H  H28  1  0.546440  0.869885  0.500000  1
  H  H29  1  0.323445  0.453560  0.500000  1
  H  H30  1  0.453560  0.323445  0.500000  1
  H  H31  1  0.869885  0.546440  0.500000  1
  H  H32  1  0.676555  0.130115  0.500000  1
  H  H33  1  0.183555  0.512885  0.760758  1
  H  H34  1  0.329329  0.816445  0.239242  1
  H  H35  1  0.487115  0.670671  0.239242  1
