# generated using pymatgen
data_Hf3Mn4NbP4
_symmetry_space_group_name_H-M   'P 1'
_cell_length_a   3.57808800
_cell_length_b   6.33615090
_cell_length_c   7.40497081
_cell_angle_alpha   90.27200665
_cell_angle_beta   90.00000000
_cell_angle_gamma   90.00000000
_symmetry_Int_Tables_number   1
_chemical_formula_structural   Hf3Mn4NbP4
_chemical_formula_sum   'Hf3 Mn4 Nb1 P4'
_cell_volume   167.87846349
_cell_formula_units_Z   1
loop_
 _symmetry_equiv_pos_site_id
 _symmetry_equiv_pos_as_xyz
  1  'x, y, z'
loop_
 _atom_site_type_symbol
 _atom_site_label
 _atom_site_symmetry_multiplicity
 _atom_site_fract_x
 _atom_site_fract_y
 _atom_site_fract_z
 _atom_site_occupancy
  Hf  Hf0  1  0.750000  0.469360  0.827233  1
  Hf  Hf1  1  0.750000  0.968008  0.674459  1
  Hf  Hf2  1  0.250000  0.031257  0.323598  1
  Mn  Mn3  1  0.250000  0.636855  0.559855  1
  Mn  Mn4  1  0.750000  0.362211  0.439554  1
  Mn  Mn5  1  0.750000  0.863204  0.060461  1
  Mn  Mn6  1  0.250000  0.137173  0.940711  1
  Nb  Nb7  1  0.250000  0.531824  0.173134  1
  P  P8  1  0.250000  0.767537  0.873357  1
  P  P9  1  0.750000  0.235753  0.129237  1
  P  P10  1  0.750000  0.728021  0.369890  1
  P  P11  1  0.250000  0.268798  0.628510  1
