# generated using pymatgen
data_Yb2Dy2Tc3B16W
_symmetry_space_group_name_H-M   'P 1'
_cell_length_a   5.99507400
_cell_length_b   11.59297068
_cell_length_c   3.58028900
_cell_angle_alpha   90.00000000
_cell_angle_beta   90.00000000
_cell_angle_gamma   89.93935338
_symmetry_Int_Tables_number   1
_chemical_formula_structural   Yb2Dy2Tc3B16W
_chemical_formula_sum   'Yb2 Dy2 Tc3 B16 W1'
_cell_volume   248.83251358
_cell_formula_units_Z   1
loop_
 _symmetry_equiv_pos_site_id
 _symmetry_equiv_pos_as_xyz
  1  'x, y, z'
loop_
 _atom_site_type_symbol
 _atom_site_label
 _atom_site_symmetry_multiplicity
 _atom_site_fract_x
 _atom_site_fract_y
 _atom_site_fract_z
 _atom_site_occupancy
  Yb  Yb0  1  0.625699  0.349752  0.000000  1
  Yb  Yb1  1  0.371748  0.649340  0.000000  1
  Dy  Dy2  1  0.128275  0.152107  0.000000  1
  Dy  Dy3  1  0.872241  0.849436  0.000000  1
  Tc  Tc4  1  0.632055  0.084909  0.000000  1
  Tc  Tc5  1  0.368051  0.916272  0.000000  1
  Tc  Tc6  1  0.129212  0.415239  0.000000  1
  B  B7  1  0.783868  0.185691  0.500000  1
  B  B8  1  0.216769  0.815502  0.500000  1
  B  B9  1  0.286371  0.315118  0.500000  1
  B  B10  1  0.710138  0.686834  0.500000  1
  B  B11  1  0.863904  0.031852  0.500000  1
  B  B12  1  0.136385  0.969049  0.500000  1
  B  B13  1  0.365470  0.466358  0.500000  1
  B  B14  1  0.631594  0.531010  0.500000  1
  B  B15  1  0.887293  0.450704  0.500000  1
  B  B16  1  0.117774  0.545652  0.500000  1
  B  B17  1  0.387673  0.047868  0.500000  1
  B  B18  1  0.612884  0.952896  0.500000  1
  B  B19  1  0.977523  0.306745  0.500000  1
  B  B20  1  0.026567  0.693635  0.500000  1
  B  B21  1  0.477224  0.192557  0.500000  1
  B  B22  1  0.522208  0.808183  0.500000  1
  W  W23  1  0.869073  0.583292  0.000000  1
