# generated using pymatgen
data_LiHo2Cu3O8
_symmetry_space_group_name_H-M   'P 1'
_cell_length_a   6.24715046
_cell_length_b   6.36591347
_cell_length_c   6.28765947
_cell_angle_alpha   127.02240328
_cell_angle_beta   125.86119026
_cell_angle_gamma   81.41754645
_symmetry_Int_Tables_number   1
_chemical_formula_structural   LiHo2Cu3O8
_chemical_formula_sum   'Li1 Ho2 Cu3 O8'
_cell_volume   153.58695082
_cell_formula_units_Z   1
loop_
 _symmetry_equiv_pos_site_id
 _symmetry_equiv_pos_as_xyz
  1  'x, y, z'
loop_
 _atom_site_type_symbol
 _atom_site_label
 _atom_site_symmetry_multiplicity
 _atom_site_fract_x
 _atom_site_fract_y
 _atom_site_fract_z
 _atom_site_occupancy
  Li  Li0  1  0.875000  0.125000  0.250000  1
  Ho  Ho1  1  0.508750  0.488174  0.999761  1
  Ho  Ho2  1  0.241250  0.761826  0.500239  1
  Cu  Cu3  1  0.375000  0.125000  0.250000  1
  Cu  Cu4  1  0.875000  0.125000  0.750000  1
  Cu  Cu5  1  0.875000  0.625000  0.750000  1
  O  O6  1  0.901328  0.356539  0.136276  1
  O  O7  1  0.201721  0.753277  0.856568  1
  O  O8  1  0.848672  0.893461  0.363724  1
  O  O9  1  0.548279  0.496723  0.643432  1
  O  O10  1  0.493331  0.166398  0.062746  1
  O  O11  1  0.079496  0.444153  0.912089  1
  O  O12  1  0.670504  0.805847  0.587911  1
  O  O13  1  0.256669  0.083602  0.437254  1
