# generated using pymatgen
data_NaCo7AsO16
_symmetry_space_group_name_H-M   'P 1'
_cell_length_a   5.71407461
_cell_length_b   6.90534491
_cell_length_c   6.88480900
_cell_angle_alpha   87.96407578
_cell_angle_beta   101.88644207
_cell_angle_gamma   102.02371006
_symmetry_Int_Tables_number   1
_chemical_formula_structural   NaCo7AsO16
_chemical_formula_sum   'Na1 Co7 As1 O16'
_cell_volume   259.99373255
_cell_formula_units_Z   1
loop_
 _symmetry_equiv_pos_site_id
 _symmetry_equiv_pos_as_xyz
  1  'x, y, z'
loop_
 _atom_site_type_symbol
 _atom_site_label
 _atom_site_symmetry_multiplicity
 _atom_site_fract_x
 _atom_site_fract_y
 _atom_site_fract_z
 _atom_site_occupancy
  Na  Na0  1  0.003038  0.992474  0.996914  1
  Co  Co1  1  0.075502  0.820000  0.482994  1
  Co  Co2  1  0.925882  0.187626  0.514094  1
  Co  Co3  1  0.425401  0.187894  0.516549  1
  Co  Co4  1  0.164903  0.482647  0.182961  1
  Co  Co5  1  0.666692  0.479487  0.183228  1
  Co  Co6  1  0.332844  0.511555  0.821074  1
  Co  Co7  1  0.831758  0.507723  0.820780  1
  As  As8  1  0.575638  0.818758  0.485004  1
  O  O9  1  0.675520  0.050256  0.645799  1
  O  O10  1  0.170611  0.049772  0.641121  1
  O  O11  1  0.825013  0.952241  0.351709  1
  O  O12  1  0.327804  0.952877  0.352412  1
  O  O13  1  0.651593  0.637774  0.957475  1
  O  O14  1  0.145884  0.639870  0.956540  1
  O  O15  1  0.851757  0.349104  0.049183  1
  O  O16  1  0.346649  0.350662  0.047870  1
  O  O17  1  0.978446  0.622715  0.295130  1
  O  O18  1  0.480573  0.625555  0.293838  1
  O  O19  1  0.518732  0.379854  0.701804  1
  O  O20  1  0.021441  0.380352  0.701146  1
  O  O21  1  0.668195  0.296741  0.377659  1
  O  O22  1  0.168367  0.295855  0.375114  1
  O  O23  1  0.830465  0.715001  0.626490  1
  O  O24  1  0.337294  0.713205  0.623115  1
