# generated using pymatgen
data_Dy3HoGa2SiGe
_symmetry_space_group_name_H-M   'P 1'
_cell_length_a   3.97528800
_cell_length_b   4.31345800
_cell_length_c   10.74578900
_cell_angle_alpha   90.00000000
_cell_angle_beta   90.00000000
_cell_angle_gamma   90.00000000
_symmetry_Int_Tables_number   1
_chemical_formula_structural   Dy3HoGa2SiGe
_chemical_formula_sum   'Dy3 Ho1 Ga2 Si1 Ge1'
_cell_volume   184.26059961
_cell_formula_units_Z   1
loop_
 _symmetry_equiv_pos_site_id
 _symmetry_equiv_pos_as_xyz
  1  'x, y, z'
loop_
 _atom_site_type_symbol
 _atom_site_label
 _atom_site_symmetry_multiplicity
 _atom_site_fract_x
 _atom_site_fract_y
 _atom_site_fract_z
 _atom_site_occupancy
  Dy  Dy0  1  0.000000  0.000000  0.141655  1
  Dy  Dy1  1  0.500000  0.500000  0.360737  1
  Dy  Dy2  1  0.500000  0.000000  0.860362  1
  Ho  Ho3  1  0.000000  0.500000  0.636795  1
  Ga  Ga4  1  0.500000  0.500000  0.079506  1
  Ga  Ga5  1  0.500000  0.000000  0.577171  1
  Si  Si6  1  0.000000  0.000000  0.424183  1
  Ge  Ge7  1  0.000000  0.500000  0.919589  1
