# generated using pymatgen
data_Th2Mg4Cu17Ni
_symmetry_space_group_name_H-M   'P 1'
_cell_length_a   5.04752800
_cell_length_b   5.04732061
_cell_length_c   15.89204300
_cell_angle_alpha   90.00000000
_cell_angle_beta   90.00000000
_cell_angle_gamma   120.00155219
_symmetry_Int_Tables_number   1
_chemical_formula_structural   Th2Mg4Cu17Ni
_chemical_formula_sum   'Th2 Mg4 Cu17 Ni1'
_cell_volume   350.62525897
_cell_formula_units_Z   1
loop_
 _symmetry_equiv_pos_site_id
 _symmetry_equiv_pos_as_xyz
  1  'x, y, z'
loop_
 _atom_site_type_symbol
 _atom_site_label
 _atom_site_symmetry_multiplicity
 _atom_site_fract_x
 _atom_site_fract_y
 _atom_site_fract_z
 _atom_site_occupancy
  Th  Th0  1  0.666670  0.333336  0.250000  1
  Th  Th1  1  0.333328  0.666659  0.750000  1
  Mg  Mg2  1  0.666676  0.333345  0.469009  1
  Mg  Mg3  1  0.333323  0.666655  0.968663  1
  Mg  Mg4  1  0.666676  0.333345  0.030991  1
  Mg  Mg5  1  0.333323  0.666655  0.531337  1
  Cu  Cu6  1  0.666668  0.333331  0.750000  1
  Cu  Cu7  1  0.168554  0.831467  0.377566  1
  Cu  Cu8  1  0.168547  0.337091  0.377565  1
  Cu  Cu9  1  0.999989  0.999993  0.750000  1
  Cu  Cu10  1  0.000013  0.000007  0.250000  1
  Cu  Cu11  1  0.000000  0.000000  0.999859  1
  Cu  Cu12  1  0.000000  0.000000  0.500141  1
  Cu  Cu13  1  0.168547  0.337091  0.122435  1
  Cu  Cu14  1  0.831728  0.168250  0.622245  1
  Cu  Cu15  1  0.336514  0.168248  0.622247  1
  Cu  Cu16  1  0.662919  0.831468  0.122436  1
  Cu  Cu17  1  0.168554  0.831467  0.122434  1
  Cu  Cu18  1  0.831735  0.663475  0.877755  1
  Cu  Cu19  1  0.831728  0.168250  0.877755  1
  Cu  Cu20  1  0.831735  0.663475  0.622245  1
  Cu  Cu21  1  0.336514  0.168248  0.877753  1
  Cu  Cu22  1  0.662919  0.831468  0.377564  1
  Ni  Ni23  1  0.333337  0.666676  0.250000  1
