# generated using pymatgen
data_SmEu2(SiRh2)3
_symmetry_space_group_name_H-M   'P 1'
_cell_length_a   5.66006300
_cell_length_b   5.66006195
_cell_length_c   15.13312100
_cell_angle_alpha   90.00000000
_cell_angle_beta   90.00000000
_cell_angle_gamma   119.99998860
_symmetry_Int_Tables_number   1
_chemical_formula_structural   SmEu2(SiRh2)3
_chemical_formula_sum   'Sm2 Eu4 Si6 Rh12'
_cell_volume   419.85722988
_cell_formula_units_Z   2
loop_
 _symmetry_equiv_pos_site_id
 _symmetry_equiv_pos_as_xyz
  1  'x, y, z'
loop_
 _atom_site_type_symbol
 _atom_site_label
 _atom_site_symmetry_multiplicity
 _atom_site_fract_x
 _atom_site_fract_y
 _atom_site_fract_z
 _atom_site_occupancy
  Sm  Sm0  1  0.333333  0.666667  0.750000  1
  Sm  Sm1  1  0.666667  0.333333  0.250000  1
  Eu  Eu2  1  0.333333  0.666667  0.537969  1
  Eu  Eu3  1  0.666667  0.333333  0.462031  1
  Eu  Eu4  1  0.666667  0.333333  0.037969  1
  Eu  Eu5  1  0.333333  0.666667  0.962031  1
  Si  Si6  1  0.000000  0.000000  0.250000  1
  Si  Si7  1  0.000000  0.000000  0.750000  1
  Si  Si8  1  0.333333  0.666667  0.250000  1
  Si  Si9  1  0.666667  0.333333  0.750000  1
  Si  Si10  1  0.000000  0.000000  0.000000  1
  Si  Si11  1  0.000000  0.000000  0.500000  1
  Rh  Rh12  1  0.165439  0.330877  0.133696  1
  Rh  Rh13  1  0.834561  0.669123  0.866304  1
  Rh  Rh14  1  0.669123  0.834561  0.133696  1
  Rh  Rh15  1  0.834561  0.669123  0.633696  1
  Rh  Rh16  1  0.330877  0.165439  0.866304  1
  Rh  Rh17  1  0.165439  0.330877  0.366304  1
  Rh  Rh18  1  0.165439  0.834561  0.133696  1
  Rh  Rh19  1  0.330877  0.165439  0.633696  1
  Rh  Rh20  1  0.834561  0.165439  0.866304  1
  Rh  Rh21  1  0.669123  0.834561  0.366304  1
  Rh  Rh22  1  0.834561  0.165439  0.633696  1
  Rh  Rh23  1  0.165439  0.834561  0.366304  1
