# generated using pymatgen
data_Ho12InFe4Hg
_symmetry_space_group_name_H-M   'P 1'
_cell_length_a   8.35818703
_cell_length_b   8.35818681
_cell_length_c   8.35818621
_cell_angle_alpha   111.51065061
_cell_angle_beta   110.21170463
_cell_angle_gamma   106.72843666
_symmetry_Int_Tables_number   1
_chemical_formula_structural   Ho12InFe4Hg
_chemical_formula_sum   'Ho12 In1 Fe4 Hg1'
_cell_volume   448.65552533
_cell_formula_units_Z   1
loop_
 _symmetry_equiv_pos_site_id
 _symmetry_equiv_pos_as_xyz
  1  'x, y, z'
loop_
 _atom_site_type_symbol
 _atom_site_label
 _atom_site_symmetry_multiplicity
 _atom_site_fract_x
 _atom_site_fract_y
 _atom_site_fract_z
 _atom_site_occupancy
  Ho  Ho0  1  0.436673  0.225758  0.210915  1
  Ho  Ho1  1  0.563327  0.774242  0.789085  1
  Ho  Ho2  1  0.014843  0.225758  0.789085  1
  Ho  Ho3  1  0.985157  0.774242  0.210915  1
  Ho  Ho4  1  0.188944  0.291683  0.480629  1
  Ho  Ho5  1  0.811056  0.708317  0.519371  1
  Ho  Ho6  1  0.188944  0.708317  0.897261  1
  Ho  Ho7  1  0.811056  0.291683  0.102739  1
  Ho  Ho8  1  0.312040  0.611659  0.299618  1
  Ho  Ho9  1  0.687960  0.388341  0.700382  1
  Ho  Ho10  1  0.312040  0.012422  0.700382  1
  Ho  Ho11  1  0.687960  0.987578  0.299618  1
  In  In12  1  0.500000  0.500000  0.000000  1
  Fe  Fe13  1  0.386336  0.000000  0.386336  1
  Fe  Fe14  1  0.613664  0.000000  0.613664  1
  Fe  Fe15  1  0.108483  0.608483  0.500000  1
  Fe  Fe16  1  0.891517  0.391517  0.500000  1
  Hg  Hg17  1  0.000000  0.000000  0.000000  1
