# generated using pymatgen
data_Ta2Pd5Pt
_symmetry_space_group_name_H-M   'P 1'
_cell_length_a   5.57389400
_cell_length_b   4.90909843
_cell_length_c   9.33226078
_cell_angle_alpha   79.78958321
_cell_angle_beta   90.00000000
_cell_angle_gamma   90.00000000
_symmetry_Int_Tables_number   1
_chemical_formula_structural   Ta2Pd5Pt
_chemical_formula_sum   'Ta4 Pd10 Pt2'
_cell_volume   251.31274861
_cell_formula_units_Z   2
loop_
 _symmetry_equiv_pos_site_id
 _symmetry_equiv_pos_as_xyz
  1  'x, y, z'
loop_
 _atom_site_type_symbol
 _atom_site_label
 _atom_site_symmetry_multiplicity
 _atom_site_fract_x
 _atom_site_fract_y
 _atom_site_fract_z
 _atom_site_occupancy
  Ta  Ta0  1  0.251841  0.379228  0.875977  1
  Ta  Ta1  1  0.751841  0.620772  0.124023  1
  Ta  Ta2  1  0.247589  0.212664  0.374061  1
  Ta  Ta3  1  0.747589  0.787336  0.625939  1
  Pd  Pd4  1  0.252978  0.611686  0.123881  1
  Pd  Pd5  1  0.752978  0.388314  0.876119  1
  Pd  Pd6  1  0.248453  0.793936  0.628043  1
  Pd  Pd7  1  0.748453  0.206064  0.371957  1
  Pd  Pd8  1  0.497936  0.877685  0.875860  1
  Pd  Pd9  1  0.997936  0.122315  0.124140  1
  Pd  Pd10  1  0.500472  0.122704  0.124477  1
  Pd  Pd11  1  0.000472  0.877296  0.875523  1
  Pd  Pd12  1  0.500781  0.707820  0.375672  1
  Pd  Pd13  1  0.000781  0.292180  0.624328  1
  Pt  Pt14  1  0.499949  0.290841  0.624930  1
  Pt  Pt15  1  0.999949  0.709159  0.375070  1
