# generated using pymatgen
data_Yb2Ho2PdPt3O14
_symmetry_space_group_name_H-M   'P 1'
_cell_length_a   7.24868465
_cell_length_b   7.24868360
_cell_length_c   7.25846260
_cell_angle_alpha   60.05153522
_cell_angle_beta   60.05153854
_cell_angle_gamma   59.96502545
_symmetry_Int_Tables_number   1
_chemical_formula_structural   Yb2Ho2PdPt3O14
_chemical_formula_sum   'Yb2 Ho2 Pd1 Pt3 O14'
_cell_volume   269.81790180
_cell_formula_units_Z   1
loop_
 _symmetry_equiv_pos_site_id
 _symmetry_equiv_pos_as_xyz
  1  'x, y, z'
loop_
 _atom_site_type_symbol
 _atom_site_label
 _atom_site_symmetry_multiplicity
 _atom_site_fract_x
 _atom_site_fract_y
 _atom_site_fract_z
 _atom_site_occupancy
  Yb  Yb0  1  0.625000  0.625000  0.125000  1
  Yb  Yb1  1  0.625000  0.625000  0.625000  1
  Ho  Ho2  1  0.625000  0.125000  0.625000  1
  Ho  Ho3  1  0.125000  0.625000  0.625000  1
  Pd  Pd4  1  0.125000  0.125000  0.625000  1
  Pt  Pt5  1  0.125000  0.125000  0.125000  1
  Pt  Pt6  1  0.625000  0.125000  0.125000  1
  Pt  Pt7  1  0.125000  0.625000  0.125000  1
  O  O8  1  0.043145  0.462584  0.459967  1
  O  O9  1  0.792821  0.792821  0.205128  1
  O  O10  1  0.790594  0.205486  0.214268  1
  O  O11  1  0.462584  0.043145  0.459967  1
  O  O12  1  0.755450  0.755450  0.745459  1
  O  O13  1  0.036587  0.036587  0.462486  1
  O  O14  1  0.044514  0.459406  0.035732  1
  O  O15  1  0.787416  0.206855  0.790033  1
  O  O16  1  0.205486  0.790594  0.214268  1
  O  O17  1  0.213413  0.213413  0.787514  1
  O  O18  1  0.494550  0.494550  0.504541  1
  O  O19  1  0.459406  0.044514  0.035732  1
  O  O20  1  0.457179  0.457179  0.044872  1
  O  O21  1  0.206855  0.787416  0.790033  1
