# generated using pymatgen
data_Hf5Zr4Nb(Sn3P)2
_symmetry_space_group_name_H-M   'P 1'
_cell_length_a   8.56001806
_cell_length_b   8.56978218
_cell_length_c   5.86728400
_cell_angle_alpha   89.99758296
_cell_angle_beta   90.00093805
_cell_angle_gamma   120.04176548
_symmetry_Int_Tables_number   1
_chemical_formula_structural   Hf5Zr4Nb(Sn3P)2
_chemical_formula_sum   'Hf5 Zr4 Nb1 Sn6 P2'
_cell_volume   372.58835430
_cell_formula_units_Z   1
loop_
 _symmetry_equiv_pos_site_id
 _symmetry_equiv_pos_as_xyz
  1  'x, y, z'
loop_
 _atom_site_type_symbol
 _atom_site_label
 _atom_site_symmetry_multiplicity
 _atom_site_fract_x
 _atom_site_fract_y
 _atom_site_fract_z
 _atom_site_occupancy
  Hf  Hf0  1  0.333590  0.667110  0.999903  1
  Hf  Hf1  1  0.333693  0.667165  0.500047  1
  Hf  Hf2  1  0.666456  0.333454  0.500229  1
  Hf  Hf3  1  0.748497  0.748481  0.749797  1
  Hf  Hf4  1  0.251728  0.000396  0.749776  1
  Zr  Zr5  1  0.999682  0.252408  0.749837  1
  Zr  Zr6  1  0.251429  0.250613  0.250246  1
  Zr  Zr7  1  0.748798  0.999790  0.250174  1
  Zr  Zr8  1  0.999769  0.747975  0.250211  1
  Nb  Nb9  1  0.666353  0.333574  0.999901  1
  Sn  Sn10  1  0.401703  0.399521  0.752575  1
  Sn  Sn11  1  0.600278  0.001791  0.752612  1
  Sn  Sn12  1  0.998022  0.599798  0.752520  1
  Sn  Sn13  1  0.600906  0.598892  0.247382  1
  Sn  Sn14  1  0.401126  0.002121  0.247377  1
  Sn  Sn15  1  0.997991  0.399103  0.247412  1
  P  P16  1  0.000026  0.998873  0.997591  1
  P  P17  1  0.999952  0.998934  0.502410  1
