# generated using pymatgen
data_TiMn3Nb3AlCr4
_symmetry_space_group_name_H-M   'P 1'
_cell_length_a   4.82715172
_cell_length_b   4.82721931
_cell_length_c   8.14237674
_cell_angle_alpha   89.66122787
_cell_angle_beta   89.66175770
_cell_angle_gamma   60.31094370
_symmetry_Int_Tables_number   1
_chemical_formula_structural   TiMn3Nb3AlCr4
_chemical_formula_sum   'Ti1 Mn3 Nb3 Al1 Cr4'
_cell_volume   164.82076322
_cell_formula_units_Z   1
loop_
 _symmetry_equiv_pos_site_id
 _symmetry_equiv_pos_as_xyz
  1  'x, y, z'
loop_
 _atom_site_type_symbol
 _atom_site_label
 _atom_site_symmetry_multiplicity
 _atom_site_fract_x
 _atom_site_fract_y
 _atom_site_fract_z
 _atom_site_occupancy
  Ti  Ti0  1  0.332991  0.332993  0.563810  1
  Mn  Mn1  1  0.000292  0.000218  0.504504  1
  Mn  Mn2  1  0.829136  0.345089  0.742985  1
  Mn  Mn3  1  0.345077  0.829134  0.742993  1
  Nb  Nb4  1  0.665759  0.665725  0.442285  1
  Nb  Nb5  1  0.666651  0.666687  0.067178  1
  Nb  Nb6  1  0.334150  0.334161  0.929009  1
  Al  Al7  1  0.001326  0.001326  0.996828  1
  Cr  Cr8  1  0.828612  0.828651  0.741517  1
  Cr  Cr9  1  0.169397  0.657531  0.256255  1
  Cr  Cr10  1  0.657527  0.169400  0.256261  1
  Cr  Cr11  1  0.169081  0.169083  0.256375  1
