# generated using pymatgen
data_Tb8Dy8MgAg3Rh4
_symmetry_space_group_name_H-M   'P 1'
_cell_length_a   9.59534090
_cell_length_b   9.61423664
_cell_length_c   9.61425218
_cell_angle_alpha   59.98507917
_cell_angle_beta   59.91419457
_cell_angle_gamma   59.95412248
_symmetry_Int_Tables_number   1
_chemical_formula_structural   Tb8Dy8MgAg3Rh4
_chemical_formula_sum   'Tb8 Dy8 Mg1 Ag3 Rh4'
_cell_volume   626.46065298
_cell_formula_units_Z   1
loop_
 _symmetry_equiv_pos_site_id
 _symmetry_equiv_pos_as_xyz
  1  'x, y, z'
loop_
 _atom_site_type_symbol
 _atom_site_label
 _atom_site_symmetry_multiplicity
 _atom_site_fract_x
 _atom_site_fract_y
 _atom_site_fract_z
 _atom_site_occupancy
  Tb  Tb0  1  0.065712  0.435114  0.435773  1
  Tb  Tb1  1  0.650347  0.045963  0.651817  1
  Tb  Tb2  1  0.813696  0.812817  0.186715  1
  Tb  Tb3  1  0.435056  0.064434  0.065397  1
  Tb  Tb4  1  0.435678  0.436027  0.064182  1
  Tb  Tb5  1  0.189724  0.188429  0.810638  1
  Tb  Tb6  1  0.813546  0.186804  0.186924  1
  Tb  Tb7  1  0.065733  0.435635  0.063101  1
  Dy  Dy8  1  0.434875  0.064242  0.435830  1
  Dy  Dy9  1  0.061519  0.646489  0.646022  1
  Dy  Dy10  1  0.190000  0.810888  0.810252  1
  Dy  Dy11  1  0.650642  0.652236  0.045344  1
  Dy  Dy12  1  0.190008  0.810625  0.188789  1
  Dy  Dy13  1  0.065999  0.062833  0.435975  1
  Dy  Dy14  1  0.813875  0.186734  0.812478  1
  Dy  Dy15  1  0.650274  0.652108  0.651593  1
  Mg  Mg16  1  0.711642  0.429717  0.429465  1
  Ag  Ag17  1  0.417986  0.415710  0.751431  1
  Ag  Ag18  1  0.418024  0.415115  0.415091  1
  Ag  Ag19  1  0.417290  0.752291  0.415671  1
  Rh  Rh20  1  0.859825  0.428297  0.855617  1
  Rh  Rh21  1  0.426064  0.856652  0.858441  1
  Rh  Rh22  1  0.861163  0.855183  0.428007  1
  Rh  Rh23  1  0.861327  0.855656  0.855452  1
