# generated using pymatgen
data_Ce7Sc12Si16Mo
_symmetry_space_group_name_H-M   'P 1'
_cell_length_a   7.02363616
_cell_length_b   7.33905597
_cell_length_c   13.86765600
_cell_angle_alpha   89.90267828
_cell_angle_beta   89.91265690
_cell_angle_gamma   89.71548978
_symmetry_Int_Tables_number   1
_chemical_formula_structural   Ce7Sc12Si16Mo
_chemical_formula_sum   'Ce7 Sc12 Si16 Mo1'
_cell_volume   714.82344189
_cell_formula_units_Z   1
loop_
 _symmetry_equiv_pos_site_id
 _symmetry_equiv_pos_as_xyz
  1  'x, y, z'
loop_
 _atom_site_type_symbol
 _atom_site_label
 _atom_site_symmetry_multiplicity
 _atom_site_fract_x
 _atom_site_fract_y
 _atom_site_fract_z
 _atom_site_occupancy
  Ce  Ce0  1  0.992911  0.674927  0.598310  1
  Ce  Ce1  1  0.013025  0.326277  0.403325  1
  Ce  Ce2  1  0.509876  0.171535  0.405801  1
  Ce  Ce3  1  0.012734  0.325272  0.094155  1
  Ce  Ce4  1  0.488674  0.829710  0.597779  1
  Ce  Ce5  1  0.989700  0.673463  0.904347  1
  Ce  Ce6  1  0.487079  0.827121  0.904377  1
  Sc  Sc7  1  0.841952  0.007181  0.248806  1
  Sc  Sc8  1  0.340829  0.495538  0.249123  1
  Sc  Sc9  1  0.659904  0.506297  0.750823  1
  Sc  Sc10  1  0.512879  0.180039  0.100377  1
  Sc  Sc11  1  0.326999  0.322886  0.626121  1
  Sc  Sc12  1  0.670567  0.676237  0.373364  1
  Sc  Sc13  1  0.174366  0.828180  0.375747  1
  Sc  Sc14  1  0.670498  0.677274  0.124330  1
  Sc  Sc15  1  0.829101  0.170347  0.627103  1
  Sc  Sc16  1  0.327511  0.320672  0.874923  1
  Sc  Sc17  1  0.826973  0.170062  0.872996  1
  Sc  Sc18  1  0.174068  0.828511  0.120265  1
  Si  Si19  1  0.033075  0.373858  0.750611  1
  Si  Si20  1  0.969981  0.620501  0.248259  1
  Si  Si21  1  0.469210  0.887718  0.247576  1
  Si  Si22  1  0.521986  0.109734  0.750804  1
  Si  Si23  1  0.284512  0.633771  0.750983  1
  Si  Si24  1  0.712299  0.372734  0.247629  1
  Si  Si25  1  0.219498  0.126877  0.246165  1
  Si  Si26  1  0.794979  0.874722  0.750812  1
  Si  Si27  1  0.153972  0.034275  0.546913  1
  Si  Si28  1  0.844927  0.963574  0.461837  1
  Si  Si29  1  0.345309  0.536699  0.461489  1
  Si  Si30  1  0.833519  0.969780  0.039404  1
  Si  Si31  1  0.657446  0.465079  0.539385  1
  Si  Si32  1  0.150889  0.033689  0.951697  1
  Si  Si33  1  0.655206  0.457906  0.963078  1
  Si  Si34  1  0.348679  0.528265  0.040357  1
  Mo  Mo35  1  0.154872  0.999286  0.750925  1
