# generated using pymatgen
data_Ho3HfMg2Rh3
_symmetry_space_group_name_H-M   'P 1'
_cell_length_a   7.22798200
_cell_length_b   7.32191835
_cell_length_c   4.15341400
_cell_angle_alpha   90.00000000
_cell_angle_beta   90.00000000
_cell_angle_gamma   119.57649524
_symmetry_Int_Tables_number   1
_chemical_formula_structural   Ho3HfMg2Rh3
_chemical_formula_sum   'Ho3 Hf1 Mg2 Rh3'
_cell_volume   191.16808175
_cell_formula_units_Z   1
loop_
 _symmetry_equiv_pos_site_id
 _symmetry_equiv_pos_as_xyz
  1  'x, y, z'
loop_
 _atom_site_type_symbol
 _atom_site_label
 _atom_site_symmetry_multiplicity
 _atom_site_fract_x
 _atom_site_fract_y
 _atom_site_fract_z
 _atom_site_occupancy
  Ho  Ho0  1  0.991844  0.578690  0.500000  1
  Ho  Ho1  1  0.413154  0.421310  0.500000  1
  Ho  Ho2  1  0.601369  0.000000  0.500000  1
  Hf  Hf3  1  0.248811  0.000000  0.000000  1
  Mg  Mg4  1  0.752231  0.751502  0.000000  1
  Mg  Mg5  1  0.000729  0.248498  0.000000  1
  Rh  Rh6  1  0.644214  0.318553  0.000000  1
  Rh  Rh7  1  0.325660  0.681447  0.000000  1
  Rh  Rh8  1  0.021987  0.000000  0.500000  1
