# generated using pymatgen
data_Ho7Sn19(Bi2Os3)2
_symmetry_space_group_name_H-M   'P 1'
_cell_length_a   9.91716900
_cell_length_b   9.91716800
_cell_length_c   10.15063700
_cell_angle_alpha   90.00000000
_cell_angle_beta   90.00000000
_cell_angle_gamma   119.99999333
_symmetry_Int_Tables_number   1
_chemical_formula_structural   Ho7Sn19(Bi2Os3)2
_chemical_formula_sum   'Ho7 Sn19 Bi4 Os6'
_cell_volume   864.56836936
_cell_formula_units_Z   1
loop_
 _symmetry_equiv_pos_site_id
 _symmetry_equiv_pos_as_xyz
  1  'x, y, z'
loop_
 _atom_site_type_symbol
 _atom_site_label
 _atom_site_symmetry_multiplicity
 _atom_site_fract_x
 _atom_site_fract_y
 _atom_site_fract_z
 _atom_site_occupancy
  Ho  Ho0  1  0.000000  0.000000  0.000981  1
  Ho  Ho1  1  0.513947  0.486053  0.695964  1
  Ho  Ho2  1  0.513947  0.027893  0.695964  1
  Ho  Ho3  1  0.972107  0.486053  0.695964  1
  Ho  Ho4  1  0.031490  0.515745  0.305876  1
  Ho  Ho5  1  0.484255  0.968510  0.305876  1
  Ho  Ho6  1  0.484255  0.515745  0.305876  1
  Sn  Sn7  1  0.347932  0.348719  0.999645  1
  Sn  Sn8  1  0.000786  0.652068  0.999645  1
  Sn  Sn9  1  0.651281  0.999214  0.999645  1
  Sn  Sn10  1  0.651281  0.652068  0.999645  1
  Sn  Sn11  1  0.333333  0.666667  0.821316  1
  Sn  Sn12  1  0.443137  0.221569  0.461884  1
  Sn  Sn13  1  0.222388  0.777612  0.539025  1
  Sn  Sn14  1  0.222388  0.444776  0.539025  1
  Sn  Sn15  1  0.555224  0.777612  0.539025  1
  Sn  Sn16  1  0.118144  0.881856  0.276579  1
  Sn  Sn17  1  0.778431  0.556863  0.461884  1
  Sn  Sn18  1  0.778431  0.221569  0.461884  1
  Sn  Sn19  1  0.347932  0.999214  0.999645  1
  Sn  Sn20  1  0.118144  0.236289  0.276579  1
  Sn  Sn21  1  0.763711  0.881856  0.276579  1
  Sn  Sn22  1  0.235056  0.117528  0.724474  1
  Sn  Sn23  1  0.882472  0.764944  0.724474  1
  Sn  Sn24  1  0.882472  0.117528  0.724474  1
  Sn  Sn25  1  0.000786  0.348719  0.999645  1
  Bi  Bi26  1  0.666667  0.333333  0.175310  1
  Bi  Bi27  1  0.666667  0.333333  0.866629  1
  Bi  Bi28  1  0.333333  0.666667  0.129052  1
  Bi  Bi29  1  0.000000  0.000000  0.499673  1
  Os  Os30  1  0.169799  0.830201  0.799472  1
  Os  Os31  1  0.169799  0.339597  0.799472  1
  Os  Os32  1  0.660403  0.830201  0.799472  1
  Os  Os33  1  0.335909  0.167955  0.199782  1
  Os  Os34  1  0.832045  0.664091  0.199782  1
  Os  Os35  1  0.832045  0.167955  0.199782  1
