# generated using pymatgen
data_Tb6MnCo(P3Rh4)4
_symmetry_space_group_name_H-M   'P 1'
_cell_length_a   3.89559200
_cell_length_b   11.20965500
_cell_length_c   12.73694300
_cell_angle_alpha   90.00000000
_cell_angle_beta   90.00000000
_cell_angle_gamma   90.00000000
_symmetry_Int_Tables_number   1
_chemical_formula_structural   Tb6MnCo(P3Rh4)4
_chemical_formula_sum   'Tb6 Mn1 Co1 P12 Rh16'
_cell_volume   556.19991360
_cell_formula_units_Z   1
loop_
 _symmetry_equiv_pos_site_id
 _symmetry_equiv_pos_as_xyz
  1  'x, y, z'
loop_
 _atom_site_type_symbol
 _atom_site_label
 _atom_site_symmetry_multiplicity
 _atom_site_fract_x
 _atom_site_fract_y
 _atom_site_fract_z
 _atom_site_occupancy
  Tb  Tb0  1  0.000000  0.500000  0.520399  1
  Tb  Tb1  1  0.500000  0.000000  0.479136  1
  Tb  Tb2  1  0.500000  0.817038  0.202087  1
  Tb  Tb3  1  0.500000  0.182962  0.202087  1
  Tb  Tb4  1  0.000000  0.681621  0.799548  1
  Tb  Tb5  1  0.000000  0.318379  0.799548  1
  Mn  Mn6  1  0.000000  0.500000  0.991451  1
  Co  Co7  1  0.500000  0.000000  0.020018  1
  P  P8  1  0.500000  0.500000  0.885378  1
  P  P9  1  0.000000  0.000000  0.118507  1
  P  P10  1  0.500000  0.500000  0.347512  1
  P  P11  1  0.000000  0.000000  0.648697  1
  P  P12  1  0.500000  0.314722  0.620010  1
  P  P13  1  0.500000  0.685278  0.620010  1
  P  P14  1  0.000000  0.185922  0.380457  1
  P  P15  1  0.000000  0.814078  0.380457  1
  P  P16  1  0.500000  0.854093  0.895933  1
  P  P17  1  0.500000  0.145907  0.895933  1
  P  P18  1  0.000000  0.651565  0.102749  1
  P  P19  1  0.000000  0.348435  0.102749  1
  Rh  Rh20  1  0.500000  0.500000  0.159875  1
  Rh  Rh21  1  0.000000  0.000000  0.831337  1
  Rh  Rh22  1  0.500000  0.500000  0.702286  1
  Rh  Rh23  1  0.000000  0.000000  0.297953  1
  Rh  Rh24  1  0.500000  0.331935  0.992547  1
  Rh  Rh25  1  0.500000  0.668065  0.992547  1
  Rh  Rh26  1  0.000000  0.161092  0.005786  1
  Rh  Rh27  1  0.000000  0.838908  0.005786  1
  Rh  Rh28  1  0.500000  0.293994  0.430106  1
  Rh  Rh29  1  0.500000  0.706006  0.430106  1
  Rh  Rh30  1  0.000000  0.206433  0.569944  1
  Rh  Rh31  1  0.000000  0.793567  0.569944  1
  Rh  Rh32  1  0.500000  0.873165  0.712660  1
  Rh  Rh33  1  0.500000  0.126835  0.712660  1
  Rh  Rh34  1  0.000000  0.626020  0.286900  1
  Rh  Rh35  1  0.000000  0.373980  0.286900  1
