# generated using pymatgen
data_Er12Fe2Co2BiOs
_symmetry_space_group_name_H-M   'P 1'
_cell_length_a   8.26369172
_cell_length_b   8.26369057
_cell_length_c   8.26368980
_cell_angle_alpha   111.06231917
_cell_angle_beta   112.11863323
_cell_angle_gamma   105.31295708
_symmetry_Int_Tables_number   1
_chemical_formula_structural   Er12Fe2Co2BiOs
_chemical_formula_sum   'Er12 Fe2 Co2 Bi1 Os1'
_cell_volume   432.67087723
_cell_formula_units_Z   1
loop_
 _symmetry_equiv_pos_site_id
 _symmetry_equiv_pos_as_xyz
  1  'x, y, z'
loop_
 _atom_site_type_symbol
 _atom_site_label
 _atom_site_symmetry_multiplicity
 _atom_site_fract_x
 _atom_site_fract_y
 _atom_site_fract_z
 _atom_site_occupancy
  Er  Er0  1  0.278445  0.182346  0.460789  1
  Er  Er1  1  0.721555  0.817654  0.539211  1
  Er  Er2  1  0.278445  0.817654  0.096099  1
  Er  Er3  1  0.721555  0.182346  0.903901  1
  Er  Er4  1  0.618889  0.310547  0.308342  1
  Er  Er5  1  0.381111  0.689453  0.691658  1
  Er  Er6  1  0.002208  0.310547  0.691658  1
  Er  Er7  1  0.997792  0.689453  0.308342  1
  Er  Er8  1  0.215220  0.412749  0.197529  1
  Er  Er9  1  0.784780  0.587251  0.802471  1
  Er  Er10  1  0.215220  0.017691  0.802471  1
  Er  Er11  1  0.784780  0.982309  0.197529  1
  Fe  Fe12  1  0.000000  0.381432  0.381432  1
  Fe  Fe13  1  0.000000  0.618568  0.618568  1
  Co  Co14  1  0.389989  0.889989  0.500000  1
  Co  Co15  1  0.610011  0.110011  0.500000  1
  Bi  Bi16  1  0.500000  0.500000  0.000000  1
  Os  Os17  1  0.000000  0.000000  0.000000  1
