# generated using pymatgen
data_La3Ag2Hg3Pt
_symmetry_space_group_name_H-M   'P 1'
_cell_length_a   8.11850900
_cell_length_b   8.11850959
_cell_length_c   3.94099600
_cell_angle_alpha   90.00000000
_cell_angle_beta   90.00000000
_cell_angle_gamma   119.99999354
_symmetry_Int_Tables_number   1
_chemical_formula_structural   La3Ag2Hg3Pt
_chemical_formula_sum   'La3 Ag2 Hg3 Pt1'
_cell_volume   224.95167864
_cell_formula_units_Z   1
loop_
 _symmetry_equiv_pos_site_id
 _symmetry_equiv_pos_as_xyz
  1  'x, y, z'
loop_
 _atom_site_type_symbol
 _atom_site_label
 _atom_site_symmetry_multiplicity
 _atom_site_fract_x
 _atom_site_fract_y
 _atom_site_fract_z
 _atom_site_occupancy
  La  La0  1  0.581515  0.979048  0.000000  1
  La  La1  1  0.020952  0.602467  0.000000  1
  La  La2  1  0.397533  0.418485  0.000000  1
  Ag  Ag3  1  0.666667  0.333333  0.500000  1
  Ag  Ag4  1  0.000000  0.000000  0.000000  1
  Hg  Hg5  1  0.268492  0.008423  0.500000  1
  Hg  Hg6  1  0.991577  0.260070  0.500000  1
  Hg  Hg7  1  0.739930  0.731508  0.500000  1
  Pt  Pt8  1  0.333333  0.666667  0.500000  1
