# generated using pymatgen
data_Hf4Be3(BRu2)5
_symmetry_space_group_name_H-M   'P 1'
_cell_length_a   3.08066700
_cell_length_b   8.65155736
_cell_length_c   10.11349396
_cell_angle_alpha   89.94665202
_cell_angle_beta   90.00000000
_cell_angle_gamma   90.00000000
_symmetry_Int_Tables_number   1
_chemical_formula_structural   Hf4Be3(BRu2)5
_chemical_formula_sum   'Hf4 Be3 B5 Ru10'
_cell_volume   269.55046118
_cell_formula_units_Z   1
loop_
 _symmetry_equiv_pos_site_id
 _symmetry_equiv_pos_as_xyz
  1  'x, y, z'
loop_
 _atom_site_type_symbol
 _atom_site_label
 _atom_site_symmetry_multiplicity
 _atom_site_fract_x
 _atom_site_fract_y
 _atom_site_fract_z
 _atom_site_occupancy
  Hf  Hf0  1  0.500000  0.844426  0.183022  1
  Hf  Hf1  1  0.500000  0.156941  0.816423  1
  Hf  Hf2  1  0.500000  0.660873  0.678587  1
  Hf  Hf3  1  0.500000  0.342323  0.320467  1
  Be  Be4  1  0.500000  0.962040  0.593240  1
  Be  Be5  1  0.500000  0.039327  0.406968  1
  Be  Be6  1  0.500000  0.845035  0.901831  1
  B  B7  1  0.500000  0.146761  0.099353  1
  B  B8  1  0.500000  0.652178  0.401151  1
  B  B9  1  0.500000  0.348772  0.598564  1
  B  B10  1  0.500000  0.464740  0.911543  1
  B  B11  1  0.500000  0.533498  0.089383  1
  Ru  Ru12  1  0.000000  0.647878  0.958835  1
  Ru  Ru13  1  0.000000  0.339828  0.046287  1
  Ru  Ru14  1  0.000000  0.827886  0.443548  1
  Ru  Ru15  1  0.000000  0.174555  0.552636  1
  Ru  Ru16  1  0.000000  0.006784  0.001006  1
  Ru  Ru17  1  0.000000  0.407908  0.762095  1
  Ru  Ru18  1  0.000000  0.592420  0.238188  1
  Ru  Ru19  1  0.000000  0.501087  0.500205  1
  Ru  Ru20  1  0.000000  0.901766  0.741894  1
  Ru  Ru21  1  0.000000  0.102975  0.254770  1
