# generated using pymatgen
data_TbAlZn2Ga5Cu4
_symmetry_space_group_name_H-M   'P 1'
_cell_length_a   6.69256694
_cell_length_b   6.69256693
_cell_length_c   6.69256699
_cell_angle_alpha   133.77801144
_cell_angle_beta   99.66356227
_cell_angle_gamma   98.06354678
_symmetry_Int_Tables_number   1
_chemical_formula_structural   TbAlZn2Ga5Cu4
_chemical_formula_sum   'Tb1 Al1 Zn2 Ga5 Cu4'
_cell_volume   199.04036043
_cell_formula_units_Z   1
loop_
 _symmetry_equiv_pos_site_id
 _symmetry_equiv_pos_as_xyz
  1  'x, y, z'
loop_
 _atom_site_type_symbol
 _atom_site_label
 _atom_site_symmetry_multiplicity
 _atom_site_fract_x
 _atom_site_fract_y
 _atom_site_fract_z
 _atom_site_occupancy
  Tb  Tb0  1  0.999085  0.999085  0.000000  1
  Al  Al1  1  0.216813  0.716813  0.500000  1
  Zn  Zn2  1  0.221665  0.500988  0.720677  1
  Zn  Zn3  1  0.780311  0.500988  0.279323  1
  Ga  Ga4  1  0.344925  0.344925  0.000000  1
  Ga  Ga5  1  0.652839  0.652839  0.000000  1
  Ga  Ga6  1  0.651373  0.998586  0.652787  1
  Ga  Ga7  1  0.345799  0.998586  0.347213  1
  Ga  Ga8  1  0.789182  0.289182  0.500000  1
  Cu  Cu9  1  0.498933  0.999422  0.999352  1
  Cu  Cu10  1  0.498933  0.499581  0.499511  1
  Cu  Cu11  1  0.000071  0.999422  0.500489  1
  Cu  Cu12  1  0.000071  0.499581  0.000648  1
