# generated using pymatgen
data_Eu4CdPt
_symmetry_space_group_name_H-M   'P 1'
_cell_length_a   10.30438956
_cell_length_b   10.30438897
_cell_length_c   10.30438900
_cell_angle_alpha   59.99999669
_cell_angle_beta   59.99999858
_cell_angle_gamma   59.99999716
_symmetry_Int_Tables_number   1
_chemical_formula_structural   Eu4CdPt
_chemical_formula_sum   'Eu16 Cd4 Pt4'
_cell_volume   773.66283616
_cell_formula_units_Z   4
loop_
 _symmetry_equiv_pos_site_id
 _symmetry_equiv_pos_as_xyz
  1  'x, y, z'
loop_
 _atom_site_type_symbol
 _atom_site_label
 _atom_site_symmetry_multiplicity
 _atom_site_fract_x
 _atom_site_fract_y
 _atom_site_fract_z
 _atom_site_occupancy
  Eu  Eu0  1  0.347250  0.347250  0.347250  1
  Eu  Eu1  1  0.347250  0.347250  0.958251  1
  Eu  Eu2  1  0.347250  0.958251  0.347250  1
  Eu  Eu3  1  0.958251  0.347250  0.347250  1
  Eu  Eu4  1  0.807291  0.192709  0.192709  1
  Eu  Eu5  1  0.192709  0.807291  0.807291  1
  Eu  Eu6  1  0.192709  0.807291  0.192709  1
  Eu  Eu7  1  0.807291  0.192709  0.807291  1
  Eu  Eu8  1  0.192709  0.192709  0.807291  1
  Eu  Eu9  1  0.807291  0.807291  0.192709  1
  Eu  Eu10  1  0.940630  0.559370  0.559370  1
  Eu  Eu11  1  0.559370  0.940630  0.940630  1
  Eu  Eu12  1  0.559370  0.940630  0.559370  1
  Eu  Eu13  1  0.940630  0.559370  0.940630  1
  Eu  Eu14  1  0.559370  0.559370  0.940630  1
  Eu  Eu15  1  0.940630  0.940630  0.559370  1
  Cd  Cd16  1  0.579135  0.579135  0.579135  1
  Cd  Cd17  1  0.579135  0.579135  0.262596  1
  Cd  Cd18  1  0.579135  0.262596  0.579135  1
  Cd  Cd19  1  0.262596  0.579135  0.579135  1
  Pt  Pt20  1  0.140782  0.140782  0.140782  1
  Pt  Pt21  1  0.140782  0.140782  0.577653  1
  Pt  Pt22  1  0.140782  0.577653  0.140782  1
  Pt  Pt23  1  0.577653  0.140782  0.140782  1
