# generated using pymatgen
data_Nd4Te3
_symmetry_space_group_name_H-M   'P 1'
_cell_length_a   8.17442097
_cell_length_b   8.17442116
_cell_length_c   8.17442100
_cell_angle_alpha   109.47122024
_cell_angle_beta   109.47122070
_cell_angle_gamma   109.47122011
_symmetry_Int_Tables_number   1
_chemical_formula_structural   Nd4Te3
_chemical_formula_sum   'Nd8 Te6'
_cell_volume   420.48366015
_cell_formula_units_Z   2
loop_
 _symmetry_equiv_pos_site_id
 _symmetry_equiv_pos_as_xyz
  1  'x, y, z'
loop_
 _atom_site_type_symbol
 _atom_site_label
 _atom_site_symmetry_multiplicity
 _atom_site_fract_x
 _atom_site_fract_y
 _atom_site_fract_z
 _atom_site_occupancy
  Nd  Nd0  1  0.143226  0.500000  0.000000  1
  Nd  Nd1  1  0.643226  0.500000  0.000000  1
  Nd  Nd2  1  0.500000  0.000000  0.643226  1
  Nd  Nd3  1  0.356774  0.356774  0.356774  1
  Nd  Nd4  1  0.500000  0.000000  0.143226  1
  Nd  Nd5  1  0.000000  0.643226  0.500000  1
  Nd  Nd6  1  0.856774  0.856774  0.856774  1
  Nd  Nd7  1  0.000000  0.143226  0.500000  1
  Te  Te8  1  0.375000  0.625000  0.750000  1
  Te  Te9  1  0.875000  0.250000  0.125000  1
  Te  Te10  1  0.625000  0.750000  0.375000  1
  Te  Te11  1  0.125000  0.875000  0.250000  1
  Te  Te12  1  0.250000  0.125000  0.875000  1
  Te  Te13  1  0.750000  0.375000  0.625000  1
