# generated using pymatgen
data_V9Re(Si2W)2
_symmetry_space_group_name_H-M   'P 1'
_cell_length_a   4.70342800
_cell_length_b   4.74867840
_cell_length_c   9.61862510
_cell_angle_alpha   89.94781834
_cell_angle_beta   90.00000000
_cell_angle_gamma   90.00000000
_symmetry_Int_Tables_number   1
_chemical_formula_structural   V9Re(Si2W)2
_chemical_formula_sum   'V9 Re1 Si4 W2'
_cell_volume   214.83254639
_cell_formula_units_Z   1
loop_
 _symmetry_equiv_pos_site_id
 _symmetry_equiv_pos_as_xyz
  1  'x, y, z'
loop_
 _atom_site_type_symbol
 _atom_site_label
 _atom_site_symmetry_multiplicity
 _atom_site_fract_x
 _atom_site_fract_y
 _atom_site_fract_z
 _atom_site_occupancy
  V  V0  1  0.500000  0.249247  0.498085  1
  V  V1  1  0.750300  0.001060  0.252292  1
  V  V2  1  0.750901  0.000477  0.750228  1
  V  V3  1  0.000000  0.497682  0.126023  1
  V  V4  1  0.000000  0.499214  0.624366  1
  V  V5  1  0.500000  0.750435  0.998713  1
  V  V6  1  0.500000  0.751743  0.498007  1
  V  V7  1  0.249700  0.001060  0.252292  1
  V  V8  1  0.249099  0.000477  0.750228  1
  Re  Re9  1  0.000000  0.500116  0.375104  1
  Si  Si10  1  0.500000  0.503502  0.249309  1
  Si  Si11  1  0.500000  0.502977  0.743091  1
  Si  Si12  1  0.000000  0.992875  0.003975  1
  Si  Si13  1  0.000000  0.999291  0.503530  1
  W  W14  1  0.000000  0.499997  0.874560  1
  W  W15  1  0.500000  0.249845  0.000199  1
