# generated using pymatgen
data_Tb2PrTm(Ir2O7)2
_symmetry_space_group_name_H-M   'P 1'
_cell_length_a   7.30516025
_cell_length_b   7.25142376
_cell_length_c   7.25142372
_cell_angle_alpha   60.13234235
_cell_angle_beta   60.36454302
_cell_angle_gamma   60.36454481
_symmetry_Int_Tables_number   1
_chemical_formula_structural   Tb2PrTm(Ir2O7)2
_chemical_formula_sum   'Tb2 Pr1 Tm1 Ir4 O14'
_cell_volume   273.38185520
_cell_formula_units_Z   1
loop_
 _symmetry_equiv_pos_site_id
 _symmetry_equiv_pos_as_xyz
  1  'x, y, z'
loop_
 _atom_site_type_symbol
 _atom_site_label
 _atom_site_symmetry_multiplicity
 _atom_site_fract_x
 _atom_site_fract_y
 _atom_site_fract_z
 _atom_site_occupancy
  Tb  Tb0  1  0.125000  0.125000  0.625000  1
  Tb  Tb1  1  0.125000  0.625000  0.125000  1
  Pr  Pr2  1  0.625000  0.125000  0.125000  1
  Tm  Tm3  1  0.125000  0.125000  0.125000  1
  Ir  Ir4  1  0.625000  0.625000  0.625000  1
  Ir  Ir5  1  0.125000  0.625000  0.625000  1
  Ir  Ir6  1  0.625000  0.125000  0.625000  1
  Ir  Ir7  1  0.625000  0.625000  0.125000  1
  O  O8  1  0.961559  0.539011  0.539011  1
  O  O9  1  0.288273  0.289214  0.714369  1
  O  O10  1  0.961727  0.535631  0.960786  1
  O  O11  1  0.723295  0.288758  0.288758  1
  O  O12  1  0.530434  0.547925  0.960977  1
  O  O13  1  0.530434  0.960977  0.547925  1
  O  O14  1  0.526705  0.961242  0.961242  1
  O  O15  1  0.238093  0.251397  0.251397  1
  O  O16  1  0.288441  0.710989  0.710989  1
  O  O17  1  0.719566  0.289023  0.702075  1
  O  O18  1  0.011907  0.998603  0.998603  1
  O  O19  1  0.961727  0.960786  0.535631  1
  O  O20  1  0.288273  0.714369  0.289214  1
  O  O21  1  0.719566  0.702075  0.289023  1
