# generated using pymatgen
data_LaNd7(CdCo)2
_symmetry_space_group_name_H-M   'P 1'
_cell_length_a   9.85898799
_cell_length_b   9.85898829
_cell_length_c   9.87014400
_cell_angle_alpha   59.96256232
_cell_angle_beta   59.96256133
_cell_angle_gamma   59.97303765
_symmetry_Int_Tables_number   1
_chemical_formula_structural   LaNd7(CdCo)2
_chemical_formula_sum   'La2 Nd14 Cd4 Co4'
_cell_volume   677.85798561
_cell_formula_units_Z   2
loop_
 _symmetry_equiv_pos_site_id
 _symmetry_equiv_pos_as_xyz
  1  'x, y, z'
loop_
 _atom_site_type_symbol
 _atom_site_label
 _atom_site_symmetry_multiplicity
 _atom_site_fract_x
 _atom_site_fract_y
 _atom_site_fract_z
 _atom_site_occupancy
  La  La0  1  0.344922  0.344922  0.345682  1
  La  La1  1  0.344922  0.344922  0.964474  1
  Nd  Nd2  1  0.347107  0.956652  0.348121  1
  Nd  Nd3  1  0.956652  0.347107  0.348121  1
  Nd  Nd4  1  0.811629  0.188605  0.189415  1
  Nd  Nd5  1  0.188605  0.811629  0.810350  1
  Nd  Nd6  1  0.188605  0.811629  0.189415  1
  Nd  Nd7  1  0.811629  0.188605  0.810350  1
  Nd  Nd8  1  0.188589  0.188589  0.811411  1
  Nd  Nd9  1  0.810581  0.810581  0.189419  1
  Nd  Nd10  1  0.939201  0.561055  0.561531  1
  Nd  Nd11  1  0.561055  0.939201  0.938211  1
  Nd  Nd12  1  0.561055  0.939201  0.561531  1
  Nd  Nd13  1  0.939201  0.561055  0.938211  1
  Nd  Nd14  1  0.562739  0.562739  0.937261  1
  Nd  Nd15  1  0.939469  0.939469  0.560531  1
  Cd  Cd16  1  0.580356  0.580356  0.578877  1
  Cd  Cd17  1  0.580356  0.580356  0.260409  1
  Cd  Cd18  1  0.580979  0.259811  0.579604  1
  Cd  Cd19  1  0.259811  0.580979  0.579604  1
  Co  Co20  1  0.141941  0.141941  0.139724  1
  Co  Co21  1  0.141941  0.141941  0.576393  1
  Co  Co22  1  0.142411  0.576240  0.140673  1
  Co  Co23  1  0.576240  0.142411  0.140673  1
