# generated using pymatgen
data_La6Ho2MgPt6
_symmetry_space_group_name_H-M   'P 1'
_cell_length_a   7.76759430
_cell_length_b   7.76759482
_cell_length_c   7.76759601
_cell_angle_alpha   70.05757582
_cell_angle_beta   70.05758277
_cell_angle_gamma   70.05757015
_symmetry_Int_Tables_number   1
_chemical_formula_structural   La6Ho2MgPt6
_chemical_formula_sum   'La6 Ho2 Mg1 Pt6'
_cell_volume   400.52331456
_cell_formula_units_Z   1
loop_
 _symmetry_equiv_pos_site_id
 _symmetry_equiv_pos_as_xyz
  1  'x, y, z'
loop_
 _atom_site_type_symbol
 _atom_site_label
 _atom_site_symmetry_multiplicity
 _atom_site_fract_x
 _atom_site_fract_y
 _atom_site_fract_z
 _atom_site_occupancy
  La  La0  1  0.318468  0.613910  0.852175  1
  La  La1  1  0.852175  0.318468  0.613910  1
  La  La2  1  0.613910  0.852175  0.318468  1
  La  La3  1  0.681532  0.386090  0.147825  1
  La  La4  1  0.147825  0.681532  0.386090  1
  La  La5  1  0.386090  0.147825  0.681532  1
  Ho  Ho6  1  0.813168  0.813168  0.813168  1
  Ho  Ho7  1  0.186832  0.186832  0.186832  1
  Mg  Mg8  1  0.000000  0.000000  0.000000  1
  Pt  Pt9  1  0.169599  0.960659  0.579128  1
  Pt  Pt10  1  0.579128  0.169599  0.960659  1
  Pt  Pt11  1  0.960659  0.579128  0.169599  1
  Pt  Pt12  1  0.830401  0.039341  0.420872  1
  Pt  Pt13  1  0.420872  0.830401  0.039341  1
  Pt  Pt14  1  0.039341  0.420872  0.830401  1
