# generated using pymatgen
data_NdY2(AlNi2)2
_symmetry_space_group_name_H-M   'P 1'
_cell_length_a   5.40213543
_cell_length_b   5.40213660
_cell_length_c   8.21924235
_cell_angle_alpha   97.69525763
_cell_angle_beta   97.69525731
_cell_angle_gamma   45.00709406
_symmetry_Int_Tables_number   1
_chemical_formula_structural   NdY2(AlNi2)2
_chemical_formula_sum   'Nd1 Y2 Al2 Ni4'
_cell_volume   167.83835273
_cell_formula_units_Z   1
loop_
 _symmetry_equiv_pos_site_id
 _symmetry_equiv_pos_as_xyz
  1  'x, y, z'
loop_
 _atom_site_type_symbol
 _atom_site_label
 _atom_site_symmetry_multiplicity
 _atom_site_fract_x
 _atom_site_fract_y
 _atom_site_fract_z
 _atom_site_occupancy
  Nd  Nd0  1  0.000000  0.000000  0.000000  1
  Y  Y1  1  0.624992  0.624992  0.382990  1
  Y  Y2  1  0.375007  0.375007  0.617010  1
  Al  Al3  1  0.320689  0.320689  0.217947  1
  Al  Al4  1  0.679311  0.679311  0.782053  1
  Ni  Ni5  1  0.733551  0.733551  0.087755  1
  Ni  Ni6  1  0.914513  0.914513  0.367105  1
  Ni  Ni7  1  0.085488  0.085488  0.632895  1
  Ni  Ni8  1  0.266449  0.266449  0.912245  1
