# generated using pymatgen
data_HoEr2Co4P6Ru5
_symmetry_space_group_name_H-M   'P 1'
_cell_length_a   3.84232400
_cell_length_b   10.64121100
_cell_length_c   12.52464700
_cell_angle_alpha   90.00000000
_cell_angle_beta   90.00000000
_cell_angle_gamma   90.00000000
_symmetry_Int_Tables_number   1
_chemical_formula_structural   HoEr2Co4P6Ru5
_chemical_formula_sum   'Ho2 Er4 Co8 P12 Ru10'
_cell_volume   512.09499659
_cell_formula_units_Z   2
loop_
 _symmetry_equiv_pos_site_id
 _symmetry_equiv_pos_as_xyz
  1  'x, y, z'
loop_
 _atom_site_type_symbol
 _atom_site_label
 _atom_site_symmetry_multiplicity
 _atom_site_fract_x
 _atom_site_fract_y
 _atom_site_fract_z
 _atom_site_occupancy
  Ho  Ho0  1  0.000000  0.500000  0.527383  1
  Ho  Ho1  1  0.500000  0.000000  0.472617  1
  Er  Er2  1  0.500000  0.821678  0.200663  1
  Er  Er3  1  0.500000  0.178322  0.200663  1
  Er  Er4  1  0.000000  0.678322  0.799337  1
  Er  Er5  1  0.000000  0.321678  0.799337  1
  Co  Co6  1  0.000000  0.500000  0.983636  1
  Co  Co7  1  0.500000  0.000000  0.016364  1
  Co  Co8  1  0.500000  0.332248  0.988749  1
  Co  Co9  1  0.500000  0.667752  0.988749  1
  Co  Co10  1  0.000000  0.167752  0.011251  1
  Co  Co11  1  0.000000  0.832248  0.011251  1
  Co  Co12  1  0.500000  0.500000  0.702813  1
  Co  Co13  1  0.000000  0.000000  0.297187  1
  P  P14  1  0.500000  0.314869  0.618326  1
  P  P15  1  0.500000  0.685131  0.618326  1
  P  P16  1  0.000000  0.185131  0.381674  1
  P  P17  1  0.000000  0.814869  0.381674  1
  P  P18  1  0.500000  0.500000  0.880859  1
  P  P19  1  0.000000  0.000000  0.119141  1
  P  P20  1  0.500000  0.845678  0.900828  1
  P  P21  1  0.500000  0.154322  0.900828  1
  P  P22  1  0.000000  0.654322  0.099172  1
  P  P23  1  0.000000  0.345678  0.099172  1
  P  P24  1  0.500000  0.500000  0.336658  1
  P  P25  1  0.000000  0.000000  0.663342  1
  Ru  Ru26  1  0.500000  0.298056  0.427546  1
  Ru  Ru27  1  0.500000  0.701944  0.427546  1
  Ru  Ru28  1  0.000000  0.201944  0.572454  1
  Ru  Ru29  1  0.000000  0.798056  0.572454  1
  Ru  Ru30  1  0.500000  0.874288  0.719222  1
  Ru  Ru31  1  0.500000  0.125712  0.719222  1
  Ru  Ru32  1  0.000000  0.625712  0.280778  1
  Ru  Ru33  1  0.000000  0.374288  0.280778  1
  Ru  Ru34  1  0.500000  0.500000  0.146314  1
  Ru  Ru35  1  0.000000  0.000000  0.853686  1
