# generated using pymatgen
data_Pr2Al2GaGe
_symmetry_space_group_name_H-M   'P 1'
_cell_length_a   4.33857500
_cell_length_b   4.31963900
_cell_length_c   7.45538300
_cell_angle_alpha   90.00000000
_cell_angle_beta   90.00000000
_cell_angle_gamma   90.00000000
_symmetry_Int_Tables_number   1
_chemical_formula_structural   Pr2Al2GaGe
_chemical_formula_sum   'Pr2 Al2 Ga1 Ge1'
_cell_volume   139.72191264
_cell_formula_units_Z   1
loop_
 _symmetry_equiv_pos_site_id
 _symmetry_equiv_pos_as_xyz
  1  'x, y, z'
loop_
 _atom_site_type_symbol
 _atom_site_label
 _atom_site_symmetry_multiplicity
 _atom_site_fract_x
 _atom_site_fract_y
 _atom_site_fract_z
 _atom_site_occupancy
  Pr  Pr0  1  0.000000  0.500000  0.001931  1
  Pr  Pr1  1  0.000000  0.000000  0.498355  1
  Al  Al2  1  0.500000  0.000000  0.163411  1
  Al  Al3  1  0.500000  0.500000  0.669103  1
  Ga  Ga4  1  0.500000  0.000000  0.831634  1
  Ge  Ge5  1  0.500000  0.500000  0.335566  1
