# generated using pymatgen
data_Er5Tm(AuO7)2
_symmetry_space_group_name_H-M   'P 1'
_cell_length_a   6.43548744
_cell_length_b   6.43693030
_cell_length_c   7.37092100
_cell_angle_alpha   89.99717729
_cell_angle_beta   90.00180937
_cell_angle_gamma   108.76659615
_symmetry_Int_Tables_number   1
_chemical_formula_structural   Er5Tm(AuO7)2
_chemical_formula_sum   'Er5 Tm1 Au2 O14'
_cell_volume   289.10607795
_cell_formula_units_Z   1
loop_
 _symmetry_equiv_pos_site_id
 _symmetry_equiv_pos_as_xyz
  1  'x, y, z'
loop_
 _atom_site_type_symbol
 _atom_site_label
 _atom_site_symmetry_multiplicity
 _atom_site_fract_x
 _atom_site_fract_y
 _atom_site_fract_z
 _atom_site_occupancy
  Er  Er0  1  0.997657  0.528951  0.249967  1
  Er  Er1  1  0.528592  0.997679  0.750007  1
  Er  Er2  1  0.471276  0.001765  0.250005  1
  Er  Er3  1  0.499514  0.499494  0.500226  1
  Er  Er4  1  0.499320  0.499307  0.999776  1
  Tm  Tm5  1  0.001850  0.471363  0.749970  1
  Au  Au6  1  0.000050  0.000297  0.500377  1
  Au  Au7  1  0.000301  0.000424  0.999659  1
  O  O8  1  0.640361  0.361265  0.749966  1
  O  O9  1  0.360998  0.638239  0.249977  1
  O  O10  1  0.918704  0.083269  0.750033  1
  O  O11  1  0.081657  0.917969  0.250024  1
  O  O12  1  0.918153  0.667704  0.525804  1
  O  O13  1  0.082433  0.332691  0.023756  1
  O  O14  1  0.332789  0.084698  0.975261  1
  O  O15  1  0.667398  0.915408  0.475556  1
  O  O16  1  0.365622  0.631758  0.750017  1
  O  O17  1  0.632565  0.367226  0.250015  1
  O  O18  1  0.918195  0.667666  0.974144  1
  O  O19  1  0.082382  0.332748  0.476195  1
  O  O20  1  0.332707  0.084542  0.524775  1
  O  O21  1  0.667477  0.915534  0.024491  1
