# generated using pymatgen
data_PrEu7P6
_symmetry_space_group_name_H-M   'P 1'
_cell_length_a   7.75965090
_cell_length_b   7.75965101
_cell_length_c   7.75965155
_cell_angle_alpha   109.52594727
_cell_angle_beta   109.52595337
_cell_angle_gamma   109.52594265
_symmetry_Int_Tables_number   1
_chemical_formula_structural   PrEu7P6
_chemical_formula_sum   'Pr1 Eu7 P6'
_cell_volume   358.93978257
_cell_formula_units_Z   1
loop_
 _symmetry_equiv_pos_site_id
 _symmetry_equiv_pos_as_xyz
  1  'x, y, z'
loop_
 _atom_site_type_symbol
 _atom_site_label
 _atom_site_symmetry_multiplicity
 _atom_site_fract_x
 _atom_site_fract_y
 _atom_site_fract_z
 _atom_site_occupancy
  Pr  Pr0  1  0.128179  0.128179  0.128179  1
  Eu  Eu1  1  0.500053  0.000495  0.868013  1
  Eu  Eu2  1  0.868013  0.500053  0.000495  1
  Eu  Eu3  1  0.000495  0.868013  0.500053  1
  Eu  Eu4  1  0.370607  0.502267  0.999574  1
  Eu  Eu5  1  0.999574  0.370607  0.502267  1
  Eu  Eu6  1  0.502267  0.999574  0.370607  1
  Eu  Eu7  1  0.630180  0.630180  0.630180  1
  P  P8  1  0.621423  0.373226  0.249005  1
  P  P9  1  0.249005  0.621423  0.373226  1
  P  P10  1  0.753828  0.877718  0.125434  1
  P  P11  1  0.125434  0.753828  0.877718  1
  P  P12  1  0.373226  0.249005  0.621423  1
  P  P13  1  0.877718  0.125434  0.753828  1
