# generated using pymatgen
data_Yb4InAg4Ge3
_symmetry_space_group_name_H-M   'P 1'
_cell_length_a   5.80111927
_cell_length_b   5.80111851
_cell_length_c   10.83664054
_cell_angle_alpha   83.15320188
_cell_angle_beta   83.15320167
_cell_angle_gamma   46.92035511
_symmetry_Int_Tables_number   1
_chemical_formula_structural   Yb4InAg4Ge3
_chemical_formula_sum   'Yb4 In1 Ag4 Ge3'
_cell_volume   264.10899994
_cell_formula_units_Z   1
loop_
 _symmetry_equiv_pos_site_id
 _symmetry_equiv_pos_as_xyz
  1  'x, y, z'
loop_
 _atom_site_type_symbol
 _atom_site_label
 _atom_site_symmetry_multiplicity
 _atom_site_fract_x
 _atom_site_fract_y
 _atom_site_fract_z
 _atom_site_occupancy
  Yb  Yb0  1  0.679453  0.679453  0.675537  1
  Yb  Yb1  1  0.186819  0.186819  0.192414  1
  Yb  Yb2  1  0.398628  0.398628  0.897955  1
  Yb  Yb3  1  0.898926  0.898926  0.397681  1
  In  In4  1  0.680503  0.680503  0.986683  1
  Ag  Ag5  1  0.384312  0.384312  0.605803  1
  Ag  Ag6  1  0.900243  0.900243  0.109052  1
  Ag  Ag7  1  0.103210  0.103210  0.874017  1
  Ag  Ag8  1  0.606692  0.606692  0.391774  1
  Ge  Ge9  1  0.176018  0.176018  0.487847  1
  Ge  Ge10  1  0.983145  0.983145  0.670342  1
  Ge  Ge11  1  0.483250  0.483250  0.192096  1
