# generated using pymatgen
data_Ho6Cr3FeC12
_symmetry_space_group_name_H-M   'P 1'
_cell_length_a   8.10132400
_cell_length_b   8.10132403
_cell_length_c   4.95979300
_cell_angle_alpha   90.00000000
_cell_angle_beta   90.00000000
_cell_angle_gamma   119.99999171
_symmetry_Int_Tables_number   1
_chemical_formula_structural   Ho6Cr3FeC12
_chemical_formula_sum   'Ho6 Cr3 Fe1 C12'
_cell_volume   281.90723620
_cell_formula_units_Z   1
loop_
 _symmetry_equiv_pos_site_id
 _symmetry_equiv_pos_as_xyz
  1  'x, y, z'
loop_
 _atom_site_type_symbol
 _atom_site_label
 _atom_site_symmetry_multiplicity
 _atom_site_fract_x
 _atom_site_fract_y
 _atom_site_fract_z
 _atom_site_occupancy
  Ho  Ho0  1  0.626967  0.685687  0.750000  1
  Ho  Ho1  1  0.937067  0.621060  0.250000  1
  Ho  Ho2  1  0.683992  0.062933  0.250000  1
  Ho  Ho3  1  0.314313  0.941280  0.750000  1
  Ho  Ho4  1  0.058720  0.373033  0.750000  1
  Ho  Ho5  1  0.378940  0.316008  0.250000  1
  Cr  Cr6  1  0.000000  0.000000  0.498131  1
  Cr  Cr7  1  0.000000  0.000000  0.001869  1
  Cr  Cr8  1  0.666667  0.333333  0.750000  1
  Fe  Fe9  1  0.333333  0.666667  0.250000  1
  C  C10  1  0.965937  0.776308  0.750000  1
  C  C11  1  0.193820  0.961908  0.250000  1
  C  C12  1  0.768090  0.806180  0.250000  1
  C  C13  1  0.223692  0.189630  0.750000  1
  C  C14  1  0.810370  0.034063  0.750000  1
  C  C15  1  0.038092  0.231910  0.250000  1
  C  C16  1  0.866935  0.579341  0.750000  1
  C  C17  1  0.292561  0.867209  0.250000  1
  C  C18  1  0.574647  0.707439  0.250000  1
  C  C19  1  0.420659  0.287594  0.750000  1
  C  C20  1  0.132791  0.425353  0.250000  1
  C  C21  1  0.712406  0.133065  0.750000  1
