# generated using pymatgen
data_AlAgAu3
_symmetry_space_group_name_H-M   'P 1'
_cell_length_a   7.05695679
_cell_length_b   7.00162318
_cell_length_c   7.08874809
_cell_angle_alpha   90.05930991
_cell_angle_beta   90.30062898
_cell_angle_gamma   90.51931162
_symmetry_Int_Tables_number   1
_chemical_formula_structural   AlAgAu3
_chemical_formula_sum   'Al4 Ag4 Au12'
_cell_volume   350.23670938
_cell_formula_units_Z   4
loop_
 _symmetry_equiv_pos_site_id
 _symmetry_equiv_pos_as_xyz
  1  'x, y, z'
loop_
 _atom_site_type_symbol
 _atom_site_label
 _atom_site_symmetry_multiplicity
 _atom_site_fract_x
 _atom_site_fract_y
 _atom_site_fract_z
 _atom_site_occupancy
  Al  Al0  1  0.063380  0.063481  0.063278  1
  Al  Al1  1  0.432696  0.939060  0.563446  1
  Al  Al2  1  0.563685  0.431594  0.933811  1
  Al  Al3  1  0.939416  0.561343  0.435392  1
  Ag  Ag4  1  0.789678  0.952192  0.384150  1
  Ag  Ag5  1  0.384764  0.787876  0.952211  1
  Ag  Ag6  1  0.953254  0.383181  0.789179  1
  Ag  Ag7  1  0.548580  0.617562  0.290433  1
  Au  Au8  1  0.684124  0.683676  0.680887  1
  Au  Au9  1  0.814249  0.317779  0.181013  1
  Au  Au10  1  0.181275  0.816469  0.314387  1
  Au  Au11  1  0.315149  0.180884  0.815869  1
  Au  Au12  1  0.880666  0.711537  0.052340  1
  Au  Au13  1  0.049007  0.883628  0.714426  1
  Au  Au14  1  0.113113  0.217348  0.447861  1
  Au  Au15  1  0.617119  0.287846  0.552292  1
  Au  Au16  1  0.451177  0.112239  0.217579  1
  Au  Au17  1  0.287147  0.554264  0.615597  1
  Au  Au18  1  0.218311  0.449005  0.110764  1
  Au  Au19  1  0.713209  0.049035  0.885088  1
