# generated using pymatgen
data_Pr3Dy2P12Ru18Pt
_symmetry_space_group_name_H-M   'P 1'
_cell_length_a   12.56771614
_cell_length_b   12.61375869
_cell_length_c   4.01803600
_cell_angle_alpha   90.00000000
_cell_angle_beta   90.00000000
_cell_angle_gamma   119.34869215
_symmetry_Int_Tables_number   1
_chemical_formula_structural   Pr3Dy2P12Ru18Pt
_chemical_formula_sum   'Pr3 Dy2 P12 Ru18 Pt1'
_cell_volume   555.21138749
_cell_formula_units_Z   1
loop_
 _symmetry_equiv_pos_site_id
 _symmetry_equiv_pos_as_xyz
  1  'x, y, z'
loop_
 _atom_site_type_symbol
 _atom_site_label
 _atom_site_symmetry_multiplicity
 _atom_site_fract_x
 _atom_site_fract_y
 _atom_site_fract_z
 _atom_site_occupancy
  Pr  Pr0  1  0.816579  0.999644  0.500000  1
  Pr  Pr1  1  0.184803  0.185534  0.500000  1
  Pr  Pr2  1  0.000112  0.815119  0.500000  1
  Dy  Dy3  1  0.662518  0.331467  0.000000  1
  Dy  Dy4  1  0.335865  0.667202  0.000000  1
  P  P5  1  0.627207  0.999022  0.000000  1
  P  P6  1  0.374309  0.375413  0.000000  1
  P  P7  1  0.011692  0.636361  0.000000  1
  P  P8  1  0.685951  0.521176  0.500000  1
  P  P9  1  0.821140  0.295408  0.500000  1
  P  P10  1  0.304492  0.824461  0.500000  1
  P  P11  1  0.521463  0.695613  0.500000  1
  P  P12  1  0.189468  0.001398  0.000000  1
  P  P13  1  0.813609  0.811110  0.000000  1
  P  P14  1  0.002336  0.190624  0.000000  1
  P  P15  1  0.476702  0.172979  0.500000  1
  P  P16  1  0.173917  0.479679  0.500000  1
  Ru  Ru17  1  0.619902  0.803341  0.000000  1
  Ru  Ru18  1  0.184892  0.383402  0.000000  1
  Ru  Ru19  1  0.380154  0.184518  0.000000  1
  Ru  Ru20  1  0.201301  0.818212  0.000000  1
  Ru  Ru21  1  0.807459  0.617458  0.000000  1
  Ru  Ru22  1  0.490150  0.365203  0.500000  1
  Ru  Ru23  1  0.630506  0.124554  0.500000  1
  Ru  Ru24  1  0.123391  0.632714  0.500000  1
  Ru  Ru25  1  0.368336  0.494882  0.500000  1
  Ru  Ru26  1  0.506087  0.874298  0.500000  1
  Ru  Ru27  1  0.000473  0.000766  0.000000  1
  Ru  Ru28  1  0.714754  0.713391  0.500000  1
  Ru  Ru29  1  0.000676  0.289067  0.500000  1
  Ru  Ru30  1  0.448776  0.002106  0.000000  1
  Ru  Ru31  1  0.556283  0.552520  0.000000  1
  Ru  Ru32  1  0.996839  0.448087  0.000000  1
  Ru  Ru33  1  0.815511  0.195998  0.000000  1
  Ru  Ru34  1  0.287309  0.999781  0.500000  1
  Pt  Pt35  1  0.865036  0.497494  0.500000  1
