# generated using pymatgen
data_La3Tb3Y10(CdNi)4
_symmetry_space_group_name_H-M   'P 1'
_cell_length_a   9.69438496
_cell_length_b   9.70524756
_cell_length_c   9.70514667
_cell_angle_alpha   59.72610879
_cell_angle_beta   60.01373051
_cell_angle_gamma   60.01848650
_symmetry_Int_Tables_number   1
_chemical_formula_structural   La3Tb3Y10(CdNi)4
_chemical_formula_sum   'La3 Tb3 Y10 Cd4 Ni4'
_cell_volume   644.48411365
_cell_formula_units_Z   1
loop_
 _symmetry_equiv_pos_site_id
 _symmetry_equiv_pos_as_xyz
  1  'x, y, z'
loop_
 _atom_site_type_symbol
 _atom_site_label
 _atom_site_symmetry_multiplicity
 _atom_site_fract_x
 _atom_site_fract_y
 _atom_site_fract_z
 _atom_site_occupancy
  La  La0  1  0.595186  0.599223  0.599203  1
  La  La1  1  0.597363  0.600149  0.200800  1
  La  La2  1  0.597402  0.200774  0.600133  1
  Tb  Tb3  1  0.195089  0.603148  0.603209  1
  Tb  Tb4  1  0.064182  0.437960  0.437970  1
  Tb  Tb5  1  0.436628  0.064873  0.064886  1
  Y  Y6  1  0.438625  0.063540  0.436972  1
  Y  Y7  1  0.063991  0.437160  0.062525  1
  Y  Y8  1  0.438649  0.436924  0.063555  1
  Y  Y9  1  0.063890  0.062627  0.437172  1
  Y  Y10  1  0.186695  0.816491  0.816495  1
  Y  Y11  1  0.815569  0.184450  0.184495  1
  Y  Y12  1  0.815903  0.185314  0.815198  1
  Y  Y13  1  0.186341  0.813870  0.186054  1
  Y  Y14  1  0.815918  0.815126  0.185357  1
  Y  Y15  1  0.186341  0.186002  0.813889  1
  Cd  Cd16  1  0.836755  0.828495  0.828544  1
  Cd  Cd17  1  0.835089  0.829454  0.502933  1
  Cd  Cd18  1  0.835099  0.502890  0.829488  1
  Cd  Cd19  1  0.504179  0.830788  0.830852  1
  Ni  Ni20  1  0.388201  0.393861  0.394000  1
  Ni  Ni21  1  0.388461  0.390692  0.824914  1
  Ni  Ni22  1  0.388422  0.824976  0.390736  1
  Ni  Ni23  1  0.826024  0.391213  0.390623  1
