# generated using pymatgen
data_Mg2Ni9P7W3
_symmetry_space_group_name_H-M   'P 1'
_cell_length_a   3.62254300
_cell_length_b   9.18946463
_cell_length_c   9.18946500
_cell_angle_alpha   119.99999773
_cell_angle_beta   90.00000000
_cell_angle_gamma   90.00000000
_symmetry_Int_Tables_number   1
_chemical_formula_structural   Mg2Ni9P7W3
_chemical_formula_sum   'Mg2 Ni9 P7 W3'
_cell_volume   264.92602879
_cell_formula_units_Z   1
loop_
 _symmetry_equiv_pos_site_id
 _symmetry_equiv_pos_as_xyz
  1  'x, y, z'
loop_
 _atom_site_type_symbol
 _atom_site_label
 _atom_site_symmetry_multiplicity
 _atom_site_fract_x
 _atom_site_fract_y
 _atom_site_fract_z
 _atom_site_occupancy
  Mg  Mg0  1  0.000000  0.666667  0.333333  1
  Mg  Mg1  1  0.500000  0.333333  0.666667  1
  Ni  Ni2  1  0.000000  0.560216  0.928769  1
  Ni  Ni3  1  0.000000  0.368553  0.439784  1
  Ni  Ni4  1  0.000000  0.071231  0.631447  1
  Ni  Ni5  1  0.500000  0.937397  0.384825  1
  Ni  Ni6  1  0.500000  0.447428  0.062603  1
  Ni  Ni7  1  0.500000  0.615175  0.552572  1
  Ni  Ni8  1  0.000000  0.871292  0.158549  1
  Ni  Ni9  1  0.000000  0.287257  0.128708  1
  Ni  Ni10  1  0.000000  0.841451  0.712743  1
  P  P11  1  0.500000  0.708293  0.120757  1
  P  P12  1  0.500000  0.412464  0.291707  1
  P  P13  1  0.500000  0.879243  0.587536  1
  P  P14  1  0.000000  0.000000  0.000000  1
  P  P15  1  0.000000  0.585365  0.700146  1
  P  P16  1  0.000000  0.114781  0.414635  1
  P  P17  1  0.000000  0.299854  0.885219  1
  W  W18  1  0.500000  0.778689  0.899110  1
  W  W19  1  0.500000  0.120422  0.221311  1
  W  W20  1  0.500000  0.100890  0.879578  1
