# generated using pymatgen
data_Ca2ErUN4
_symmetry_space_group_name_H-M   'P 1'
_cell_length_a   6.05011490
_cell_length_b   6.04746960
_cell_length_c   4.87843851
_cell_angle_alpha   66.16195145
_cell_angle_beta   66.19009241
_cell_angle_gamma   47.52921969
_symmetry_Int_Tables_number   1
_chemical_formula_structural   Ca2ErUN4
_chemical_formula_sum   'Ca2 Er1 U1 N4'
_cell_volume   118.14251865
_cell_formula_units_Z   1
loop_
 _symmetry_equiv_pos_site_id
 _symmetry_equiv_pos_as_xyz
  1  'x, y, z'
loop_
 _atom_site_type_symbol
 _atom_site_label
 _atom_site_symmetry_multiplicity
 _atom_site_fract_x
 _atom_site_fract_y
 _atom_site_fract_z
 _atom_site_occupancy
  Ca  Ca0  1  0.247301  0.252703  0.252712  1
  Ca  Ca1  1  0.497777  0.502211  0.502218  1
  Er  Er2  1  0.747537  0.752454  0.752487  1
  U  U3  1  0.997669  0.002342  0.002335  1
  N  N4  1  0.986308  0.991727  0.517276  1
  N  N5  1  0.211531  0.217326  0.788027  1
  N  N6  1  0.504658  0.517238  0.991736  1
  N  N7  1  0.783152  0.788065  0.217276  1
