# generated using pymatgen
data_TbEr3(HfRh)4
_symmetry_space_group_name_H-M   'P 1'
_cell_length_a   4.59269100
_cell_length_b   6.99157255
_cell_length_c   8.23023613
_cell_angle_alpha   89.91563231
_cell_angle_beta   90.00000000
_cell_angle_gamma   90.00000000
_symmetry_Int_Tables_number   1
_chemical_formula_structural   TbEr3(HfRh)4
_chemical_formula_sum   'Tb1 Er3 Hf4 Rh4'
_cell_volume   264.27368470
_cell_formula_units_Z   1
loop_
 _symmetry_equiv_pos_site_id
 _symmetry_equiv_pos_as_xyz
  1  'x, y, z'
loop_
 _atom_site_type_symbol
 _atom_site_label
 _atom_site_symmetry_multiplicity
 _atom_site_fract_x
 _atom_site_fract_y
 _atom_site_fract_z
 _atom_site_occupancy
  Tb  Tb0  1  0.250000  0.984685  0.322563  1
  Er  Er1  1  0.250000  0.482770  0.176710  1
  Er  Er2  1  0.750000  0.016828  0.677904  1
  Er  Er3  1  0.750000  0.516921  0.822995  1
  Hf  Hf4  1  0.250000  0.360128  0.575522  1
  Hf  Hf5  1  0.250000  0.858852  0.924908  1
  Hf  Hf6  1  0.750000  0.639690  0.425957  1
  Hf  Hf7  1  0.750000  0.140439  0.072271  1
  Rh  Rh8  1  0.250000  0.231554  0.911132  1
  Rh  Rh9  1  0.250000  0.731239  0.589798  1
  Rh  Rh10  1  0.750000  0.767502  0.087744  1
  Rh  Rh11  1  0.750000  0.269392  0.412496  1
