# generated using pymatgen
data_Ba6Sr2ScUSe12
_symmetry_space_group_name_H-M   'P 1'
_cell_length_a   8.92623145
_cell_length_b   8.92623081
_cell_length_c   8.92623187
_cell_angle_alpha   90.90494441
_cell_angle_beta   90.90495645
_cell_angle_gamma   90.90495912
_symmetry_Int_Tables_number   1
_chemical_formula_structural   Ba6Sr2ScUSe12
_chemical_formula_sum   'Ba6 Sr2 Sc1 U1 Se12'
_cell_volume   710.95178623
_cell_formula_units_Z   1
loop_
 _symmetry_equiv_pos_site_id
 _symmetry_equiv_pos_as_xyz
  1  'x, y, z'
loop_
 _atom_site_type_symbol
 _atom_site_label
 _atom_site_symmetry_multiplicity
 _atom_site_fract_x
 _atom_site_fract_y
 _atom_site_fract_z
 _atom_site_occupancy
  Ba  Ba0  1  0.871022  0.621308  0.261076  1
  Ba  Ba1  1  0.261076  0.871022  0.621308  1
  Ba  Ba2  1  0.621308  0.261076  0.871022  1
  Ba  Ba3  1  0.738924  0.128978  0.378692  1
  Ba  Ba4  1  0.378692  0.738924  0.128978  1
  Ba  Ba5  1  0.128978  0.378692  0.738924  1
  Sr  Sr6  1  0.255706  0.255706  0.255706  1
  Sr  Sr7  1  0.744294  0.744294  0.744294  1
  Sc  Sc8  1  0.500000  0.500000  0.500000  1
  U  U9  1  0.000000  0.000000  0.000000  1
  Se  Se10  1  0.206442  0.556817  0.417510  1
  Se  Se11  1  0.417510  0.206442  0.556817  1
  Se  Se12  1  0.556817  0.417510  0.206442  1
  Se  Se13  1  0.922396  0.051587  0.704165  1
  Se  Se14  1  0.704165  0.922396  0.051587  1
  Se  Se15  1  0.051587  0.704165  0.922396  1
  Se  Se16  1  0.793558  0.443183  0.582490  1
  Se  Se17  1  0.582490  0.793558  0.443183  1
  Se  Se18  1  0.443183  0.582490  0.793558  1
  Se  Se19  1  0.077604  0.948413  0.295835  1
  Se  Se20  1  0.295835  0.077604  0.948413  1
  Se  Se21  1  0.948413  0.295835  0.077604  1
