# generated using pymatgen
data_CaTb2Lu7Pt8
_symmetry_space_group_name_H-M   'P 1'
_cell_length_a   7.39786000
_cell_length_b   7.48217423
_cell_length_c   14.66037100
_cell_angle_alpha   89.92036054
_cell_angle_beta   90.00000000
_cell_angle_gamma   90.00000000
_symmetry_Int_Tables_number   1
_chemical_formula_structural   CaTb2Lu7Pt8
_chemical_formula_sum   'Ca2 Tb4 Lu14 Pt16'
_cell_volume   811.48120689
_cell_formula_units_Z   2
loop_
 _symmetry_equiv_pos_site_id
 _symmetry_equiv_pos_as_xyz
  1  'x, y, z'
loop_
 _atom_site_type_symbol
 _atom_site_label
 _atom_site_symmetry_multiplicity
 _atom_site_fract_x
 _atom_site_fract_y
 _atom_site_fract_z
 _atom_site_occupancy
  Ca  Ca0  1  0.509961  0.321383  0.092706  1
  Ca  Ca1  1  0.009961  0.178617  0.407294  1
  Tb  Tb2  1  0.510376  0.324656  0.407673  1
  Tb  Tb3  1  0.010376  0.175344  0.092327  1
  Tb  Tb4  1  0.491061  0.680696  0.906029  1
  Tb  Tb5  1  0.991061  0.819304  0.593971  1
  Lu  Lu6  1  0.645903  0.167592  0.623767  1
  Lu  Lu7  1  0.145903  0.332408  0.876233  1
  Lu  Lu8  1  0.357517  0.834450  0.122550  1
  Lu  Lu9  1  0.857517  0.665550  0.377450  1
  Lu  Lu10  1  0.355344  0.834247  0.378678  1
  Lu  Lu11  1  0.855344  0.665753  0.121322  1
  Lu  Lu12  1  0.644833  0.166680  0.878033  1
  Lu  Lu13  1  0.144833  0.333320  0.621967  1
  Lu  Lu14  1  0.490523  0.681799  0.594369  1
  Lu  Lu15  1  0.990523  0.818201  0.905631  1
  Lu  Lu16  1  0.806644  0.508770  0.750360  1
  Lu  Lu17  1  0.306644  0.991230  0.749640  1
  Lu  Lu18  1  0.193880  0.489820  0.249049  1
  Lu  Lu19  1  0.693880  0.010180  0.250951  1
  Pt  Pt20  1  0.680185  0.955728  0.461976  1
  Pt  Pt21  1  0.180185  0.544272  0.038024  1
  Pt  Pt22  1  0.304083  0.025539  0.955418  1
  Pt  Pt23  1  0.804083  0.474461  0.544582  1
  Pt  Pt24  1  0.318884  0.028270  0.547771  1
  Pt  Pt25  1  0.818884  0.471730  0.952229  1
  Pt  Pt26  1  0.694014  0.956569  0.037327  1
  Pt  Pt27  1  0.194014  0.543431  0.462673  1
  Pt  Pt28  1  0.440790  0.381572  0.749697  1
  Pt  Pt29  1  0.940790  0.118428  0.750303  1
  Pt  Pt30  1  0.558457  0.625624  0.252153  1
  Pt  Pt31  1  0.058457  0.874376  0.247847  1
  Pt  Pt32  1  0.669299  0.859353  0.749206  1
  Pt  Pt33  1  0.169299  0.640647  0.750794  1
  Pt  Pt34  1  0.328245  0.135453  0.252776  1
  Pt  Pt35  1  0.828245  0.364547  0.247224  1
