# generated using pymatgen
data_Lu3AlCo2Si
_symmetry_space_group_name_H-M   'P 1'
_cell_length_a   5.40591282
_cell_length_b   5.40591171
_cell_length_c   12.65424700
_cell_angle_alpha   90.00000000
_cell_angle_beta   90.00000000
_cell_angle_gamma   135.44255209
_symmetry_Int_Tables_number   1
_chemical_formula_structural   Lu3AlCo2Si
_chemical_formula_sum   'Lu6 Al2 Co4 Si2'
_cell_volume   259.46498896
_cell_formula_units_Z   2
loop_
 _symmetry_equiv_pos_site_id
 _symmetry_equiv_pos_as_xyz
  1  'x, y, z'
loop_
 _atom_site_type_symbol
 _atom_site_label
 _atom_site_symmetry_multiplicity
 _atom_site_fract_x
 _atom_site_fract_y
 _atom_site_fract_z
 _atom_site_occupancy
  Lu  Lu0  1  0.009529  0.990471  0.250000  1
  Lu  Lu1  1  0.990471  0.009529  0.750000  1
  Lu  Lu2  1  0.709026  0.290974  0.602806  1
  Lu  Lu3  1  0.290974  0.709026  0.397194  1
  Lu  Lu4  1  0.290974  0.709026  0.102806  1
  Lu  Lu5  1  0.709026  0.290974  0.897194  1
  Al  Al6  1  0.000000  0.000000  0.000000  1
  Al  Al7  1  0.000000  0.000000  0.500000  1
  Co  Co8  1  0.422592  0.577408  0.590500  1
  Co  Co9  1  0.577408  0.422592  0.409500  1
  Co  Co10  1  0.577408  0.422592  0.090500  1
  Co  Co11  1  0.422592  0.577408  0.909500  1
  Si  Si12  1  0.707914  0.292086  0.250000  1
  Si  Si13  1  0.292086  0.707914  0.750000  1
