# generated using pymatgen
data_Ca5LaPr2(Si3Pd)4
_symmetry_space_group_name_H-M   'P 1'
_cell_length_a   8.30474800
_cell_length_b   8.28816381
_cell_length_c   8.50962600
_cell_angle_alpha   90.00000000
_cell_angle_beta   90.00000000
_cell_angle_gamma   120.06622093
_symmetry_Int_Tables_number   1
_chemical_formula_structural   Ca5LaPr2(Si3Pd)4
_chemical_formula_sum   'Ca5 La1 Pr2 Si12 Pd4'
_cell_volume   506.91565555
_cell_formula_units_Z   1
loop_
 _symmetry_equiv_pos_site_id
 _symmetry_equiv_pos_as_xyz
  1  'x, y, z'
loop_
 _atom_site_type_symbol
 _atom_site_label
 _atom_site_symmetry_multiplicity
 _atom_site_fract_x
 _atom_site_fract_y
 _atom_site_fract_z
 _atom_site_occupancy
  Ca  Ca0  1  0.498760  0.501240  0.750000  1
  Ca  Ca1  1  0.501359  0.499031  0.250000  1
  Ca  Ca2  1  0.002478  0.501240  0.750000  1
  Ca  Ca3  1  0.997671  0.499031  0.250000  1
  Ca  Ca4  1  0.498658  0.997316  0.750000  1
  La  La5  1  0.501330  0.002660  0.250000  1
  Pr  Pr6  1  0.000011  0.000023  0.750000  1
  Pr  Pr7  1  0.999977  0.999955  0.250000  1
  Si  Si8  1  0.835817  0.165830  0.000629  1
  Si  Si9  1  0.164210  0.834181  0.999546  1
  Si  Si10  1  0.330014  0.165830  0.000629  1
  Si  Si11  1  0.164210  0.834181  0.500454  1
  Si  Si12  1  0.669972  0.834181  0.999546  1
  Si  Si13  1  0.835817  0.165830  0.499371  1
  Si  Si14  1  0.834346  0.668693  0.000803  1
  Si  Si15  1  0.669972  0.834181  0.500454  1
  Si  Si16  1  0.165578  0.331156  0.999665  1
  Si  Si17  1  0.330014  0.165830  0.499371  1
  Si  Si18  1  0.165578  0.331156  0.500335  1
  Si  Si19  1  0.834346  0.668693  0.499197  1
  Pd  Pd20  1  0.666720  0.333438  0.994450  1
  Pd  Pd21  1  0.333222  0.666444  0.002731  1
  Pd  Pd22  1  0.333222  0.666444  0.497269  1
  Pd  Pd23  1  0.666720  0.333438  0.505550  1
