# generated using pymatgen
data_Er2LuSc2(In2Rh)2
_symmetry_space_group_name_H-M   'P 1'
_cell_length_a   3.51467800
_cell_length_b   7.85582193
_cell_length_c   17.90720709
_cell_angle_alpha   89.83715977
_cell_angle_beta   90.00000000
_cell_angle_gamma   90.00000000
_symmetry_Int_Tables_number   1
_chemical_formula_structural   Er2LuSc2(In2Rh)2
_chemical_formula_sum   'Er4 Lu2 Sc4 In8 Rh4'
_cell_volume   494.42824839
_cell_formula_units_Z   2
loop_
 _symmetry_equiv_pos_site_id
 _symmetry_equiv_pos_as_xyz
  1  'x, y, z'
loop_
 _atom_site_type_symbol
 _atom_site_label
 _atom_site_symmetry_multiplicity
 _atom_site_fract_x
 _atom_site_fract_y
 _atom_site_fract_z
 _atom_site_occupancy
  Er  Er0  1  0.000000  0.000000  0.000000  1
  Er  Er1  1  0.000000  0.500000  0.500000  1
  Er  Er2  1  0.000000  0.248316  0.717913  1
  Er  Er3  1  0.000000  0.751684  0.282087  1
  Lu  Lu4  1  0.000000  0.748081  0.781806  1
  Lu  Lu5  1  0.000000  0.251919  0.218194  1
  Sc  Sc6  1  0.000000  0.877156  0.588749  1
  Sc  Sc7  1  0.000000  0.122844  0.411251  1
  Sc  Sc8  1  0.000000  0.377547  0.911313  1
  Sc  Sc9  1  0.000000  0.622453  0.088687  1
  In  In10  1  0.500000  0.809215  0.438263  1
  In  In11  1  0.500000  0.190785  0.561737  1
  In  In12  1  0.500000  0.308624  0.062142  1
  In  In13  1  0.500000  0.691376  0.937858  1
  In  In14  1  0.500000  0.926409  0.149690  1
  In  In15  1  0.500000  0.073591  0.850310  1
  In  In16  1  0.500000  0.424970  0.350127  1
  In  In17  1  0.500000  0.575030  0.649873  1
  Rh  Rh18  1  0.500000  0.961709  0.693415  1
  Rh  Rh19  1  0.500000  0.038291  0.306585  1
  Rh  Rh20  1  0.500000  0.464855  0.806935  1
  Rh  Rh21  1  0.500000  0.535145  0.193065  1
