# generated using pymatgen
data_Rb4Ta3AlH20
_symmetry_space_group_name_H-M   'P 1'
_cell_length_a   5.87034155
_cell_length_b   7.72635974
_cell_length_c   9.27990132
_cell_angle_alpha   80.50325025
_cell_angle_beta   84.31706520
_cell_angle_gamma   95.02946808
_symmetry_Int_Tables_number   1
_chemical_formula_structural   Rb4Ta3AlH20
_chemical_formula_sum   'Rb4 Ta3 Al1 H20'
_cell_volume   410.76772511
_cell_formula_units_Z   1
loop_
 _symmetry_equiv_pos_site_id
 _symmetry_equiv_pos_as_xyz
  1  'x, y, z'
loop_
 _atom_site_type_symbol
 _atom_site_label
 _atom_site_symmetry_multiplicity
 _atom_site_fract_x
 _atom_site_fract_y
 _atom_site_fract_z
 _atom_site_occupancy
  Rb  Rb0  1  0.282532  0.418891  0.222438  1
  Rb  Rb1  1  0.789765  0.722570  0.881631  1
  Rb  Rb2  1  0.758441  0.879512  0.313232  1
  Rb  Rb3  1  0.247628  0.987573  0.570279  1
  Ta  Ta4  1  0.358589  0.516477  0.628680  1
  Ta  Ta5  1  0.758440  0.347617  0.547120  1
  Ta  Ta6  1  0.508709  0.247971  0.836276  1
  Al  Al7  1  0.320846  0.972732  0.064028  1
  H  H8  1  0.074423  0.459963  0.541744  1
  H  H9  1  0.468744  0.384351  0.482974  1
  H  H10  1  0.337546  0.032301  0.851845  1
  H  H11  1  0.621012  0.079536  0.975308  1
  H  H12  1  0.047229  0.896783  0.065378  1
  H  H13  1  0.434718  0.483523  0.826344  1
  H  H14  1  0.644427  0.188546  0.444548  1
  H  H15  1  0.134116  0.627579  0.717753  1
  H  H16  1  0.440210  0.781175  0.084208  1
  H  H17  1  0.639753  0.353406  0.973373  1
  H  H18  1  0.961246  0.195976  0.495677  1
  H  H19  1  0.677241  0.581015  0.566505  1
  H  H20  1  0.476669  0.718020  0.676843  1
  H  H21  1  0.289963  0.211473  0.002042  1
  H  H22  1  0.818387  0.329337  0.752309  1
  H  H23  1  0.352583  0.685008  0.461652  1
  H  H24  1  0.324080  0.016294  0.235457  1
  H  H25  1  0.629056  0.133154  0.679701  1
  H  H26  1  0.836092  0.461074  0.351554  1
  H  H27  1  0.235555  0.288143  0.751103  1
