# generated using pymatgen
data_Tb3(Cu2Ni)4
_symmetry_space_group_name_H-M   'P 1'
_cell_length_a   4.93304921
_cell_length_b   4.93304921
_cell_length_c   10.47326415
_cell_angle_alpha   94.63719375
_cell_angle_beta   94.63720137
_cell_angle_gamma   119.44898264
_symmetry_Int_Tables_number   1
_chemical_formula_structural   Tb3(Cu2Ni)4
_chemical_formula_sum   'Tb3 Cu8 Ni4'
_cell_volume   219.06416486
_cell_formula_units_Z   1
loop_
 _symmetry_equiv_pos_site_id
 _symmetry_equiv_pos_as_xyz
  1  'x, y, z'
loop_
 _atom_site_type_symbol
 _atom_site_label
 _atom_site_symmetry_multiplicity
 _atom_site_fract_x
 _atom_site_fract_y
 _atom_site_fract_z
 _atom_site_occupancy
  Tb  Tb0  1  0.003032  0.003032  0.008804  1
  Tb  Tb1  1  0.125763  0.125763  0.346822  1
  Tb  Tb2  1  0.870799  0.870799  0.645440  1
  Cu  Cu3  1  0.570206  0.570206  0.198001  1
  Cu  Cu4  1  0.806194  0.466268  0.403342  1
  Cu  Cu5  1  0.466268  0.806194  0.403342  1
  Cu  Cu6  1  0.529175  0.194167  0.592313  1
  Cu  Cu7  1  0.194167  0.529175  0.592313  1
  Cu  Cu8  1  0.431519  0.431519  0.802828  1
  Cu  Cu9  1  0.933777  0.432599  0.807370  1
  Cu  Cu10  1  0.432599  0.933777  0.807370  1
  Ni  Ni11  1  0.666586  0.334988  0.001934  1
  Ni  Ni12  1  0.334988  0.666586  0.001934  1
  Ni  Ni13  1  0.567711  0.067217  0.194094  1
  Ni  Ni14  1  0.067217  0.567711  0.194094  1
