# generated using pymatgen
data_YbHo6CoBr12
_symmetry_space_group_name_H-M   'P 1'
_cell_length_a   9.17481661
_cell_length_b   9.17481602
_cell_length_c   9.17481706
_cell_angle_alpha   107.01427918
_cell_angle_beta   107.01426724
_cell_angle_gamma   107.01427056
_symmetry_Int_Tables_number   1
_chemical_formula_structural   YbHo6CoBr12
_chemical_formula_sum   'Yb1 Ho6 Co1 Br12'
_cell_volume   642.93733971
_cell_formula_units_Z   1
loop_
 _symmetry_equiv_pos_site_id
 _symmetry_equiv_pos_as_xyz
  1  'x, y, z'
loop_
 _atom_site_type_symbol
 _atom_site_label
 _atom_site_symmetry_multiplicity
 _atom_site_fract_x
 _atom_site_fract_y
 _atom_site_fract_z
 _atom_site_occupancy
  Yb  Yb0  1  0.500000  0.500000  0.500000  1
  Ho  Ho1  1  0.978468  0.901656  0.696302  1
  Ho  Ho2  1  0.021532  0.098344  0.303698  1
  Ho  Ho3  1  0.098344  0.303698  0.021532  1
  Ho  Ho4  1  0.303698  0.021532  0.098344  1
  Ho  Ho5  1  0.901656  0.696302  0.978468  1
  Ho  Ho6  1  0.696302  0.978468  0.901656  1
  Co  Co7  1  0.000000  0.000000  0.000000  1
  Br  Br8  1  0.545694  0.623749  0.845037  1
  Br  Br9  1  0.454306  0.376251  0.154963  1
  Br  Br10  1  0.321762  0.928685  0.779502  1
  Br  Br11  1  0.376251  0.154963  0.454306  1
  Br  Br12  1  0.928685  0.779502  0.321762  1
  Br  Br13  1  0.678238  0.071315  0.220498  1
  Br  Br14  1  0.071315  0.220498  0.678238  1
  Br  Br15  1  0.779502  0.321762  0.928685  1
  Br  Br16  1  0.220498  0.678238  0.071315  1
  Br  Br17  1  0.845037  0.545694  0.623749  1
  Br  Br18  1  0.154963  0.454306  0.376251  1
  Br  Br19  1  0.623749  0.845037  0.545694  1
