# generated using pymatgen
data_Tb8Ta3Ti8Si16Au
_symmetry_space_group_name_H-M   'P 1'
_cell_length_a   7.07528328
_cell_length_b   7.07528283
_cell_length_c   12.93629627
_cell_angle_alpha   90.20842462
_cell_angle_beta   89.79157562
_cell_angle_gamma   89.49857404
_symmetry_Int_Tables_number   1
_chemical_formula_structural   Tb8Ta3Ti8Si16Au
_chemical_formula_sum   'Tb8 Ta3 Ti8 Si16 Au1'
_cell_volume   647.55276581
_cell_formula_units_Z   1
loop_
 _symmetry_equiv_pos_site_id
 _symmetry_equiv_pos_as_xyz
  1  'x, y, z'
loop_
 _atom_site_type_symbol
 _atom_site_label
 _atom_site_symmetry_multiplicity
 _atom_site_fract_x
 _atom_site_fract_y
 _atom_site_fract_z
 _atom_site_occupancy
  Tb  Tb0  1  0.341054  0.002148  0.467440  1
  Tb  Tb1  1  0.497282  0.840059  0.717444  1
  Tb  Tb2  1  0.501120  0.158319  0.214778  1
  Tb  Tb3  1  0.840059  0.497282  0.282556  1
  Tb  Tb4  1  0.158319  0.501120  0.785222  1
  Tb  Tb5  1  0.656255  0.000525  0.968494  1
  Tb  Tb6  1  0.002148  0.341054  0.532560  1
  Tb  Tb7  1  0.000525  0.656255  0.031506  1
  Ta  Ta8  1  0.174190  0.825962  0.249509  1
  Ta  Ta9  1  0.825962  0.174190  0.750491  1
  Ta  Ta10  1  0.673062  0.673062  0.500000  1
  Ti  Ti11  1  0.148601  0.008188  0.877101  1
  Ti  Ti12  1  0.493611  0.652477  0.124653  1
  Ti  Ti13  1  0.509418  0.350109  0.626062  1
  Ti  Ti14  1  0.652477  0.493611  0.875347  1
  Ti  Ti15  1  0.350109  0.509418  0.373938  1
  Ti  Ti16  1  0.847612  0.990689  0.374496  1
  Ti  Ti17  1  0.008188  0.148601  0.122899  1
  Ti  Ti18  1  0.990689  0.847612  0.625504  1
  Si  Si19  1  0.201329  0.130991  0.685243  1
  Si  Si20  1  0.374493  0.718001  0.930247  1
  Si  Si21  1  0.630372  0.295534  0.434069  1
  Si  Si22  1  0.718001  0.374493  0.069753  1
  Si  Si23  1  0.295534  0.630372  0.565931  1
  Si  Si24  1  0.798771  0.868468  0.183693  1
  Si  Si25  1  0.130991  0.201329  0.314757  1
  Si  Si26  1  0.868468  0.798771  0.816307  1
  Si  Si27  1  0.286250  0.938192  0.064824  1
  Si  Si28  1  0.546805  0.792116  0.314121  1
  Si  Si29  1  0.454144  0.207707  0.809823  1
  Si  Si30  1  0.792116  0.546805  0.685879  1
  Si  Si31  1  0.207707  0.454144  0.190177  1
  Si  Si32  1  0.709002  0.047124  0.564048  1
  Si  Si33  1  0.938192  0.286250  0.935176  1
  Si  Si34  1  0.047124  0.709002  0.435952  1
  Au  Au35  1  0.330020  0.330020  0.000000  1
