# generated using pymatgen
data_Zn22Pd3Ru
_symmetry_space_group_name_H-M   'P 1'
_cell_length_a   7.95132261
_cell_length_b   7.95132235
_cell_length_c   7.95132182
_cell_angle_alpha   109.51943308
_cell_angle_beta   109.51943183
_cell_angle_gamma   109.51942475
_symmetry_Int_Tables_number   1
_chemical_formula_structural   Zn22Pd3Ru
_chemical_formula_sum   'Zn22 Pd3 Ru1'
_cell_volume   386.29454449
_cell_formula_units_Z   1
loop_
 _symmetry_equiv_pos_site_id
 _symmetry_equiv_pos_as_xyz
  1  'x, y, z'
loop_
 _atom_site_type_symbol
 _atom_site_label
 _atom_site_symmetry_multiplicity
 _atom_site_fract_x
 _atom_site_fract_y
 _atom_site_fract_z
 _atom_site_occupancy
  Zn  Zn0  1  0.784014  0.995685  0.995685  1
  Zn  Zn1  1  0.651052  0.271785  0.001853  1
  Zn  Zn2  1  0.351234  0.351234  0.990212  1
  Zn  Zn3  1  0.642254  0.642254  0.000412  1
  Zn  Zn4  1  0.271785  0.651052  0.001853  1
  Zn  Zn5  1  0.995685  0.784014  0.995685  1
  Zn  Zn6  1  0.221699  0.221699  0.221699  1
  Zn  Zn7  1  0.651052  0.001853  0.271785  1
  Zn  Zn8  1  0.001853  0.651052  0.271785  1
  Zn  Zn9  1  0.619965  0.353635  0.353635  1
  Zn  Zn10  1  0.353635  0.619965  0.353635  1
  Zn  Zn11  1  0.351234  0.990212  0.351234  1
  Zn  Zn12  1  0.990212  0.351234  0.351234  1
  Zn  Zn13  1  0.729743  0.729743  0.380643  1
  Zn  Zn14  1  0.353635  0.353635  0.619965  1
  Zn  Zn15  1  0.642254  0.000412  0.642254  1
  Zn  Zn16  1  0.000412  0.642254  0.642254  1
  Zn  Zn17  1  0.271785  0.001853  0.651052  1
  Zn  Zn18  1  0.001853  0.271785  0.651052  1
  Zn  Zn19  1  0.729743  0.380643  0.729743  1
  Zn  Zn20  1  0.380643  0.729743  0.729743  1
  Zn  Zn21  1  0.995685  0.995685  0.784014  1
  Pd  Pd22  1  0.348747  0.002345  0.002345  1
  Pd  Pd23  1  0.002345  0.348747  0.002345  1
  Pd  Pd24  1  0.002345  0.002345  0.348747  1
  Ru  Ru25  1  0.655138  0.655138  0.655138  1
