# generated using pymatgen
data_CeSm(Ho5Co2)2
_symmetry_space_group_name_H-M   'P 1'
_cell_length_a   6.20767618
_cell_length_b   6.88403430
_cell_length_c   9.47197750
_cell_angle_alpha   90.11570828
_cell_angle_beta   89.59907319
_cell_angle_gamma   92.02359896
_symmetry_Int_Tables_number   1
_chemical_formula_structural   CeSm(Ho5Co2)2
_chemical_formula_sum   'Ce1 Sm1 Ho10 Co4'
_cell_volume   404.51114988
_cell_formula_units_Z   1
loop_
 _symmetry_equiv_pos_site_id
 _symmetry_equiv_pos_as_xyz
  1  'x, y, z'
loop_
 _atom_site_type_symbol
 _atom_site_label
 _atom_site_symmetry_multiplicity
 _atom_site_fract_x
 _atom_site_fract_y
 _atom_site_fract_z
 _atom_site_occupancy
  Ce  Ce0  1  0.348896  0.559288  0.250873  1
  Sm  Sm1  1  0.672896  0.176353  0.070084  1
  Ho  Ho2  1  0.138723  0.043541  0.251237  1
  Ho  Ho3  1  0.825829  0.674019  0.434728  1
  Ho  Ho4  1  0.325320  0.827413  0.929925  1
  Ho  Ho5  1  0.177244  0.326111  0.567561  1
  Ho  Ho6  1  0.672117  0.174516  0.432366  1
  Ho  Ho7  1  0.177284  0.325485  0.931205  1
  Ho  Ho8  1  0.324455  0.826660  0.568888  1
  Ho  Ho9  1  0.859076  0.956948  0.748980  1
  Ho  Ho10  1  0.644113  0.455908  0.748992  1
  Ho  Ho11  1  0.827565  0.674575  0.064921  1
  Co  Co12  1  0.984387  0.398738  0.251513  1
  Co  Co13  1  0.446442  0.113394  0.745512  1
  Co  Co14  1  0.529815  0.854515  0.251436  1
  Co  Co15  1  0.045837  0.612534  0.751779  1
