# generated using pymatgen
data_Tb19Tm(Ga2Bi)4
_symmetry_space_group_name_H-M   'P 1'
_cell_length_a   8.29632300
_cell_length_b   8.29632300
_cell_length_c   12.69244300
_cell_angle_alpha   90.00000000
_cell_angle_beta   90.00000000
_cell_angle_gamma   90.00000000
_symmetry_Int_Tables_number   1
_chemical_formula_structural   Tb19Tm(Ga2Bi)4
_chemical_formula_sum   'Tb19 Tm1 Ga8 Bi4'
_cell_volume   873.60784600
_cell_formula_units_Z   1
loop_
 _symmetry_equiv_pos_site_id
 _symmetry_equiv_pos_as_xyz
  1  'x, y, z'
loop_
 _atom_site_type_symbol
 _atom_site_label
 _atom_site_symmetry_multiplicity
 _atom_site_fract_x
 _atom_site_fract_y
 _atom_site_fract_z
 _atom_site_occupancy
  Tb  Tb0  1  0.000000  0.500000  0.750478  1
  Tb  Tb1  1  0.000000  0.500000  0.250518  1
  Tb  Tb2  1  0.500000  0.000000  0.249529  1
  Tb  Tb3  1  0.651597  0.652556  0.608321  1
  Tb  Tb4  1  0.652310  0.348112  0.108158  1
  Tb  Tb5  1  0.847634  0.848125  0.391872  1
  Tb  Tb6  1  0.152939  0.848838  0.891610  1
  Tb  Tb7  1  0.348403  0.347444  0.608321  1
  Tb  Tb8  1  0.347690  0.651888  0.108158  1
  Tb  Tb9  1  0.152366  0.151875  0.391872  1
  Tb  Tb10  1  0.847061  0.151162  0.891610  1
  Tb  Tb11  1  0.651875  0.347634  0.391872  1
  Tb  Tb12  1  0.348838  0.347061  0.891610  1
  Tb  Tb13  1  0.152556  0.848403  0.608321  1
  Tb  Tb14  1  0.848112  0.847690  0.108158  1
  Tb  Tb15  1  0.348125  0.652366  0.391872  1
  Tb  Tb16  1  0.651162  0.652939  0.891610  1
  Tb  Tb17  1  0.847444  0.151597  0.608321  1
  Tb  Tb18  1  0.151888  0.152310  0.108158  1
  Tm  Tm19  1  0.500000  0.000000  0.749599  1
  Ga  Ga20  1  0.850430  0.851463  0.749942  1
  Ga  Ga21  1  0.851562  0.148119  0.250043  1
  Ga  Ga22  1  0.648119  0.648438  0.250043  1
  Ga  Ga23  1  0.351463  0.649570  0.749942  1
  Ga  Ga24  1  0.149570  0.148537  0.749942  1
  Ga  Ga25  1  0.148438  0.851881  0.250043  1
  Ga  Ga26  1  0.351881  0.351562  0.250043  1
  Ga  Ga27  1  0.648537  0.350430  0.749942  1
  Bi  Bi28  1  0.000000  0.500000  0.500450  1
  Bi  Bi29  1  0.000000  0.500000  0.000214  1
  Bi  Bi30  1  0.500000  0.000000  0.501086  1
  Bi  Bi31  1  0.500000  0.000000  0.998343  1
