# generated using pymatgen
data_Dy2BeGaBr2
_symmetry_space_group_name_H-M   'P 1'
_cell_length_a   3.99010700
_cell_length_b   3.99010586
_cell_length_c   11.21031800
_cell_angle_alpha   90.00000000
_cell_angle_beta   90.00000000
_cell_angle_gamma   120.00000115
_symmetry_Int_Tables_number   1
_chemical_formula_structural   Dy2BeGaBr2
_chemical_formula_sum   'Dy2 Be1 Ga1 Br2'
_cell_volume   154.56726385
_cell_formula_units_Z   1
loop_
 _symmetry_equiv_pos_site_id
 _symmetry_equiv_pos_as_xyz
  1  'x, y, z'
loop_
 _atom_site_type_symbol
 _atom_site_label
 _atom_site_symmetry_multiplicity
 _atom_site_fract_x
 _atom_site_fract_y
 _atom_site_fract_z
 _atom_site_occupancy
  Dy  Dy0  1  0.000000  0.000000  0.174020  1
  Dy  Dy1  1  0.000000  0.000000  0.825109  1
  Be  Be2  1  0.333333  0.666667  0.006284  1
  Ga  Ga3  1  0.666667  0.333333  0.994880  1
  Br  Br4  1  0.333333  0.666667  0.661990  1
  Br  Br5  1  0.666667  0.333333  0.337717  1
