# generated using pymatgen
data_Y2Ti3Cu9Si7
_symmetry_space_group_name_H-M   'P 1'
_cell_length_a   3.85458600
_cell_length_b   9.58051083
_cell_length_c   9.58051200
_cell_angle_alpha   119.99999713
_cell_angle_beta   90.00000000
_cell_angle_gamma   90.00000000
_symmetry_Int_Tables_number   1
_chemical_formula_structural   Y2Ti3Cu9Si7
_chemical_formula_sum   'Y2 Ti3 Cu9 Si7'
_cell_volume   306.39788935
_cell_formula_units_Z   1
loop_
 _symmetry_equiv_pos_site_id
 _symmetry_equiv_pos_as_xyz
  1  'x, y, z'
loop_
 _atom_site_type_symbol
 _atom_site_label
 _atom_site_symmetry_multiplicity
 _atom_site_fract_x
 _atom_site_fract_y
 _atom_site_fract_z
 _atom_site_occupancy
  Y  Y0  1  0.000000  0.666667  0.333333  1
  Y  Y1  1  0.500000  0.333333  0.666667  1
  Ti  Ti2  1  0.500000  0.782703  0.887358  1
  Ti  Ti3  1  0.500000  0.104655  0.217297  1
  Ti  Ti4  1  0.500000  0.112642  0.895345  1
  Cu  Cu5  1  0.000000  0.573685  0.941016  1
  Cu  Cu6  1  0.000000  0.367331  0.426315  1
  Cu  Cu7  1  0.000000  0.058984  0.632669  1
  Cu  Cu8  1  0.000000  0.870734  0.152458  1
  Cu  Cu9  1  0.000000  0.281724  0.129266  1
  Cu  Cu10  1  0.000000  0.847542  0.718276  1
  Cu  Cu11  1  0.500000  0.947588  0.389814  1
  Cu  Cu12  1  0.500000  0.442226  0.052412  1
  Cu  Cu13  1  0.500000  0.610186  0.557774  1
  Si  Si14  1  0.000000  0.000000  0.000000  1
  Si  Si15  1  0.500000  0.714525  0.117330  1
  Si  Si16  1  0.500000  0.402804  0.285475  1
  Si  Si17  1  0.500000  0.882670  0.597196  1
  Si  Si18  1  0.000000  0.587182  0.699606  1
  Si  Si19  1  0.000000  0.112424  0.412818  1
  Si  Si20  1  0.000000  0.300394  0.887576  1
