# generated using pymatgen
data_La8Mn3Si12Ag
_symmetry_space_group_name_H-M   'P 1'
_cell_length_a   8.33192700
_cell_length_b   8.33192823
_cell_length_c   8.71803600
_cell_angle_alpha   90.00000000
_cell_angle_beta   90.00000000
_cell_angle_gamma   120.00000702
_symmetry_Int_Tables_number   1
_chemical_formula_structural   La8Mn3Si12Ag
_chemical_formula_sum   'La8 Mn3 Si12 Ag1'
_cell_volume   524.13146899
_cell_formula_units_Z   1
loop_
 _symmetry_equiv_pos_site_id
 _symmetry_equiv_pos_as_xyz
  1  'x, y, z'
loop_
 _atom_site_type_symbol
 _atom_site_label
 _atom_site_symmetry_multiplicity
 _atom_site_fract_x
 _atom_site_fract_y
 _atom_site_fract_z
 _atom_site_occupancy
  La  La0  1  0.498130  0.501870  0.753318  1
  La  La1  1  0.498248  0.501752  0.246722  1
  La  La2  1  0.003739  0.501870  0.753318  1
  La  La3  1  0.003503  0.501752  0.246722  1
  La  La4  1  0.498130  0.996261  0.753318  1
  La  La5  1  0.498248  0.996497  0.246722  1
  La  La6  1  0.000000  0.000000  0.751287  1
  La  La7  1  0.000000  0.000000  0.248654  1
  Mn  Mn8  1  0.666667  0.333333  0.999892  1
  Mn  Mn9  1  0.333333  0.666667  0.001209  1
  Mn  Mn10  1  0.333333  0.666667  0.499006  1
  Si  Si11  1  0.831258  0.168742  0.999897  1
  Si  Si12  1  0.168048  0.831952  0.999980  1
  Si  Si13  1  0.337484  0.168742  0.999897  1
  Si  Si14  1  0.169188  0.830812  0.500000  1
  Si  Si15  1  0.663904  0.831952  0.999980  1
  Si  Si16  1  0.840158  0.159842  0.500012  1
  Si  Si17  1  0.831258  0.662516  0.999897  1
  Si  Si18  1  0.661627  0.830812  0.500000  1
  Si  Si19  1  0.168048  0.336096  0.999980  1
  Si  Si20  1  0.319684  0.159842  0.500012  1
  Si  Si21  1  0.169188  0.338373  0.500000  1
  Si  Si22  1  0.840158  0.680316  0.500012  1
  Ag  Ag23  1  0.666667  0.333333  0.500174  1
