# generated using pymatgen
data_EuHoEr2(SeO3)6
_symmetry_space_group_name_H-M   'P 1'
_cell_length_a   7.09997623
_cell_length_b   8.14388766
_cell_length_c   9.11135313
_cell_angle_alpha   71.34082735
_cell_angle_beta   70.17001582
_cell_angle_gamma   66.18956386
_symmetry_Int_Tables_number   1
_chemical_formula_structural   EuHoEr2(SeO3)6
_chemical_formula_sum   'Eu1 Ho1 Er2 Se6 O18'
_cell_volume   443.04318967
_cell_formula_units_Z   1
loop_
 _symmetry_equiv_pos_site_id
 _symmetry_equiv_pos_as_xyz
  1  'x, y, z'
loop_
 _atom_site_type_symbol
 _atom_site_label
 _atom_site_symmetry_multiplicity
 _atom_site_fract_x
 _atom_site_fract_y
 _atom_site_fract_z
 _atom_site_occupancy
  Eu  Eu0  1  0.332452  0.728887  0.590902  1
  Ho  Ho1  1  0.665242  0.274981  0.406296  1
  Er  Er2  1  0.741377  0.733952  0.800566  1
  Er  Er3  1  0.259319  0.264191  0.200119  1
  Se  Se4  1  0.428633  0.777018  0.193824  1
  Se  Se5  1  0.576348  0.220190  0.801286  1
  Se  Se6  1  0.146954  0.748471  0.968788  1
  Se  Se7  1  0.851021  0.250070  0.035071  1
  Se  Se8  1  0.883721  0.762048  0.417187  1
  Se  Se9  1  0.111912  0.245479  0.581227  1
  O  O10  1  0.650865  0.792283  0.047532  1
  O  O11  1  0.353180  0.210445  0.949201  1
  O  O12  1  0.364374  0.946647  0.297311  1
  O  O13  1  0.638962  0.049835  0.699498  1
  O  O14  1  0.519875  0.594294  0.345211  1
  O  O15  1  0.488781  0.398936  0.645224  1
  O  O16  1  0.166632  0.564663  0.124428  1
  O  O17  1  0.831757  0.433657  0.879339  1
  O  O18  1  0.407205  0.710399  0.854821  1
  O  O19  1  0.591640  0.289868  0.152000  1
  O  O20  1  0.344935  0.251379  0.433474  1
  O  O21  1  0.655896  0.748799  0.567676  1
  O  O22  1  0.969072  0.292775  0.440313  1
  O  O23  1  0.029392  0.704944  0.558219  1
  O  O24  1  0.151480  0.019168  0.657147  1
  O  O25  1  0.840423  0.989436  0.348753  1
  O  O26  1  0.934975  0.304950  0.166611  1
  O  O27  1  0.063579  0.692235  0.837978  1
