# generated using pymatgen
data_YHo5Ti2(Al11Ru4)2
_symmetry_space_group_name_H-M   'P 1'
_cell_length_a   8.84419700
_cell_length_b   8.84298813
_cell_length_c   9.52760601
_cell_angle_alpha   89.99507206
_cell_angle_beta   90.00069862
_cell_angle_gamma   120.00435845
_symmetry_Int_Tables_number   1
_chemical_formula_structural   YHo5Ti2(Al11Ru4)2
_chemical_formula_sum   'Y1 Ho5 Ti2 Al22 Ru8'
_cell_volume   645.28681930
_cell_formula_units_Z   1
loop_
 _symmetry_equiv_pos_site_id
 _symmetry_equiv_pos_as_xyz
  1  'x, y, z'
loop_
 _atom_site_type_symbol
 _atom_site_label
 _atom_site_symmetry_multiplicity
 _atom_site_fract_x
 _atom_site_fract_y
 _atom_site_fract_z
 _atom_site_occupancy
  Y  Y0  1  0.193851  0.387701  0.251153  1
  Ho  Ho1  1  0.805986  0.611968  0.748820  1
  Ho  Ho2  1  0.612025  0.806069  0.251118  1
  Ho  Ho3  1  0.388046  0.194039  0.748831  1
  Ho  Ho4  1  0.194043  0.806068  0.251116  1
  Ho  Ho5  1  0.805988  0.194038  0.748836  1
  Ti  Ti6  1  0.333434  0.666869  0.997905  1
  Ti  Ti7  1  0.666681  0.333358  0.001932  1
  Al  Al8  1  0.666692  0.333380  0.517011  1
  Al  Al9  1  0.333396  0.666794  0.483138  1
  Al  Al10  1  0.161489  0.322980  0.577567  1
  Al  Al11  1  0.838497  0.676991  0.422631  1
  Al  Al12  1  0.677021  0.838477  0.577412  1
  Al  Al13  1  0.840742  0.681487  0.077139  1
  Al  Al14  1  0.323054  0.161425  0.422701  1
  Al  Al15  1  0.159261  0.318519  0.922691  1
  Al  Al16  1  0.161455  0.838476  0.577412  1
  Al  Al17  1  0.318559  0.159176  0.077053  1
  Al  Al18  1  0.838373  0.161427  0.422702  1
  Al  Al19  1  0.681490  0.840716  0.922834  1
  Al  Al20  1  0.840614  0.159174  0.077053  1
  Al  Al21  1  0.159227  0.840718  0.922833  1
  Al  Al22  1  0.560816  0.121632  0.251891  1
  Al  Al23  1  0.439171  0.878342  0.748126  1
  Al  Al24  1  0.878209  0.439247  0.251897  1
  Al  Al25  1  0.121622  0.560807  0.748116  1
  Al  Al26  1  0.561038  0.439248  0.251893  1
  Al  Al27  1  0.439186  0.560807  0.748121  1
  Al  Al28  1  0.999791  0.999583  0.250494  1
  Al  Al29  1  0.999991  0.999981  0.749508  1
  Ru  Ru30  1  0.499977  0.999953  0.000036  1
  Ru  Ru31  1  0.999887  0.500075  0.999849  1
  Ru  Ru32  1  0.500029  0.000056  0.500017  1
  Ru  Ru33  1  0.500185  0.500072  0.999851  1
  Ru  Ru34  1  0.999903  0.500067  0.500147  1
  Ru  Ru35  1  0.500167  0.500068  0.500148  1
  Ru  Ru36  1  0.000051  0.000102  0.000073  1
  Ru  Ru37  1  0.000053  0.000109  0.499945  1
