# generated using pymatgen
data_Tb5ThUO12
_symmetry_space_group_name_H-M   'P 1'
_cell_length_a   6.67402794
_cell_length_b   6.64276553
_cell_length_c   6.66545514
_cell_angle_alpha   99.15280500
_cell_angle_beta   99.10466461
_cell_angle_gamma   99.31098021
_symmetry_Int_Tables_number   1
_chemical_formula_structural   Tb5ThUO12
_chemical_formula_sum   'Tb5 Th1 U1 O12'
_cell_volume   282.72034057
_cell_formula_units_Z   1
loop_
 _symmetry_equiv_pos_site_id
 _symmetry_equiv_pos_as_xyz
  1  'x, y, z'
loop_
 _atom_site_type_symbol
 _atom_site_label
 _atom_site_symmetry_multiplicity
 _atom_site_fract_x
 _atom_site_fract_y
 _atom_site_fract_z
 _atom_site_occupancy
  Tb  Tb0  1  0.853807  0.388351  0.680047  1
  Tb  Tb1  1  0.690413  0.859272  0.395272  1
  Tb  Tb2  1  0.611527  0.312017  0.145160  1
  Tb  Tb3  1  0.136380  0.608052  0.313329  1
  Tb  Tb4  1  0.316187  0.142193  0.602892  1
  Th  Th5  1  0.393733  0.689061  0.859678  1
  U  U6  1  0.002588  0.005115  0.001854  1
  O  O7  1  0.177551  0.429791  0.586384  1
  O  O8  1  0.585070  0.177244  0.429701  1
  O  O9  1  0.427175  0.583491  0.176531  1
  O  O10  1  0.821041  0.570048  0.414129  1
  O  O11  1  0.414440  0.819949  0.567385  1
  O  O12  1  0.570788  0.413953  0.822400  1
  O  O13  1  0.918053  0.052633  0.690347  1
  O  O14  1  0.947836  0.314425  0.080578  1
  O  O15  1  0.315478  0.071485  0.940207  1
  O  O16  1  0.080376  0.947810  0.311863  1
  O  O17  1  0.048426  0.688441  0.921092  1
  O  O18  1  0.689130  0.926670  0.061153  1
