# generated using pymatgen
data_DyTh2Al7Cu2
_symmetry_space_group_name_H-M   'P 1'
_cell_length_a   9.15214728
_cell_length_b   9.15214771
_cell_length_c   9.15214701
_cell_angle_alpha   35.37903955
_cell_angle_beta   35.37903687
_cell_angle_gamma   35.37903367
_symmetry_Int_Tables_number   1
_chemical_formula_structural   DyTh2Al7Cu2
_chemical_formula_sum   'Dy1 Th2 Al7 Cu2'
_cell_volume   229.60245868
_cell_formula_units_Z   1
loop_
 _symmetry_equiv_pos_site_id
 _symmetry_equiv_pos_as_xyz
  1  'x, y, z'
loop_
 _atom_site_type_symbol
 _atom_site_label
 _atom_site_symmetry_multiplicity
 _atom_site_fract_x
 _atom_site_fract_y
 _atom_site_fract_z
 _atom_site_occupancy
  Dy  Dy0  1  0.139955  0.139955  0.139955  1
  Th  Th1  1  0.998949  0.998949  0.998949  1
  Th  Th2  1  0.858760  0.858760  0.858760  1
  Al  Al3  1  0.418836  0.418836  0.928263  1
  Al  Al4  1  0.928263  0.418836  0.418836  1
  Al  Al5  1  0.418836  0.928263  0.418836  1
  Al  Al6  1  0.499409  0.499409  0.499409  1
  Al  Al7  1  0.581598  0.072618  0.581598  1
  Al  Al8  1  0.072618  0.581598  0.581598  1
  Al  Al9  1  0.581598  0.581598  0.072618  1
  Cu  Cu10  1  0.665291  0.665291  0.665291  1
  Cu  Cu11  1  0.335886  0.335886  0.335886  1
