# generated using pymatgen
data_Tb8TaTi10NbSi16
_symmetry_space_group_name_H-M   'P 1'
_cell_length_a   7.06547097
_cell_length_b   7.06547108
_cell_length_c   13.00798200
_cell_angle_alpha   89.98758888
_cell_angle_beta   90.01241131
_cell_angle_gamma   90.06894798
_symmetry_Int_Tables_number   1
_chemical_formula_structural   Tb8TaTi10NbSi16
_chemical_formula_sum   'Tb8 Ta1 Ti10 Nb1 Si16'
_cell_volume   649.36941838
_cell_formula_units_Z   1
loop_
 _symmetry_equiv_pos_site_id
 _symmetry_equiv_pos_as_xyz
  1  'x, y, z'
loop_
 _atom_site_type_symbol
 _atom_site_label
 _atom_site_symmetry_multiplicity
 _atom_site_fract_x
 _atom_site_fract_y
 _atom_site_fract_z
 _atom_site_occupancy
  Tb  Tb0  1  0.340174  0.002786  0.467001  1
  Tb  Tb1  1  0.497710  0.839861  0.716490  1
  Tb  Tb2  1  0.501983  0.159964  0.216453  1
  Tb  Tb3  1  0.839861  0.497710  0.283510  1
  Tb  Tb4  1  0.159964  0.501983  0.783547  1
  Tb  Tb5  1  0.659516  0.997675  0.966889  1
  Tb  Tb6  1  0.002786  0.340174  0.532999  1
  Tb  Tb7  1  0.997675  0.659516  0.033111  1
  Ta  Ta8  1  0.673042  0.673042  0.500000  1
  Ti  Ti9  1  0.173376  0.826692  0.250180  1
  Ti  Ti10  1  0.826692  0.173376  0.749820  1
  Ti  Ti11  1  0.154078  0.009632  0.876791  1
  Ti  Ti12  1  0.491322  0.651835  0.125223  1
  Ti  Ti13  1  0.508793  0.347879  0.625151  1
  Ti  Ti14  1  0.651835  0.491322  0.874777  1
  Ti  Ti15  1  0.347879  0.508793  0.374849  1
  Ti  Ti16  1  0.845958  0.990783  0.376684  1
  Ti  Ti17  1  0.009632  0.154078  0.123209  1
  Ti  Ti18  1  0.990783  0.845958  0.623316  1
  Nb  Nb19  1  0.326787  0.326787  0.000000  1
  Si  Si20  1  0.202003  0.129129  0.685080  1
  Si  Si21  1  0.370845  0.702986  0.934796  1
  Si  Si22  1  0.629204  0.298216  0.435047  1
  Si  Si23  1  0.702986  0.370845  0.065204  1
  Si  Si24  1  0.298216  0.629204  0.564953  1
  Si  Si25  1  0.798279  0.870968  0.185116  1
  Si  Si26  1  0.129129  0.202003  0.314920  1
  Si  Si27  1  0.870968  0.798279  0.814884  1
  Si  Si28  1  0.290757  0.952271  0.065100  1
  Si  Si29  1  0.546005  0.791753  0.314347  1
  Si  Si30  1  0.454220  0.208127  0.813614  1
  Si  Si31  1  0.791753  0.546005  0.685653  1
  Si  Si32  1  0.208127  0.454220  0.186386  1
  Si  Si33  1  0.708896  0.046496  0.564883  1
  Si  Si34  1  0.952271  0.290757  0.934900  1
  Si  Si35  1  0.046496  0.708896  0.435117  1
