# generated using pymatgen
data_La3Nd(SeO4)6
_symmetry_space_group_name_H-M   'P 1'
_cell_length_a   10.35508707
_cell_length_b   10.35508837
_cell_length_c   10.35508785
_cell_angle_alpha   58.13011799
_cell_angle_beta   58.13011987
_cell_angle_gamma   58.13012379
_symmetry_Int_Tables_number   1
_chemical_formula_structural   La3Nd(SeO4)6
_chemical_formula_sum   'La3 Nd1 Se6 O24'
_cell_volume   751.48550654
_cell_formula_units_Z   1
loop_
 _symmetry_equiv_pos_site_id
 _symmetry_equiv_pos_as_xyz
  1  'x, y, z'
loop_
 _atom_site_type_symbol
 _atom_site_label
 _atom_site_symmetry_multiplicity
 _atom_site_fract_x
 _atom_site_fract_y
 _atom_site_fract_z
 _atom_site_occupancy
  La  La0  1  0.642417  0.642417  0.642417  1
  La  La1  1  0.356445  0.356445  0.356445  1
  La  La2  1  0.142987  0.142987  0.142987  1
  Nd  Nd3  1  0.856030  0.856030  0.856030  1
  Se  Se4  1  0.748365  0.035866  0.467221  1
  Se  Se5  1  0.964249  0.539923  0.244877  1
  Se  Se6  1  0.539923  0.244877  0.964250  1
  Se  Se7  1  0.467220  0.748365  0.035867  1
  Se  Se8  1  0.035867  0.467220  0.748365  1
  Se  Se9  1  0.244877  0.964249  0.539923  1
  O  O10  1  0.909783  0.063294  0.301886  1
  O  O11  1  0.776542  0.004827  0.626948  1
  O  O12  1  0.994293  0.378874  0.219315  1
  O  O13  1  0.704142  0.082521  0.937953  1
  O  O14  1  0.585639  0.200548  0.442479  1
  O  O15  1  0.876485  0.496252  0.720779  1
  O  O16  1  0.509867  0.271458  0.124780  1
  O  O17  1  0.798835  0.568126  0.405991  1
  O  O18  1  0.937953  0.704142  0.082521  1
  O  O19  1  0.568126  0.405991  0.798835  1
  O  O20  1  0.378874  0.219315  0.994293  1
  O  O21  1  0.271458  0.124780  0.509867  1
  O  O22  1  0.720779  0.876485  0.496252  1
  O  O23  1  0.626948  0.776542  0.004827  1
  O  O24  1  0.442479  0.585639  0.200548  1
  O  O25  1  0.063294  0.301886  0.909783  1
  O  O26  1  0.200548  0.442479  0.585639  1
  O  O27  1  0.496252  0.720779  0.876485  1
  O  O28  1  0.124780  0.509867  0.271458  1
  O  O29  1  0.405991  0.798835  0.568126  1
  O  O30  1  0.301886  0.909783  0.063294  1
  O  O31  1  0.004827  0.626948  0.776542  1
  O  O32  1  0.219315  0.994293  0.378874  1
  O  O33  1  0.082521  0.937953  0.704142  1
