# generated using pymatgen
data_Li4Nd(SmPb2)2
_symmetry_space_group_name_H-M   'P 1'
_cell_length_a   4.75611468
_cell_length_b   7.25680180
_cell_length_c   8.93409107
_cell_angle_alpha   113.96195252
_cell_angle_beta   105.43695961
_cell_angle_gamma   89.99999772
_symmetry_Int_Tables_number   1
_chemical_formula_structural   Li4Nd(SmPb2)2
_chemical_formula_sum   'Li4 Nd1 Sm2 Pb4'
_cell_volume   269.55890685
_cell_formula_units_Z   1
loop_
 _symmetry_equiv_pos_site_id
 _symmetry_equiv_pos_as_xyz
  1  'x, y, z'
loop_
 _atom_site_type_symbol
 _atom_site_label
 _atom_site_symmetry_multiplicity
 _atom_site_fract_x
 _atom_site_fract_y
 _atom_site_fract_z
 _atom_site_occupancy
  Li  Li0  1  0.672665  0.981955  0.345329  1
  Li  Li1  1  0.327583  0.018831  0.655166  1
  Li  Li2  1  0.327583  0.636335  0.655166  1
  Li  Li3  1  0.672665  0.363374  0.345329  1
  Nd  Nd4  1  0.129468  0.629468  0.258934  1
  Sm  Sm5  1  0.999679  0.999679  0.999357  1
  Sm  Sm6  1  0.870341  0.370341  0.740683  1
  Pb  Pb7  1  0.499631  0.706204  0.999262  1
  Pb  Pb8  1  0.499631  0.293058  0.999262  1
  Pb  Pb9  1  0.787354  0.787354  0.574707  1
  Pb  Pb10  1  0.213402  0.213402  0.426805  1
