# generated using pymatgen
data_Dy5Tm3P12(IrRh)8
_symmetry_space_group_name_H-M   'P 1'
_cell_length_a   12.97946981
_cell_length_b   12.97383166
_cell_length_c   3.97219000
_cell_angle_alpha   90.00000000
_cell_angle_beta   90.00000000
_cell_angle_gamma   119.95387538
_symmetry_Int_Tables_number   1
_chemical_formula_structural   Dy5Tm3P12(IrRh)8
_chemical_formula_sum   'Dy5 Tm3 P12 Ir8 Rh8'
_cell_volume   579.54547782
_cell_formula_units_Z   1
loop_
 _symmetry_equiv_pos_site_id
 _symmetry_equiv_pos_as_xyz
  1  'x, y, z'
loop_
 _atom_site_type_symbol
 _atom_site_label
 _atom_site_symmetry_multiplicity
 _atom_site_fract_x
 _atom_site_fract_y
 _atom_site_fract_z
 _atom_site_occupancy
  Dy  Dy0  1  0.333474  0.666691  0.500000  1
  Dy  Dy1  1  0.666648  0.333281  0.500000  1
  Dy  Dy2  1  0.000052  0.813167  0.000000  1
  Dy  Dy3  1  0.186710  0.186612  0.000000  1
  Dy  Dy4  1  0.812710  0.999569  0.000000  1
  Tm  Tm5  1  0.000078  0.445962  0.500000  1
  Tm  Tm6  1  0.554438  0.555197  0.500000  1
  Tm  Tm7  1  0.444764  0.998985  0.500000  1
  P  P8  1  0.999762  0.651943  0.500000  1
  P  P9  1  0.348362  0.348293  0.500000  1
  P  P10  1  0.651727  0.000300  0.500000  1
  P  P11  1  0.517390  0.689793  0.000000  1
  P  P12  1  0.310287  0.827438  0.000000  1
  P  P13  1  0.172704  0.482524  0.000000  1
  P  P14  1  0.482385  0.172695  0.000000  1
  P  P15  1  0.690280  0.517688  0.000000  1
  P  P16  1  0.827099  0.309665  0.000000  1
  P  P17  1  0.000019  0.176244  0.500000  1
  P  P18  1  0.823675  0.823431  0.500000  1
  P  P19  1  0.176580  0.000357  0.500000  1
  Ir  Ir20  1  0.999959  0.273927  0.000000  1
  Ir  Ir21  1  0.725606  0.726028  0.000000  1
  Ir  Ir22  1  0.273943  0.999490  0.000000  1
  Ir  Ir23  1  0.178847  0.371658  0.500000  1
  Ir  Ir24  1  0.371761  0.178982  0.500000  1
  Ir  Ir25  1  0.806861  0.628031  0.500000  1
  Ir  Ir26  1  0.821080  0.193049  0.500000  1
  Ir  Ir27  1  0.999873  0.999985  0.500000  1
  Rh  Rh28  1  0.513474  0.869406  0.000000  1
  Rh  Rh29  1  0.130978  0.643381  0.000000  1
  Rh  Rh30  1  0.356547  0.487978  0.000000  1
  Rh  Rh31  1  0.488993  0.357406  0.000000  1
  Rh  Rh32  1  0.868643  0.511548  0.000000  1
  Rh  Rh33  1  0.642817  0.131030  0.000000  1
  Rh  Rh34  1  0.628365  0.807045  0.500000  1
  Rh  Rh35  1  0.193108  0.821221  0.500000  1
