# generated using pymatgen
data_Hg3Pt3RhPbO14
_symmetry_space_group_name_H-M   'P 1'
_cell_length_a   7.36469326
_cell_length_b   7.27401597
_cell_length_c   7.27401600
_cell_angle_alpha   59.99999988
_cell_angle_beta   60.40646288
_cell_angle_gamma   60.40645899
_symmetry_Int_Tables_number   1
_chemical_formula_structural   Hg3Pt3RhPbO14
_chemical_formula_sum   'Hg3 Pt3 Rh1 Pb1 O14'
_cell_volume   277.22294932
_cell_formula_units_Z   1
loop_
 _symmetry_equiv_pos_site_id
 _symmetry_equiv_pos_as_xyz
  1  'x, y, z'
loop_
 _atom_site_type_symbol
 _atom_site_label
 _atom_site_symmetry_multiplicity
 _atom_site_fract_x
 _atom_site_fract_y
 _atom_site_fract_z
 _atom_site_occupancy
  Hg  Hg0  1  0.125000  0.125000  0.125000  1
  Hg  Hg1  1  0.125000  0.625000  0.125000  1
  Hg  Hg2  1  0.125000  0.125000  0.625000  1
  Pt  Pt3  1  0.625000  0.625000  0.125000  1
  Pt  Pt4  1  0.625000  0.625000  0.625000  1
  Pt  Pt5  1  0.625000  0.125000  0.625000  1
  Rh  Rh6  1  0.125000  0.625000  0.625000  1
  Pb  Pb7  1  0.625000  0.125000  0.125000  1
  O  O8  1  0.701151  0.291766  0.291766  1
  O  O9  1  0.701151  0.291766  0.715317  1
  O  O10  1  0.001059  0.999647  0.999647  1
  O  O11  1  0.300164  0.700180  0.299476  1
  O  O12  1  0.701151  0.715317  0.291766  1
  O  O13  1  0.949836  0.549820  0.549820  1
  O  O14  1  0.300164  0.700180  0.700180  1
  O  O15  1  0.248941  0.250353  0.250353  1
  O  O16  1  0.949836  0.549820  0.950524  1
  O  O17  1  0.548849  0.958234  0.534683  1
  O  O18  1  0.548849  0.534683  0.958234  1
  O  O19  1  0.949836  0.950524  0.549820  1
  O  O20  1  0.548849  0.958234  0.958234  1
  O  O21  1  0.300164  0.299476  0.700180  1
