# generated using pymatgen
data_Nd2PaRu2
_symmetry_space_group_name_H-M   'P 1'
_cell_length_a   6.27958992
_cell_length_b   6.27958986
_cell_length_c   6.27959046
_cell_angle_alpha   145.29668928
_cell_angle_beta   117.84010046
_cell_angle_gamma   73.19491715
_symmetry_Int_Tables_number   1
_chemical_formula_structural   Nd2PaRu2
_chemical_formula_sum   'Nd2 Pa1 Ru2'
_cell_volume   122.43079896
_cell_formula_units_Z   1
loop_
 _symmetry_equiv_pos_site_id
 _symmetry_equiv_pos_as_xyz
  1  'x, y, z'
loop_
 _atom_site_type_symbol
 _atom_site_label
 _atom_site_symmetry_multiplicity
 _atom_site_fract_x
 _atom_site_fract_y
 _atom_site_fract_z
 _atom_site_occupancy
  Nd  Nd0  1  0.304499  0.804499  0.500000  1
  Nd  Nd1  1  0.695501  0.195501  0.500000  1
  Pa  Pa2  1  0.000000  0.000000  0.000000  1
  Ru  Ru3  1  0.279801  0.500000  0.779801  1
  Ru  Ru4  1  0.720199  0.500000  0.220199  1
