# generated using pymatgen
data_Sm3Pa(B4Mo)4
_symmetry_space_group_name_H-M   'P 1'
_cell_length_a   3.68100400
_cell_length_b   6.06460605
_cell_length_c   11.73587348
_cell_angle_alpha   90.02649265
_cell_angle_beta   90.00000000
_cell_angle_gamma   90.00000000
_symmetry_Int_Tables_number   1
_chemical_formula_structural   Sm3Pa(B4Mo)4
_chemical_formula_sum   'Sm3 Pa1 B16 Mo4'
_cell_volume   261.98972361
_cell_formula_units_Z   1
loop_
 _symmetry_equiv_pos_site_id
 _symmetry_equiv_pos_as_xyz
  1  'x, y, z'
loop_
 _atom_site_type_symbol
 _atom_site_label
 _atom_site_symmetry_multiplicity
 _atom_site_fract_x
 _atom_site_fract_y
 _atom_site_fract_z
 _atom_site_occupancy
  Sm  Sm0  1  0.000000  0.625697  0.349509  1
  Sm  Sm1  1  0.000000  0.374362  0.649866  1
  Sm  Sm2  1  0.000000  0.126215  0.150935  1
  Pa  Pa3  1  0.000000  0.875240  0.849482  1
  B  B4  1  0.500000  0.783438  0.185536  1
  B  B5  1  0.500000  0.209922  0.815622  1
  B  B6  1  0.500000  0.284828  0.315080  1
  B  B7  1  0.500000  0.715961  0.686806  1
  B  B8  1  0.500000  0.864199  0.030247  1
  B  B9  1  0.500000  0.134397  0.966100  1
  B  B10  1  0.500000  0.364729  0.467950  1
  B  B11  1  0.500000  0.635651  0.532778  1
  B  B12  1  0.500000  0.886158  0.453792  1
  B  B13  1  0.500000  0.112929  0.546938  1
  B  B14  1  0.500000  0.386655  0.045802  1
  B  B15  1  0.500000  0.614869  0.952155  1
  B  B16  1  0.500000  0.975628  0.308252  1
  B  B17  1  0.500000  0.021635  0.693409  1
  B  B18  1  0.500000  0.476236  0.191401  1
  B  B19  1  0.500000  0.529695  0.808374  1
  Mo  Mo20  1  0.000000  0.630510  0.083092  1
  Mo  Mo21  1  0.000000  0.369626  0.913522  1
  Mo  Mo22  1  0.000000  0.128955  0.417193  1
  Mo  Mo23  1  0.000000  0.872461  0.586157  1
