# generated using pymatgen
data_La2Pr3Nd3(Sc3Si4)4
_symmetry_space_group_name_H-M   'P 1'
_cell_length_a   7.26332766
_cell_length_b   7.54855712
_cell_length_c   14.27734622
_cell_angle_alpha   90.01985594
_cell_angle_beta   89.97694031
_cell_angle_gamma   90.00266566
_symmetry_Int_Tables_number   1
_chemical_formula_structural   La2Pr3Nd3(Sc3Si4)4
_chemical_formula_sum   'La2 Pr3 Nd3 Sc12 Si16'
_cell_volume   782.79313970
_cell_formula_units_Z   1
loop_
 _symmetry_equiv_pos_site_id
 _symmetry_equiv_pos_as_xyz
  1  'x, y, z'
loop_
 _atom_site_type_symbol
 _atom_site_label
 _atom_site_symmetry_multiplicity
 _atom_site_fract_x
 _atom_site_fract_y
 _atom_site_fract_z
 _atom_site_occupancy
  La  La0  1  0.012259  0.170678  0.403329  1
  La  La1  1  0.512259  0.329396  0.403362  1
  Pr  Pr2  1  0.987428  0.827928  0.901889  1
  Pr  Pr3  1  0.512024  0.327889  0.097156  1
  Pr  Pr4  1  0.012200  0.172066  0.097196  1
  Nd  Nd5  1  0.487361  0.672523  0.901608  1
  Nd  Nd6  1  0.487864  0.672690  0.598890  1
  Nd  Nd7  1  0.987909  0.827234  0.599015  1
  Sc  Sc8  1  0.330274  0.175340  0.625887  1
  Sc  Sc9  1  0.669888  0.824255  0.374620  1
  Sc  Sc10  1  0.659805  0.001244  0.750015  1
  Sc  Sc11  1  0.169867  0.675810  0.374620  1
  Sc  Sc12  1  0.829981  0.324113  0.874439  1
  Sc  Sc13  1  0.830286  0.324684  0.625882  1
  Sc  Sc14  1  0.840187  0.502239  0.249371  1
  Sc  Sc15  1  0.340145  0.997739  0.249341  1
  Sc  Sc16  1  0.330155  0.176080  0.874388  1
  Sc  Sc17  1  0.169899  0.675939  0.124591  1
  Sc  Sc18  1  0.669734  0.823957  0.124625  1
  Sc  Sc19  1  0.159897  0.498804  0.749996  1
  Si  Si20  1  0.288056  0.882506  0.749746  1
  Si  Si21  1  0.465582  0.626727  0.249417  1
  Si  Si22  1  0.034174  0.124659  0.749859  1
  Si  Si23  1  0.534004  0.375977  0.750103  1
  Si  Si24  1  0.151584  0.465492  0.541242  1
  Si  Si25  1  0.965547  0.873311  0.249405  1
  Si  Si26  1  0.711749  0.115062  0.249037  1
  Si  Si27  1  0.848299  0.537147  0.039371  1
  Si  Si28  1  0.348880  0.962222  0.039160  1
  Si  Si29  1  0.152140  0.463396  0.959624  1
  Si  Si30  1  0.651671  0.034484  0.541201  1
  Si  Si31  1  0.349705  0.960340  0.461562  1
  Si  Si32  1  0.849690  0.539740  0.461538  1
  Si  Si33  1  0.786924  0.617231  0.749816  1
  Si  Si34  1  0.211714  0.384832  0.249020  1
  Si  Si35  1  0.650862  0.036265  0.959679  1
