# generated using pymatgen
data_YCoPN
_symmetry_space_group_name_H-M   'P 1'
_cell_length_a   3.65207000
_cell_length_b   3.65207000
_cell_length_c   7.88106600
_cell_angle_alpha   90.00000000
_cell_angle_beta   90.00000000
_cell_angle_gamma   90.00000000
_symmetry_Int_Tables_number   1
_chemical_formula_structural   YCoPN
_chemical_formula_sum   'Y2 Co2 P2 N2'
_cell_volume   105.11462634
_cell_formula_units_Z   2
loop_
 _symmetry_equiv_pos_site_id
 _symmetry_equiv_pos_as_xyz
  1  'x, y, z'
loop_
 _atom_site_type_symbol
 _atom_site_label
 _atom_site_symmetry_multiplicity
 _atom_site_fract_x
 _atom_site_fract_y
 _atom_site_fract_z
 _atom_site_occupancy
  Y  Y0  1  0.499999  0.000000  0.165438  1
  Y  Y1  1  0.000000  0.499999  0.834562  1
  Co  Co2  1  0.000000  0.000000  0.500000  1
  Co  Co3  1  0.499999  0.499999  0.500000  1
  P  P4  1  0.000000  0.499999  0.346501  1
  P  P5  1  0.499999  0.000000  0.653499  1
  N  N6  1  0.000000  0.499999  0.129200  1
  N  N7  1  0.499999  0.000000  0.870800  1
