# generated using pymatgen
data_CeY5(Al3Ru)8
_symmetry_space_group_name_H-M   'P 1'
_cell_length_a   8.83554000
_cell_length_b   8.82639750
_cell_length_c   9.58005600
_cell_angle_alpha   90.00000000
_cell_angle_beta   90.00000000
_cell_angle_gamma   120.03426285
_symmetry_Int_Tables_number   1
_chemical_formula_structural   CeY5(Al3Ru)8
_chemical_formula_sum   'Ce1 Y5 Al24 Ru8'
_cell_volume   646.79285379
_cell_formula_units_Z   1
loop_
 _symmetry_equiv_pos_site_id
 _symmetry_equiv_pos_as_xyz
  1  'x, y, z'
loop_
 _atom_site_type_symbol
 _atom_site_label
 _atom_site_symmetry_multiplicity
 _atom_site_fract_x
 _atom_site_fract_y
 _atom_site_fract_z
 _atom_site_occupancy
  Ce  Ce0  1  0.193991  0.387983  0.250000  1
  Y  Y1  1  0.807735  0.615470  0.750000  1
  Y  Y2  1  0.192259  0.805241  0.250000  1
  Y  Y3  1  0.612982  0.805241  0.250000  1
  Y  Y4  1  0.386344  0.192849  0.750000  1
  Y  Y5  1  0.806505  0.192849  0.750000  1
  Al  Al6  1  0.334472  0.668944  0.486646  1
  Al  Al7  1  0.666803  0.333604  0.985356  1
  Al  Al8  1  0.666803  0.333604  0.514644  1
  Al  Al9  1  0.334472  0.668944  0.013354  1
  Al  Al10  1  0.162012  0.324023  0.578893  1
  Al  Al11  1  0.675974  0.837895  0.578108  1
  Al  Al12  1  0.161921  0.837895  0.578108  1
  Al  Al13  1  0.836575  0.161131  0.077719  1
  Al  Al14  1  0.836575  0.161131  0.422281  1
  Al  Al15  1  0.837689  0.675379  0.076894  1
  Al  Al16  1  0.324556  0.161131  0.077719  1
  Al  Al17  1  0.675974  0.837895  0.921892  1
  Al  Al18  1  0.162012  0.324023  0.921107  1
  Al  Al19  1  0.837689  0.675379  0.423106  1
  Al  Al20  1  0.999613  0.999226  0.250000  1
  Al  Al21  1  0.000603  0.001207  0.750000  1
  Al  Al22  1  0.560598  0.121196  0.250000  1
  Al  Al23  1  0.439600  0.560771  0.750000  1
  Al  Al24  1  0.121171  0.560771  0.750000  1
  Al  Al25  1  0.875167  0.438295  0.250000  1
  Al  Al26  1  0.563129  0.438295  0.250000  1
  Al  Al27  1  0.439160  0.878321  0.750000  1
  Al  Al28  1  0.161921  0.837895  0.921892  1
  Al  Al29  1  0.324556  0.161131  0.422281  1
  Ru  Ru30  1  0.999698  0.999396  0.500274  1
  Ru  Ru31  1  0.999698  0.999396  0.999726  1
  Ru  Ru32  1  0.500625  0.001250  0.501119  1
  Ru  Ru33  1  0.499761  0.500247  0.001012  1
  Ru  Ru34  1  0.000486  0.500247  0.001012  1
  Ru  Ru35  1  0.000486  0.500247  0.498988  1
  Ru  Ru36  1  0.499761  0.500247  0.498988  1
  Ru  Ru37  1  0.500625  0.001250  0.998881  1
