# generated using pymatgen
data_Cs2TiMoN4
_symmetry_space_group_name_H-M   'P 1'
_cell_length_a   6.13766218
_cell_length_b   6.13766244
_cell_length_c   6.13766200
_cell_angle_alpha   119.72001913
_cell_angle_beta   119.72002574
_cell_angle_gamma   90.48561935
_symmetry_Int_Tables_number   1
_chemical_formula_structural   Cs2TiMoN4
_chemical_formula_sum   'Cs2 Ti1 Mo1 N4'
_cell_volume   164.17652865
_cell_formula_units_Z   1
loop_
 _symmetry_equiv_pos_site_id
 _symmetry_equiv_pos_as_xyz
  1  'x, y, z'
loop_
 _atom_site_type_symbol
 _atom_site_label
 _atom_site_symmetry_multiplicity
 _atom_site_fract_x
 _atom_site_fract_y
 _atom_site_fract_z
 _atom_site_occupancy
  Cs  Cs0  1  0.250000  0.750000  0.500000  1
  Cs  Cs1  1  0.500000  0.500000  0.000000  1
  Ti  Ti2  1  0.000000  0.000000  0.000000  1
  Mo  Mo3  1  0.750000  0.250000  0.500000  1
  N  N4  1  0.841182  0.128423  0.220803  1
  N  N5  1  0.907620  0.620380  0.779197  1
  N  N6  1  0.379620  0.158818  0.287240  1
  N  N7  1  0.871577  0.092380  0.712760  1
