# generated using pymatgen
data_Dy8Hf3Si16Mo9
_symmetry_space_group_name_H-M   'P 1'
_cell_length_a   6.98414283
_cell_length_b   6.98414283
_cell_length_c   12.92178103
_cell_angle_alpha   89.93062562
_cell_angle_beta   90.06937404
_cell_angle_gamma   89.81203174
_symmetry_Int_Tables_number   1
_chemical_formula_structural   Dy8Hf3Si16Mo9
_chemical_formula_sum   'Dy8 Hf3 Si16 Mo9'
_cell_volume   630.29756058
_cell_formula_units_Z   1
loop_
 _symmetry_equiv_pos_site_id
 _symmetry_equiv_pos_as_xyz
  1  'x, y, z'
loop_
 _atom_site_type_symbol
 _atom_site_label
 _atom_site_symmetry_multiplicity
 _atom_site_fract_x
 _atom_site_fract_y
 _atom_site_fract_z
 _atom_site_occupancy
  Dy  Dy0  1  0.999739  0.338093  0.216659  1
  Dy  Dy1  1  0.004815  0.660218  0.720375  1
  Dy  Dy2  1  0.160526  0.496955  0.468324  1
  Dy  Dy3  1  0.500376  0.841466  0.031070  1
  Dy  Dy4  1  0.841466  0.500376  0.968930  1
  Dy  Dy5  1  0.496955  0.160526  0.531676  1
  Dy  Dy6  1  0.338093  0.999739  0.783341  1
  Dy  Dy7  1  0.660218  0.004815  0.279625  1
  Hf  Hf8  1  0.831651  0.831651  0.500000  1
  Hf  Hf9  1  0.329745  0.669338  0.247707  1
  Hf  Hf10  1  0.669338  0.329745  0.752293  1
  Si  Si11  1  0.370721  0.295260  0.316747  1
  Si  Si12  1  0.627390  0.705961  0.817315  1
  Si  Si13  1  0.204230  0.871988  0.567801  1
  Si  Si14  1  0.125485  0.804560  0.934737  1
  Si  Si15  1  0.804560  0.125485  0.065263  1
  Si  Si16  1  0.871988  0.204230  0.432199  1
  Si  Si17  1  0.295260  0.370721  0.683253  1
  Si  Si18  1  0.705961  0.627390  0.182685  1
  Si  Si19  1  0.287075  0.046858  0.183023  1
  Si  Si20  1  0.709396  0.957923  0.688987  1
  Si  Si21  1  0.456508  0.790143  0.437776  1
  Si  Si22  1  0.212318  0.533647  0.058434  1
  Si  Si23  1  0.533647  0.212318  0.941566  1
  Si  Si24  1  0.790143  0.456508  0.562224  1
  Si  Si25  1  0.046858  0.287075  0.816977  1
  Si  Si26  1  0.957923  0.709396  0.311013  1
  Mo  Mo27  1  0.167958  0.167958  0.000000  1
  Mo  Mo28  1  0.160450  0.994962  0.375261  1
  Mo  Mo29  1  0.833089  0.003239  0.877215  1
  Mo  Mo30  1  0.506257  0.659505  0.626589  1
  Mo  Mo31  1  0.344278  0.497877  0.873524  1
  Mo  Mo32  1  0.497877  0.344278  0.126476  1
  Mo  Mo33  1  0.659505  0.506257  0.373411  1
  Mo  Mo34  1  0.994962  0.160450  0.624739  1
  Mo  Mo35  1  0.003239  0.833089  0.122785  1
