# generated using pymatgen
data_Hf4Mn5Re3
_symmetry_space_group_name_H-M   'P 1'
_cell_length_a   5.09152066
_cell_length_b   5.07396944
_cell_length_c   8.32101601
_cell_angle_alpha   90.00454247
_cell_angle_beta   89.99859856
_cell_angle_gamma   120.28717223
_symmetry_Int_Tables_number   1
_chemical_formula_structural   Hf4Mn5Re3
_chemical_formula_sum   'Hf4 Mn5 Re3'
_cell_volume   185.62579355
_cell_formula_units_Z   1
loop_
 _symmetry_equiv_pos_site_id
 _symmetry_equiv_pos_as_xyz
  1  'x, y, z'
loop_
 _atom_site_type_symbol
 _atom_site_label
 _atom_site_symmetry_multiplicity
 _atom_site_fract_x
 _atom_site_fract_y
 _atom_site_fract_z
 _atom_site_occupancy
  Hf  Hf0  1  0.333700  0.666933  0.439884  1
  Hf  Hf1  1  0.666104  0.332597  0.935362  1
  Hf  Hf2  1  0.666100  0.332582  0.564630  1
  Hf  Hf3  1  0.333710  0.666959  0.060168  1
  Mn  Mn4  1  0.653559  0.826893  0.749945  1
  Mn  Mn5  1  0.173703  0.827194  0.750026  1
  Mn  Mn6  1  0.829628  0.169501  0.250020  1
  Mn  Mn7  1  0.339666  0.169356  0.249994  1
  Mn  Mn8  1  0.176578  0.352501  0.749949  1
  Re  Re9  1  0.824910  0.649719  0.250009  1
  Re  Re10  1  0.001124  0.002863  0.507793  1
  Re  Re11  1  0.001117  0.002896  0.992221  1
