# generated using pymatgen
data_MnRe(Ir2W)2
_symmetry_space_group_name_H-M   'P 1'
_cell_length_a   5.53846267
_cell_length_b   5.48618332
_cell_length_c   4.39776900
_cell_angle_alpha   90.00000000
_cell_angle_beta   90.00000000
_cell_angle_gamma   119.68824097
_symmetry_Int_Tables_number   1
_chemical_formula_structural   MnRe(Ir2W)2
_chemical_formula_sum   'Mn1 Re1 Ir4 W2'
_cell_volume   116.08560570
_cell_formula_units_Z   1
loop_
 _symmetry_equiv_pos_site_id
 _symmetry_equiv_pos_as_xyz
  1  'x, y, z'
loop_
 _atom_site_type_symbol
 _atom_site_label
 _atom_site_symmetry_multiplicity
 _atom_site_fract_x
 _atom_site_fract_y
 _atom_site_fract_z
 _atom_site_occupancy
  Mn  Mn0  1  0.330175  0.165088  0.250000  1
  Re  Re1  1  0.670233  0.835117  0.750000  1
  Ir  Ir2  1  0.829960  0.165314  0.250000  1
  Ir  Ir3  1  0.174651  0.331029  0.750000  1
  Ir  Ir4  1  0.174651  0.843622  0.750000  1
  Ir  Ir5  1  0.829960  0.664647  0.250000  1
  W  W6  1  0.658278  0.329139  0.750000  1
  W  W7  1  0.332090  0.666046  0.250000  1
