# generated using pymatgen
data_CePr7(Si3Rh)4
_symmetry_space_group_name_H-M   'P 1'
_cell_length_a   8.28095795
_cell_length_b   8.32013898
_cell_length_c   8.41877600
_cell_angle_alpha   90.00000000
_cell_angle_beta   90.00000000
_cell_angle_gamma   120.15663509
_symmetry_Int_Tables_number   1
_chemical_formula_structural   CePr7(Si3Rh)4
_chemical_formula_sum   'Ce1 Pr7 Si12 Rh4'
_cell_volume   501.53714929
_cell_formula_units_Z   1
loop_
 _symmetry_equiv_pos_site_id
 _symmetry_equiv_pos_as_xyz
  1  'x, y, z'
loop_
 _atom_site_type_symbol
 _atom_site_label
 _atom_site_symmetry_multiplicity
 _atom_site_fract_x
 _atom_site_fract_y
 _atom_site_fract_z
 _atom_site_occupancy
  Ce  Ce0  1  0.002775  0.501388  0.750000  1
  Pr  Pr1  1  0.000628  0.000314  0.250000  1
  Pr  Pr2  1  0.999802  0.999901  0.750000  1
  Pr  Pr3  1  0.503099  0.496475  0.250000  1
  Pr  Pr4  1  0.503099  0.006625  0.250000  1
  Pr  Pr5  1  0.993524  0.496762  0.250000  1
  Pr  Pr6  1  0.495633  0.504595  0.750000  1
  Pr  Pr7  1  0.495633  0.991037  0.750000  1
  Si  Si8  1  0.166236  0.833804  0.504622  1
  Si  Si9  1  0.166236  0.332434  0.504622  1
  Si  Si10  1  0.665735  0.832868  0.501110  1
  Si  Si11  1  0.833638  0.165680  0.498821  1
  Si  Si12  1  0.833638  0.667957  0.498821  1
  Si  Si13  1  0.335184  0.167591  0.499047  1
  Si  Si14  1  0.833638  0.165680  0.001179  1
  Si  Si15  1  0.833638  0.667957  0.001179  1
  Si  Si16  1  0.335184  0.167591  0.000953  1
  Si  Si17  1  0.166236  0.833804  0.995378  1
  Si  Si18  1  0.166236  0.332434  0.995378  1
  Si  Si19  1  0.665735  0.832868  0.998890  1
  Rh  Rh20  1  0.329816  0.664909  0.487009  1
  Rh  Rh21  1  0.672420  0.336210  0.523600  1
  Rh  Rh22  1  0.672420  0.336210  0.976400  1
  Rh  Rh23  1  0.329816  0.664909  0.012991  1
