# generated using pymatgen
data_Tm3Th(Al3Ir)6
_symmetry_space_group_name_H-M   'P 1'
_cell_length_a   7.56585522
_cell_length_b   7.57734856
_cell_length_c   9.44636600
_cell_angle_alpha   90.00000000
_cell_angle_beta   90.00000000
_cell_angle_gamma   119.44803839
_symmetry_Int_Tables_number   1
_chemical_formula_structural   Tm3Th(Al3Ir)6
_chemical_formula_sum   'Tm3 Th1 Al18 Ir6'
_cell_volume   471.58440729
_cell_formula_units_Z   1
loop_
 _symmetry_equiv_pos_site_id
 _symmetry_equiv_pos_as_xyz
  1  'x, y, z'
loop_
 _atom_site_type_symbol
 _atom_site_label
 _atom_site_symmetry_multiplicity
 _atom_site_fract_x
 _atom_site_fract_y
 _atom_site_fract_z
 _atom_site_occupancy
  Tm  Tm0  1  0.003363  0.327842  0.750000  1
  Tm  Tm1  1  0.673405  0.995547  0.250000  1
  Tm  Tm2  1  0.327126  0.004117  0.750000  1
  Th  Th3  1  0.995075  0.670996  0.250000  1
  Al  Al4  1  0.131017  0.133070  0.250000  1
  Al  Al5  1  0.872079  0.874505  0.750000  1
  Al  Al6  1  0.001216  0.330703  0.072555  1
  Al  Al7  1  0.999363  0.664156  0.917317  1
  Al  Al8  1  0.999363  0.664156  0.582683  1
  Al  Al9  1  0.340576  0.005406  0.427445  1
  Al  Al10  1  0.001216  0.330703  0.427445  1
  Al  Al11  1  0.664498  0.000514  0.576709  1
  Al  Al12  1  0.664498  0.000514  0.923291  1
  Al  Al13  1  0.340576  0.005406  0.072555  1
  Al  Al14  1  0.332133  0.332209  0.555798  1
  Al  Al15  1  0.662837  0.666795  0.453202  1
  Al  Al16  1  0.662837  0.666795  0.046798  1
  Al  Al17  1  0.332133  0.332209  0.944202  1
  Al  Al18  1  0.344493  0.548829  0.250000  1
  Al  Al19  1  0.658387  0.448514  0.750000  1
  Al  Al20  1  0.544060  0.336538  0.250000  1
  Al  Al21  1  0.449310  0.660804  0.750000  1
  Ir  Ir22  1  0.673399  0.329252  0.000082  1
  Ir  Ir23  1  0.326335  0.671842  0.000149  1
  Ir  Ir24  1  0.326335  0.671842  0.499851  1
  Ir  Ir25  1  0.673399  0.329252  0.499918  1
  Ir  Ir26  1  0.000485  0.998741  0.000333  1
  Ir  Ir27  1  0.000485  0.998741  0.499667  1
