# generated using pymatgen
data_RbSr9Tc2(MoN7)2
_symmetry_space_group_name_H-M   'P 1'
_cell_length_a   6.51878049
_cell_length_b   9.28819166
_cell_length_c   9.46759139
_cell_angle_alpha   114.76496986
_cell_angle_beta   98.86202657
_cell_angle_gamma   89.51495803
_symmetry_Int_Tables_number   1
_chemical_formula_structural   RbSr9Tc2(MoN7)2
_chemical_formula_sum   'Rb1 Sr9 Tc2 Mo2 N14'
_cell_volume   513.30277767
_cell_formula_units_Z   1
loop_
 _symmetry_equiv_pos_site_id
 _symmetry_equiv_pos_as_xyz
  1  'x, y, z'
loop_
 _atom_site_type_symbol
 _atom_site_label
 _atom_site_symmetry_multiplicity
 _atom_site_fract_x
 _atom_site_fract_y
 _atom_site_fract_z
 _atom_site_occupancy
  Rb  Rb0  1  0.869287  0.583613  0.334430  1
  Sr  Sr1  1  0.264852  0.984882  0.559707  1
  Sr  Sr2  1  0.704006  0.417720  0.860709  1
  Sr  Sr3  1  0.294230  0.587277  0.146024  1
  Sr  Sr4  1  0.398055  0.792601  0.914257  1
  Sr  Sr5  1  0.603186  0.213653  0.088315  1
  Sr  Sr6  1  0.136572  0.404832  0.674308  1
  Sr  Sr7  1  0.889380  0.844805  0.760081  1
  Sr  Sr8  1  0.110038  0.155446  0.233613  1
  Sr  Sr9  1  0.731919  0.004992  0.429414  1
  Tc  Tc10  1  0.571888  0.357671  0.477774  1
  Tc  Tc11  1  0.427509  0.640369  0.531535  1
  Mo  Mo12  1  0.124155  0.210682  0.906479  1
  Mo  Mo13  1  0.878515  0.789956  0.083345  1
  N  N14  1  0.569876  0.554971  0.674076  1
  N  N15  1  0.420688  0.440206  0.334072  1
  N  N16  1  0.186296  0.713081  0.601386  1
  N  N17  1  0.824030  0.286403  0.424849  1
  N  N18  1  0.416045  0.197149  0.483922  1
  N  N19  1  0.572113  0.804658  0.525434  1
  N  N20  1  0.961048  0.129222  0.702013  1
  N  N21  1  0.051328  0.880530  0.282911  1
  N  N22  1  0.240573  0.053439  0.964024  1
  N  N23  1  0.770367  0.951297  0.027883  1
  N  N24  1  0.353206  0.335379  0.905587  1
  N  N25  1  0.960620  0.329419  0.055624  1
  N  N26  1  0.030228  0.652166  0.926322  1
  N  N27  1  0.639992  0.683582  0.091906  1
