# generated using pymatgen
data_Ga8Au11
_symmetry_space_group_name_H-M   'P 1'
_cell_length_a   7.87878092
_cell_length_b   7.87878131
_cell_length_c   12.30058500
_cell_angle_alpha   97.05715305
_cell_angle_beta   97.05715340
_cell_angle_gamma   90.53653562
_symmetry_Int_Tables_number   1
_chemical_formula_structural   Ga8Au11
_chemical_formula_sum   'Ga16 Au22'
_cell_volume   751.80373366
_cell_formula_units_Z   2
loop_
 _symmetry_equiv_pos_site_id
 _symmetry_equiv_pos_as_xyz
  1  'x, y, z'
loop_
 _atom_site_type_symbol
 _atom_site_label
 _atom_site_symmetry_multiplicity
 _atom_site_fract_x
 _atom_site_fract_y
 _atom_site_fract_z
 _atom_site_occupancy
  Ga  Ga0  1  0.247669  0.873392  0.986883  1
  Ga  Ga1  1  0.256180  0.387989  0.007417  1
  Ga  Ga2  1  0.058873  0.435921  0.244336  1
  Ga  Ga3  1  0.557963  0.442038  0.250000  1
  Ga  Ga4  1  0.067035  0.932965  0.250000  1
  Ga  Ga5  1  0.564079  0.941128  0.255663  1
  Ga  Ga6  1  0.612011  0.743821  0.492583  1
  Ga  Ga7  1  0.126608  0.752331  0.513118  1
  Ga  Ga8  1  0.873391  0.247668  0.486882  1
  Ga  Ga9  1  0.387989  0.256179  0.507417  1
  Ga  Ga10  1  0.435921  0.058872  0.744337  1
  Ga  Ga11  1  0.932965  0.067035  0.750000  1
  Ga  Ga12  1  0.442037  0.557963  0.750000  1
  Ga  Ga13  1  0.941128  0.564079  0.755664  1
  Ga  Ga14  1  0.743821  0.612011  0.992583  1
  Ga  Ga15  1  0.752332  0.126608  0.013118  1
  Au  Au16  1  0.089462  0.653114  0.097037  1
  Au  Au17  1  0.458759  0.143453  0.087627  1
  Au  Au18  1  0.076098  0.142962  0.089570  1
  Au  Au19  1  0.453659  0.660508  0.101776  1
  Au  Au20  1  0.795951  0.685307  0.208270  1
  Au  Au21  1  0.801364  0.198637  0.250000  1
  Au  Au22  1  0.314693  0.204048  0.291730  1
  Au  Au23  1  0.339492  0.546341  0.398224  1
  Au  Au24  1  0.857038  0.923903  0.410431  1
  Au  Au25  1  0.856548  0.541241  0.412373  1
  Au  Au26  1  0.346885  0.910537  0.402963  1
  Au  Au27  1  0.653114  0.089462  0.597037  1
  Au  Au28  1  0.143453  0.458759  0.587627  1
  Au  Au29  1  0.142962  0.076098  0.589569  1
  Au  Au30  1  0.660508  0.453658  0.601776  1
  Au  Au31  1  0.685307  0.795952  0.708269  1
  Au  Au32  1  0.198636  0.801364  0.750000  1
  Au  Au33  1  0.204048  0.314692  0.791731  1
  Au  Au34  1  0.546342  0.339492  0.898224  1
  Au  Au35  1  0.923902  0.857038  0.910431  1
  Au  Au36  1  0.541241  0.856547  0.912373  1
  Au  Au37  1  0.910538  0.346886  0.902962  1
