# generated using pymatgen
data_Rb6MnMoS8
_symmetry_space_group_name_H-M   'P 1'
_cell_length_a   9.49245400
_cell_length_b   9.55267300
_cell_length_c   11.25560500
_cell_angle_alpha   90.00000000
_cell_angle_beta   90.00000000
_cell_angle_gamma   90.00000000
_symmetry_Int_Tables_number   1
_chemical_formula_structural   Rb6MnMoS8
_chemical_formula_sum   'Rb12 Mn2 Mo2 S16'
_cell_volume   1020.63922850
_cell_formula_units_Z   2
loop_
 _symmetry_equiv_pos_site_id
 _symmetry_equiv_pos_as_xyz
  1  'x, y, z'
loop_
 _atom_site_type_symbol
 _atom_site_label
 _atom_site_symmetry_multiplicity
 _atom_site_fract_x
 _atom_site_fract_y
 _atom_site_fract_z
 _atom_site_occupancy
  Rb  Rb0  1  0.548048  0.207560  0.035596  1
  Rb  Rb1  1  0.048048  0.292440  0.464404  1
  Rb  Rb2  1  0.453611  0.791940  0.551694  1
  Rb  Rb3  1  0.953611  0.708060  0.948306  1
  Rb  Rb4  1  0.453611  0.791940  0.948306  1
  Rb  Rb5  1  0.953611  0.708060  0.551694  1
  Rb  Rb6  1  0.548048  0.207560  0.464404  1
  Rb  Rb7  1  0.048048  0.292440  0.035596  1
  Rb  Rb8  1  0.645286  0.414578  0.750000  1
  Rb  Rb9  1  0.145286  0.085422  0.750000  1
  Rb  Rb10  1  0.353173  0.587009  0.250000  1
  Rb  Rb11  1  0.853173  0.912991  0.250000  1
  Mn  Mn12  1  0.723211  0.984857  0.750000  1
  Mn  Mn13  1  0.223211  0.515143  0.750000  1
  Mo  Mo14  1  0.277804  0.015889  0.250000  1
  Mo  Mo15  1  0.777804  0.484111  0.250000  1
  S  S16  1  0.829184  0.047621  0.590656  1
  S  S17  1  0.329184  0.452379  0.909344  1
  S  S18  1  0.164193  0.949366  0.086104  1
  S  S19  1  0.664193  0.550634  0.413896  1
  S  S20  1  0.164193  0.949366  0.413896  1
  S  S21  1  0.664193  0.550634  0.086104  1
  S  S22  1  0.829184  0.047621  0.909344  1
  S  S23  1  0.329184  0.452379  0.590656  1
  S  S24  1  0.514359  0.071379  0.750000  1
  S  S25  1  0.014359  0.428621  0.750000  1
  S  S26  1  0.494899  0.924028  0.250000  1
  S  S27  1  0.994899  0.575972  0.250000  1
  S  S28  1  0.706363  0.761450  0.750000  1
  S  S29  1  0.206363  0.738550  0.750000  1
  S  S30  1  0.294836  0.248860  0.250000  1
  S  S31  1  0.794836  0.251140  0.250000  1
