# generated using pymatgen
data_Sc2AgP3O11
_symmetry_space_group_name_H-M   'P 1'
_cell_length_a   7.50332900
_cell_length_b   7.50332946
_cell_length_c   9.16838053
_cell_angle_alpha   69.45810592
_cell_angle_beta   69.45810783
_cell_angle_gamma   73.17222222
_symmetry_Int_Tables_number   1
_chemical_formula_structural   Sc2AgP3O11
_chemical_formula_sum   'Sc4 Ag2 P6 O22'
_cell_volume   444.40316896
_cell_formula_units_Z   2
loop_
 _symmetry_equiv_pos_site_id
 _symmetry_equiv_pos_as_xyz
  1  'x, y, z'
loop_
 _atom_site_type_symbol
 _atom_site_label
 _atom_site_symmetry_multiplicity
 _atom_site_fract_x
 _atom_site_fract_y
 _atom_site_fract_z
 _atom_site_occupancy
  Sc  Sc0  1  0.888028  0.357036  0.203461  1
  Sc  Sc1  1  0.642964  0.111972  0.796539  1
  Sc  Sc2  1  0.110832  0.642631  0.297437  1
  Sc  Sc3  1  0.357369  0.889168  0.702563  1
  Ag  Ag4  1  0.987110  0.514546  0.757371  1
  Ag  Ag5  1  0.485454  0.012890  0.242629  1
  P  P6  1  0.325311  0.453465  0.969341  1
  P  P7  1  0.546535  0.674689  0.030659  1
  P  P8  1  0.673044  0.547248  0.531204  1
  P  P9  1  0.452752  0.326956  0.468796  1
  P  P10  1  0.958325  0.041675  0.000000  1
  P  P11  1  0.041826  0.958174  0.500000  1
  O  O12  1  0.509058  0.490942  0.000000  1
  O  O13  1  0.489014  0.510986  0.500000  1
  O  O14  1  0.615206  0.281989  0.321667  1
  O  O15  1  0.718011  0.384794  0.678333  1
  O  O16  1  0.385766  0.719542  0.178433  1
  O  O17  1  0.280458  0.614234  0.821567  1
  O  O18  1  0.749281  0.613108  0.051457  1
  O  O19  1  0.386892  0.250719  0.948543  1
  O  O20  1  0.252009  0.387063  0.444862  1
  O  O21  1  0.612937  0.747991  0.555138  1
  O  O22  1  0.953817  0.246397  0.012199  1
  O  O23  1  0.753603  0.046183  0.987801  1
  O  O24  1  0.045558  0.753170  0.488963  1
  O  O25  1  0.246830  0.954442  0.511037  1
  O  O26  1  0.010664  0.116720  0.346522  1
  O  O27  1  0.883280  0.989336  0.653478  1
  O  O28  1  0.990371  0.882875  0.153100  1
  O  O29  1  0.117125  0.009629  0.846900  1
  O  O30  1  0.155398  0.468901  0.124537  1
  O  O31  1  0.531099  0.844602  0.875463  1
  O  O32  1  0.843061  0.531964  0.375876  1
  O  O33  1  0.468036  0.156939  0.624124  1
