# generated using pymatgen
data_MgAl5(PdPt4)2
_symmetry_space_group_name_H-M   'P 1'
_cell_length_a   4.06135800
_cell_length_b   5.47132744
_cell_length_c   10.75053801
_cell_angle_alpha   90.57818744
_cell_angle_beta   90.00000000
_cell_angle_gamma   90.00000000
_symmetry_Int_Tables_number   1
_chemical_formula_structural   MgAl5(PdPt4)2
_chemical_formula_sum   'Mg1 Al5 Pd2 Pt8'
_cell_volume   238.87575106
_cell_formula_units_Z   1
loop_
 _symmetry_equiv_pos_site_id
 _symmetry_equiv_pos_as_xyz
  1  'x, y, z'
loop_
 _atom_site_type_symbol
 _atom_site_label
 _atom_site_symmetry_multiplicity
 _atom_site_fract_x
 _atom_site_fract_y
 _atom_site_fract_z
 _atom_site_occupancy
  Mg  Mg0  1  0.500000  0.181492  0.639752  1
  Al  Al1  1  0.500000  0.823750  0.360438  1
  Al  Al2  1  0.500000  0.682852  0.856189  1
  Al  Al3  1  0.500000  0.322113  0.139667  1
  Al  Al4  1  0.000000  0.486293  0.502990  1
  Al  Al5  1  0.000000  0.996897  0.998548  1
  Pd  Pd6  1  0.000000  0.437614  0.742887  1
  Pd  Pd7  1  0.000000  0.579207  0.268062  1
  Pt  Pt8  1  0.500000  0.302399  0.387844  1
  Pt  Pt9  1  0.500000  0.690569  0.606408  1
  Pt  Pt10  1  0.500000  0.797549  0.109713  1
  Pt  Pt11  1  0.500000  0.204660  0.896668  1
  Pt  Pt12  1  0.000000  0.932341  0.764638  1
  Pt  Pt13  1  0.000000  0.079641  0.230507  1
  Pt  Pt14  1  0.000000  0.500350  0.004154  1
  Pt  Pt15  1  0.000000  0.982272  0.491538  1
