# generated using pymatgen
data_Ho3PaGa12Tc
_symmetry_space_group_name_H-M   'P 1'
_cell_length_a   7.44011350
_cell_length_b   7.48578266
_cell_length_c   7.48578331
_cell_angle_alpha   109.59447209
_cell_angle_beta   109.34767808
_cell_angle_gamma   109.34767616
_symmetry_Int_Tables_number   1
_chemical_formula_structural   Ho3PaGa12Tc
_chemical_formula_sum   'Ho3 Pa1 Ga12 Tc1'
_cell_volume   321.43419657
_cell_formula_units_Z   1
loop_
 _symmetry_equiv_pos_site_id
 _symmetry_equiv_pos_as_xyz
  1  'x, y, z'
loop_
 _atom_site_type_symbol
 _atom_site_label
 _atom_site_symmetry_multiplicity
 _atom_site_fract_x
 _atom_site_fract_y
 _atom_site_fract_z
 _atom_site_occupancy
  Ho  Ho0  1  0.000000  0.000000  0.500000  1
  Ho  Ho1  1  0.000000  0.500000  0.000000  1
  Ho  Ho2  1  0.500000  0.500000  0.500000  1
  Pa  Pa3  1  0.500000  0.000000  0.000000  1
  Ga  Ga4  1  0.749566  0.249566  0.499133  1
  Ga  Ga5  1  0.749566  0.499133  0.249566  1
  Ga  Ga6  1  0.500000  0.249566  0.750434  1
  Ga  Ga7  1  0.250434  0.500867  0.750434  1
  Ga  Ga8  1  0.250434  0.750434  0.500867  1
  Ga  Ga9  1  0.500000  0.750434  0.249566  1
  Ga  Ga10  1  0.707043  0.708908  0.000000  1
  Ga  Ga11  1  0.292957  0.000000  0.291092  1
  Ga  Ga12  1  0.998136  0.291092  0.291092  1
  Ga  Ga13  1  0.292957  0.291092  0.000000  1
  Ga  Ga14  1  0.707043  0.000000  0.708908  1
  Ga  Ga15  1  0.001864  0.708908  0.708908  1
  Tc  Tc16  1  0.000000  0.000000  0.000000  1
