# generated using pymatgen
data_Nd4Ho3Lu3Pb8
_symmetry_space_group_name_H-M   'P 1'
_cell_length_a   8.23146500
_cell_length_b   8.34971657
_cell_length_c   15.74280000
_cell_angle_alpha   89.97885131
_cell_angle_beta   90.00000000
_cell_angle_gamma   90.00000000
_symmetry_Int_Tables_number   1
_chemical_formula_structural   Nd4Ho3Lu3Pb8
_chemical_formula_sum   'Nd8 Ho6 Lu6 Pb16'
_cell_volume   1082.00886263
_cell_formula_units_Z   2
loop_
 _symmetry_equiv_pos_site_id
 _symmetry_equiv_pos_as_xyz
  1  'x, y, z'
loop_
 _atom_site_type_symbol
 _atom_site_label
 _atom_site_symmetry_multiplicity
 _atom_site_fract_x
 _atom_site_fract_y
 _atom_site_fract_z
 _atom_site_occupancy
  Nd  Nd0  1  0.473141  0.677171  0.597747  1
  Nd  Nd1  1  0.973141  0.822829  0.902253  1
  Nd  Nd2  1  0.526769  0.322521  0.097223  1
  Nd  Nd3  1  0.026769  0.177479  0.402777  1
  Nd  Nd4  1  0.526822  0.322540  0.402376  1
  Nd  Nd5  1  0.026822  0.177460  0.097624  1
  Nd  Nd6  1  0.473236  0.677418  0.902364  1
  Nd  Nd7  1  0.973236  0.822582  0.597636  1
  Ho  Ho8  1  0.632728  0.157917  0.622543  1
  Ho  Ho9  1  0.132728  0.342083  0.877457  1
  Ho  Ho10  1  0.367161  0.841780  0.122580  1
  Ho  Ho11  1  0.867161  0.658220  0.377420  1
  Ho  Ho12  1  0.367171  0.842002  0.377816  1
  Ho  Ho13  1  0.867171  0.657998  0.122184  1
  Lu  Lu14  1  0.633027  0.157804  0.877071  1
  Lu  Lu15  1  0.133027  0.342196  0.622929  1
  Lu  Lu16  1  0.799187  0.493743  0.750032  1
  Lu  Lu17  1  0.299187  0.006257  0.749968  1
  Lu  Lu18  1  0.200835  0.505584  0.250071  1
  Lu  Lu19  1  0.700835  0.994416  0.249929  1
  Pb  Pb20  1  0.706686  0.959962  0.456187  1
  Pb  Pb21  1  0.206686  0.540038  0.043813  1
  Pb  Pb22  1  0.294937  0.040556  0.955837  1
  Pb  Pb23  1  0.794937  0.459444  0.544163  1
  Pb  Pb24  1  0.292308  0.041750  0.544320  1
  Pb  Pb25  1  0.792308  0.458250  0.955680  1
  Pb  Pb26  1  0.706300  0.960727  0.042919  1
  Pb  Pb27  1  0.206300  0.539273  0.457081  1
  Pb  Pb28  1  0.437691  0.371042  0.750138  1
  Pb  Pb29  1  0.937691  0.128958  0.749862  1
  Pb  Pb30  1  0.562332  0.628328  0.250004  1
  Pb  Pb31  1  0.062332  0.871672  0.249996  1
  Pb  Pb32  1  0.662170  0.848157  0.750241  1
  Pb  Pb33  1  0.162170  0.651843  0.749759  1
  Pb  Pb34  1  0.337500  0.152294  0.249990  1
  Pb  Pb35  1  0.837500  0.347706  0.250010  1
