# generated using pymatgen
data_Pu5CCl8
_symmetry_space_group_name_H-M   'P 1'
_cell_length_a   10.20033375
_cell_length_b   10.20033395
_cell_length_c   13.43120900
_cell_angle_alpha   51.06012524
_cell_angle_beta   51.06012435
_cell_angle_gamma   22.03662506
_symmetry_Int_Tables_number   1
_chemical_formula_structural   Pu5CCl8
_chemical_formula_sum   'Pu5 C1 Cl8'
_cell_volume   402.74850333
_cell_formula_units_Z   1
loop_
 _symmetry_equiv_pos_site_id
 _symmetry_equiv_pos_as_xyz
  1  'x, y, z'
loop_
 _atom_site_type_symbol
 _atom_site_label
 _atom_site_symmetry_multiplicity
 _atom_site_fract_x
 _atom_site_fract_y
 _atom_site_fract_z
 _atom_site_occupancy
  Pu  Pu0  1  0.162827  0.162827  0.324454  1
  Pu  Pu1  1  0.837173  0.837173  0.675546  1
  Pu  Pu2  1  0.511735  0.511735  0.614025  1
  Pu  Pu3  1  0.488265  0.488265  0.385975  1
  Pu  Pu4  1  0.000000  0.000000  0.000000  1
  C  C5  1  0.000000  0.000000  0.500000  1
  Cl  Cl6  1  0.973789  0.973789  0.233180  1
  Cl  Cl7  1  0.026211  0.026211  0.766820  1
  Cl  Cl8  1  0.667662  0.667662  0.170074  1
  Cl  Cl9  1  0.332338  0.332338  0.829926  1
  Cl  Cl10  1  0.304934  0.304934  0.560990  1
  Cl  Cl11  1  0.695066  0.695066  0.439010  1
  Cl  Cl12  1  0.629701  0.629701  0.895811  1
  Cl  Cl13  1  0.370299  0.370299  0.104189  1
