# generated using pymatgen
data_Nd3EuZr3TaO14
_symmetry_space_group_name_H-M   'P 1'
_cell_length_a   7.64179618
_cell_length_b   7.64179811
_cell_length_c   7.64179596
_cell_angle_alpha   60.02029080
_cell_angle_beta   60.02028718
_cell_angle_gamma   60.02028946
_symmetry_Int_Tables_number   1
_chemical_formula_structural   Nd3EuZr3TaO14
_chemical_formula_sum   'Nd3 Eu1 Zr3 Ta1 O14'
_cell_volume   315.69750999
_cell_formula_units_Z   1
loop_
 _symmetry_equiv_pos_site_id
 _symmetry_equiv_pos_as_xyz
  1  'x, y, z'
loop_
 _atom_site_type_symbol
 _atom_site_label
 _atom_site_symmetry_multiplicity
 _atom_site_fract_x
 _atom_site_fract_y
 _atom_site_fract_z
 _atom_site_occupancy
  Nd  Nd0  1  0.625000  0.125000  0.625000  1
  Nd  Nd1  1  0.625000  0.625000  0.125000  1
  Nd  Nd2  1  0.125000  0.625000  0.625000  1
  Eu  Eu3  1  0.625000  0.625000  0.625000  1
  Zr  Zr4  1  0.625000  0.125000  0.125000  1
  Zr  Zr5  1  0.125000  0.125000  0.625000  1
  Zr  Zr6  1  0.125000  0.625000  0.125000  1
  Ta  Ta7  1  0.125000  0.125000  0.125000  1
  O  O8  1  0.197006  0.791090  0.791090  1
  O  O9  1  0.791090  0.791090  0.197006  1
  O  O10  1  0.791090  0.197006  0.791090  1
  O  O11  1  0.199269  0.810163  0.199269  1
  O  O12  1  0.199269  0.199269  0.810163  1
  O  O13  1  0.810163  0.199269  0.199269  1
  O  O14  1  0.439837  0.050731  0.050731  1
  O  O15  1  0.050731  0.050731  0.439837  1
  O  O16  1  0.050731  0.439837  0.050731  1
  O  O17  1  0.458910  0.052994  0.458910  1
  O  O18  1  0.755201  0.755201  0.755201  1
  O  O19  1  0.458910  0.458910  0.052994  1
  O  O20  1  0.052994  0.458910  0.458910  1
  O  O21  1  0.494799  0.494799  0.494799  1
