# generated using pymatgen
data_Mg5Si16Ir2Pd5Pt3
_symmetry_space_group_name_H-M   'P 1'
_cell_length_a   8.91706017
_cell_length_b   8.93245853
_cell_length_c   8.93258651
_cell_angle_alpha   59.88869189
_cell_angle_beta   60.01172070
_cell_angle_gamma   60.06408443
_symmetry_Int_Tables_number   1
_chemical_formula_structural   Mg5Si16Ir2Pd5Pt3
_chemical_formula_sum   'Mg5 Si16 Ir2 Pd5 Pt3'
_cell_volume   502.96323818
_cell_formula_units_Z   1
loop_
 _symmetry_equiv_pos_site_id
 _symmetry_equiv_pos_as_xyz
  1  'x, y, z'
loop_
 _atom_site_type_symbol
 _atom_site_label
 _atom_site_symmetry_multiplicity
 _atom_site_fract_x
 _atom_site_fract_y
 _atom_site_fract_z
 _atom_site_occupancy
  Mg  Mg0  1  0.199648  0.600248  0.599978  1
  Mg  Mg1  1  0.599323  0.599129  0.200482  1
  Mg  Mg2  1  0.599574  0.601228  0.600846  1
  Mg  Mg3  1  0.600272  0.198090  0.600113  1
  Mg  Mg4  1  0.250427  0.243936  0.255672  1
  Si  Si5  1  0.204527  0.663808  0.203843  1
  Si  Si6  1  0.927594  0.663793  0.203984  1
  Si  Si7  1  0.208974  0.199014  0.663119  1
  Si  Si8  1  0.660079  0.202964  0.212004  1
  Si  Si9  1  0.929945  0.198623  0.663677  1
  Si  Si10  1  0.206262  0.661464  0.925847  1
  Si  Si11  1  0.925356  0.203298  0.211425  1
  Si  Si12  1  0.662328  0.926660  0.209982  1
  Si  Si13  1  0.200737  0.927376  0.209537  1
  Si  Si14  1  0.208697  0.924492  0.658160  1
  Si  Si15  1  0.533461  0.826946  0.816002  1
  Si  Si16  1  0.824738  0.828551  0.815137  1
  Si  Si17  1  0.664636  0.202967  0.930410  1
  Si  Si18  1  0.822191  0.830617  0.526732  1
  Si  Si19  1  0.821268  0.539263  0.817358  1
  Si  Si20  1  0.202568  0.203788  0.929696  1
  Ir  Ir21  1  0.989461  0.988863  0.510956  1
  Ir  Ir22  1  0.512475  0.985961  0.512388  1
  Pd  Pd23  1  0.863335  0.381469  0.379778  1
  Pd  Pd24  1  0.983803  0.514598  0.513989  1
  Pd  Pd25  1  0.515782  0.515853  0.984385  1
  Pd  Pd26  1  0.382440  0.859457  0.375340  1
  Pd  Pd27  1  0.514605  0.983528  0.987489  1
  Pt  Pt28  1  0.980888  0.516808  0.985773  1
  Pt  Pt29  1  0.379315  0.375231  0.867732  1
  Pt  Pt30  1  0.375291  0.381976  0.378164  1
