# generated using pymatgen
data_SmLu15(ScIr3)4
_symmetry_space_group_name_H-M   'P 1'
_cell_length_a   10.59294800
_cell_length_b   10.59707724
_cell_length_c   6.18473600
_cell_angle_alpha   89.98865663
_cell_angle_beta   90.00061661
_cell_angle_gamma   90.00463371
_symmetry_Int_Tables_number   1
_chemical_formula_structural   SmLu15(ScIr3)4
_chemical_formula_sum   'Sm1 Lu15 Sc4 Ir12'
_cell_volume   694.26312138
_cell_formula_units_Z   1
loop_
 _symmetry_equiv_pos_site_id
 _symmetry_equiv_pos_as_xyz
  1  'x, y, z'
loop_
 _atom_site_type_symbol
 _atom_site_label
 _atom_site_symmetry_multiplicity
 _atom_site_fract_x
 _atom_site_fract_y
 _atom_site_fract_z
 _atom_site_occupancy
  Sm  Sm0  1  0.087267  0.286455  0.126666  1
  Lu  Lu1  1  0.290245  0.084255  0.376852  1
  Lu  Lu2  1  0.288917  0.913803  0.876462  1
  Lu  Lu3  1  0.711002  0.085732  0.875366  1
  Lu  Lu4  1  0.711140  0.913848  0.375826  1
  Lu  Lu5  1  0.585929  0.788766  0.876135  1
  Lu  Lu6  1  0.585891  0.211014  0.376062  1
  Lu  Lu7  1  0.414252  0.788572  0.375885  1
  Lu  Lu8  1  0.414474  0.211024  0.875341  1
  Lu  Lu9  1  0.211718  0.415262  0.623979  1
  Lu  Lu10  1  0.211359  0.587425  0.124072  1
  Lu  Lu11  1  0.787709  0.414841  0.123982  1
  Lu  Lu12  1  0.788293  0.586221  0.624340  1
  Lu  Lu13  1  0.913875  0.711466  0.124198  1
  Lu  Lu14  1  0.912692  0.289345  0.624154  1
  Lu  Lu15  1  0.086095  0.711525  0.624167  1
  Sc  Sc16  1  0.999699  0.999666  0.500088  1
  Sc  Sc17  1  0.999337  0.998560  0.999238  1
  Sc  Sc18  1  0.500128  0.500362  0.999436  1
  Sc  Sc19  1  0.500296  0.500143  0.499777  1
  Ir  Ir20  1  0.846991  0.148447  0.251808  1
  Ir  Ir21  1  0.850017  0.849806  0.750186  1
  Ir  Ir22  1  0.151009  0.148107  0.743938  1
  Ir  Ir23  1  0.150101  0.849963  0.249864  1
  Ir  Ir24  1  0.649916  0.349936  0.750185  1
  Ir  Ir25  1  0.649998  0.649757  0.249980  1
  Ir  Ir26  1  0.353386  0.350837  0.251706  1
  Ir  Ir27  1  0.350299  0.649943  0.750197  1
  Ir  Ir28  1  0.500378  0.999805  0.122876  1
  Ir  Ir29  1  0.500042  0.999640  0.623214  1
  Ir  Ir30  1  0.998830  0.502814  0.874574  1
  Ir  Ir31  1  0.998716  0.502662  0.379443  1
