# generated using pymatgen
data_YbY4Er2IrI12
_symmetry_space_group_name_H-M   'P 1'
_cell_length_a   9.80440716
_cell_length_b   9.82248395
_cell_length_c   9.77138157
_cell_angle_alpha   107.08226553
_cell_angle_beta   107.17888968
_cell_angle_gamma   106.84029109
_symmetry_Int_Tables_number   1
_chemical_formula_structural   YbY4Er2IrI12
_chemical_formula_sum   'Yb1 Y4 Er2 Ir1 I12'
_cell_volume   782.96042855
_cell_formula_units_Z   1
loop_
 _symmetry_equiv_pos_site_id
 _symmetry_equiv_pos_as_xyz
  1  'x, y, z'
loop_
 _atom_site_type_symbol
 _atom_site_label
 _atom_site_symmetry_multiplicity
 _atom_site_fract_x
 _atom_site_fract_y
 _atom_site_fract_z
 _atom_site_occupancy
  Yb  Yb0  1  0.500041  0.500042  0.500006  1
  Y  Y1  1  0.093254  0.022457  0.293956  1
  Y  Y2  1  0.302177  0.096723  0.023216  1
  Y  Y3  1  0.024363  0.302067  0.096128  1
  Y  Y4  1  0.905329  0.976769  0.705598  1
  Er  Er5  1  0.701342  0.902779  0.976536  1
  Er  Er6  1  0.975360  0.701568  0.904832  1
  Ir  Ir7  1  0.999522  0.999562  0.999707  1
  I  I8  1  0.071901  0.677667  0.223561  1
  I  I9  1  0.223548  0.071323  0.676959  1
  I  I10  1  0.676475  0.221463  0.071170  1
  I  I11  1  0.927661  0.322960  0.774475  1
  I  I12  1  0.774807  0.928330  0.321174  1
  I  I13  1  0.322207  0.774863  0.927846  1
  I  I14  1  0.456048  0.151852  0.379596  1
  I  I15  1  0.379941  0.457592  0.151818  1
  I  I16  1  0.152025  0.378712  0.456886  1
  I  I17  1  0.543471  0.848214  0.622400  1
  I  I18  1  0.621671  0.544186  0.849078  1
  I  I19  1  0.848859  0.620872  0.545060  1
