# generated using pymatgen
data_NdDy3RuRh3O14
_symmetry_space_group_name_H-M   'P 1'
_cell_length_a   7.32028754
_cell_length_b   7.32028681
_cell_length_c   7.32028695
_cell_angle_alpha   59.13050353
_cell_angle_beta   59.13049802
_cell_angle_gamma   59.13049636
_symmetry_Int_Tables_number   1
_chemical_formula_structural   NdDy3RuRh3O14
_chemical_formula_sum   'Nd1 Dy3 Ru1 Rh3 O14'
_cell_volume   271.87910409
_cell_formula_units_Z   1
loop_
 _symmetry_equiv_pos_site_id
 _symmetry_equiv_pos_as_xyz
  1  'x, y, z'
loop_
 _atom_site_type_symbol
 _atom_site_label
 _atom_site_symmetry_multiplicity
 _atom_site_fract_x
 _atom_site_fract_y
 _atom_site_fract_z
 _atom_site_occupancy
  Nd  Nd0  1  0.125000  0.125000  0.125000  1
  Dy  Dy1  1  0.125000  0.125000  0.625000  1
  Dy  Dy2  1  0.125000  0.625000  0.125000  1
  Dy  Dy3  1  0.625000  0.125000  0.125000  1
  Ru  Ru4  1  0.625000  0.625000  0.625000  1
  Rh  Rh5  1  0.625000  0.625000  0.125000  1
  Rh  Rh6  1  0.625000  0.125000  0.625000  1
  Rh  Rh7  1  0.125000  0.625000  0.625000  1
  O  O8  1  0.253149  0.253149  0.253149  1
  O  O9  1  0.996851  0.996851  0.996851  1
  O  O10  1  0.287646  0.701896  0.287646  1
  O  O11  1  0.541618  0.956086  0.541618  1
  O  O12  1  0.287646  0.287646  0.701896  1
  O  O13  1  0.701896  0.287646  0.287646  1
  O  O14  1  0.293914  0.708382  0.708382  1
  O  O15  1  0.708382  0.708382  0.293914  1
  O  O16  1  0.708382  0.293914  0.708382  1
  O  O17  1  0.956086  0.541618  0.541618  1
  O  O18  1  0.548104  0.962354  0.962354  1
  O  O19  1  0.962354  0.548104  0.962354  1
  O  O20  1  0.541618  0.541618  0.956086  1
  O  O21  1  0.962354  0.962354  0.548104  1
