# generated using pymatgen
data_Ti3Nb3(B2Ru5)2
_symmetry_space_group_name_H-M   'P 1'
_cell_length_a   9.34093968
_cell_length_b   9.34093968
_cell_length_c   3.01673500
_cell_angle_alpha   90.00000000
_cell_angle_beta   90.00000000
_cell_angle_gamma   89.70155180
_symmetry_Int_Tables_number   1
_chemical_formula_structural   Ti3Nb3(B2Ru5)2
_chemical_formula_sum   'Ti3 Nb3 B4 Ru10'
_cell_volume   263.21607296
_cell_formula_units_Z   1
loop_
 _symmetry_equiv_pos_site_id
 _symmetry_equiv_pos_as_xyz
  1  'x, y, z'
loop_
 _atom_site_type_symbol
 _atom_site_label
 _atom_site_symmetry_multiplicity
 _atom_site_fract_x
 _atom_site_fract_y
 _atom_site_fract_z
 _atom_site_occupancy
  Ti  Ti0  1  0.822803  0.677197  0.000000  1
  Ti  Ti1  1  0.501233  0.500594  0.000000  1
  Ti  Ti2  1  0.999406  0.998767  0.000000  1
  Nb  Nb3  1  0.175769  0.324231  0.000000  1
  Nb  Nb4  1  0.323072  0.822629  0.000000  1
  Nb  Nb5  1  0.677371  0.176928  0.000000  1
  B  B6  1  0.625210  0.874790  0.000000  1
  B  B7  1  0.376374  0.123626  0.000000  1
  B  B8  1  0.122130  0.623448  0.000000  1
  B  B9  1  0.876552  0.377870  0.000000  1
  Ru  Ru10  1  0.572074  0.715068  0.500000  1
  Ru  Ru11  1  0.429704  0.284147  0.500000  1
  Ru  Ru12  1  0.070186  0.784468  0.500000  1
  Ru  Ru13  1  0.930310  0.216099  0.500000  1
  Ru  Ru14  1  0.283901  0.569690  0.500000  1
  Ru  Ru15  1  0.715532  0.429814  0.500000  1
  Ru  Ru16  1  0.215853  0.070296  0.500000  1
  Ru  Ru17  1  0.784932  0.927926  0.500000  1
  Ru  Ru18  1  0.500405  0.999595  0.500000  1
  Ru  Ru19  1  0.997183  0.502817  0.500000  1
