# generated using pymatgen
data_LiDy(ScHg2)2
_symmetry_space_group_name_H-M   'P 1'
_cell_length_a   7.09761300
_cell_length_b   7.09621100
_cell_length_c   7.07584800
_cell_angle_alpha   89.99993511
_cell_angle_beta   89.99949103
_cell_angle_gamma   90.00020991
_symmetry_Int_Tables_number   1
_chemical_formula_structural   LiDy(ScHg2)2
_chemical_formula_sum   'Li2 Dy2 Sc4 Hg8'
_cell_volume   356.38328857
_cell_formula_units_Z   2
loop_
 _symmetry_equiv_pos_site_id
 _symmetry_equiv_pos_as_xyz
  1  'x, y, z'
loop_
 _atom_site_type_symbol
 _atom_site_label
 _atom_site_symmetry_multiplicity
 _atom_site_fract_x
 _atom_site_fract_y
 _atom_site_fract_z
 _atom_site_occupancy
  Li  Li0  1  0.749924  0.249995  0.499970  1
  Li  Li1  1  0.250076  0.750006  0.500030  1
  Dy  Dy2  1  0.750058  0.249997  0.000030  1
  Dy  Dy3  1  0.249943  0.750003  0.999970  1
  Sc  Sc4  1  0.249893  0.249998  0.000007  1
  Sc  Sc5  1  0.750106  0.750002  0.999993  1
  Sc  Sc6  1  0.749887  0.749972  0.499984  1
  Sc  Sc7  1  0.250113  0.250028  0.500017  1
  Hg  Hg8  1  0.499968  0.999995  0.265366  1
  Hg  Hg9  1  0.499970  0.500023  0.265360  1
  Hg  Hg10  1  0.000001  0.999997  0.265556  1
  Hg  Hg11  1  0.000013  0.499993  0.265547  1
  Hg  Hg12  1  0.999999  0.000003  0.734444  1
  Hg  Hg13  1  0.999987  0.500007  0.734453  1
  Hg  Hg14  1  0.500030  0.499977  0.734639  1
  Hg  Hg15  1  0.500031  0.000005  0.734634  1
