# generated using pymatgen
data_CaErCd(P3Pd10)2
_symmetry_space_group_name_H-M   'P 1'
_cell_length_a   8.65642442
_cell_length_b   8.65642472
_cell_length_c   8.65642400
_cell_angle_alpha   59.99999512
_cell_angle_beta   59.99999397
_cell_angle_gamma   59.99999933
_symmetry_Int_Tables_number   1
_chemical_formula_structural   CaErCd(P3Pd10)2
_chemical_formula_sum   'Ca1 Er1 Cd1 P6 Pd20'
_cell_volume   458.67026145
_cell_formula_units_Z   1
loop_
 _symmetry_equiv_pos_site_id
 _symmetry_equiv_pos_as_xyz
  1  'x, y, z'
loop_
 _atom_site_type_symbol
 _atom_site_label
 _atom_site_symmetry_multiplicity
 _atom_site_fract_x
 _atom_site_fract_y
 _atom_site_fract_z
 _atom_site_occupancy
  Ca  Ca0  1  0.000000  0.000000  0.000000  1
  Er  Er1  1  0.250000  0.250000  0.250000  1
  Cd  Cd2  1  0.750000  0.750000  0.750000  1
  P  P3  1  0.736162  0.263838  0.263838  1
  P  P4  1  0.736162  0.736162  0.263838  1
  P  P5  1  0.736162  0.263838  0.736162  1
  P  P6  1  0.263838  0.736162  0.263838  1
  P  P7  1  0.263838  0.736162  0.736162  1
  P  P8  1  0.263838  0.263838  0.736162  1
  Pd  Pd9  1  0.343709  0.002080  0.002080  1
  Pd  Pd10  1  0.002080  0.652133  0.343709  1
  Pd  Pd11  1  0.343709  0.002080  0.652133  1
  Pd  Pd12  1  0.002080  0.652133  0.002080  1
  Pd  Pd13  1  0.652133  0.343709  0.002080  1
  Pd  Pd14  1  0.617016  0.617016  0.148952  1
  Pd  Pd15  1  0.385263  0.844213  0.385263  1
  Pd  Pd16  1  0.148952  0.617016  0.617016  1
  Pd  Pd17  1  0.652133  0.002080  0.343709  1
  Pd  Pd18  1  0.002080  0.343709  0.652133  1
  Pd  Pd19  1  0.652133  0.002080  0.002080  1
  Pd  Pd20  1  0.002080  0.002080  0.343709  1
  Pd  Pd21  1  0.617016  0.148952  0.617016  1
  Pd  Pd22  1  0.343709  0.652133  0.002080  1
  Pd  Pd23  1  0.385263  0.385263  0.385263  1
  Pd  Pd24  1  0.617016  0.617016  0.617016  1
  Pd  Pd25  1  0.385263  0.385263  0.844213  1
  Pd  Pd26  1  0.002080  0.002080  0.652133  1
  Pd  Pd27  1  0.844213  0.385263  0.385263  1
  Pd  Pd28  1  0.002080  0.343709  0.002080  1
