# generated using pymatgen
data_Er4Tm8Co5Sb
_symmetry_space_group_name_H-M   'P 1'
_cell_length_a   8.17214021
_cell_length_b   8.17214081
_cell_length_c   8.17213911
_cell_angle_alpha   110.91049547
_cell_angle_beta   110.90417285
_cell_angle_gamma   106.63566469
_symmetry_Int_Tables_number   1
_chemical_formula_structural   Er4Tm8Co5Sb
_chemical_formula_sum   'Er4 Tm8 Co5 Sb1'
_cell_volume   419.36484047
_cell_formula_units_Z   1
loop_
 _symmetry_equiv_pos_site_id
 _symmetry_equiv_pos_as_xyz
  1  'x, y, z'
loop_
 _atom_site_type_symbol
 _atom_site_label
 _atom_site_symmetry_multiplicity
 _atom_site_fract_x
 _atom_site_fract_y
 _atom_site_fract_z
 _atom_site_occupancy
  Er  Er0  1  0.285889  0.184174  0.470063  1
  Er  Er1  1  0.714111  0.815826  0.529937  1
  Er  Er2  1  0.285889  0.815826  0.101714  1
  Er  Er3  1  0.714111  0.184174  0.898286  1
  Tm  Tm4  1  0.619736  0.312489  0.307248  1
  Tm  Tm5  1  0.380264  0.687511  0.692752  1
  Tm  Tm6  1  0.005242  0.312489  0.692752  1
  Tm  Tm7  1  0.994758  0.687511  0.307248  1
  Tm  Tm8  1  0.212138  0.407187  0.195049  1
  Tm  Tm9  1  0.787862  0.592813  0.804951  1
  Tm  Tm10  1  0.212138  0.017089  0.804951  1
  Tm  Tm11  1  0.787862  0.982911  0.195049  1
  Co  Co12  1  0.000000  0.373722  0.373722  1
  Co  Co13  1  0.000000  0.626278  0.626278  1
  Co  Co14  1  0.387474  0.887474  0.500000  1
  Co  Co15  1  0.612526  0.112526  0.500000  1
  Co  Co16  1  0.000000  0.000000  0.000000  1
  Sb  Sb17  1  0.500000  0.500000  0.000000  1
