# generated using pymatgen
data_Hf3Co2TcN
_symmetry_space_group_name_H-M   'P 1'
_cell_length_a   8.32231370
_cell_length_b   8.32231403
_cell_length_c   8.32231500
_cell_angle_alpha   60.00000011
_cell_angle_beta   59.99999882
_cell_angle_gamma   60.00000050
_symmetry_Int_Tables_number   1
_chemical_formula_structural   Hf3Co2TcN
_chemical_formula_sum   'Hf12 Co8 Tc4 N4'
_cell_volume   407.58419169
_cell_formula_units_Z   4
loop_
 _symmetry_equiv_pos_site_id
 _symmetry_equiv_pos_as_xyz
  1  'x, y, z'
loop_
 _atom_site_type_symbol
 _atom_site_label
 _atom_site_symmetry_multiplicity
 _atom_site_fract_x
 _atom_site_fract_y
 _atom_site_fract_z
 _atom_site_occupancy
  Hf  Hf0  1  0.194181  0.194181  0.805819  1
  Hf  Hf1  1  0.444181  0.055819  0.055819  1
  Hf  Hf2  1  0.055819  0.444181  0.444181  1
  Hf  Hf3  1  0.444181  0.444181  0.055819  1
  Hf  Hf4  1  0.444181  0.055819  0.444181  1
  Hf  Hf5  1  0.055819  0.444181  0.055819  1
  Hf  Hf6  1  0.805819  0.194181  0.805819  1
  Hf  Hf7  1  0.805819  0.194181  0.194181  1
  Hf  Hf8  1  0.194181  0.805819  0.805819  1
  Hf  Hf9  1  0.194181  0.805819  0.194181  1
  Hf  Hf10  1  0.055819  0.055819  0.444181  1
  Hf  Hf11  1  0.805819  0.805819  0.194181  1
  Co  Co12  1  0.824976  0.525073  0.824976  1
  Co  Co13  1  0.425024  0.425024  0.724927  1
  Co  Co14  1  0.724927  0.425024  0.425024  1
  Co  Co15  1  0.425024  0.425024  0.425024  1
  Co  Co16  1  0.525073  0.824976  0.824976  1
  Co  Co17  1  0.824976  0.824976  0.824976  1
  Co  Co18  1  0.824976  0.824976  0.525073  1
  Co  Co19  1  0.425024  0.724927  0.425024  1
  Tc  Tc20  1  0.625000  0.125000  0.625000  1
  Tc  Tc21  1  0.625000  0.625000  0.125000  1
  Tc  Tc22  1  0.125000  0.625000  0.625000  1
  Tc  Tc23  1  0.625000  0.625000  0.625000  1
  N  N24  1  0.125000  0.625000  0.125000  1
  N  N25  1  0.125000  0.125000  0.625000  1
  N  N26  1  0.625000  0.125000  0.125000  1
  N  N27  1  0.125000  0.125000  0.125000  1
