# generated using pymatgen
data_Y3Tm5(AlNi)2
_symmetry_space_group_name_H-M   'P 1'
_cell_length_a   9.36653006
_cell_length_b   9.36653043
_cell_length_c   9.36653000
_cell_angle_alpha   60.00000151
_cell_angle_beta   60.00000023
_cell_angle_gamma   59.99999736
_symmetry_Int_Tables_number   1
_chemical_formula_structural   Y3Tm5(AlNi)2
_chemical_formula_sum   'Y6 Tm10 Al4 Ni4'
_cell_volume   581.06030461
_cell_formula_units_Z   2
loop_
 _symmetry_equiv_pos_site_id
 _symmetry_equiv_pos_as_xyz
  1  'x, y, z'
loop_
 _atom_site_type_symbol
 _atom_site_label
 _atom_site_symmetry_multiplicity
 _atom_site_fract_x
 _atom_site_fract_y
 _atom_site_fract_z
 _atom_site_occupancy
  Y  Y0  1  0.187460  0.812540  0.812540  1
  Y  Y1  1  0.812540  0.187460  0.187460  1
  Y  Y2  1  0.812540  0.187460  0.812540  1
  Y  Y3  1  0.187460  0.812540  0.187460  1
  Y  Y4  1  0.812540  0.812540  0.187460  1
  Y  Y5  1  0.187460  0.187460  0.812540  1
  Tm  Tm6  1  0.600525  0.600525  0.600525  1
  Tm  Tm7  1  0.600525  0.600525  0.198423  1
  Tm  Tm8  1  0.600525  0.198423  0.600525  1
  Tm  Tm9  1  0.198423  0.600525  0.600525  1
  Tm  Tm10  1  0.060355  0.439645  0.439645  1
  Tm  Tm11  1  0.439645  0.060355  0.060355  1
  Tm  Tm12  1  0.439645  0.060355  0.439645  1
  Tm  Tm13  1  0.060355  0.439645  0.060355  1
  Tm  Tm14  1  0.439645  0.439645  0.060355  1
  Tm  Tm15  1  0.060355  0.060355  0.439645  1
  Al  Al16  1  0.826892  0.826892  0.826892  1
  Al  Al17  1  0.826892  0.826892  0.519321  1
  Al  Al18  1  0.826892  0.519321  0.826892  1
  Al  Al19  1  0.519321  0.826892  0.826892  1
  Ni  Ni20  1  0.392834  0.392834  0.392834  1
  Ni  Ni21  1  0.392834  0.392834  0.821501  1
  Ni  Ni22  1  0.392834  0.821501  0.392834  1
  Ni  Ni23  1  0.821501  0.392834  0.392834  1
