# generated using pymatgen
data_Nd3LuSc6(Si5Ir2)4
_symmetry_space_group_name_H-M   'P 1'
_cell_length_a   12.51937914
_cell_length_b   12.51937943
_cell_length_c   4.18173300
_cell_angle_alpha   90.00000000
_cell_angle_beta   90.00000000
_cell_angle_gamma   90.22025235
_symmetry_Int_Tables_number   1
_chemical_formula_structural   Nd3LuSc6(Si5Ir2)4
_chemical_formula_sum   'Nd3 Lu1 Sc6 Si20 Ir8'
_cell_volume   655.41848415
_cell_formula_units_Z   1
loop_
 _symmetry_equiv_pos_site_id
 _symmetry_equiv_pos_as_xyz
  1  'x, y, z'
loop_
 _atom_site_type_symbol
 _atom_site_label
 _atom_site_symmetry_multiplicity
 _atom_site_fract_x
 _atom_site_fract_y
 _atom_site_fract_z
 _atom_site_occupancy
  Nd  Nd0  1  0.115744  0.615667  0.500000  1
  Nd  Nd1  1  0.884333  0.384256  0.500000  1
  Nd  Nd2  1  0.614862  0.885138  0.500000  1
  Lu  Lu3  1  0.384674  0.115326  0.500000  1
  Sc  Sc4  1  0.673285  0.174621  0.500000  1
  Sc  Sc5  1  0.325379  0.826715  0.500000  1
  Sc  Sc6  1  0.175509  0.324491  0.500000  1
  Sc  Sc7  1  0.825613  0.674387  0.500000  1
  Sc  Sc8  1  0.001020  0.000029  0.000000  1
  Sc  Sc9  1  0.499971  0.498980  0.000000  1
  Si  Si10  1  0.567409  0.068585  0.000000  1
  Si  Si11  1  0.431415  0.932591  0.000000  1
  Si  Si12  1  0.069645  0.430355  0.000000  1
  Si  Si13  1  0.930784  0.569216  0.000000  1
  Si  Si14  1  0.201283  0.165136  0.000000  1
  Si  Si15  1  0.800345  0.835259  0.000000  1
  Si  Si16  1  0.165701  0.802018  0.000000  1
  Si  Si17  1  0.697982  0.334299  0.000000  1
  Si  Si18  1  0.834633  0.199655  0.000000  1
  Si  Si19  1  0.300345  0.665367  0.000000  1
  Si  Si20  1  0.664741  0.699655  0.000000  1
  Si  Si21  1  0.334864  0.298717  0.000000  1
  Si  Si22  1  0.009157  0.149744  0.500000  1
  Si  Si23  1  0.992055  0.850564  0.500000  1
  Si  Si24  1  0.152438  0.993037  0.500000  1
  Si  Si25  1  0.506963  0.347562  0.500000  1
  Si  Si26  1  0.849834  0.010023  0.500000  1
  Si  Si27  1  0.489977  0.650166  0.500000  1
  Si  Si28  1  0.649436  0.507945  0.500000  1
  Si  Si29  1  0.350256  0.490843  0.500000  1
  Ir  Ir30  1  0.022813  0.241149  0.000000  1
  Ir  Ir31  1  0.978026  0.758910  0.000000  1
  Ir  Ir32  1  0.245468  0.980829  0.000000  1
  Ir  Ir33  1  0.519171  0.254532  0.000000  1
  Ir  Ir34  1  0.757014  0.022092  0.000000  1
  Ir  Ir35  1  0.477908  0.742986  0.000000  1
  Ir  Ir36  1  0.741090  0.521974  0.000000  1
  Ir  Ir37  1  0.258851  0.477187  0.000000  1
