# generated using pymatgen
data_CeNiP3Rh4
_symmetry_space_group_name_H-M   'P 1'
_cell_length_a   3.90735000
_cell_length_b   10.83957200
_cell_length_c   12.44956100
_cell_angle_alpha   90.00000000
_cell_angle_beta   90.00000000
_cell_angle_gamma   90.00000000
_symmetry_Int_Tables_number   1
_chemical_formula_structural   CeNiP3Rh4
_chemical_formula_sum   'Ce4 Ni4 P12 Rh16'
_cell_volume   527.28872719
_cell_formula_units_Z   4
loop_
 _symmetry_equiv_pos_site_id
 _symmetry_equiv_pos_as_xyz
  1  'x, y, z'
loop_
 _atom_site_type_symbol
 _atom_site_label
 _atom_site_symmetry_multiplicity
 _atom_site_fract_x
 _atom_site_fract_y
 _atom_site_fract_z
 _atom_site_occupancy
  Ce  Ce0  1  0.250000  0.587249  0.706255  1
  Ce  Ce1  1  0.250000  0.912751  0.206255  1
  Ce  Ce2  1  0.750000  0.412751  0.293745  1
  Ce  Ce3  1  0.750000  0.087249  0.793745  1
  Ni  Ni4  1  0.250000  0.465852  0.935103  1
  Ni  Ni5  1  0.250000  0.034148  0.435103  1
  Ni  Ni6  1  0.750000  0.534148  0.064897  1
  Ni  Ni7  1  0.750000  0.965852  0.564897  1
  P  P8  1  0.250000  0.418008  0.107937  1
  P  P9  1  0.250000  0.081992  0.607937  1
  P  P10  1  0.750000  0.581992  0.892063  1
  P  P11  1  0.750000  0.918008  0.392063  1
  P  P12  1  0.250000  0.275017  0.872416  1
  P  P13  1  0.250000  0.224983  0.372416  1
  P  P14  1  0.750000  0.724983  0.127584  1
  P  P15  1  0.750000  0.775017  0.627584  1
  P  P16  1  0.250000  0.600600  0.387614  1
  P  P17  1  0.250000  0.899400  0.887614  1
  P  P18  1  0.750000  0.399400  0.612386  1
  P  P19  1  0.750000  0.100600  0.112386  1
  Rh  Rh20  1  0.250000  0.711293  0.979243  1
  Rh  Rh21  1  0.250000  0.788707  0.479243  1
  Rh  Rh22  1  0.750000  0.288707  0.020757  1
  Rh  Rh23  1  0.750000  0.211293  0.520757  1
  Rh  Rh24  1  0.250000  0.407697  0.479658  1
  Rh  Rh25  1  0.250000  0.092303  0.979658  1
  Rh  Rh26  1  0.750000  0.592303  0.520342  1
  Rh  Rh27  1  0.750000  0.907697  0.020342  1
  Rh  Rh28  1  0.250000  0.222815  0.179180  1
  Rh  Rh29  1  0.250000  0.277185  0.679180  1
  Rh  Rh30  1  0.750000  0.777185  0.820820  1
  Rh  Rh31  1  0.750000  0.722815  0.320820  1
  Rh  Rh32  1  0.250000  0.887790  0.695707  1
  Rh  Rh33  1  0.250000  0.612210  0.195707  1
  Rh  Rh34  1  0.750000  0.112210  0.304293  1
  Rh  Rh35  1  0.750000  0.387790  0.804293  1
