# generated using pymatgen
data_K3Li(AlI4)4
_symmetry_space_group_name_H-M   'P 1'
_cell_length_a   8.54462700
_cell_length_b   8.81951281
_cell_length_c   15.86554593
_cell_angle_alpha   89.72605640
_cell_angle_beta   90.00000000
_cell_angle_gamma   90.00000000
_symmetry_Int_Tables_number   1
_chemical_formula_structural   K3Li(AlI4)4
_chemical_formula_sum   'K3 Li1 Al4 I16'
_cell_volume   1195.60510644
_cell_formula_units_Z   1
loop_
 _symmetry_equiv_pos_site_id
 _symmetry_equiv_pos_as_xyz
  1  'x, y, z'
loop_
 _atom_site_type_symbol
 _atom_site_label
 _atom_site_symmetry_multiplicity
 _atom_site_fract_x
 _atom_site_fract_y
 _atom_site_fract_z
 _atom_site_occupancy
  K  K0  1  0.250000  0.441108  0.147324  1
  K  K1  1  0.750000  0.944752  0.350175  1
  K  K2  1  0.750000  0.547366  0.841771  1
  Li  Li3  1  0.250000  0.074003  0.645778  1
  Al  Al4  1  0.750000  0.812748  0.605476  1
  Al  Al5  1  0.750000  0.706732  0.103851  1
  Al  Al6  1  0.250000  0.194502  0.408883  1
  Al  Al7  1  0.250000  0.283895  0.883804  1
  I  I8  1  0.250000  0.117576  0.015579  1
  I  I9  1  0.750000  0.627012  0.482052  1
  I  I10  1  0.750000  0.873896  0.972782  1
  I  I11  1  0.250000  0.342109  0.548241  1
  I  I12  1  0.250000  0.914047  0.452015  1
  I  I13  1  0.750000  0.423861  0.064122  1
  I  I14  1  0.750000  0.091100  0.557455  1
  I  I15  1  0.250000  0.564648  0.926882  1
  I  I16  1  0.993654  0.763243  0.194811  1
  I  I17  1  0.010818  0.265566  0.317795  1
  I  I18  1  0.486934  0.225808  0.788921  1
  I  I19  1  0.502557  0.765705  0.695378  1
  I  I20  1  0.013066  0.225808  0.788921  1
  I  I21  1  0.997443  0.765705  0.695378  1
  I  I22  1  0.506346  0.763243  0.194811  1
  I  I23  1  0.489182  0.265566  0.317795  1
