# generated using pymatgen
data_Sr4Zn5NiAu12
_symmetry_space_group_name_H-M   'P 1'
_cell_length_a   8.85847050
_cell_length_b   8.85535330
_cell_length_c   8.85847002
_cell_angle_alpha   57.60800573
_cell_angle_beta   57.45128398
_cell_angle_gamma   57.60801176
_symmetry_Int_Tables_number   1
_chemical_formula_structural   Sr4Zn5NiAu12
_chemical_formula_sum   'Sr4 Zn5 Ni1 Au12'
_cell_volume   463.75230098
_cell_formula_units_Z   1
loop_
 _symmetry_equiv_pos_site_id
 _symmetry_equiv_pos_as_xyz
  1  'x, y, z'
loop_
 _atom_site_type_symbol
 _atom_site_label
 _atom_site_symmetry_multiplicity
 _atom_site_fract_x
 _atom_site_fract_y
 _atom_site_fract_z
 _atom_site_occupancy
  Sr  Sr0  1  0.907821  0.906676  0.906917  1
  Sr  Sr1  1  0.407871  0.408226  0.407648  1
  Sr  Sr2  1  0.092352  0.091774  0.092129  1
  Sr  Sr3  1  0.593083  0.593324  0.592179  1
  Zn  Zn4  1  0.928755  0.567516  0.754526  1
  Zn  Zn5  1  0.745474  0.932484  0.571245  1
  Zn  Zn6  1  0.438365  0.250000  0.061635  1
  Zn  Zn7  1  0.061877  0.439664  0.247540  1
  Zn  Zn8  1  0.252460  0.060336  0.438123  1
  Ni  Ni9  1  0.575132  0.750000  0.924868  1
  Au  Au10  1  0.480217  0.861436  0.200335  1
  Au  Au11  1  0.205327  0.480151  0.862207  1
  Au  Au12  1  0.862098  0.205488  0.477774  1
  Au  Au13  1  0.700383  0.367737  0.981459  1
  Au  Au14  1  0.979995  0.704536  0.364244  1
  Au  Au15  1  0.363469  0.977858  0.708661  1
  Au  Au16  1  0.518541  0.132263  0.799617  1
  Au  Au17  1  0.791339  0.522142  0.136531  1
  Au  Au18  1  0.135756  0.795464  0.520005  1
  Au  Au19  1  0.299665  0.638564  0.019783  1
  Au  Au20  1  0.022226  0.294512  0.637902  1
  Au  Au21  1  0.637793  0.019849  0.294673  1
