# generated using pymatgen
data_Zr10GaSn5Sb2
_symmetry_space_group_name_H-M   'P 1'
_cell_length_a   8.79819887
_cell_length_b   8.79819935
_cell_length_c   5.93028222
_cell_angle_alpha   89.98421859
_cell_angle_beta   89.98421563
_cell_angle_gamma   119.88043285
_symmetry_Int_Tables_number   1
_chemical_formula_structural   Zr10GaSn5Sb2
_chemical_formula_sum   'Zr10 Ga1 Sn5 Sb2'
_cell_volume   398.02971469
_cell_formula_units_Z   1
loop_
 _symmetry_equiv_pos_site_id
 _symmetry_equiv_pos_as_xyz
  1  'x, y, z'
loop_
 _atom_site_type_symbol
 _atom_site_label
 _atom_site_symmetry_multiplicity
 _atom_site_fract_x
 _atom_site_fract_y
 _atom_site_fract_z
 _atom_site_occupancy
  Zr  Zr0  1  0.666228  0.333304  0.000234  1
  Zr  Zr1  1  0.333304  0.666228  0.000234  1
  Zr  Zr2  1  0.333411  0.665973  0.499686  1
  Zr  Zr3  1  0.665973  0.333411  0.499686  1
  Zr  Zr4  1  0.724901  0.724901  0.737244  1
  Zr  Zr5  1  0.274327  0.000830  0.737742  1
  Zr  Zr6  1  0.000830  0.274327  0.737742  1
  Zr  Zr7  1  0.274955  0.274955  0.262274  1
  Zr  Zr8  1  0.725117  0.999409  0.262663  1
  Zr  Zr9  1  0.999409  0.725117  0.262663  1
  Ga  Ga10  1  0.999626  0.999626  0.499712  1
  Sn  Sn11  1  0.611684  0.999958  0.752479  1
  Sn  Sn12  1  0.999958  0.611684  0.752479  1
  Sn  Sn13  1  0.612857  0.612857  0.247663  1
  Sn  Sn14  1  0.388314  0.999521  0.247519  1
  Sn  Sn15  1  0.999521  0.388314  0.247519  1
  Sb  Sb16  1  0.999556  0.999556  0.000370  1
  Sb  Sb17  1  0.390030  0.390030  0.752093  1
