# generated using pymatgen
data_LuCo4As3Ru
_symmetry_space_group_name_H-M   'P 1'
_cell_length_a   3.79470400
_cell_length_b   10.74761600
_cell_length_c   12.21196700
_cell_angle_alpha   90.00000000
_cell_angle_beta   90.00000000
_cell_angle_gamma   90.00000000
_symmetry_Int_Tables_number   1
_chemical_formula_structural   LuCo4As3Ru
_chemical_formula_sum   'Lu4 Co16 As12 Ru4'
_cell_volume   498.05312378
_cell_formula_units_Z   4
loop_
 _symmetry_equiv_pos_site_id
 _symmetry_equiv_pos_as_xyz
  1  'x, y, z'
loop_
 _atom_site_type_symbol
 _atom_site_label
 _atom_site_symmetry_multiplicity
 _atom_site_fract_x
 _atom_site_fract_y
 _atom_site_fract_z
 _atom_site_occupancy
  Lu  Lu0  1  0.250000  0.582663  0.703642  1
  Lu  Lu1  1  0.250000  0.917337  0.203642  1
  Lu  Lu2  1  0.750000  0.417337  0.296358  1
  Lu  Lu3  1  0.750000  0.082663  0.796358  1
  Co  Co4  1  0.250000  0.407487  0.486948  1
  Co  Co5  1  0.250000  0.092513  0.986948  1
  Co  Co6  1  0.750000  0.592513  0.513052  1
  Co  Co7  1  0.750000  0.907487  0.013052  1
  Co  Co8  1  0.250000  0.216875  0.176589  1
  Co  Co9  1  0.250000  0.283125  0.676589  1
  Co  Co10  1  0.750000  0.783125  0.823411  1
  Co  Co11  1  0.750000  0.716875  0.323411  1
  Co  Co12  1  0.250000  0.885774  0.700450  1
  Co  Co13  1  0.250000  0.614226  0.200450  1
  Co  Co14  1  0.750000  0.114226  0.299550  1
  Co  Co15  1  0.750000  0.385774  0.799550  1
  Co  Co16  1  0.250000  0.464849  0.930739  1
  Co  Co17  1  0.250000  0.035151  0.430739  1
  Co  Co18  1  0.750000  0.535151  0.069261  1
  Co  Co19  1  0.750000  0.964849  0.569261  1
  As  As20  1  0.250000  0.417573  0.115097  1
  As  As21  1  0.250000  0.082427  0.615097  1
  As  As22  1  0.750000  0.582427  0.884903  1
  As  As23  1  0.750000  0.917573  0.384903  1
  As  As24  1  0.250000  0.266526  0.866685  1
  As  As25  1  0.250000  0.233474  0.366685  1
  As  As26  1  0.750000  0.733474  0.133315  1
  As  As27  1  0.750000  0.766526  0.633315  1
  As  As28  1  0.250000  0.594853  0.389276  1
  As  As29  1  0.250000  0.905147  0.889276  1
  As  As30  1  0.750000  0.405147  0.610724  1
  As  As31  1  0.750000  0.094853  0.110724  1
  Ru  Ru32  1  0.250000  0.711361  0.990330  1
  Ru  Ru33  1  0.250000  0.788639  0.490330  1
  Ru  Ru34  1  0.750000  0.288639  0.009670  1
  Ru  Ru35  1  0.750000  0.211361  0.509670  1
