# generated using pymatgen
data_Si4NiPt3
_symmetry_space_group_name_H-M   'P 1'
_cell_length_a   3.56095400
_cell_length_b   5.53312348
_cell_length_c   5.93873449
_cell_angle_alpha   89.80890564
_cell_angle_beta   90.00000000
_cell_angle_gamma   90.00000000
_symmetry_Int_Tables_number   1
_chemical_formula_structural   Si4NiPt3
_chemical_formula_sum   'Si4 Ni1 Pt3'
_cell_volume   117.01141184
_cell_formula_units_Z   1
loop_
 _symmetry_equiv_pos_site_id
 _symmetry_equiv_pos_as_xyz
  1  'x, y, z'
loop_
 _atom_site_type_symbol
 _atom_site_label
 _atom_site_symmetry_multiplicity
 _atom_site_fract_x
 _atom_site_fract_y
 _atom_site_fract_z
 _atom_site_occupancy
  Si  Si0  1  0.250000  0.666835  0.070504  1
  Si  Si1  1  0.750000  0.330497  0.905898  1
  Si  Si2  1  0.250000  0.186692  0.423923  1
  Si  Si3  1  0.750000  0.812015  0.589811  1
  Ni  Ni4  1  0.250000  0.499247  0.697700  1
  Pt  Pt5  1  0.750000  0.500815  0.318769  1
  Pt  Pt6  1  0.250000  0.000119  0.801345  1
  Pt  Pt7  1  0.750000  0.003780  0.192050  1
