# generated using pymatgen
data_LiHo3LuCo19P12
_symmetry_space_group_name_H-M   'P 1'
_cell_length_a   3.64226100
_cell_length_b   10.22721140
_cell_length_c   11.74321063
_cell_angle_alpha   89.91095274
_cell_angle_beta   90.00000000
_cell_angle_gamma   90.00000000
_symmetry_Int_Tables_number   1
_chemical_formula_structural   LiHo3LuCo19P12
_chemical_formula_sum   'Li1 Ho3 Lu1 Co19 P12'
_cell_volume   437.43610177
_cell_formula_units_Z   1
loop_
 _symmetry_equiv_pos_site_id
 _symmetry_equiv_pos_as_xyz
  1  'x, y, z'
loop_
 _atom_site_type_symbol
 _atom_site_label
 _atom_site_symmetry_multiplicity
 _atom_site_fract_x
 _atom_site_fract_y
 _atom_site_fract_z
 _atom_site_occupancy
  Li  Li0  1  0.250000  0.703701  0.991082  1
  Ho  Ho1  1  0.250000  0.581457  0.701736  1
  Ho  Ho2  1  0.750000  0.418051  0.297848  1
  Ho  Ho3  1  0.750000  0.080159  0.796662  1
  Lu  Lu4  1  0.250000  0.920178  0.202933  1
  Co  Co5  1  0.250000  0.783178  0.493529  1
  Co  Co6  1  0.750000  0.288899  0.011129  1
  Co  Co7  1  0.750000  0.216658  0.506077  1
  Co  Co8  1  0.250000  0.406379  0.487713  1
  Co  Co9  1  0.250000  0.095279  0.987699  1
  Co  Co10  1  0.750000  0.592641  0.513705  1
  Co  Co11  1  0.750000  0.908373  0.015033  1
  Co  Co12  1  0.250000  0.223437  0.175953  1
  Co  Co13  1  0.250000  0.277836  0.675323  1
  Co  Co14  1  0.750000  0.779802  0.821856  1
  Co  Co15  1  0.750000  0.721324  0.327672  1
  Co  Co16  1  0.250000  0.883776  0.697302  1
  Co  Co17  1  0.250000  0.620795  0.200626  1
  Co  Co18  1  0.750000  0.117025  0.299106  1
  Co  Co19  1  0.750000  0.379654  0.801136  1
  Co  Co20  1  0.250000  0.464596  0.932233  1
  Co  Co21  1  0.250000  0.032053  0.429367  1
  Co  Co22  1  0.750000  0.535208  0.067706  1
  Co  Co23  1  0.750000  0.967907  0.566073  1
  P  P24  1  0.250000  0.422354  0.113376  1
  P  P25  1  0.250000  0.080964  0.610519  1
  P  P26  1  0.750000  0.578219  0.884113  1
  P  P27  1  0.750000  0.919200  0.385803  1
  P  P28  1  0.250000  0.268056  0.868216  1
  P  P29  1  0.250000  0.230258  0.369117  1
  P  P30  1  0.750000  0.732924  0.137929  1
  P  P31  1  0.750000  0.770942  0.630493  1
  P  P32  1  0.250000  0.601282  0.393312  1
  P  P33  1  0.250000  0.898278  0.891222  1
  P  P34  1  0.750000  0.397142  0.608537  1
  P  P35  1  0.750000  0.102017  0.107866  1
