# generated using pymatgen
data_Dy6P5S
_symmetry_space_group_name_H-M   'P 1'
_cell_length_a   3.98958196
_cell_length_b   9.81626544
_cell_length_c   7.97761083
_cell_angle_alpha   90.05228834
_cell_angle_beta   60.00008754
_cell_angle_gamma   89.97935826
_symmetry_Int_Tables_number   1
_chemical_formula_structural   Dy6P5S
_chemical_formula_sum   'Dy6 P5 S1'
_cell_volume   270.56846196
_cell_formula_units_Z   1
loop_
 _symmetry_equiv_pos_site_id
 _symmetry_equiv_pos_as_xyz
  1  'x, y, z'
loop_
 _atom_site_type_symbol
 _atom_site_label
 _atom_site_symmetry_multiplicity
 _atom_site_fract_x
 _atom_site_fract_y
 _atom_site_fract_z
 _atom_site_occupancy
  Dy  Dy0  1  0.937945  0.895667  0.654214  1
  Dy  Dy1  1  0.271848  0.234215  0.324331  1
  Dy  Dy2  1  0.606572  0.564945  0.988692  1
  Dy  Dy3  1  0.278470  0.237634  0.817595  1
  Dy  Dy4  1  0.606302  0.564998  0.488671  1
  Dy  Dy5  1  0.930992  0.892418  0.160915  1
  P  P6  1  0.270649  0.732041  0.322499  1
  P  P7  1  0.940422  0.397954  0.655363  1
  P  P8  1  0.604660  0.064939  0.489387  1
  P  P9  1  0.941740  0.396334  0.154189  1
  P  P10  1  0.269564  0.733601  0.823879  1
  S  S11  1  0.604347  0.064984  0.989359  1
