# generated using pymatgen
data_Tb8Nb11Si16Tc
_symmetry_space_group_name_H-M   'P 1'
_cell_length_a   7.06075460
_cell_length_b   7.06075402
_cell_length_c   13.05579709
_cell_angle_alpha   89.94493535
_cell_angle_beta   90.05506363
_cell_angle_gamma   89.82199414
_symmetry_Int_Tables_number   1
_chemical_formula_structural   Tb8Nb11Si16Tc
_chemical_formula_sum   'Tb8 Nb11 Si16 Tc1'
_cell_volume   650.88324681
_cell_formula_units_Z   1
loop_
 _symmetry_equiv_pos_site_id
 _symmetry_equiv_pos_as_xyz
  1  'x, y, z'
loop_
 _atom_site_type_symbol
 _atom_site_label
 _atom_site_symmetry_multiplicity
 _atom_site_fract_x
 _atom_site_fract_y
 _atom_site_fract_z
 _atom_site_occupancy
  Tb  Tb0  1  0.342654  0.001627  0.468380  1
  Tb  Tb1  1  0.499037  0.840709  0.716576  1
  Tb  Tb2  1  0.503584  0.157937  0.218259  1
  Tb  Tb3  1  0.840709  0.499037  0.283424  1
  Tb  Tb4  1  0.157937  0.503584  0.781741  1
  Tb  Tb5  1  0.658626  0.996591  0.967672  1
  Tb  Tb6  1  0.001627  0.342654  0.531620  1
  Tb  Tb7  1  0.996591  0.658626  0.032328  1
  Nb  Nb8  1  0.328399  0.328399  0.000000  1
  Nb  Nb9  1  0.170342  0.826675  0.251924  1
  Nb  Nb10  1  0.826675  0.170342  0.748076  1
  Nb  Nb11  1  0.153222  0.007065  0.874217  1
  Nb  Nb12  1  0.494309  0.653321  0.124873  1
  Nb  Nb13  1  0.506611  0.344291  0.624085  1
  Nb  Nb14  1  0.653321  0.494309  0.875127  1
  Nb  Nb15  1  0.344291  0.506611  0.375915  1
  Nb  Nb16  1  0.849607  0.995179  0.374485  1
  Nb  Nb17  1  0.007065  0.153222  0.125783  1
  Nb  Nb18  1  0.995179  0.849607  0.625515  1
  Si  Si19  1  0.204912  0.132784  0.682886  1
  Si  Si20  1  0.366165  0.703375  0.933294  1
  Si  Si21  1  0.631865  0.300039  0.433378  1
  Si  Si22  1  0.703375  0.366165  0.066706  1
  Si  Si23  1  0.300039  0.631865  0.566622  1
  Si  Si24  1  0.796363  0.865866  0.183431  1
  Si  Si25  1  0.132784  0.204912  0.317114  1
  Si  Si26  1  0.865866  0.796363  0.816569  1
  Si  Si27  1  0.292948  0.953740  0.064124  1
  Si  Si28  1  0.549610  0.790870  0.316782  1
  Si  Si29  1  0.454131  0.206886  0.813364  1
  Si  Si30  1  0.790870  0.549610  0.683218  1
  Si  Si31  1  0.206886  0.454131  0.186636  1
  Si  Si32  1  0.708202  0.042354  0.561983  1
  Si  Si33  1  0.953740  0.292948  0.935876  1
  Si  Si34  1  0.042354  0.708202  0.438017  1
  Tc  Tc35  1  0.670109  0.670109  0.500000  1
