# generated using pymatgen
data_Ba2RuO5
_symmetry_space_group_name_H-M   'P 1'
_cell_length_a   5.74100300
_cell_length_b   7.47392700
_cell_length_c   11.62974700
_cell_angle_alpha   90.00000000
_cell_angle_beta   90.00000000
_cell_angle_gamma   90.00000000
_symmetry_Int_Tables_number   1
_chemical_formula_structural   Ba2RuO5
_chemical_formula_sum   'Ba8 Ru4 O20'
_cell_volume   499.00729245
_cell_formula_units_Z   4
loop_
 _symmetry_equiv_pos_site_id
 _symmetry_equiv_pos_as_xyz
  1  'x, y, z'
loop_
 _atom_site_type_symbol
 _atom_site_label
 _atom_site_symmetry_multiplicity
 _atom_site_fract_x
 _atom_site_fract_y
 _atom_site_fract_z
 _atom_site_occupancy
  Ba  Ba0  1  0.750000  0.176008  0.582159  1
  Ba  Ba1  1  0.250000  0.823992  0.417841  1
  Ba  Ba2  1  0.750000  0.676008  0.917841  1
  Ba  Ba3  1  0.250000  0.323992  0.082159  1
  Ba  Ba4  1  0.250000  0.022527  0.790172  1
  Ba  Ba5  1  0.750000  0.977473  0.209828  1
  Ba  Ba6  1  0.250000  0.522527  0.709828  1
  Ba  Ba7  1  0.750000  0.477473  0.290172  1
  Ru  Ru8  1  0.250000  0.324994  0.436624  1
  Ru  Ru9  1  0.750000  0.675006  0.563376  1
  Ru  Ru10  1  0.250000  0.824994  0.063376  1
  Ru  Ru11  1  0.750000  0.175006  0.936624  1
  O  O12  1  0.490045  0.676438  0.114673  1
  O  O13  1  0.990045  0.323562  0.885327  1
  O  O14  1  0.009955  0.176438  0.385327  1
  O  O15  1  0.509955  0.823562  0.614673  1
  O  O16  1  0.509955  0.323562  0.885327  1
  O  O17  1  0.009955  0.676438  0.114673  1
  O  O18  1  0.990045  0.823562  0.614673  1
  O  O19  1  0.490045  0.176438  0.385327  1
  O  O20  1  0.750000  0.282660  0.092160  1
  O  O21  1  0.250000  0.717340  0.907840  1
  O  O22  1  0.750000  0.782660  0.407840  1
  O  O23  1  0.250000  0.217340  0.592160  1
  O  O24  1  0.000000  0.500000  0.500000  1
  O  O25  1  0.500000  0.500000  0.500000  1
  O  O26  1  0.500000  0.000000  0.000000  1
  O  O27  1  0.000000  0.000000  0.000000  1
  O  O28  1  0.250000  0.469538  0.302599  1
  O  O29  1  0.750000  0.530462  0.697401  1
  O  O30  1  0.250000  0.969538  0.197401  1
  O  O31  1  0.750000  0.030462  0.802599  1
