# generated using pymatgen
data_Tl(AgCl3)2
_symmetry_space_group_name_H-M   'P 1'
_cell_length_a   7.23423208
_cell_length_b   6.76174430
_cell_length_c   7.53635006
_cell_angle_alpha   119.09937148
_cell_angle_beta   84.01898260
_cell_angle_gamma   122.37953628
_symmetry_Int_Tables_number   1
_chemical_formula_structural   Tl(AgCl3)2
_chemical_formula_sum   'Tl1 Ag2 Cl6'
_cell_volume   265.86614650
_cell_formula_units_Z   1
loop_
 _symmetry_equiv_pos_site_id
 _symmetry_equiv_pos_as_xyz
  1  'x, y, z'
loop_
 _atom_site_type_symbol
 _atom_site_label
 _atom_site_symmetry_multiplicity
 _atom_site_fract_x
 _atom_site_fract_y
 _atom_site_fract_z
 _atom_site_occupancy
  Tl  Tl0  1  0.000000  0.000000  0.000000  1
  Ag  Ag1  1  0.671101  0.341915  0.000197  1
  Ag  Ag2  1  0.328899  0.658086  0.999803  1
  Cl  Cl3  1  0.096086  0.492708  0.236554  1
  Cl  Cl4  1  0.384344  0.134240  0.198981  1
  Cl  Cl5  1  0.761986  0.823883  0.236594  1
  Cl  Cl6  1  0.238015  0.176117  0.763406  1
  Cl  Cl7  1  0.615656  0.865760  0.801019  1
  Cl  Cl8  1  0.903915  0.507292  0.763446  1
