# generated using pymatgen
data_YbHoEr2(SiPt2)4
_symmetry_space_group_name_H-M   'P 1'
_cell_length_a   5.51603539
_cell_length_b   6.95733700
_cell_length_c   7.29932514
_cell_angle_alpha   90.00000000
_cell_angle_beta   89.96749877
_cell_angle_gamma   90.00000000
_symmetry_Int_Tables_number   1
_chemical_formula_structural   YbHoEr2(SiPt2)4
_chemical_formula_sum   'Yb1 Ho1 Er2 Si4 Pt8'
_cell_volume   280.12555049
_cell_formula_units_Z   1
loop_
 _symmetry_equiv_pos_site_id
 _symmetry_equiv_pos_as_xyz
  1  'x, y, z'
loop_
 _atom_site_type_symbol
 _atom_site_label
 _atom_site_symmetry_multiplicity
 _atom_site_fract_x
 _atom_site_fract_y
 _atom_site_fract_z
 _atom_site_occupancy
  Yb  Yb0  1  0.866145  0.250000  0.522905  1
  Ho  Ho1  1  0.134088  0.750000  0.475796  1
  Er  Er2  1  0.366099  0.750000  0.976317  1
  Er  Er3  1  0.634925  0.250000  0.024404  1
  Si  Si4  1  0.133437  0.250000  0.877601  1
  Si  Si5  1  0.367766  0.250000  0.380247  1
  Si  Si6  1  0.632742  0.750000  0.621150  1
  Si  Si7  1  0.866955  0.750000  0.121580  1
  Pt  Pt8  1  0.098584  0.050744  0.179169  1
  Pt  Pt9  1  0.098584  0.449256  0.179169  1
  Pt  Pt10  1  0.404551  0.050048  0.679748  1
  Pt  Pt11  1  0.404551  0.449952  0.679748  1
  Pt  Pt12  1  0.592389  0.550506  0.317996  1
  Pt  Pt13  1  0.592389  0.949494  0.317996  1
  Pt  Pt14  1  0.903397  0.551293  0.823086  1
  Pt  Pt15  1  0.903397  0.948707  0.823086  1
