# generated using pymatgen
data_PrNd9Ru3Rh
_symmetry_space_group_name_H-M   'P 1'
_cell_length_a   8.93403954
_cell_length_b   8.95253030
_cell_length_c   7.38328409
_cell_angle_alpha   83.59515796
_cell_angle_beta   83.66727968
_cell_angle_gamma   43.27287616
_symmetry_Int_Tables_number   1
_chemical_formula_structural   PrNd9Ru3Rh
_chemical_formula_sum   'Pr1 Nd9 Ru3 Rh1'
_cell_volume   401.90075680
_cell_formula_units_Z   1
loop_
 _symmetry_equiv_pos_site_id
 _symmetry_equiv_pos_as_xyz
  1  'x, y, z'
loop_
 _atom_site_type_symbol
 _atom_site_label
 _atom_site_symmetry_multiplicity
 _atom_site_fract_x
 _atom_site_fract_y
 _atom_site_fract_z
 _atom_site_occupancy
  Pr  Pr0  1  0.015295  0.800186  0.916320  1
  Nd  Nd1  1  0.201788  0.985779  0.585807  1
  Nd  Nd2  1  0.984061  0.201256  0.086375  1
  Nd  Nd3  1  0.795495  0.020531  0.412682  1
  Nd  Nd4  1  0.360433  0.205060  0.816093  1
  Nd  Nd5  1  0.787921  0.641597  0.685975  1
  Nd  Nd6  1  0.643274  0.790123  0.186885  1
  Nd  Nd7  1  0.209389  0.355569  0.313427  1
  Nd  Nd8  1  0.574368  0.425985  0.749838  1
  Nd  Nd9  1  0.426473  0.575584  0.247155  1
  Ru  Ru10  1  0.400165  0.823564  0.924126  1
  Ru  Ru11  1  0.823614  0.399597  0.426120  1
  Ru  Ru12  1  0.598523  0.178459  0.075104  1
  Rh  Rh13  1  0.179202  0.596710  0.574095  1
