# generated using pymatgen
data_CsLa(SeO4)2
_symmetry_space_group_name_H-M   'P 1'
_cell_length_a   5.63686100
_cell_length_b   5.63686177
_cell_length_c   9.49813000
_cell_angle_alpha   90.00000000
_cell_angle_beta   90.00000000
_cell_angle_gamma   119.99999978
_symmetry_Int_Tables_number   1
_chemical_formula_structural   CsLa(SeO4)2
_chemical_formula_sum   'Cs1 La1 Se2 O8'
_cell_volume   261.36260649
_cell_formula_units_Z   1
loop_
 _symmetry_equiv_pos_site_id
 _symmetry_equiv_pos_as_xyz
  1  'x, y, z'
loop_
 _atom_site_type_symbol
 _atom_site_label
 _atom_site_symmetry_multiplicity
 _atom_site_fract_x
 _atom_site_fract_y
 _atom_site_fract_z
 _atom_site_occupancy
  Cs  Cs0  1  0.000000  0.000000  0.500001  1
  La  La1  1  0.000000  0.000000  0.000000  1
  Se  Se2  1  0.333333  0.666666  0.219600  1
  Se  Se3  1  0.666666  0.333333  0.780400  1
  O  O4  1  0.080320  0.367546  0.156557  1
  O  O5  1  0.632456  0.712776  0.156557  1
  O  O6  1  0.287225  0.919680  0.156557  1
  O  O7  1  0.333333  0.666666  0.392953  1
  O  O8  1  0.666666  0.333333  0.607047  1
  O  O9  1  0.712775  0.080321  0.843443  1
  O  O10  1  0.367546  0.287225  0.843443  1
  O  O11  1  0.919679  0.632455  0.843443  1
