# generated using pymatgen
data_K6Si2PdO8
_symmetry_space_group_name_H-M   'P 1'
_cell_length_a   6.31637383
_cell_length_b   6.85257962
_cell_length_c   7.65362376
_cell_angle_alpha   82.51750397
_cell_angle_beta   88.09416644
_cell_angle_gamma   69.68814463
_symmetry_Int_Tables_number   1
_chemical_formula_structural   K6Si2PdO8
_chemical_formula_sum   'K6 Si2 Pd1 O8'
_cell_volume   308.00470106
_cell_formula_units_Z   1
loop_
 _symmetry_equiv_pos_site_id
 _symmetry_equiv_pos_as_xyz
  1  'x, y, z'
loop_
 _atom_site_type_symbol
 _atom_site_label
 _atom_site_symmetry_multiplicity
 _atom_site_fract_x
 _atom_site_fract_y
 _atom_site_fract_z
 _atom_site_occupancy
  K  K0  1  0.654125  0.826041  0.169978  1
  K  K1  1  0.797461  0.304803  0.973124  1
  K  K2  1  0.274190  0.812791  0.558964  1
  K  K3  1  0.725810  0.187209  0.441036  1
  K  K4  1  0.202539  0.695197  0.026876  1
  K  K5  1  0.345875  0.173959  0.830022  1
  Si  Si6  1  0.775913  0.764197  0.737023  1
  Si  Si7  1  0.224087  0.235803  0.262977  1
  Pd  Pd8  1  0.000000  0.500000  0.500000  1
  O  O9  1  0.562244  0.728876  0.845902  1
  O  O10  1  0.828076  0.967625  0.788933  1
  O  O11  1  0.171924  0.032375  0.211067  1
  O  O12  1  0.012287  0.547382  0.760988  1
  O  O13  1  0.437756  0.271124  0.154098  1
  O  O14  1  0.987713  0.452618  0.239012  1
  O  O15  1  0.737030  0.778811  0.516952  1
  O  O16  1  0.262970  0.221189  0.483048  1
