# generated using pymatgen
data_Tb3DyAl4(Ga7Ir3)2
_symmetry_space_group_name_H-M   'P 1'
_cell_length_a   7.57645967
_cell_length_b   7.57846482
_cell_length_c   9.53481700
_cell_angle_alpha   90.00000000
_cell_angle_beta   90.00000000
_cell_angle_gamma   119.69828243
_symmetry_Int_Tables_number   1
_chemical_formula_structural   Tb3DyAl4(Ga7Ir3)2
_chemical_formula_sum   'Tb3 Dy1 Al4 Ga14 Ir6'
_cell_volume   475.55737833
_cell_formula_units_Z   1
loop_
 _symmetry_equiv_pos_site_id
 _symmetry_equiv_pos_as_xyz
  1  'x, y, z'
loop_
 _atom_site_type_symbol
 _atom_site_label
 _atom_site_symmetry_multiplicity
 _atom_site_fract_x
 _atom_site_fract_y
 _atom_site_fract_z
 _atom_site_occupancy
  Tb  Tb0  1  0.001145  0.669777  0.750000  1
  Tb  Tb1  1  0.998852  0.330197  0.250000  1
  Tb  Tb2  1  0.669816  0.001163  0.750000  1
  Dy  Dy3  1  0.330150  0.998759  0.250000  1
  Al  Al4  1  0.332118  0.331961  0.053019  1
  Al  Al5  1  0.667898  0.667892  0.947280  1
  Al  Al6  1  0.667898  0.667892  0.552720  1
  Al  Al7  1  0.332118  0.331961  0.446981  1
  Ga  Ga8  1  0.126946  0.126916  0.750000  1
  Ga  Ga9  1  0.873265  0.873156  0.250000  1
  Ga  Ga10  1  0.000749  0.335285  0.579005  1
  Ga  Ga11  1  0.999474  0.664938  0.420782  1
  Ga  Ga12  1  0.999474  0.664938  0.079218  1
  Ga  Ga13  1  0.335292  0.000701  0.921172  1
  Ga  Ga14  1  0.000749  0.335285  0.920995  1
  Ga  Ga15  1  0.664463  0.999264  0.079221  1
  Ga  Ga16  1  0.664463  0.999264  0.420779  1
  Ga  Ga17  1  0.335292  0.000701  0.578828  1
  Ga  Ga18  1  0.346255  0.549418  0.750000  1
  Ga  Ga19  1  0.653537  0.450362  0.250000  1
  Ga  Ga20  1  0.549359  0.346204  0.750000  1
  Ga  Ga21  1  0.450607  0.653899  0.250000  1
  Ir  Ir22  1  0.669363  0.330563  0.499902  1
  Ir  Ir23  1  0.330566  0.669408  0.499918  1
  Ir  Ir24  1  0.330566  0.669408  0.000082  1
  Ir  Ir25  1  0.669363  0.330563  0.000098  1
  Ir  Ir26  1  0.000111  0.000064  0.499883  1
  Ir  Ir27  1  0.000111  0.000064  0.000117  1
