# generated using pymatgen
data_Ho8ReOsCl8
_symmetry_space_group_name_H-M   'P 1'
_cell_length_a   8.64271548
_cell_length_b   8.64271603
_cell_length_c   6.38046200
_cell_angle_alpha   89.48918023
_cell_angle_beta   89.48918020
_cell_angle_gamma   89.41566058
_symmetry_Int_Tables_number   1
_chemical_formula_structural   Ho8ReOsCl8
_chemical_formula_sum   'Ho8 Re1 Os1 Cl8'
_cell_volume   476.53612250
_cell_formula_units_Z   1
loop_
 _symmetry_equiv_pos_site_id
 _symmetry_equiv_pos_as_xyz
  1  'x, y, z'
loop_
 _atom_site_type_symbol
 _atom_site_label
 _atom_site_symmetry_multiplicity
 _atom_site_fract_x
 _atom_site_fract_y
 _atom_site_fract_z
 _atom_site_occupancy
  Ho  Ho0  1  0.257225  0.896453  0.012507  1
  Ho  Ho1  1  0.741865  0.103943  0.988673  1
  Ho  Ho2  1  0.103547  0.742775  0.487493  1
  Ho  Ho3  1  0.896057  0.258135  0.511327  1
  Ho  Ho4  1  0.743390  0.897837  0.507792  1
  Ho  Ho5  1  0.256514  0.102233  0.490942  1
  Ho  Ho6  1  0.102163  0.256610  0.992208  1
  Ho  Ho7  1  0.897767  0.743486  0.009058  1
  Re  Re8  1  0.993941  0.006059  0.250000  1
  Os  Os9  1  0.006038  0.993962  0.750000  1
  Cl  Cl10  1  0.419413  0.819656  0.405710  1
  Cl  Cl11  1  0.581148  0.180140  0.595300  1
  Cl  Cl12  1  0.180344  0.580587  0.094290  1
  Cl  Cl13  1  0.819860  0.418852  0.904700  1
  Cl  Cl14  1  0.415724  0.188897  0.095207  1
  Cl  Cl15  1  0.585082  0.811181  0.904244  1
  Cl  Cl16  1  0.811103  0.584276  0.404793  1
  Cl  Cl17  1  0.188819  0.414918  0.595756  1
