# generated using pymatgen
data_Pr6CdSn5Pd6
_symmetry_space_group_name_H-M   'P 1'
_cell_length_a   7.68261000
_cell_length_b   7.65954067
_cell_length_c   8.40877503
_cell_angle_alpha   90.02099934
_cell_angle_beta   90.00000000
_cell_angle_gamma   120.09968106
_symmetry_Int_Tables_number   1
_chemical_formula_structural   Pr6CdSn5Pd6
_chemical_formula_sum   'Pr6 Cd1 Sn5 Pd6'
_cell_volume   428.09261420
_cell_formula_units_Z   1
loop_
 _symmetry_equiv_pos_site_id
 _symmetry_equiv_pos_as_xyz
  1  'x, y, z'
loop_
 _atom_site_type_symbol
 _atom_site_label
 _atom_site_symmetry_multiplicity
 _atom_site_fract_x
 _atom_site_fract_y
 _atom_site_fract_z
 _atom_site_occupancy
  Pr  Pr0  1  0.415479  0.001071  0.247931  1
  Pr  Pr1  1  0.586902  0.586028  0.248351  1
  Pr  Pr2  1  0.999758  0.413266  0.248440  1
  Pr  Pr3  1  0.414408  0.998929  0.752069  1
  Pr  Pr4  1  0.586492  0.586734  0.751560  1
  Pr  Pr5  1  0.000874  0.413972  0.751649  1
  Cd  Cd6  1  0.749368  0.000000  0.000000  1
  Sn  Sn7  1  0.255569  0.254779  0.500253  1
  Sn  Sn8  1  0.000791  0.745221  0.499747  1
  Sn  Sn9  1  0.996437  0.756470  0.000027  1
  Sn  Sn10  1  0.239966  0.243530  0.999973  1
  Sn  Sn11  1  0.747689  0.000000  0.500000  1
  Pd  Pd12  1  0.325635  0.661431  0.001490  1
  Pd  Pd13  1  0.334359  0.665845  0.497978  1
  Pd  Pd14  1  0.664206  0.338569  0.998510  1
  Pd  Pd15  1  0.668515  0.334155  0.502022  1
  Pd  Pd16  1  0.006802  0.000051  0.257971  1
  Pd  Pd17  1  0.006752  0.999949  0.742029  1
