# generated using pymatgen
data_Tb6Tc16O
_symmetry_space_group_name_H-M   'P 1'
_cell_length_a   8.07848140
_cell_length_b   8.07848102
_cell_length_c   8.07848100
_cell_angle_alpha   109.47122811
_cell_angle_beta   109.47122715
_cell_angle_gamma   109.47121152
_symmetry_Int_Tables_number   1
_chemical_formula_structural   Tb6Tc16O
_chemical_formula_sum   'Tb6 Tc16 O1'
_cell_volume   405.85156907
_cell_formula_units_Z   1
loop_
 _symmetry_equiv_pos_site_id
 _symmetry_equiv_pos_as_xyz
  1  'x, y, z'
loop_
 _atom_site_type_symbol
 _atom_site_label
 _atom_site_symmetry_multiplicity
 _atom_site_fract_x
 _atom_site_fract_y
 _atom_site_fract_z
 _atom_site_occupancy
  Tb  Tb0  1  0.735978  0.735978  0.000000  1
  Tb  Tb1  1  0.264021  0.000000  0.264022  1
  Tb  Tb2  1  0.735978  0.000000  0.735978  1
  Tb  Tb3  1  0.000000  0.735978  0.735979  1
  Tb  Tb4  1  0.000000  0.264021  0.264022  1
  Tb  Tb5  1  0.264021  0.264021  0.000000  1
  Tc  Tc6  1  0.000000  0.500000  0.000000  1
  Tc  Tc7  1  0.500000  0.000000  0.000000  1
  Tc  Tc8  1  0.000000  0.000000  0.500000  1
  Tc  Tc9  1  0.500000  0.500000  0.500000  1
  Tc  Tc10  1  0.339940  0.339940  0.679879  1
  Tc  Tc11  1  0.660060  0.660060  0.320121  1
  Tc  Tc12  1  0.000000  0.339940  0.660060  1
  Tc  Tc13  1  0.320121  0.660060  0.660060  1
  Tc  Tc14  1  0.660060  0.320121  0.660060  1
  Tc  Tc15  1  0.339940  0.000000  0.660060  1
  Tc  Tc16  1  0.660060  0.339940  0.000000  1
  Tc  Tc17  1  0.339940  0.660060  0.000000  1
  Tc  Tc18  1  0.339940  0.679879  0.339940  1
  Tc  Tc19  1  0.000000  0.660060  0.339940  1
  Tc  Tc20  1  0.660060  0.000000  0.339940  1
  Tc  Tc21  1  0.679879  0.339940  0.339940  1
  O  O22  1  0.000000  0.000000  0.000000  1
