# generated using pymatgen
data_Ta8Re3OsW4
_symmetry_space_group_name_H-M   'P 1'
_cell_length_a   6.44430400
_cell_length_b   6.46443000
_cell_length_c   6.42565400
_cell_angle_alpha   90.00005334
_cell_angle_beta   89.99878908
_cell_angle_gamma   90.00017754
_symmetry_Int_Tables_number   1
_chemical_formula_structural   Ta8Re3OsW4
_chemical_formula_sum   'Ta8 Re3 Os1 W4'
_cell_volume   267.68472708
_cell_formula_units_Z   1
loop_
 _symmetry_equiv_pos_site_id
 _symmetry_equiv_pos_as_xyz
  1  'x, y, z'
loop_
 _atom_site_type_symbol
 _atom_site_label
 _atom_site_symmetry_multiplicity
 _atom_site_fract_x
 _atom_site_fract_y
 _atom_site_fract_z
 _atom_site_occupancy
  Ta  Ta0  1  0.500518  0.000566  0.250455  1
  Ta  Ta1  1  0.500516  0.499434  0.250452  1
  Ta  Ta2  1  0.999325  0.000606  0.250401  1
  Ta  Ta3  1  0.999325  0.499394  0.250412  1
  Ta  Ta4  1  0.999475  0.000568  0.749609  1
  Ta  Ta5  1  0.999483  0.499437  0.749610  1
  Ta  Ta6  1  0.500669  0.000601  0.749530  1
  Ta  Ta7  1  0.500671  0.499401  0.749527  1
  Re  Re8  1  0.750030  0.249999  0.999985  1
  Re  Re9  1  0.250030  0.749995  0.500006  1
  Re  Re10  1  0.749987  0.249997  0.499993  1
  Os  Os11  1  0.249968  0.750004  0.000027  1
  W  W12  1  0.249963  0.250000  0.999994  1
  W  W13  1  0.749965  0.750001  0.500001  1
  W  W14  1  0.250041  0.249998  0.499995  1
  W  W15  1  0.750038  0.749999  0.000001  1
