# generated using pymatgen
data_Hf4Fe2Si4PtRh
_symmetry_space_group_name_H-M   'P 1'
_cell_length_a   3.92518500
_cell_length_b   6.44924500
_cell_length_c   7.29546543
_cell_angle_alpha   91.20125043
_cell_angle_beta   90.00000000
_cell_angle_gamma   90.00000000
_symmetry_Int_Tables_number   1
_chemical_formula_structural   Hf4Fe2Si4PtRh
_chemical_formula_sum   'Hf4 Fe2 Si4 Pt1 Rh1'
_cell_volume   184.64032367
_cell_formula_units_Z   1
loop_
 _symmetry_equiv_pos_site_id
 _symmetry_equiv_pos_as_xyz
  1  'x, y, z'
loop_
 _atom_site_type_symbol
 _atom_site_label
 _atom_site_symmetry_multiplicity
 _atom_site_fract_x
 _atom_site_fract_y
 _atom_site_fract_z
 _atom_site_occupancy
  Hf  Hf0  1  0.250000  0.513768  0.179210  1
  Hf  Hf1  1  0.750000  0.492555  0.819626  1
  Hf  Hf2  1  0.250000  0.015614  0.303293  1
  Hf  Hf3  1  0.750000  0.981748  0.695962  1
  Fe  Fe4  1  0.750000  0.847530  0.064019  1
  Fe  Fe5  1  0.250000  0.151823  0.937781  1
  Si  Si6  1  0.250000  0.789656  0.897993  1
  Si  Si7  1  0.750000  0.210798  0.096323  1
  Si  Si8  1  0.250000  0.271047  0.633185  1
  Si  Si9  1  0.750000  0.730995  0.373745  1
  Pt  Pt10  1  0.750000  0.342236  0.431783  1
  Rh  Rh11  1  0.250000  0.652230  0.567078  1
