# generated using pymatgen
data_Fe7Ge5(Mo3N)4
_symmetry_space_group_name_H-M   'P 1'
_cell_length_a   7.96692009
_cell_length_b   7.95602835
_cell_length_c   7.95602800
_cell_angle_alpha   60.00000146
_cell_angle_beta   60.04521513
_cell_angle_gamma   60.04521601
_symmetry_Int_Tables_number   1
_chemical_formula_structural   Fe7Ge5(Mo3N)4
_chemical_formula_sum   'Fe7 Ge5 Mo12 N4'
_cell_volume   356.83263444
_cell_formula_units_Z   1
loop_
 _symmetry_equiv_pos_site_id
 _symmetry_equiv_pos_as_xyz
  1  'x, y, z'
loop_
 _atom_site_type_symbol
 _atom_site_label
 _atom_site_symmetry_multiplicity
 _atom_site_fract_x
 _atom_site_fract_y
 _atom_site_fract_z
 _atom_site_occupancy
  Fe  Fe0  1  0.426087  0.742394  0.415759  1
  Fe  Fe1  1  0.426087  0.415759  0.742394  1
  Fe  Fe2  1  0.426087  0.415759  0.415759  1
  Fe  Fe3  1  0.485568  0.838144  0.838144  1
  Fe  Fe4  1  0.832771  0.503274  0.831978  1
  Fe  Fe5  1  0.832771  0.831978  0.503274  1
  Fe  Fe6  1  0.832771  0.831978  0.831978  1
  Ge  Ge7  1  0.129313  0.623563  0.623563  1
  Ge  Ge8  1  0.610119  0.112532  0.638675  1
  Ge  Ge9  1  0.610119  0.638675  0.112532  1
  Ge  Ge10  1  0.610119  0.638675  0.638675  1
  Ge  Ge11  1  0.753902  0.415366  0.415366  1
  Mo  Mo12  1  0.808446  0.805374  0.193090  1
  Mo  Mo13  1  0.188004  0.193730  0.809134  1
  Mo  Mo14  1  0.808446  0.193090  0.805374  1
  Mo  Mo15  1  0.188004  0.809134  0.193730  1
  Mo  Mo16  1  0.188004  0.809134  0.809134  1
  Mo  Mo17  1  0.808446  0.193090  0.193090  1
  Mo  Mo18  1  0.443294  0.439123  0.058792  1
  Mo  Mo19  1  0.066613  0.052638  0.440375  1
  Mo  Mo20  1  0.443294  0.058792  0.439123  1
  Mo  Mo21  1  0.066613  0.440375  0.052638  1
  Mo  Mo22  1  0.066613  0.440375  0.440375  1
  Mo  Mo23  1  0.443294  0.058792  0.058792  1
  N  N24  1  0.625719  0.124760  0.124760  1
  N  N25  1  0.126498  0.624432  0.124535  1
  N  N26  1  0.126498  0.124535  0.624432  1
  N  N27  1  0.126498  0.124535  0.124535  1
