# generated using pymatgen
data_LaEr3(CBr)2
_symmetry_space_group_name_H-M   'P 1'
_cell_length_a   3.69151100
_cell_length_b   3.69151099
_cell_length_c   14.48138500
_cell_angle_alpha   90.00000000
_cell_angle_beta   90.00000000
_cell_angle_gamma   120.00000908
_symmetry_Int_Tables_number   1
_chemical_formula_structural   LaEr3(CBr)2
_chemical_formula_sum   'La1 Er3 C2 Br2'
_cell_volume   170.90273932
_cell_formula_units_Z   1
loop_
 _symmetry_equiv_pos_site_id
 _symmetry_equiv_pos_as_xyz
  1  'x, y, z'
loop_
 _atom_site_type_symbol
 _atom_site_label
 _atom_site_symmetry_multiplicity
 _atom_site_fract_x
 _atom_site_fract_y
 _atom_site_fract_z
 _atom_site_occupancy
  La  La0  1  0.333333  0.666667  0.410141  1
  Er  Er1  1  0.333333  0.666667  0.082375  1
  Er  Er2  1  0.666667  0.333333  0.596885  1
  Er  Er3  1  0.666667  0.333333  0.909457  1
  C  C4  1  0.000000  0.000000  0.995119  1
  C  C5  1  0.000000  0.000000  0.519014  1
  Br  Br6  1  0.666667  0.333333  0.230310  1
  Br  Br7  1  0.333333  0.666667  0.756700  1
