# generated using pymatgen
data_YTmPa2(Al3Ir)6
_symmetry_space_group_name_H-M   'P 1'
_cell_length_a   7.59320109
_cell_length_b   7.59970125
_cell_length_c   9.36018800
_cell_angle_alpha   90.00000000
_cell_angle_beta   90.00000000
_cell_angle_gamma   119.69846637
_symmetry_Int_Tables_number   1
_chemical_formula_structural   YTmPa2(Al3Ir)6
_chemical_formula_sum   'Y1 Tm1 Pa2 Al18 Ir6'
_cell_volume   469.18941419
_cell_formula_units_Z   1
loop_
 _symmetry_equiv_pos_site_id
 _symmetry_equiv_pos_as_xyz
  1  'x, y, z'
loop_
 _atom_site_type_symbol
 _atom_site_label
 _atom_site_symmetry_multiplicity
 _atom_site_fract_x
 _atom_site_fract_y
 _atom_site_fract_z
 _atom_site_occupancy
  Y  Y0  1  0.669498  0.993488  0.250000  1
  Tm  Tm1  1  0.330292  0.006494  0.750000  1
  Pa  Pa2  1  0.997675  0.670997  0.250000  1
  Pa  Pa3  1  0.002319  0.328937  0.750000  1
  Al  Al4  1  0.130700  0.127307  0.250000  1
  Al  Al5  1  0.869853  0.872802  0.750000  1
  Al  Al6  1  0.000587  0.331612  0.077716  1
  Al  Al7  1  0.999986  0.668928  0.921812  1
  Al  Al8  1  0.999986  0.668928  0.578188  1
  Al  Al9  1  0.338014  0.003169  0.425990  1
  Al  Al10  1  0.000587  0.331612  0.422284  1
  Al  Al11  1  0.661444  0.996821  0.574981  1
  Al  Al12  1  0.661444  0.996821  0.925019  1
  Al  Al13  1  0.338014  0.003169  0.074010  1
  Al  Al14  1  0.335231  0.332970  0.554262  1
  Al  Al15  1  0.664774  0.666598  0.446292  1
  Al  Al16  1  0.664774  0.666598  0.053708  1
  Al  Al17  1  0.335231  0.332970  0.945738  1
  Al  Al18  1  0.340843  0.547784  0.250000  1
  Al  Al19  1  0.658606  0.451551  0.750000  1
  Al  Al20  1  0.548364  0.340484  0.250000  1
  Al  Al21  1  0.451490  0.659796  0.750000  1
  Ir  Ir22  1  0.675922  0.329754  0.999435  1
  Ir  Ir23  1  0.323837  0.670248  0.000116  1
  Ir  Ir24  1  0.323837  0.670248  0.499884  1
  Ir  Ir25  1  0.675922  0.329754  0.500565  1
  Ir  Ir26  1  0.000384  0.000080  0.999705  1
  Ir  Ir27  1  0.000384  0.000080  0.500295  1
