# generated using pymatgen
data_DyEr3FeTc7
_symmetry_space_group_name_H-M   'P 1'
_cell_length_a   5.38837223
_cell_length_b   5.38837254
_cell_length_c   8.78860702
_cell_angle_alpha   90.00674173
_cell_angle_beta   89.99325824
_cell_angle_gamma   121.62180885
_symmetry_Int_Tables_number   1
_chemical_formula_structural   DyEr3FeTc7
_chemical_formula_sum   'Dy1 Er3 Fe1 Tc7'
_cell_volume   217.28707039
_cell_formula_units_Z   1
loop_
 _symmetry_equiv_pos_site_id
 _symmetry_equiv_pos_as_xyz
  1  'x, y, z'
loop_
 _atom_site_type_symbol
 _atom_site_label
 _atom_site_symmetry_multiplicity
 _atom_site_fract_x
 _atom_site_fract_y
 _atom_site_fract_z
 _atom_site_occupancy
  Dy  Dy0  1  0.334642  0.665358  0.436911  1
  Er  Er1  1  0.666284  0.333716  0.561859  1
  Er  Er2  1  0.666292  0.333708  0.938242  1
  Er  Er3  1  0.334682  0.665318  0.062957  1
  Fe  Fe4  1  0.828124  0.171876  0.249857  1
  Tc  Tc5  1  0.002630  0.997370  0.492203  1
  Tc  Tc6  1  0.002603  0.997397  0.007727  1
  Tc  Tc7  1  0.823628  0.657391  0.249800  1
  Tc  Tc8  1  0.342609  0.176372  0.249800  1
  Tc  Tc9  1  0.169364  0.830636  0.750214  1
  Tc  Tc10  1  0.169992  0.340851  0.750216  1
  Tc  Tc11  1  0.659149  0.830008  0.750216  1
