# generated using pymatgen
data_Mg2Fe12P7
_symmetry_space_group_name_H-M   'P 1'
_cell_length_a   8.86541081
_cell_length_b   8.88393088
_cell_length_c   3.57720100
_cell_angle_alpha   90.00000000
_cell_angle_beta   90.00000000
_cell_angle_gamma   119.87200973
_symmetry_Int_Tables_number   1
_chemical_formula_structural   Mg2Fe12P7
_chemical_formula_sum   'Mg2 Fe12 P7'
_cell_volume   244.30743465
_cell_formula_units_Z   1
loop_
 _symmetry_equiv_pos_site_id
 _symmetry_equiv_pos_as_xyz
  1  'x, y, z'
loop_
 _atom_site_type_symbol
 _atom_site_label
 _atom_site_symmetry_multiplicity
 _atom_site_fract_x
 _atom_site_fract_y
 _atom_site_fract_z
 _atom_site_occupancy
  Mg  Mg0  1  0.998938  0.998467  0.000000  1
  Mg  Mg1  1  0.334517  0.667876  0.500000  1
  Fe  Fe2  1  0.052384  0.768333  0.500000  1
  Fe  Fe3  1  0.718309  0.948492  0.500000  1
  Fe  Fe4  1  0.880487  0.427393  0.500000  1
  Fe  Fe5  1  0.546536  0.119503  0.500000  1
  Fe  Fe6  1  0.572055  0.453489  0.500000  1
  Fe  Fe7  1  0.389031  0.213847  0.000000  1
  Fe  Fe8  1  0.785740  0.177355  0.000000  1
  Fe  Fe9  1  0.822784  0.608404  0.000000  1
  Fe  Fe10  1  0.609829  0.707596  0.000000  1
  Fe  Fe11  1  0.293222  0.902361  0.000000  1
  Fe  Fe12  1  0.098018  0.389908  0.000000  1
  Fe  Fe13  1  0.230766  0.283280  0.500000  1
  P  P14  1  0.262870  0.043094  0.500000  1
  P  P15  1  0.954193  0.217745  0.500000  1
  P  P16  1  0.781867  0.736996  0.500000  1
  P  P17  1  0.374103  0.453808  0.000000  1
  P  P18  1  0.549427  0.921559  0.000000  1
  P  P19  1  0.079499  0.627249  0.000000  1
  P  P20  1  0.665427  0.333246  0.000000  1
