# generated using pymatgen
data_Dy3Tm2GaCo5
_symmetry_space_group_name_H-M   'P 1'
_cell_length_a   5.43720842
_cell_length_b   5.43720909
_cell_length_c   20.42959548
_cell_angle_alpha   89.92213645
_cell_angle_beta   90.07786416
_cell_angle_gamma   136.75031104
_symmetry_Int_Tables_number   1
_chemical_formula_structural   Dy3Tm2GaCo5
_chemical_formula_sum   'Dy6 Tm4 Ga2 Co10'
_cell_volume   413.82372393
_cell_formula_units_Z   2
loop_
 _symmetry_equiv_pos_site_id
 _symmetry_equiv_pos_as_xyz
  1  'x, y, z'
loop_
 _atom_site_type_symbol
 _atom_site_label
 _atom_site_symmetry_multiplicity
 _atom_site_fract_x
 _atom_site_fract_y
 _atom_site_fract_z
 _atom_site_occupancy
  Dy  Dy0  1  0.292678  0.707322  0.066842  1
  Dy  Dy1  1  0.998065  0.001935  0.842338  1
  Dy  Dy2  1  0.708373  0.291627  0.565216  1
  Dy  Dy3  1  0.001861  0.998139  0.342355  1
  Dy  Dy4  1  0.997828  0.002172  0.657577  1
  Dy  Dy5  1  0.708100  0.291900  0.934299  1
  Tm  Tm6  1  0.289137  0.710863  0.249617  1
  Tm  Tm7  1  0.711388  0.288612  0.749885  1
  Tm  Tm8  1  0.003558  0.996442  0.157890  1
  Tm  Tm9  1  0.291741  0.708259  0.433715  1
  Ga  Ga10  1  0.999284  0.000716  0.499472  1
  Ga  Ga11  1  0.999968  0.000032  0.000538  1
  Co  Co12  1  0.292862  0.707138  0.654731  1
  Co  Co13  1  0.583354  0.416646  0.440943  1
  Co  Co14  1  0.412644  0.587356  0.750031  1
  Co  Co15  1  0.417153  0.582847  0.941601  1
  Co  Co16  1  0.586880  0.413120  0.249711  1
  Co  Co17  1  0.416170  0.583830  0.557810  1
  Co  Co18  1  0.707409  0.292591  0.345587  1
  Co  Co19  1  0.706886  0.293114  0.155115  1
  Co  Co20  1  0.581828  0.418172  0.059484  1
  Co  Co21  1  0.292833  0.707167  0.845244  1
