# generated using pymatgen
data_Fe(BrO3)3
_symmetry_space_group_name_H-M   'P 1'
_cell_length_a   9.18256400
_cell_length_b   9.18256340
_cell_length_c   5.59470100
_cell_angle_alpha   90.00000000
_cell_angle_beta   90.00000000
_cell_angle_gamma   119.99999593
_symmetry_Int_Tables_number   1
_chemical_formula_structural   Fe(BrO3)3
_chemical_formula_sum   'Fe2 Br6 O18'
_cell_volume   408.54079548
_cell_formula_units_Z   2
loop_
 _symmetry_equiv_pos_site_id
 _symmetry_equiv_pos_as_xyz
  1  'x, y, z'
loop_
 _atom_site_type_symbol
 _atom_site_label
 _atom_site_symmetry_multiplicity
 _atom_site_fract_x
 _atom_site_fract_y
 _atom_site_fract_z
 _atom_site_occupancy
  Fe  Fe0  1  0.666667  0.333333  0.691528  1
  Fe  Fe1  1  0.333333  0.666667  0.191528  1
  Br  Br2  1  0.676477  0.019895  0.359650  1
  Br  Br3  1  0.323523  0.980105  0.859650  1
  Br  Br4  1  0.019895  0.343418  0.859650  1
  Br  Br5  1  0.343418  0.323523  0.359650  1
  Br  Br6  1  0.980105  0.656582  0.359650  1
  Br  Br7  1  0.656582  0.676477  0.859650  1
  O  O8  1  0.777137  0.829264  0.041557  1
  O  O9  1  0.947872  0.777137  0.541557  1
  O  O10  1  0.829264  0.052128  0.541557  1
  O  O11  1  0.170736  0.947872  0.041557  1
  O  O12  1  0.052128  0.222863  0.041557  1
  O  O13  1  0.222863  0.170736  0.541557  1
  O  O14  1  0.712651  0.525968  0.919234  1
  O  O15  1  0.186683  0.712651  0.419234  1
  O  O16  1  0.544481  0.420675  0.481949  1
  O  O17  1  0.123805  0.544481  0.981949  1
  O  O18  1  0.420675  0.876195  0.981949  1
  O  O19  1  0.579325  0.123805  0.481949  1
  O  O20  1  0.876195  0.455519  0.481949  1
  O  O21  1  0.455519  0.579325  0.981949  1
  O  O22  1  0.287349  0.474032  0.419234  1
  O  O23  1  0.813317  0.287349  0.919234  1
  O  O24  1  0.474032  0.186683  0.919234  1
  O  O25  1  0.525968  0.813317  0.419234  1
