# generated using pymatgen
data_Ho5TcRuO12
_symmetry_space_group_name_H-M   'P 1'
_cell_length_a   6.81547194
_cell_length_b   6.81547160
_cell_length_c   7.46620265
_cell_angle_alpha   73.86599924
_cell_angle_beta   73.86600037
_cell_angle_gamma   49.06619492
_symmetry_Int_Tables_number   1
_chemical_formula_structural   Ho5TcRuO12
_chemical_formula_sum   'Ho5 Tc1 Ru1 O12'
_cell_volume   249.48093421
_cell_formula_units_Z   1
loop_
 _symmetry_equiv_pos_site_id
 _symmetry_equiv_pos_as_xyz
  1  'x, y, z'
loop_
 _atom_site_type_symbol
 _atom_site_label
 _atom_site_symmetry_multiplicity
 _atom_site_fract_x
 _atom_site_fract_y
 _atom_site_fract_z
 _atom_site_occupancy
  Ho  Ho0  1  0.310128  0.318790  0.825796  1
  Ho  Ho1  1  0.681210  0.689872  0.174204  1
  Ho  Ho2  1  0.991564  0.008436  0.500000  1
  Ho  Ho3  1  0.686422  0.707430  0.642227  1
  Ho  Ho4  1  0.292570  0.313578  0.357773  1
  Tc  Tc5  1  0.795181  0.204819  0.000000  1
  Ru  Ru6  1  0.229779  0.770221  0.000000  1
  O  O7  1  0.506670  0.491358  0.177749  1
  O  O8  1  0.508642  0.493330  0.822251  1
  O  O9  1  0.006192  0.997302  0.202709  1
  O  O10  1  0.002698  0.993808  0.797291  1
  O  O11  1  0.911642  0.411033  0.914906  1
  O  O12  1  0.588967  0.088358  0.085094  1
  O  O13  1  0.087517  0.571435  0.084867  1
  O  O14  1  0.590212  0.107272  0.570057  1
  O  O15  1  0.892728  0.409788  0.429943  1
  O  O16  1  0.399749  0.910435  0.424007  1
  O  O17  1  0.089565  0.600251  0.575993  1
  O  O18  1  0.428565  0.912483  0.915133  1
