# generated using pymatgen
data_Y4Ho8CdCo5
_symmetry_space_group_name_H-M   'P 1'
_cell_length_a   8.27454241
_cell_length_b   8.27480320
_cell_length_c   8.27454319
_cell_angle_alpha   110.25765966
_cell_angle_beta   110.60215947
_cell_angle_gamma   107.56936372
_symmetry_Int_Tables_number   1
_chemical_formula_structural   Y4Ho8CdCo5
_chemical_formula_sum   'Y4 Ho8 Cd1 Co5'
_cell_volume   435.78169364
_cell_formula_units_Z   1
loop_
 _symmetry_equiv_pos_site_id
 _symmetry_equiv_pos_as_xyz
  1  'x, y, z'
loop_
 _atom_site_type_symbol
 _atom_site_label
 _atom_site_symmetry_multiplicity
 _atom_site_fract_x
 _atom_site_fract_y
 _atom_site_fract_z
 _atom_site_occupancy
  Y  Y0  1  0.813892  0.709791  0.523697  1
  Y  Y1  1  0.186108  0.290209  0.476303  1
  Y  Y2  1  0.186095  0.709791  0.895899  1
  Y  Y3  1  0.813905  0.290209  0.104101  1
  Ho  Ho4  1  0.685585  0.379141  0.693557  1
  Ho  Ho5  1  0.314415  0.620859  0.306443  1
  Ho  Ho6  1  0.685679  0.992130  0.306452  1
  Ho  Ho7  1  0.314321  0.007870  0.693548  1
  Ho  Ho8  1  0.598870  0.791176  0.807692  1
  Ho  Ho9  1  0.401130  0.208824  0.192308  1
  Ho  Ho10  1  0.983483  0.791176  0.192305  1
  Ho  Ho11  1  0.016517  0.208824  0.807695  1
  Cd  Cd12  1  0.500000  0.500000  0.000000  1
  Co  Co13  1  0.621559  0.000000  0.621559  1
  Co  Co14  1  0.378441  0.000000  0.378441  1
  Co  Co15  1  0.112935  0.612944  0.500008  1
  Co  Co16  1  0.887065  0.387056  0.499992  1
  Co  Co17  1  0.000000  0.000000  0.000000  1
