# generated using pymatgen
data_HoGeSbO6
_symmetry_space_group_name_H-M   'P 1'
_cell_length_a   5.13070139
_cell_length_b   5.13073026
_cell_length_c   4.91058720
_cell_angle_alpha   90.01199121
_cell_angle_beta   90.01216974
_cell_angle_gamma   119.98021907
_symmetry_Int_Tables_number   1
_chemical_formula_structural   HoGeSbO6
_chemical_formula_sum   'Ho1 Ge1 Sb1 O6'
_cell_volume   111.97123659
_cell_formula_units_Z   1
loop_
 _symmetry_equiv_pos_site_id
 _symmetry_equiv_pos_as_xyz
  1  'x, y, z'
loop_
 _atom_site_type_symbol
 _atom_site_label
 _atom_site_symmetry_multiplicity
 _atom_site_fract_x
 _atom_site_fract_y
 _atom_site_fract_z
 _atom_site_occupancy
  Ho  Ho0  1  0.482467  0.517526  0.499996  1
  Ge  Ge1  1  0.815846  0.184155  0.000003  1
  Sb  Sb2  1  0.149052  0.850956  0.999992  1
  O  O3  1  0.115195  0.161769  0.220676  1
  O  O4  1  0.494126  0.885114  0.220923  1
  O  O5  1  0.838461  0.506113  0.220839  1
  O  O6  1  0.493896  0.161545  0.779154  1
  O  O7  1  0.114886  0.505872  0.779068  1
  O  O8  1  0.838228  0.884810  0.779318  1
