# generated using pymatgen
data_Na3Mn4Te5F
_symmetry_space_group_name_H-M   'P 1'
_cell_length_a   7.84018206
_cell_length_b   7.84061341
_cell_length_c   7.48280675
_cell_angle_alpha   88.44291925
_cell_angle_beta   88.44334425
_cell_angle_gamma   117.24350840
_symmetry_Int_Tables_number   1
_chemical_formula_structural   Na3Mn4Te5F
_chemical_formula_sum   'Na3 Mn4 Te5 F1'
_cell_volume   408.39851774
_cell_formula_units_Z   1
loop_
 _symmetry_equiv_pos_site_id
 _symmetry_equiv_pos_as_xyz
  1  'x, y, z'
loop_
 _atom_site_type_symbol
 _atom_site_label
 _atom_site_symmetry_multiplicity
 _atom_site_fract_x
 _atom_site_fract_y
 _atom_site_fract_z
 _atom_site_occupancy
  Na  Na0  1  0.364259  0.684837  0.012057  1
  Na  Na1  1  0.684839  0.364269  0.012074  1
  Na  Na2  1  0.996198  0.996198  0.992506  1
  Mn  Mn3  1  0.321380  0.030952  0.626391  1
  Mn  Mn4  1  0.002488  0.674432  0.369877  1
  Mn  Mn5  1  0.674513  0.002560  0.369768  1
  Mn  Mn6  1  0.031001  0.321426  0.626367  1
  Te  Te7  1  0.675080  0.675086  0.254412  1
  Te  Te8  1  0.338439  0.016906  0.254260  1
  Te  Te9  1  0.039387  0.660588  0.747619  1
  Te  Te10  1  0.660600  0.039410  0.747588  1
  Te  Te11  1  0.016953  0.338468  0.254251  1
  F  F12  1  0.194865  0.194869  0.732829  1
