# generated using pymatgen
data_YbY5(Si3Ru)8
_symmetry_space_group_name_H-M   'P 1'
_cell_length_a   10.14057603
_cell_length_b   10.14057555
_cell_length_c   8.14699513
_cell_angle_alpha   89.92413888
_cell_angle_beta   90.07586216
_cell_angle_gamma   132.63241277
_symmetry_Int_Tables_number   1
_chemical_formula_structural   YbY5(Si3Ru)8
_chemical_formula_sum   'Yb1 Y5 Si24 Ru8'
_cell_volume   616.35551490
_cell_formula_units_Z   1
loop_
 _symmetry_equiv_pos_site_id
 _symmetry_equiv_pos_as_xyz
  1  'x, y, z'
loop_
 _atom_site_type_symbol
 _atom_site_label
 _atom_site_symmetry_multiplicity
 _atom_site_fract_x
 _atom_site_fract_y
 _atom_site_fract_z
 _atom_site_occupancy
  Yb  Yb0  1  0.002226  0.502226  0.250000  1
  Y  Y1  1  0.000293  0.000338  0.000422  1
  Y  Y2  1  0.500338  0.500293  0.499578  1
  Y  Y3  1  0.498046  0.998046  0.750000  1
  Y  Y4  1  0.997274  0.497274  0.750000  1
  Y  Y5  1  0.502765  0.002765  0.250000  1
  Si  Si6  1  0.293485  0.704053  0.000580  1
  Si  Si7  1  0.795778  0.206553  0.498546  1
  Si  Si8  1  0.706553  0.295778  0.001454  1
  Si  Si9  1  0.204053  0.793485  0.499420  1
  Si  Si10  1  0.832865  0.834091  0.333190  1
  Si  Si11  1  0.166860  0.167942  0.666644  1
  Si  Si12  1  0.667942  0.666860  0.833356  1
  Si  Si13  1  0.334091  0.332865  0.166810  1
  Si  Si14  1  0.621725  0.387448  0.228046  1
  Si  Si15  1  0.610892  0.377531  0.772104  1
  Si  Si16  1  0.111292  0.877906  0.728541  1
  Si  Si17  1  0.123043  0.888869  0.272187  1
  Si  Si18  1  0.377906  0.611292  0.771459  1
  Si  Si19  1  0.388869  0.623043  0.227813  1
  Si  Si20  1  0.887448  0.121725  0.271954  1
  Si  Si21  1  0.877531  0.110892  0.727896  1
  Si  Si22  1  0.844520  0.611266  0.004164  1
  Si  Si23  1  0.388290  0.155385  0.994226  1
  Si  Si24  1  0.888688  0.654937  0.505538  1
  Si  Si25  1  0.344504  0.111903  0.494470  1
  Si  Si26  1  0.154937  0.388688  0.994462  1
  Si  Si27  1  0.611903  0.844504  0.005530  1
  Si  Si28  1  0.111266  0.344520  0.495836  1
  Si  Si29  1  0.655385  0.888290  0.505774  1
  Ru  Ru30  1  0.170112  0.830792  0.999933  1
  Ru  Ru31  1  0.668208  0.329377  0.501138  1
  Ru  Ru32  1  0.829377  0.168208  0.998862  1
  Ru  Ru33  1  0.330792  0.670112  0.500067  1
  Ru  Ru34  1  0.626762  0.626932  0.127215  1
  Ru  Ru35  1  0.373120  0.373929  0.872943  1
  Ru  Ru36  1  0.873929  0.873120  0.627057  1
  Ru  Ru37  1  0.126932  0.126762  0.372785  1
