# generated using pymatgen
data_Tb3Th11Rh6
_symmetry_space_group_name_H-M   'P 1'
_cell_length_a   9.95289900
_cell_length_b   9.95289892
_cell_length_c   6.34864800
_cell_angle_alpha   90.00000000
_cell_angle_beta   90.00000000
_cell_angle_gamma   120.00000357
_symmetry_Int_Tables_number   1
_chemical_formula_structural   Tb3Th11Rh6
_chemical_formula_sum   'Tb3 Th11 Rh6'
_cell_volume   544.64190743
_cell_formula_units_Z   1
loop_
 _symmetry_equiv_pos_site_id
 _symmetry_equiv_pos_as_xyz
  1  'x, y, z'
loop_
 _atom_site_type_symbol
 _atom_site_label
 _atom_site_symmetry_multiplicity
 _atom_site_fract_x
 _atom_site_fract_y
 _atom_site_fract_z
 _atom_site_occupancy
  Tb  Tb0  1  0.459607  0.540393  0.949554  1
  Tb  Tb1  1  0.080787  0.540393  0.949554  1
  Tb  Tb2  1  0.459607  0.919213  0.949554  1
  Th  Th3  1  0.333333  0.666667  0.463596  1
  Th  Th4  1  0.666667  0.333333  0.912869  1
  Th  Th5  1  0.126283  0.873717  0.245735  1
  Th  Th6  1  0.747433  0.873717  0.245735  1
  Th  Th7  1  0.126283  0.252567  0.245735  1
  Th  Th8  1  0.870895  0.129105  0.746975  1
  Th  Th9  1  0.258211  0.129105  0.746975  1
  Th  Th10  1  0.870895  0.741789  0.746975  1
  Th  Th11  1  0.540666  0.459334  0.448557  1
  Th  Th12  1  0.918668  0.459334  0.448557  1
  Th  Th13  1  0.540666  0.081332  0.448557  1
  Rh  Rh14  1  0.813158  0.186842  0.190993  1
  Rh  Rh15  1  0.373684  0.186842  0.190993  1
  Rh  Rh16  1  0.813158  0.626316  0.190993  1
  Rh  Rh17  1  0.185033  0.814967  0.688219  1
  Rh  Rh18  1  0.629933  0.814967  0.688219  1
  Rh  Rh19  1  0.185033  0.370067  0.688219  1
