# generated using pymatgen
data_Y2AlSi4PtRh2
_symmetry_space_group_name_H-M   'P 1'
_cell_length_a   8.19591737
_cell_length_b   8.19591803
_cell_length_c   5.79477098
_cell_angle_alpha   70.13492826
_cell_angle_beta   70.13491655
_cell_angle_gamma   90.80686748
_symmetry_Int_Tables_number   1
_chemical_formula_structural   Y2AlSi4PtRh2
_chemical_formula_sum   'Y4 Al2 Si8 Pt2 Rh4'
_cell_volume   340.59328013
_cell_formula_units_Z   2
loop_
 _symmetry_equiv_pos_site_id
 _symmetry_equiv_pos_as_xyz
  1  'x, y, z'
loop_
 _atom_site_type_symbol
 _atom_site_label
 _atom_site_symmetry_multiplicity
 _atom_site_fract_x
 _atom_site_fract_y
 _atom_site_fract_z
 _atom_site_occupancy
  Y  Y0  1  0.866475  0.602805  0.767092  1
  Y  Y1  1  0.137582  0.398481  0.237813  1
  Y  Y2  1  0.397195  0.133525  0.732908  1
  Y  Y3  1  0.601519  0.862418  0.262187  1
  Al  Al4  1  0.773777  0.226223  0.750000  1
  Al  Al5  1  0.230832  0.769168  0.250000  1
  Si  Si6  1  0.513451  0.486549  0.750000  1
  Si  Si7  1  0.491497  0.508503  0.250000  1
  Si  Si8  1  0.219238  0.780762  0.750000  1
  Si  Si9  1  0.776344  0.223656  0.250000  1
  Si  Si10  1  0.252923  0.046607  0.346922  1
  Si  Si11  1  0.733411  0.946204  0.658020  1
  Si  Si12  1  0.953393  0.747077  0.153078  1
  Si  Si13  1  0.053796  0.266589  0.841980  1
  Pt  Pt14  1  0.518522  0.244701  0.129752  1
  Pt  Pt15  1  0.755299  0.481478  0.370248  1
  Rh  Rh16  1  0.474186  0.740507  0.866603  1
  Rh  Rh17  1  0.259493  0.525814  0.633397  1
  Rh  Rh18  1  0.991037  0.008963  0.250000  1
  Rh  Rh19  1  0.000031  0.999969  0.750000  1
