# generated using pymatgen
data_La4Dy6IrRh3
_symmetry_space_group_name_H-M   'P 1'
_cell_length_a   6.54000595
_cell_length_b   7.21593809
_cell_length_c   8.93439858
_cell_angle_alpha   96.77975222
_cell_angle_beta   111.46260338
_cell_angle_gamma   90.00196674
_symmetry_Int_Tables_number   1
_chemical_formula_structural   La4Dy6IrRh3
_chemical_formula_sum   'La4 Dy6 Ir1 Rh3'
_cell_volume   389.22658020
_cell_formula_units_Z   1
loop_
 _symmetry_equiv_pos_site_id
 _symmetry_equiv_pos_as_xyz
  1  'x, y, z'
loop_
 _atom_site_type_symbol
 _atom_site_label
 _atom_site_symmetry_multiplicity
 _atom_site_fract_x
 _atom_site_fract_y
 _atom_site_fract_z
 _atom_site_occupancy
  La  La0  1  0.785352  0.082494  0.805799  1
  La  La1  1  0.980322  0.417334  0.195374  1
  La  La2  1  0.216124  0.917254  0.194242  1
  La  La3  1  0.019974  0.582079  0.805344  1
  Dy  Dy4  1  0.208761  0.183787  0.567176  1
  Dy  Dy5  1  0.640161  0.314721  0.431158  1
  Dy  Dy6  1  0.793415  0.816207  0.434976  1
  Dy  Dy7  1  0.358000  0.686263  0.568741  1
  Dy  Dy8  1  0.426915  0.249074  0.999193  1
  Dy  Dy9  1  0.570767  0.749877  0.998907  1
  Ir  Ir10  1  0.184997  0.923606  0.772199  1
  Rh  Rh11  1  0.589444  0.423734  0.774113  1
  Rh  Rh12  1  0.815924  0.077192  0.226761  1
  Rh  Rh13  1  0.409843  0.576378  0.226017  1
