# generated using pymatgen
data_Pa2MnOs3
_symmetry_space_group_name_H-M   'P 1'
_cell_length_a   5.14035119
_cell_length_b   5.52909296
_cell_length_c   8.87470400
_cell_angle_alpha   90.00000000
_cell_angle_beta   90.00000000
_cell_angle_gamma   122.53487922
_symmetry_Int_Tables_number   1
_chemical_formula_structural   Pa2MnOs3
_chemical_formula_sum   'Pa4 Mn2 Os6'
_cell_volume   212.64795486
_cell_formula_units_Z   2
loop_
 _symmetry_equiv_pos_site_id
 _symmetry_equiv_pos_as_xyz
  1  'x, y, z'
loop_
 _atom_site_type_symbol
 _atom_site_label
 _atom_site_symmetry_multiplicity
 _atom_site_fract_x
 _atom_site_fract_y
 _atom_site_fract_z
 _atom_site_occupancy
  Pa  Pa0  1  0.330524  0.665262  0.067172  1
  Pa  Pa1  1  0.669476  0.334738  0.567172  1
  Pa  Pa2  1  0.669476  0.334738  0.932828  1
  Pa  Pa3  1  0.330524  0.665262  0.432828  1
  Mn  Mn4  1  0.667023  0.833511  0.750000  1
  Mn  Mn5  1  0.332977  0.166489  0.250000  1
  Os  Os6  1  0.000000  0.000000  0.500000  1
  Os  Os7  1  0.000000  0.000000  0.000000  1
  Os  Os8  1  0.171985  0.341378  0.750000  1
  Os  Os9  1  0.828015  0.169395  0.250000  1
  Os  Os10  1  0.828015  0.658622  0.250000  1
  Os  Os11  1  0.171985  0.830605  0.750000  1
