# generated using pymatgen
data_LaErCu2(AsH)2
_symmetry_space_group_name_H-M   'P 1'
_cell_length_a   3.98298900
_cell_length_b   3.98298900
_cell_length_c   7.81542800
_cell_angle_alpha   90.00000000
_cell_angle_beta   90.00000000
_cell_angle_gamma   90.00000000
_symmetry_Int_Tables_number   1
_chemical_formula_structural   LaErCu2(AsH)2
_chemical_formula_sum   'La1 Er1 Cu2 As2 H2'
_cell_volume   123.98552362
_cell_formula_units_Z   1
loop_
 _symmetry_equiv_pos_site_id
 _symmetry_equiv_pos_as_xyz
  1  'x, y, z'
loop_
 _atom_site_type_symbol
 _atom_site_label
 _atom_site_symmetry_multiplicity
 _atom_site_fract_x
 _atom_site_fract_y
 _atom_site_fract_z
 _atom_site_occupancy
  La  La0  1  0.000000  0.500000  0.835863  1
  Er  Er1  1  0.500000  0.000000  0.174582  1
  Cu  Cu2  1  0.500000  0.500000  0.488876  1
  Cu  Cu3  1  0.000000  0.000000  0.488876  1
  As  As4  1  0.000000  0.500000  0.293587  1
  As  As5  1  0.500000  0.000000  0.684414  1
  H  H6  1  0.000000  0.000000  0.016901  1
  H  H7  1  0.500000  0.500000  0.016901  1
