# generated using pymatgen
data_Dy2CoB10
_symmetry_space_group_name_H-M   'P 1'
_cell_length_a   4.14626000
_cell_length_b   5.54406000
_cell_length_c   11.07682200
_cell_angle_alpha   90.00000000
_cell_angle_beta   90.00000000
_cell_angle_gamma   90.00000000
_symmetry_Int_Tables_number   1
_chemical_formula_structural   Dy2CoB10
_chemical_formula_sum   'Dy4 Co2 B20'
_cell_volume   254.62417246
_cell_formula_units_Z   2
loop_
 _symmetry_equiv_pos_site_id
 _symmetry_equiv_pos_as_xyz
  1  'x, y, z'
loop_
 _atom_site_type_symbol
 _atom_site_label
 _atom_site_symmetry_multiplicity
 _atom_site_fract_x
 _atom_site_fract_y
 _atom_site_fract_z
 _atom_site_occupancy
  Dy  Dy0  1  0.500000  0.298813  0.867035  1
  Dy  Dy1  1  0.500000  0.701187  0.132965  1
  Dy  Dy2  1  0.500000  0.798813  0.632965  1
  Dy  Dy3  1  0.500000  0.201187  0.367035  1
  Co  Co4  1  0.000000  0.500000  0.500000  1
  Co  Co5  1  0.000000  0.000000  0.000000  1
  B  B6  1  0.000000  0.127660  0.539759  1
  B  B7  1  0.000000  0.872340  0.460241  1
  B  B8  1  0.000000  0.627660  0.960241  1
  B  B9  1  0.000000  0.372340  0.039759  1
  B  B10  1  0.000000  0.157945  0.698099  1
  B  B11  1  0.000000  0.842055  0.301901  1
  B  B12  1  0.300125  0.200736  0.113237  1
  B  B13  1  0.300125  0.799264  0.886763  1
  B  B14  1  0.699875  0.700736  0.386763  1
  B  B15  1  0.699875  0.299264  0.613237  1
  B  B16  1  0.699875  0.799264  0.886763  1
  B  B17  1  0.699875  0.200736  0.113237  1
  B  B18  1  0.300125  0.299264  0.613237  1
  B  B19  1  0.300125  0.700736  0.386763  1
  B  B20  1  0.000000  0.029848  0.186064  1
  B  B21  1  0.000000  0.970152  0.813936  1
  B  B22  1  0.000000  0.529848  0.313936  1
  B  B23  1  0.000000  0.470152  0.686064  1
  B  B24  1  0.000000  0.342055  0.198099  1
  B  B25  1  0.000000  0.657945  0.801901  1
