# generated using pymatgen
data_SmCo2(B2Os)2
_symmetry_space_group_name_H-M   'P 1'
_cell_length_a   7.27314200
_cell_length_b   7.27314200
_cell_length_c   3.93094700
_cell_angle_alpha   90.00000000
_cell_angle_beta   90.00000000
_cell_angle_gamma   90.00000000
_symmetry_Int_Tables_number   1
_chemical_formula_structural   SmCo2(B2Os)2
_chemical_formula_sum   'Sm2 Co4 B8 Os4'
_cell_volume   207.94157156
_cell_formula_units_Z   2
loop_
 _symmetry_equiv_pos_site_id
 _symmetry_equiv_pos_as_xyz
  1  'x, y, z'
loop_
 _atom_site_type_symbol
 _atom_site_label
 _atom_site_symmetry_multiplicity
 _atom_site_fract_x
 _atom_site_fract_y
 _atom_site_fract_z
 _atom_site_occupancy
  Sm  Sm0  1  0.000000  0.000000  0.910350  1
  Sm  Sm1  1  0.500000  0.500000  0.410350  1
  Co  Co2  1  0.118452  0.379096  0.623858  1
  Co  Co3  1  0.881548  0.620904  0.623858  1
  Co  Co4  1  0.120904  0.618452  0.123858  1
  Co  Co5  1  0.879096  0.381548  0.123858  1
  B  B6  1  0.818341  0.656810  0.119524  1
  B  B7  1  0.181659  0.343190  0.119524  1
  B  B8  1  0.843190  0.318341  0.619524  1
  B  B9  1  0.156810  0.681659  0.619524  1
  B  B10  1  0.732517  0.824897  0.402048  1
  B  B11  1  0.267483  0.175103  0.402048  1
  B  B12  1  0.675103  0.232517  0.902048  1
  B  B13  1  0.324897  0.767483  0.902048  1
  Os  Os14  1  0.391527  0.159129  0.899396  1
  Os  Os15  1  0.608473  0.840871  0.899396  1
  Os  Os16  1  0.340871  0.891527  0.399396  1
  Os  Os17  1  0.659129  0.108473  0.399396  1
