# generated using pymatgen
data_Tb9Pr8Sc3Si15Ge
_symmetry_space_group_name_H-M   'P 1'
_cell_length_a   7.45738880
_cell_length_b   7.81487602
_cell_length_c   14.81454176
_cell_angle_alpha   90.02448193
_cell_angle_beta   89.85779738
_cell_angle_gamma   89.92909212
_symmetry_Int_Tables_number   1
_chemical_formula_structural   Tb9Pr8Sc3Si15Ge
_chemical_formula_sum   'Tb9 Pr8 Sc3 Si15 Ge1'
_cell_volume   863.36689193
_cell_formula_units_Z   1
loop_
 _symmetry_equiv_pos_site_id
 _symmetry_equiv_pos_as_xyz
  1  'x, y, z'
loop_
 _atom_site_type_symbol
 _atom_site_label
 _atom_site_symmetry_multiplicity
 _atom_site_fract_x
 _atom_site_fract_y
 _atom_site_fract_z
 _atom_site_occupancy
  Tb  Tb0  1  0.320323  0.178070  0.623692  1
  Tb  Tb1  1  0.679800  0.822104  0.374161  1
  Tb  Tb2  1  0.651154  0.988178  0.750216  1
  Tb  Tb3  1  0.178886  0.679051  0.374148  1
  Tb  Tb4  1  0.822181  0.322381  0.876529  1
  Tb  Tb5  1  0.821264  0.322231  0.623461  1
  Tb  Tb6  1  0.319160  0.179686  0.876915  1
  Tb  Tb7  1  0.179498  0.678374  0.125421  1
  Tb  Tb8  1  0.679977  0.821759  0.125604  1
  Pr  Pr9  1  0.020553  0.179800  0.400373  1
  Pr  Pr10  1  0.521807  0.319095  0.400184  1
  Pr  Pr11  1  0.476624  0.680081  0.902017  1
  Pr  Pr12  1  0.478519  0.680962  0.598261  1
  Pr  Pr13  1  0.978291  0.818941  0.597540  1
  Pr  Pr14  1  0.978911  0.817909  0.902591  1
  Pr  Pr15  1  0.521618  0.319653  0.099457  1
  Pr  Pr16  1  0.021506  0.180581  0.099125  1
  Sc  Sc17  1  0.846768  0.486079  0.250023  1
  Sc  Sc18  1  0.346681  0.013762  0.249901  1
  Sc  Sc19  1  0.153242  0.513923  0.750995  1
  Si  Si20  1  0.268270  0.873207  0.750024  1
  Si  Si21  1  0.480007  0.602769  0.249955  1
  Si  Si22  1  0.026586  0.107351  0.749987  1
  Si  Si23  1  0.521970  0.394738  0.750027  1
  Si  Si24  1  0.980670  0.898653  0.249807  1
  Si  Si25  1  0.724494  0.126935  0.249892  1
  Si  Si26  1  0.854664  0.530590  0.041304  1
  Si  Si27  1  0.355047  0.969359  0.041357  1
  Si  Si28  1  0.145258  0.469155  0.961360  1
  Si  Si29  1  0.645454  0.031633  0.537638  1
  Si  Si30  1  0.354663  0.969281  0.458757  1
  Si  Si31  1  0.850249  0.531292  0.457700  1
  Si  Si32  1  0.776257  0.619698  0.749952  1
  Si  Si33  1  0.224057  0.373323  0.250020  1
  Si  Si34  1  0.645225  0.031516  0.962295  1
  Ge  Ge35  1  0.150364  0.467881  0.539313  1
