# generated using pymatgen
data_Tb3TmRh2Pb5
_symmetry_space_group_name_H-M   'P 1'
_cell_length_a   8.15690613
_cell_length_b   3.58655500
_cell_length_c   9.87585549
_cell_angle_alpha   90.00000000
_cell_angle_beta   93.66803680
_cell_angle_gamma   90.00000000
_symmetry_Int_Tables_number   1
_chemical_formula_structural   Tb3TmRh2Pb5
_chemical_formula_sum   'Tb3 Tm1 Rh2 Pb5'
_cell_volume   288.32818967
_cell_formula_units_Z   1
loop_
 _symmetry_equiv_pos_site_id
 _symmetry_equiv_pos_as_xyz
  1  'x, y, z'
loop_
 _atom_site_type_symbol
 _atom_site_label
 _atom_site_symmetry_multiplicity
 _atom_site_fract_x
 _atom_site_fract_y
 _atom_site_fract_z
 _atom_site_occupancy
  Tb  Tb0  1  0.304883  0.500000  0.158252  1
  Tb  Tb1  1  0.702686  0.500000  0.431777  1
  Tb  Tb2  1  0.297588  0.500000  0.568749  1
  Tm  Tm3  1  0.694970  0.500000  0.838377  1
  Rh  Rh4  1  0.418255  0.000000  0.365858  1
  Rh  Rh5  1  0.583696  0.000000  0.639133  1
  Pb  Pb6  1  0.996894  0.000000  0.998916  1
  Pb  Pb7  1  0.646016  0.000000  0.135316  1
  Pb  Pb8  1  0.041080  0.000000  0.335599  1
  Pb  Pb9  1  0.957172  0.000000  0.664683  1
  Pb  Pb10  1  0.356761  0.000000  0.863341  1
