# generated using pymatgen
data_Ho10In5SnO2
_symmetry_space_group_name_H-M   'P 1'
_cell_length_a   9.12908426
_cell_length_b   9.12908469
_cell_length_c   9.12908400
_cell_angle_alpha   127.34712967
_cell_angle_beta   127.34712384
_cell_angle_gamma   77.68506594
_symmetry_Int_Tables_number   1
_chemical_formula_structural   Ho10In5SnO2
_chemical_formula_sum   'Ho10 In5 Sn1 O2'
_cell_volume   466.19276158
_cell_formula_units_Z   1
loop_
 _symmetry_equiv_pos_site_id
 _symmetry_equiv_pos_as_xyz
  1  'x, y, z'
loop_
 _atom_site_type_symbol
 _atom_site_label
 _atom_site_symmetry_multiplicity
 _atom_site_fract_x
 _atom_site_fract_y
 _atom_site_fract_z
 _atom_site_occupancy
  Ho  Ho0  1  0.998182  0.192280  0.497567  1
  Ho  Ho1  1  0.805287  0.307720  0.805903  1
  Ho  Ho2  1  0.500616  0.998182  0.805903  1
  Ho  Ho3  1  0.501818  0.999384  0.194097  1
  Ho  Ho4  1  0.999384  0.805287  0.497567  1
  Ho  Ho5  1  0.502684  0.502684  0.000000  1
  Ho  Ho6  1  0.192280  0.694713  0.194097  1
  Ho  Ho7  1  0.694713  0.500616  0.502433  1
  Ho  Ho8  1  0.307720  0.501818  0.502433  1
  Ho  Ho9  1  0.997316  0.997316  0.000000  1
  In  In10  1  0.865612  0.365612  0.231224  1
  In  In11  1  0.134388  0.634388  0.768776  1
  In  In12  1  0.365612  0.134388  0.500000  1
  In  In13  1  0.750000  0.750000  0.000000  1
  In  In14  1  0.634388  0.865612  0.500000  1
  Sn  Sn15  1  0.250000  0.250000  0.000000  1
  O  O16  1  0.750000  0.250000  0.500000  1
  O  O17  1  0.250000  0.750000  0.500000  1
