# generated using pymatgen
data_Ce2PaF12
_symmetry_space_group_name_H-M   'P 1'
_cell_length_a   8.47340755
_cell_length_b   8.47340734
_cell_length_c   8.35290703
_cell_angle_alpha   63.55832688
_cell_angle_beta   63.55832573
_cell_angle_gamma   80.59910315
_symmetry_Int_Tables_number   1
_chemical_formula_structural   Ce2PaF12
_chemical_formula_sum   'Ce4 Pa2 F24'
_cell_volume   480.35651877
_cell_formula_units_Z   2
loop_
 _symmetry_equiv_pos_site_id
 _symmetry_equiv_pos_as_xyz
  1  'x, y, z'
loop_
 _atom_site_type_symbol
 _atom_site_label
 _atom_site_symmetry_multiplicity
 _atom_site_fract_x
 _atom_site_fract_y
 _atom_site_fract_z
 _atom_site_occupancy
  Ce  Ce0  1  0.371264  0.224687  0.333015  1
  Ce  Ce1  1  0.775313  0.628736  0.166985  1
  Ce  Ce2  1  0.628736  0.775313  0.666985  1
  Ce  Ce3  1  0.224687  0.371264  0.833015  1
  Pa  Pa4  1  0.213354  0.786646  0.250000  1
  Pa  Pa5  1  0.786646  0.213354  0.750000  1
  F  F6  1  0.602098  0.397902  0.250000  1
  F  F7  1  0.397902  0.602098  0.750000  1
  F  F8  1  0.487530  0.744173  0.219034  1
  F  F9  1  0.255827  0.512470  0.280966  1
  F  F10  1  0.512470  0.255827  0.780966  1
  F  F11  1  0.744173  0.487530  0.719034  1
  F  F12  1  0.273482  0.967166  0.344165  1
  F  F13  1  0.032834  0.726518  0.155835  1
  F  F14  1  0.726518  0.032834  0.655835  1
  F  F15  1  0.967166  0.273482  0.844165  1
  F  F16  1  0.500000  0.000000  0.500000  1
  F  F17  1  0.000000  0.500000  0.000000  1
  F  F18  1  0.176230  0.054573  0.051772  1
  F  F19  1  0.945427  0.823770  0.448228  1
  F  F20  1  0.823770  0.945427  0.948228  1
  F  F21  1  0.054573  0.176230  0.551772  1
  F  F22  1  0.606733  0.181717  0.061294  1
  F  F23  1  0.818283  0.393267  0.438706  1
  F  F24  1  0.393267  0.818283  0.938706  1
  F  F25  1  0.181717  0.606733  0.561294  1
  F  F26  1  0.263704  0.314130  0.106195  1
  F  F27  1  0.685870  0.736296  0.393805  1
  F  F28  1  0.736296  0.685870  0.893805  1
  F  F29  1  0.314130  0.263704  0.606195  1
