# generated using pymatgen
data_Zr12Zn9Cu(PdN2)2
_symmetry_space_group_name_H-M   'P 1'
_cell_length_a   8.59716427
_cell_length_b   8.59716462
_cell_length_c   8.56767902
_cell_angle_alpha   60.13648773
_cell_angle_beta   60.13648440
_cell_angle_gamma   60.05202729
_symmetry_Int_Tables_number   1
_chemical_formula_structural   Zr12Zn9Cu(PdN2)2
_chemical_formula_sum   'Zr12 Zn9 Cu1 Pd2 N4'
_cell_volume   448.87219136
_cell_formula_units_Z   1
loop_
 _symmetry_equiv_pos_site_id
 _symmetry_equiv_pos_as_xyz
  1  'x, y, z'
loop_
 _atom_site_type_symbol
 _atom_site_label
 _atom_site_symmetry_multiplicity
 _atom_site_fract_x
 _atom_site_fract_y
 _atom_site_fract_z
 _atom_site_occupancy
  Zr  Zr0  1  0.812866  0.186291  0.188620  1
  Zr  Zr1  1  0.186291  0.812866  0.188620  1
  Zr  Zr2  1  0.811753  0.811753  0.186994  1
  Zr  Zr3  1  0.184486  0.813411  0.812916  1
  Zr  Zr4  1  0.813411  0.184486  0.812916  1
  Zr  Zr5  1  0.189008  0.189008  0.811119  1
  Zr  Zr6  1  0.437134  0.063709  0.061380  1
  Zr  Zr7  1  0.063709  0.437134  0.061380  1
  Zr  Zr8  1  0.438247  0.438247  0.063006  1
  Zr  Zr9  1  0.065514  0.436589  0.437084  1
  Zr  Zr10  1  0.436589  0.065514  0.437084  1
  Zr  Zr11  1  0.060992  0.060992  0.438881  1
  Zn  Zn12  1  0.419630  0.419630  0.743506  1
  Zn  Zn13  1  0.422549  0.422549  0.414107  1
  Zn  Zn14  1  0.743564  0.421566  0.414273  1
  Zn  Zn15  1  0.421566  0.743564  0.414273  1
  Zn  Zn16  1  0.830370  0.830370  0.506494  1
  Zn  Zn17  1  0.827451  0.827451  0.835893  1
  Zn  Zn18  1  0.506436  0.828434  0.835727  1
  Zn  Zn19  1  0.828434  0.506436  0.835727  1
  Zn  Zn20  1  0.625000  0.625000  0.625000  1
  Cu  Cu21  1  0.625000  0.625000  0.125000  1
  Pd  Pd22  1  0.125000  0.625000  0.625000  1
  Pd  Pd23  1  0.625000  0.125000  0.625000  1
  N  N24  1  0.125000  0.125000  0.625000  1
  N  N25  1  0.125000  0.125000  0.125000  1
  N  N26  1  0.625000  0.125000  0.125000  1
  N  N27  1  0.125000  0.625000  0.125000  1
