# generated using pymatgen
data_U4ReTc
_symmetry_space_group_name_H-M   'P 1'
_cell_length_a   5.38651906
_cell_length_b   4.60701375
_cell_length_c   5.02729200
_cell_angle_alpha   90.00000000
_cell_angle_beta   90.00000000
_cell_angle_gamma   115.31807549
_symmetry_Int_Tables_number   1
_chemical_formula_structural   U4ReTc
_chemical_formula_sum   'U4 Re1 Tc1'
_cell_volume   112.77299543
_cell_formula_units_Z   1
loop_
 _symmetry_equiv_pos_site_id
 _symmetry_equiv_pos_as_xyz
  1  'x, y, z'
loop_
 _atom_site_type_symbol
 _atom_site_label
 _atom_site_symmetry_multiplicity
 _atom_site_fract_x
 _atom_site_fract_y
 _atom_site_fract_z
 _atom_site_occupancy
  U  U0  1  0.641430  0.405100  0.000000  1
  U  U1  1  0.358570  0.763671  0.000000  1
  U  U2  1  0.638461  0.902764  0.500000  1
  U  U3  1  0.361537  0.264302  0.500000  1
  Re  Re4  1  0.000000  0.584717  0.500000  1
  Tc  Tc5  1  0.000000  0.079446  0.000000  1
