# generated using pymatgen
data_Zr10GeBi5PtPb
_symmetry_space_group_name_H-M   'P 1'
_cell_length_a   8.89484100
_cell_length_b   8.91432625
_cell_length_c   5.94738170
_cell_angle_alpha   90.01390341
_cell_angle_beta   89.97212582
_cell_angle_gamma   119.92771572
_symmetry_Int_Tables_number   1
_chemical_formula_structural   Zr10GeBi5PtPb
_chemical_formula_sum   'Zr10 Ge1 Bi5 Pt1 Pb1'
_cell_volume   408.69467474
_cell_formula_units_Z   1
loop_
 _symmetry_equiv_pos_site_id
 _symmetry_equiv_pos_as_xyz
  1  'x, y, z'
loop_
 _atom_site_type_symbol
 _atom_site_label
 _atom_site_symmetry_multiplicity
 _atom_site_fract_x
 _atom_site_fract_y
 _atom_site_fract_z
 _atom_site_occupancy
  Zr  Zr0  1  0.333417  0.667111  0.999102  1
  Zr  Zr1  1  0.667193  0.333500  0.500242  1
  Zr  Zr2  1  0.666307  0.332889  0.999102  1
  Zr  Zr3  1  0.333692  0.666500  0.500242  1
  Zr  Zr4  1  0.260881  0.000000  0.244258  1
  Zr  Zr5  1  0.263471  0.263276  0.756027  1
  Zr  Zr6  1  0.000194  0.736724  0.756027  1
  Zr  Zr7  1  0.000433  0.262998  0.243814  1
  Zr  Zr8  1  0.737435  0.737002  0.243814  1
  Zr  Zr9  1  0.736986  0.000000  0.756086  1
  Ge  Ge10  1  0.000077  0.000000  0.998746  1
  Bi  Bi11  1  0.609096  0.000000  0.252541  1
  Bi  Bi12  1  0.611067  0.610870  0.748565  1
  Bi  Bi13  1  0.000197  0.389130  0.748565  1
  Bi  Bi14  1  0.000721  0.611187  0.251257  1
  Bi  Bi15  1  0.389533  0.388813  0.251257  1
  Pt  Pt16  1  0.000863  0.000000  0.502045  1
  Pb  Pb17  1  0.388436  0.000000  0.748315  1
