# generated using pymatgen
data_Tb2SmBiO7
_symmetry_space_group_name_H-M   'P 1'
_cell_length_a   6.61846392
_cell_length_b   6.61288240
_cell_length_c   7.78110390
_cell_angle_alpha   106.95381989
_cell_angle_beta   89.80475425
_cell_angle_gamma   98.81499780
_symmetry_Int_Tables_number   1
_chemical_formula_structural   Tb2SmBiO7
_chemical_formula_sum   'Tb4 Sm2 Bi2 O14'
_cell_volume   321.60115504
_cell_formula_units_Z   2
loop_
 _symmetry_equiv_pos_site_id
 _symmetry_equiv_pos_as_xyz
  1  'x, y, z'
loop_
 _atom_site_type_symbol
 _atom_site_label
 _atom_site_symmetry_multiplicity
 _atom_site_fract_x
 _atom_site_fract_y
 _atom_site_fract_z
 _atom_site_occupancy
  Tb  Tb0  1  0.462417  0.005186  0.251316  1
  Tb  Tb1  1  0.537583  0.994814  0.748684  1
  Tb  Tb2  1  0.272339  0.537859  0.883851  1
  Tb  Tb3  1  0.727661  0.462141  0.116149  1
  Sm  Sm4  1  0.736856  0.478459  0.615581  1
  Sm  Sm5  1  0.263144  0.521541  0.384419  1
  Bi  Bi6  1  0.000000  0.000000  0.500000  1
  Bi  Bi7  1  0.000000  0.000000  0.000000  1
  O  O8  1  0.447772  0.649278  0.163889  1
  O  O9  1  0.552228  0.350722  0.836111  1
  O  O10  1  0.300812  0.923151  0.952360  1
  O  O11  1  0.699188  0.076849  0.047640  1
  O  O12  1  0.298488  0.927350  0.512813  1
  O  O13  1  0.701512  0.072650  0.487187  1
  O  O14  1  0.547340  0.361340  0.341488  1
  O  O15  1  0.452660  0.638660  0.658512  1
  O  O16  1  0.926229  0.667406  0.959572  1
  O  O17  1  0.073771  0.332594  0.040428  1
  O  O18  1  0.073197  0.345442  0.621684  1
  O  O19  1  0.926803  0.654558  0.378316  1
  O  O20  1  0.875967  0.904311  0.725475  1
  O  O21  1  0.124033  0.095689  0.274525  1
