# generated using pymatgen
data_Ta7TiSi2(B2Mo)2
_symmetry_space_group_name_H-M   'P 1'
_cell_length_a   7.24470584
_cell_length_b   7.25855087
_cell_length_c   7.24340428
_cell_angle_alpha   129.64017410
_cell_angle_beta   129.58857484
_cell_angle_gamma   74.11021065
_symmetry_Int_Tables_number   1
_chemical_formula_structural   Ta7TiSi2(B2Mo)2
_chemical_formula_sum   'Ta7 Ti1 Si2 B4 Mo2'
_cell_volume   220.31443558
_cell_formula_units_Z   1
loop_
 _symmetry_equiv_pos_site_id
 _symmetry_equiv_pos_as_xyz
  1  'x, y, z'
loop_
 _atom_site_type_symbol
 _atom_site_label
 _atom_site_symmetry_multiplicity
 _atom_site_fract_x
 _atom_site_fract_y
 _atom_site_fract_z
 _atom_site_occupancy
  Ta  Ta0  1  0.306091  0.806069  0.835764  1
  Ta  Ta1  1  0.194011  0.030151  0.499999  1
  Ta  Ta2  1  0.530346  0.693493  0.500000  1
  Ta  Ta3  1  0.029242  0.530171  0.836014  1
  Ta  Ta4  1  0.693227  0.194156  0.163985  1
  Ta  Ta5  1  0.970328  0.470305  0.164237  1
  Ta  Ta6  1  0.472344  0.305235  0.499999  1
  Ti  Ti7  1  0.805485  0.968767  0.500000  1
  Si  Si8  1  0.749826  0.751795  0.004058  1
  Si  Si9  1  0.245767  0.247737  0.995942  1
  B  B10  1  0.383632  0.882618  0.264854  1
  B  B11  1  0.881116  0.620242  0.500000  1
  B  B12  1  0.618779  0.117765  0.735147  1
  B  B13  1  0.119373  0.380350  0.499999  1
  Mo  Mo14  1  0.999632  0.999989  0.998832  1
  Mo  Mo15  1  0.500799  0.501157  0.001167  1
