# generated using pymatgen
data_La6In8GeTe
_symmetry_space_group_name_H-M   'P 1'
_cell_length_a   8.70555194
_cell_length_b   8.70555230
_cell_length_c   8.70555208
_cell_angle_alpha   119.53227658
_cell_angle_beta   119.53228175
_cell_angle_gamma   90.81204928
_symmetry_Int_Tables_number   1
_chemical_formula_structural   La6In8GeTe
_chemical_formula_sum   'La6 In8 Ge1 Te1'
_cell_volume   469.77099920
_cell_formula_units_Z   1
loop_
 _symmetry_equiv_pos_site_id
 _symmetry_equiv_pos_as_xyz
  1  'x, y, z'
loop_
 _atom_site_type_symbol
 _atom_site_label
 _atom_site_symmetry_multiplicity
 _atom_site_fract_x
 _atom_site_fract_y
 _atom_site_fract_z
 _atom_site_occupancy
  La  La0  1  0.745311  0.745311  0.000000  1
  La  La1  1  0.254689  0.254689  0.000000  1
  La  La2  1  0.342341  0.831245  0.173586  1
  La  La3  1  0.657659  0.168755  0.826414  1
  La  La4  1  0.831245  0.657659  0.488904  1
  La  La5  1  0.168755  0.342341  0.511096  1
  In  In6  1  0.960346  0.457352  0.787856  1
  In  In7  1  0.669496  0.172491  0.212144  1
  In  In8  1  0.457352  0.669496  0.497006  1
  In  In9  1  0.172491  0.960346  0.502994  1
  In  In10  1  0.039654  0.542648  0.212144  1
  In  In11  1  0.330504  0.827509  0.787856  1
  In  In12  1  0.542648  0.330504  0.502994  1
  In  In13  1  0.827509  0.039654  0.497006  1
  Ge  Ge14  1  0.500000  0.500000  0.000000  1
  Te  Te15  1  0.000000  0.000000  0.000000  1
