# generated using pymatgen
data_LuHfZr2(Al3Rh)6
_symmetry_space_group_name_H-M   'P 1'
_cell_length_a   7.47800105
_cell_length_b   7.47467091
_cell_length_c   9.28443700
_cell_angle_alpha   90.00000000
_cell_angle_beta   90.00000000
_cell_angle_gamma   119.71290656
_symmetry_Int_Tables_number   1
_chemical_formula_structural   LuHfZr2(Al3Rh)6
_chemical_formula_sum   'Lu1 Hf1 Zr2 Al18 Rh6'
_cell_volume   450.72633918
_cell_formula_units_Z   1
loop_
 _symmetry_equiv_pos_site_id
 _symmetry_equiv_pos_as_xyz
  1  'x, y, z'
loop_
 _atom_site_type_symbol
 _atom_site_label
 _atom_site_symmetry_multiplicity
 _atom_site_fract_x
 _atom_site_fract_y
 _atom_site_fract_z
 _atom_site_occupancy
  Lu  Lu0  1  0.328450  0.006083  0.750000  1
  Hf  Hf1  1  0.671288  0.993741  0.250000  1
  Zr  Zr2  1  0.994275  0.672042  0.250000  1
  Zr  Zr3  1  0.005913  0.328829  0.750000  1
  Al  Al4  1  0.121849  0.122889  0.250000  1
  Al  Al5  1  0.872890  0.875615  0.750000  1
  Al  Al6  1  0.996665  0.334510  0.078044  1
  Al  Al7  1  0.000974  0.663355  0.925683  1
  Al  Al8  1  0.000974  0.663355  0.574317  1
  Al  Al9  1  0.335210  0.997549  0.419552  1
  Al  Al10  1  0.996665  0.334510  0.421956  1
  Al  Al11  1  0.667131  0.002406  0.574587  1
  Al  Al12  1  0.667131  0.002406  0.925413  1
  Al  Al13  1  0.335210  0.997549  0.080448  1
  Al  Al14  1  0.331412  0.333291  0.555269  1
  Al  Al15  1  0.668946  0.668895  0.439935  1
  Al  Al16  1  0.668946  0.668895  0.060065  1
  Al  Al17  1  0.331412  0.333291  0.944731  1
  Al  Al18  1  0.338383  0.553733  0.250000  1
  Al  Al19  1  0.664978  0.450258  0.750000  1
  Al  Al20  1  0.555639  0.339087  0.250000  1
  Al  Al21  1  0.445474  0.657587  0.750000  1
  Rh  Rh22  1  0.672567  0.326999  0.000609  1
  Rh  Rh23  1  0.328267  0.673776  0.001287  1
  Rh  Rh24  1  0.328267  0.673776  0.498713  1
  Rh  Rh25  1  0.672567  0.326999  0.499391  1
  Rh  Rh26  1  0.999259  0.999288  0.000754  1
  Rh  Rh27  1  0.999259  0.999288  0.499246  1
