# generated using pymatgen
data_BaYb3Sb2
_symmetry_space_group_name_H-M   'P 1'
_cell_length_a   9.35511181
_cell_length_b   9.35511253
_cell_length_c   9.35511200
_cell_angle_alpha   149.70673144
_cell_angle_beta   149.70672682
_cell_angle_gamma   43.37206136
_symmetry_Int_Tables_number   1
_chemical_formula_structural   BaYb3Sb2
_chemical_formula_sum   'Ba1 Yb3 Sb2'
_cell_volume   207.76540403
_cell_formula_units_Z   1
loop_
 _symmetry_equiv_pos_site_id
 _symmetry_equiv_pos_as_xyz
  1  'x, y, z'
loop_
 _atom_site_type_symbol
 _atom_site_label
 _atom_site_symmetry_multiplicity
 _atom_site_fract_x
 _atom_site_fract_y
 _atom_site_fract_z
 _atom_site_occupancy
  Ba  Ba0  1  0.676015  0.676015  0.000000  1
  Yb  Yb1  1  0.997145  0.497145  0.500000  1
  Yb  Yb2  1  0.329434  0.329434  0.000000  1
  Yb  Yb3  1  0.497145  0.997145  0.500000  1
  Sb  Sb4  1  0.129629  0.129629  0.000000  1
  Sb  Sb5  1  0.870634  0.870634  0.000000  1
