# generated using pymatgen
data_Tm2Nb(ZnRh2)3
_symmetry_space_group_name_H-M   'P 1'
_cell_length_a   4.52221200
_cell_length_b   6.29245100
_cell_length_c   13.50709900
_cell_angle_alpha   90.00000000
_cell_angle_beta   89.99995345
_cell_angle_gamma   90.00000000
_symmetry_Int_Tables_number   1
_chemical_formula_structural   Tm2Nb(ZnRh2)3
_chemical_formula_sum   'Tm4 Nb2 Zn6 Rh12'
_cell_volume   384.35527290
_cell_formula_units_Z   2
loop_
 _symmetry_equiv_pos_site_id
 _symmetry_equiv_pos_as_xyz
  1  'x, y, z'
loop_
 _atom_site_type_symbol
 _atom_site_label
 _atom_site_symmetry_multiplicity
 _atom_site_fract_x
 _atom_site_fract_y
 _atom_site_fract_z
 _atom_site_occupancy
  Tm  Tm0  1  0.000006  0.000000  0.998074  1
  Tm  Tm1  1  0.499916  0.500000  0.166049  1
  Tm  Tm2  1  0.999934  0.000000  0.333968  1
  Tm  Tm3  1  0.499996  0.500000  0.501886  1
  Nb  Nb4  1  0.000059  0.000000  0.667041  1
  Nb  Nb5  1  0.500083  0.500000  0.832819  1
  Zn  Zn6  1  0.999996  0.500000  0.998005  1
  Zn  Zn7  1  0.499926  0.000000  0.165346  1
  Zn  Zn8  1  0.999944  0.500000  0.334742  1
  Zn  Zn9  1  0.499998  0.000000  0.501998  1
  Zn  Zn10  1  0.000051  0.500000  0.665693  1
  Zn  Zn11  1  0.500075  0.000000  0.834228  1
  Rh  Rh12  1  0.500003  0.259462  0.990654  1
  Rh  Rh13  1  0.500003  0.740538  0.990654  1
  Rh  Rh14  1  0.999910  0.249046  0.165260  1
  Rh  Rh15  1  0.999910  0.750954  0.165260  1
  Rh  Rh16  1  0.499935  0.250947  0.334888  1
  Rh  Rh17  1  0.499935  0.749055  0.334888  1
  Rh  Rh18  1  0.000005  0.240469  0.509381  1
  Rh  Rh19  1  0.000005  0.759531  0.509381  1
  Rh  Rh20  1  0.500070  0.241695  0.673988  1
  Rh  Rh21  1  0.500070  0.758307  0.673988  1
  Rh  Rh22  1  0.000084  0.258332  0.825905  1
  Rh  Rh23  1  0.000084  0.741668  0.825905  1
