# generated using pymatgen
data_Tm7Hf9(Si4W)4
_symmetry_space_group_name_H-M   'P 1'
_cell_length_a   7.09387334
_cell_length_b   7.09110669
_cell_length_c   12.96050426
_cell_angle_alpha   90.11274531
_cell_angle_beta   90.01248692
_cell_angle_gamma   89.96105518
_symmetry_Int_Tables_number   1
_chemical_formula_structural   Tm7Hf9(Si4W)4
_chemical_formula_sum   'Tm7 Hf9 Si16 W4'
_cell_volume   651.95616689
_cell_formula_units_Z   1
loop_
 _symmetry_equiv_pos_site_id
 _symmetry_equiv_pos_as_xyz
  1  'x, y, z'
loop_
 _atom_site_type_symbol
 _atom_site_label
 _atom_site_symmetry_multiplicity
 _atom_site_fract_x
 _atom_site_fract_y
 _atom_site_fract_z
 _atom_site_occupancy
  Tm  Tm0  1  0.498648  0.153783  0.533444  1
  Tm  Tm1  1  0.501378  0.846971  0.035437  1
  Tm  Tm2  1  0.655246  0.002162  0.283023  1
  Tm  Tm3  1  0.346442  0.998587  0.785103  1
  Tm  Tm4  1  0.845817  0.501590  0.966386  1
  Tm  Tm5  1  0.153223  0.498247  0.466099  1
  Tm  Tm6  1  0.001357  0.654022  0.715446  1
  Hf  Hf7  1  0.003763  0.348656  0.215194  1
  Hf  Hf8  1  0.494070  0.354537  0.125669  1
  Hf  Hf9  1  0.505050  0.645561  0.623981  1
  Hf  Hf10  1  0.854245  0.006635  0.876029  1
  Hf  Hf11  1  0.143337  0.994243  0.372785  1
  Hf  Hf12  1  0.645571  0.503282  0.373708  1
  Hf  Hf13  1  0.354226  0.494776  0.876541  1
  Hf  Hf14  1  0.004904  0.855436  0.126636  1
  Hf  Hf15  1  0.994134  0.145970  0.624679  1
  Si  Si16  1  0.801648  0.146615  0.071873  1
  Si  Si17  1  0.201853  0.857656  0.567066  1
  Si  Si18  1  0.642368  0.701997  0.817738  1
  Si  Si19  1  0.352665  0.299019  0.317244  1
  Si  Si20  1  0.858116  0.203552  0.429685  1
  Si  Si21  1  0.142040  0.797607  0.933071  1
  Si  Si22  1  0.707023  0.639239  0.180699  1
  Si  Si23  1  0.298763  0.357147  0.682426  1
  Si  Si24  1  0.551458  0.204214  0.934614  1
  Si  Si25  1  0.449323  0.796015  0.432762  1
  Si  Si26  1  0.703369  0.949632  0.683785  1
  Si  Si27  1  0.295119  0.052827  0.183568  1
  Si  Si28  1  0.796377  0.449425  0.565607  1
  Si  Si29  1  0.201568  0.549136  0.067633  1
  Si  Si30  1  0.950491  0.698308  0.315393  1
  Si  Si31  1  0.050653  0.296726  0.816334  1
  W  W32  1  0.676195  0.323475  0.750020  1
  W  W33  1  0.321188  0.673163  0.249858  1
  W  W34  1  0.823833  0.822300  0.498834  1
  W  W35  1  0.174541  0.177493  0.001631  1
