# generated using pymatgen
data_NaHf2CdF11
_symmetry_space_group_name_H-M   'P 1'
_cell_length_a   5.88002570
_cell_length_b   5.88002683
_cell_length_c   7.87862756
_cell_angle_alpha   69.83431065
_cell_angle_beta   69.83430782
_cell_angle_gamma   73.40078429
_symmetry_Int_Tables_number   1
_chemical_formula_structural   NaHf2CdF11
_chemical_formula_sum   'Na1 Hf2 Cd1 F11'
_cell_volume   235.68685304
_cell_formula_units_Z   1
loop_
 _symmetry_equiv_pos_site_id
 _symmetry_equiv_pos_as_xyz
  1  'x, y, z'
loop_
 _atom_site_type_symbol
 _atom_site_label
 _atom_site_symmetry_multiplicity
 _atom_site_fract_x
 _atom_site_fract_y
 _atom_site_fract_z
 _atom_site_occupancy
  Na  Na0  1  0.000000  0.000000  0.000000  1
  Hf  Hf1  1  0.500170  0.500170  0.230495  1
  Hf  Hf2  1  0.499830  0.499830  0.769505  1
  Cd  Cd3  1  0.000000  0.000000  0.500000  1
  F  F4  1  0.205123  0.770061  0.298985  1
  F  F5  1  0.229939  0.794877  0.701015  1
  F  F6  1  0.794877  0.229939  0.701015  1
  F  F7  1  0.770061  0.205123  0.298985  1
  F  F8  1  0.500000  0.500000  0.500000  1
  F  F9  1  0.663325  0.336675  0.000000  1
  F  F10  1  0.336675  0.663325  0.000000  1
  F  F11  1  0.735522  0.735522  0.655138  1
  F  F12  1  0.264478  0.264478  0.344862  1
  F  F13  1  0.730598  0.730598  0.112143  1
  F  F14  1  0.269402  0.269402  0.887857  1
