# generated using pymatgen
data_Li3Ca7ErSi12Ag
_symmetry_space_group_name_H-M   'P 1'
_cell_length_a   4.34668100
_cell_length_b   10.52106228
_cell_length_c   11.14851012
_cell_angle_alpha   89.49232452
_cell_angle_beta   90.00000000
_cell_angle_gamma   90.00000000
_symmetry_Int_Tables_number   1
_chemical_formula_structural   Li3Ca7ErSi12Ag
_chemical_formula_sum   'Li3 Ca7 Er1 Si12 Ag1'
_cell_volume   509.82032353
_cell_formula_units_Z   1
loop_
 _symmetry_equiv_pos_site_id
 _symmetry_equiv_pos_as_xyz
  1  'x, y, z'
loop_
 _atom_site_type_symbol
 _atom_site_label
 _atom_site_symmetry_multiplicity
 _atom_site_fract_x
 _atom_site_fract_y
 _atom_site_fract_z
 _atom_site_occupancy
  Li  Li0  1  0.500000  0.137722  0.717302  1
  Li  Li1  1  0.000000  0.359332  0.217972  1
  Li  Li2  1  0.000000  0.640503  0.783358  1
  Ca  Ca3  1  0.500000  0.552318  0.347911  1
  Ca  Ca4  1  0.500000  0.450309  0.650049  1
  Ca  Ca5  1  0.000000  0.947844  0.850044  1
  Ca  Ca6  1  0.500000  0.822814  0.574915  1
  Ca  Ca7  1  0.500000  0.178866  0.422047  1
  Ca  Ca8  1  0.000000  0.322431  0.927283  1
  Ca  Ca9  1  0.000000  0.675738  0.076793  1
  Er  Er10  1  0.000000  0.049440  0.148951  1
  Si  Si11  1  0.500000  0.894000  0.046222  1
  Si  Si12  1  0.500000  0.107478  0.962277  1
  Si  Si13  1  0.000000  0.392738  0.459086  1
  Si  Si14  1  0.000000  0.610731  0.539052  1
  Si  Si15  1  0.000000  0.970939  0.395827  1
  Si  Si16  1  0.000000  0.034294  0.596754  1
  Si  Si17  1  0.500000  0.462970  0.100918  1
  Si  Si18  1  0.500000  0.533806  0.901672  1
  Si  Si19  1  0.000000  0.255431  0.633123  1
  Si  Si20  1  0.000000  0.745917  0.362392  1
  Si  Si21  1  0.500000  0.755130  0.870369  1
  Si  Si22  1  0.500000  0.238726  0.137186  1
  Ag  Ag23  1  0.500000  0.860522  0.278496  1
