# generated using pymatgen
data_TbNiB2Ir
_symmetry_space_group_name_H-M   'P 1'
_cell_length_a   5.04327406
_cell_length_b   5.13111242
_cell_length_c   7.26692167
_cell_angle_alpha   60.15083216
_cell_angle_beta   57.77932338
_cell_angle_gamma   62.50612836
_symmetry_Int_Tables_number   1
_chemical_formula_structural   TbNiB2Ir
_chemical_formula_sum   'Tb2 Ni2 B4 Ir2'
_cell_volume   132.95740083
_cell_formula_units_Z   2
loop_
 _symmetry_equiv_pos_site_id
 _symmetry_equiv_pos_as_xyz
  1  'x, y, z'
loop_
 _atom_site_type_symbol
 _atom_site_label
 _atom_site_symmetry_multiplicity
 _atom_site_fract_x
 _atom_site_fract_y
 _atom_site_fract_z
 _atom_site_occupancy
  Tb  Tb0  1  0.876290  0.118735  0.750058  1
  Tb  Tb1  1  0.123710  0.881265  0.249942  1
  Ni  Ni2  1  0.731708  0.520917  0.303280  1
  Ni  Ni3  1  0.268292  0.479083  0.696720  1
  B  B4  1  0.499970  0.832431  0.475385  1
  B  B5  1  0.500030  0.167569  0.524615  1
  B  B6  1  0.159972  0.502782  0.015019  1
  B  B7  1  0.840028  0.497218  0.984981  1
  Ir  Ir8  1  0.455020  0.268253  0.213459  1
  Ir  Ir9  1  0.544980  0.731747  0.786541  1
