# generated using pymatgen
data_CeNd3In2Ir3
_symmetry_space_group_name_H-M   'P 1'
_cell_length_a   7.47816500
_cell_length_b   7.63023809
_cell_length_c   4.29657000
_cell_angle_alpha   90.00000000
_cell_angle_beta   90.00000000
_cell_angle_gamma   119.34287581
_symmetry_Int_Tables_number   1
_chemical_formula_structural   CeNd3In2Ir3
_chemical_formula_sum   'Ce1 Nd3 In2 Ir3'
_cell_volume   213.70932457
_cell_formula_units_Z   1
loop_
 _symmetry_equiv_pos_site_id
 _symmetry_equiv_pos_as_xyz
  1  'x, y, z'
loop_
 _atom_site_type_symbol
 _atom_site_label
 _atom_site_symmetry_multiplicity
 _atom_site_fract_x
 _atom_site_fract_y
 _atom_site_fract_z
 _atom_site_occupancy
  Ce  Ce0  1  0.261002  0.000000  0.000000  1
  Nd  Nd1  1  0.618785  0.000000  0.500000  1
  Nd  Nd2  1  0.409477  0.436563  0.500000  1
  Nd  Nd3  1  0.972913  0.563437  0.500000  1
  In  In4  1  0.751366  0.748660  0.000000  1
  In  In5  1  0.002706  0.251340  0.000000  1
  Ir  Ir6  1  0.007912  0.000000  0.500000  1
  Ir  Ir7  1  0.325347  0.674854  0.000000  1
  Ir  Ir8  1  0.650493  0.325146  0.000000  1
