# generated using pymatgen
data_Ho4Al4IrRuPt2
_symmetry_space_group_name_H-M   'P 1'
_cell_length_a   4.30245000
_cell_length_b   6.85028205
_cell_length_c   7.88952168
_cell_angle_alpha   89.87528749
_cell_angle_beta   90.00000000
_cell_angle_gamma   90.00000000
_symmetry_Int_Tables_number   1
_chemical_formula_structural   Ho4Al4IrRuPt2
_chemical_formula_sum   'Ho4 Al4 Ir1 Ru1 Pt2'
_cell_volume   232.52729014
_cell_formula_units_Z   1
loop_
 _symmetry_equiv_pos_site_id
 _symmetry_equiv_pos_as_xyz
  1  'x, y, z'
loop_
 _atom_site_type_symbol
 _atom_site_label
 _atom_site_symmetry_multiplicity
 _atom_site_fract_x
 _atom_site_fract_y
 _atom_site_fract_z
 _atom_site_occupancy
  Ho  Ho0  1  0.250000  0.032747  0.677621  1
  Ho  Ho1  1  0.250000  0.532681  0.820889  1
  Ho  Ho2  1  0.750000  0.974042  0.318281  1
  Ho  Ho3  1  0.750000  0.471513  0.184056  1
  Al  Al4  1  0.250000  0.139653  0.063533  1
  Al  Al5  1  0.250000  0.640375  0.435361  1
  Al  Al6  1  0.750000  0.856918  0.939906  1
  Al  Al7  1  0.750000  0.356127  0.558733  1
  Ir  Ir8  1  0.250000  0.768046  0.117916  1
  Ru  Ru9  1  0.250000  0.265332  0.382497  1
  Pt  Pt10  1  0.750000  0.731223  0.621156  1
  Pt  Pt11  1  0.750000  0.231344  0.880052  1
