# generated using pymatgen
data_Ce3Al2InRu2
_symmetry_space_group_name_H-M   'P 1'
_cell_length_a   8.25873158
_cell_length_b   8.25873027
_cell_length_c   4.96542565
_cell_angle_alpha   82.75845900
_cell_angle_beta   82.75845770
_cell_angle_gamma   32.61434933
_symmetry_Int_Tables_number   1
_chemical_formula_structural   Ce3Al2InRu2
_chemical_formula_sum   'Ce3 Al2 In1 Ru2'
_cell_volume   180.95845773
_cell_formula_units_Z   1
loop_
 _symmetry_equiv_pos_site_id
 _symmetry_equiv_pos_as_xyz
  1  'x, y, z'
loop_
 _atom_site_type_symbol
 _atom_site_label
 _atom_site_symmetry_multiplicity
 _atom_site_fract_x
 _atom_site_fract_y
 _atom_site_fract_z
 _atom_site_occupancy
  Ce  Ce0  1  0.832207  0.832207  0.577195  1
  Ce  Ce1  1  0.167809  0.167809  0.422989  1
  Ce  Ce2  1  0.999895  0.999895  0.000031  1
  Al  Al3  1  0.361649  0.361649  0.050676  1
  Al  Al4  1  0.638421  0.638421  0.947890  1
  In  In5  1  0.499975  0.499975  0.500098  1
  Ru  Ru6  1  0.792132  0.792132  0.115487  1
  Ru  Ru7  1  0.207913  0.207913  0.885635  1
