# generated using pymatgen
data_ZnCo(PtO3)4
_symmetry_space_group_name_H-M   'P 1'
_cell_length_a   6.47994953
_cell_length_b   6.45734839
_cell_length_c   10.54451943
_cell_angle_alpha   72.16566650
_cell_angle_beta   72.09940434
_cell_angle_gamma   89.99563658
_symmetry_Int_Tables_number   1
_chemical_formula_structural   ZnCo(PtO3)4
_chemical_formula_sum   'Zn2 Co2 Pt8 O24'
_cell_volume   397.52229100
_cell_formula_units_Z   2
loop_
 _symmetry_equiv_pos_site_id
 _symmetry_equiv_pos_as_xyz
  1  'x, y, z'
loop_
 _atom_site_type_symbol
 _atom_site_label
 _atom_site_symmetry_multiplicity
 _atom_site_fract_x
 _atom_site_fract_y
 _atom_site_fract_z
 _atom_site_occupancy
  Zn  Zn0  1  0.249978  0.749947  0.500068  1
  Zn  Zn1  1  0.749951  0.249987  0.500081  1
  Co  Co2  1  0.500007  0.500007  0.999985  1
  Co  Co3  1  0.000007  0.000007  0.999986  1
  Pt  Pt4  1  0.416786  0.916743  0.166594  1
  Pt  Pt5  1  0.916785  0.416745  0.166584  1
  Pt  Pt6  1  0.083218  0.583262  0.833394  1
  Pt  Pt7  1  0.583218  0.083263  0.833387  1
  Pt  Pt8  1  0.165382  0.165349  0.669212  1
  Pt  Pt9  1  0.665390  0.665374  0.669218  1
  Pt  Pt10  1  0.334620  0.334627  0.330773  1
  Pt  Pt11  1  0.834643  0.834669  0.330749  1
  O  O12  1  0.562950  0.749999  0.499992  1
  O  O13  1  0.062942  0.250014  0.499984  1
  O  O14  1  0.937078  0.750006  0.499979  1
  O  O15  1  0.437070  0.250015  0.499969  1
  O  O16  1  0.499981  0.194170  0.999997  1
  O  O17  1  0.999994  0.694131  0.999996  1
  O  O18  1  0.500008  0.805818  0.000026  1
  O  O19  1  0.999998  0.305862  0.000015  1
  O  O20  1  0.727665  0.918932  0.162291  1
  O  O21  1  0.227663  0.418915  0.162271  1
  O  O22  1  0.110080  0.918852  0.162275  1
  O  O23  1  0.610091  0.418832  0.162261  1
  O  O24  1  0.772326  0.581072  0.837758  1
  O  O25  1  0.272350  0.081052  0.837746  1
  O  O26  1  0.389893  0.581149  0.837770  1
  O  O27  1  0.889869  0.081128  0.837761  1
  O  O28  1  0.165810  0.859519  0.668395  1
  O  O29  1  0.665792  0.359548  0.668430  1
  O  O30  1  0.165830  0.472031  0.668418  1
  O  O31  1  0.665829  0.971997  0.668436  1
  O  O32  1  0.334218  0.640263  0.331552  1
  O  O33  1  0.834214  0.140297  0.331563  1
  O  O34  1  0.334170  0.028213  0.331544  1
  O  O35  1  0.834197  0.528199  0.331538  1
