# generated using pymatgen
data_Sm2Nb3Si4
_symmetry_space_group_name_H-M   'P 1'
_cell_length_a   7.14026600
_cell_length_b   7.14026600
_cell_length_c   13.21287100
_cell_angle_alpha   90.00000000
_cell_angle_beta   90.00000000
_cell_angle_gamma   90.00000000
_symmetry_Int_Tables_number   1
_chemical_formula_structural   Sm2Nb3Si4
_chemical_formula_sum   'Sm8 Nb12 Si16'
_cell_volume   673.63706819
_cell_formula_units_Z   4
loop_
 _symmetry_equiv_pos_site_id
 _symmetry_equiv_pos_as_xyz
  1  'x, y, z'
loop_
 _atom_site_type_symbol
 _atom_site_label
 _atom_site_symmetry_multiplicity
 _atom_site_fract_x
 _atom_site_fract_y
 _atom_site_fract_z
 _atom_site_occupancy
  Sm  Sm0  1  0.997587  0.339864  0.217490  1
  Sm  Sm1  1  0.002413  0.660136  0.717490  1
  Sm  Sm2  1  0.160136  0.497587  0.467490  1
  Sm  Sm3  1  0.502413  0.839864  0.032510  1
  Sm  Sm4  1  0.839864  0.502413  0.967490  1
  Sm  Sm5  1  0.497587  0.160136  0.532510  1
  Sm  Sm6  1  0.339864  0.997587  0.782510  1
  Sm  Sm7  1  0.660136  0.002413  0.282510  1
  Nb  Nb8  1  0.170700  0.170700  0.000000  1
  Nb  Nb9  1  0.829300  0.829300  0.500000  1
  Nb  Nb10  1  0.329300  0.670700  0.250000  1
  Nb  Nb11  1  0.670700  0.329300  0.750000  1
  Nb  Nb12  1  0.155581  0.991196  0.375912  1
  Nb  Nb13  1  0.844419  0.008804  0.875912  1
  Nb  Nb14  1  0.508804  0.655581  0.625912  1
  Nb  Nb15  1  0.344419  0.491196  0.874088  1
  Nb  Nb16  1  0.491196  0.344419  0.125912  1
  Nb  Nb17  1  0.655581  0.508804  0.374088  1
  Nb  Nb18  1  0.991196  0.155581  0.624088  1
  Nb  Nb19  1  0.008804  0.844419  0.124088  1
  Si  Si20  1  0.291369  0.044581  0.186726  1
  Si  Si21  1  0.708631  0.955419  0.686726  1
  Si  Si22  1  0.455419  0.791369  0.436726  1
  Si  Si23  1  0.208631  0.544581  0.063274  1
  Si  Si24  1  0.544581  0.208631  0.936726  1
  Si  Si25  1  0.791369  0.455419  0.563274  1
  Si  Si26  1  0.044581  0.291369  0.813274  1
  Si  Si27  1  0.955419  0.708631  0.313274  1
  Si  Si28  1  0.370010  0.296472  0.315749  1
  Si  Si29  1  0.629990  0.703528  0.815749  1
  Si  Si30  1  0.203528  0.870010  0.565749  1
  Si  Si31  1  0.129990  0.796472  0.934251  1
  Si  Si32  1  0.796472  0.129990  0.065749  1
  Si  Si33  1  0.870010  0.203528  0.434251  1
  Si  Si34  1  0.296472  0.370010  0.684251  1
  Si  Si35  1  0.703528  0.629990  0.184251  1
