# generated using pymatgen
data_Rb2ErF5
_symmetry_space_group_name_H-M   'P 1'
_cell_length_a   6.91904800
_cell_length_b   7.38579900
_cell_length_c   11.49872800
_cell_angle_alpha   90.00000000
_cell_angle_beta   90.00000000
_cell_angle_gamma   90.00000000
_symmetry_Int_Tables_number   1
_chemical_formula_structural   Rb2ErF5
_chemical_formula_sum   'Rb8 Er4 F20'
_cell_volume   587.61602206
_cell_formula_units_Z   4
loop_
 _symmetry_equiv_pos_site_id
 _symmetry_equiv_pos_as_xyz
  1  'x, y, z'
loop_
 _atom_site_type_symbol
 _atom_site_label
 _atom_site_symmetry_multiplicity
 _atom_site_fract_x
 _atom_site_fract_y
 _atom_site_fract_z
 _atom_site_occupancy
  Rb  Rb0  1  0.534155  0.021540  0.171203  1
  Rb  Rb1  1  0.465845  0.521540  0.828797  1
  Rb  Rb2  1  0.965845  0.021540  0.671203  1
  Rb  Rb3  1  0.034155  0.521540  0.328797  1
  Rb  Rb4  1  0.032984  0.017670  0.328734  1
  Rb  Rb5  1  0.967016  0.517670  0.671266  1
  Rb  Rb6  1  0.467016  0.017670  0.828734  1
  Rb  Rb7  1  0.532984  0.517670  0.171266  1
  Er  Er8  1  0.440948  0.267658  0.500651  1
  Er  Er9  1  0.559052  0.767658  0.499349  1
  Er  Er10  1  0.059052  0.267658  0.000651  1
  Er  Er11  1  0.940948  0.767658  0.999349  1
  F  F12  1  0.141041  0.982582  0.069341  1
  F  F13  1  0.858959  0.482582  0.930659  1
  F  F14  1  0.358959  0.982582  0.569341  1
  F  F15  1  0.641041  0.482582  0.430659  1
  F  F16  1  0.373261  0.269715  0.015174  1
  F  F17  1  0.626739  0.769715  0.984826  1
  F  F18  1  0.126739  0.269715  0.515174  1
  F  F19  1  0.873261  0.769715  0.484826  1
  F  F20  1  0.139009  0.552407  0.070887  1
  F  F21  1  0.860991  0.052407  0.929113  1
  F  F22  1  0.360991  0.552407  0.570887  1
  F  F23  1  0.639009  0.052407  0.429113  1
  F  F24  1  0.349897  0.268270  0.318464  1
  F  F25  1  0.650103  0.768270  0.681536  1
  F  F26  1  0.150103  0.268270  0.818464  1
  F  F27  1  0.849897  0.768270  0.181536  1
  F  F28  1  0.379391  0.767157  0.343375  1
  F  F29  1  0.620609  0.267157  0.656625  1
  F  F30  1  0.120609  0.767157  0.843375  1
  F  F31  1  0.879391  0.267157  0.156625  1
