# generated using pymatgen
data_Nb3Tc(PO4)6
_symmetry_space_group_name_H-M   'P 1'
_cell_length_a   8.77658906
_cell_length_b   8.77408362
_cell_length_c   9.07918658
_cell_angle_alpha   90.13053692
_cell_angle_beta   118.78854573
_cell_angle_gamma   119.99109926
_symmetry_Int_Tables_number   1
_chemical_formula_structural   Nb3Tc(PO4)6
_chemical_formula_sum   'Nb3 Tc1 P6 O24'
_cell_volume   502.76829353
_cell_formula_units_Z   1
loop_
 _symmetry_equiv_pos_site_id
 _symmetry_equiv_pos_as_xyz
  1  'x, y, z'
loop_
 _atom_site_type_symbol
 _atom_site_label
 _atom_site_symmetry_multiplicity
 _atom_site_fract_x
 _atom_site_fract_y
 _atom_site_fract_z
 _atom_site_occupancy
  Nb  Nb0  1  0.783782  0.640811  0.425539  1
  Nb  Nb1  1  0.212761  0.357448  0.569505  1
  Nb  Nb2  1  0.784431  0.141297  0.925529  1
  Tc  Tc3  1  0.211834  0.857596  0.068905  1
  P  P4  1  0.000615  0.965067  0.245995  1
  P  P5  1  0.281055  0.536290  0.248822  1
  P  P6  1  0.281358  0.751181  0.750398  1
  P  P7  1  0.711456  0.244255  0.249839  1
  P  P8  1  0.721733  0.471334  0.751462  1
  P  P9  1  0.004127  0.032369  0.754123  1
  O  O10  1  0.292547  0.711221  0.224332  1
  O  O11  1  0.857503  0.989648  0.077223  1
  O  O12  1  0.858322  0.856576  0.592303  1
  O  O13  1  0.851678  0.798746  0.280441  1
  O  O14  1  0.147359  0.932119  0.231153  1
  O  O15  1  0.482906  0.555417  0.284028  1
  O  O16  1  0.091541  0.730532  0.582630  1
  O  O17  1  0.903936  0.639911  0.916326  1
  O  O18  1  0.279775  0.773535  0.915369  1
  O  O19  1  0.485545  0.920186  0.775962  1
  O  O20  1  0.732191  0.492806  0.587278  1
  O  O21  1  0.721634  0.425330  0.276134  1
  O  O22  1  0.279956  0.576280  0.719027  1
  O  O23  1  0.270578  0.505590  0.412387  1
  O  O24  1  0.515990  0.080180  0.231159  1
  O  O25  1  0.720857  0.218304  0.086389  1
  O  O26  1  0.088227  0.361192  0.085413  1
  O  O27  1  0.909635  0.273565  0.416598  1
  O  O28  1  0.512335  0.437375  0.711310  1
  O  O29  1  0.858762  0.068375  0.775777  1
  O  O30  1  0.142478  0.201129  0.715307  1
  O  O31  1  0.136594  0.140593  0.406591  1
  O  O32  1  0.152158  0.019190  0.924543  1
  O  O33  1  0.714348  0.294550  0.782202  1
