# generated using pymatgen
data_SrLaB5Os3
_symmetry_space_group_name_H-M   'P 1'
_cell_length_a   5.82076460
_cell_length_b   5.80982934
_cell_length_c   8.12980985
_cell_angle_alpha   57.30002358
_cell_angle_beta   57.10601769
_cell_angle_gamma   41.26473821
_symmetry_Int_Tables_number   1
_chemical_formula_structural   SrLaB5Os3
_chemical_formula_sum   'Sr1 La1 B5 Os3'
_cell_volume   147.86727594
_cell_formula_units_Z   1
loop_
 _symmetry_equiv_pos_site_id
 _symmetry_equiv_pos_as_xyz
  1  'x, y, z'
loop_
 _atom_site_type_symbol
 _atom_site_label
 _atom_site_symmetry_multiplicity
 _atom_site_fract_x
 _atom_site_fract_y
 _atom_site_fract_z
 _atom_site_occupancy
  Sr  Sr0  1  0.398335  0.936234  0.730923  1
  La  La1  1  0.070140  0.604768  0.257040  1
  B  B2  1  0.736037  0.262133  0.000267  1
  B  B3  1  0.532140  0.523553  0.380601  1
  B  B4  1  0.476829  0.464694  0.622316  1
  B  B5  1  0.081727  0.625585  0.815348  1
  B  B6  1  0.372828  0.917931  0.187706  1
  Os  Os7  1  0.014420  0.989120  0.501629  1
  Os  Os8  1  0.607767  0.124665  0.906917  1
  Os  Os9  1  0.876049  0.385046  0.097250  1
