# generated using pymatgen
data_HfZr5(B2Ru5)2
_symmetry_space_group_name_H-M   'P 1'
_cell_length_a   9.54527100
_cell_length_b   9.54527100
_cell_length_c   3.15145300
_cell_angle_alpha   90.00000000
_cell_angle_beta   90.00000000
_cell_angle_gamma   90.00000000
_symmetry_Int_Tables_number   1
_chemical_formula_structural   HfZr5(B2Ru5)2
_chemical_formula_sum   'Hf1 Zr5 B4 Ru10'
_cell_volume   287.13581118
_cell_formula_units_Z   1
loop_
 _symmetry_equiv_pos_site_id
 _symmetry_equiv_pos_as_xyz
  1  'x, y, z'
loop_
 _atom_site_type_symbol
 _atom_site_label
 _atom_site_symmetry_multiplicity
 _atom_site_fract_x
 _atom_site_fract_y
 _atom_site_fract_z
 _atom_site_occupancy
  Hf  Hf0  1  0.000000  0.000000  0.000000  1
  Zr  Zr1  1  0.825307  0.675888  0.000000  1
  Zr  Zr2  1  0.174693  0.324112  0.000000  1
  Zr  Zr3  1  0.324112  0.825307  0.000000  1
  Zr  Zr4  1  0.675888  0.174693  0.000000  1
  Zr  Zr5  1  0.500000  0.500000  0.000000  1
  B  B6  1  0.622239  0.878624  0.000000  1
  B  B7  1  0.377761  0.121376  0.000000  1
  B  B8  1  0.121376  0.622239  0.000000  1
  B  B9  1  0.878624  0.377761  0.000000  1
  Ru  Ru10  1  0.573472  0.721893  0.500000  1
  Ru  Ru11  1  0.426528  0.278107  0.500000  1
  Ru  Ru12  1  0.071613  0.779285  0.500000  1
  Ru  Ru13  1  0.928387  0.220715  0.500000  1
  Ru  Ru14  1  0.278107  0.573472  0.500000  1
  Ru  Ru15  1  0.721893  0.426528  0.500000  1
  Ru  Ru16  1  0.220715  0.071613  0.500000  1
  Ru  Ru17  1  0.779285  0.928387  0.500000  1
  Ru  Ru18  1  0.500000  0.000000  0.500000  1
  Ru  Ru19  1  0.000000  0.500000  0.500000  1
