# generated using pymatgen
data_Ba2DyY2BiS8
_symmetry_space_group_name_H-M   'P 1'
_cell_length_a   4.07836900
_cell_length_b   12.39212100
_cell_length_c   14.68999300
_cell_angle_alpha   90.00000000
_cell_angle_beta   90.00000000
_cell_angle_gamma   90.00000000
_symmetry_Int_Tables_number   1
_chemical_formula_structural   Ba2DyY2BiS8
_chemical_formula_sum   'Ba4 Dy2 Y4 Bi2 S16'
_cell_volume   742.42698912
_cell_formula_units_Z   2
loop_
 _symmetry_equiv_pos_site_id
 _symmetry_equiv_pos_as_xyz
  1  'x, y, z'
loop_
 _atom_site_type_symbol
 _atom_site_label
 _atom_site_symmetry_multiplicity
 _atom_site_fract_x
 _atom_site_fract_y
 _atom_site_fract_z
 _atom_site_occupancy
  Ba  Ba0  1  0.250000  0.760237  0.337082  1
  Ba  Ba1  1  0.250000  0.260237  0.162918  1
  Ba  Ba2  1  0.750000  0.240174  0.662633  1
  Ba  Ba3  1  0.750000  0.740174  0.837367  1
  Dy  Dy4  1  0.750000  0.578733  0.099511  1
  Dy  Dy5  1  0.750000  0.078733  0.400489  1
  Y  Y6  1  0.750000  0.565632  0.610856  1
  Y  Y7  1  0.750000  0.065632  0.889144  1
  Y  Y8  1  0.250000  0.419901  0.898761  1
  Y  Y9  1  0.250000  0.919901  0.601239  1
  Bi  Bi10  1  0.250000  0.435199  0.390637  1
  Bi  Bi11  1  0.250000  0.935199  0.109363  1
  S  S12  1  0.250000  0.205853  0.836647  1
  S  S13  1  0.250000  0.705853  0.663353  1
  S  S14  1  0.750000  0.788232  0.165930  1
  S  S15  1  0.750000  0.288232  0.334070  1
  S  S16  1  0.250000  0.122589  0.524669  1
  S  S17  1  0.250000  0.622589  0.975331  1
  S  S18  1  0.750000  0.876702  0.476715  1
  S  S19  1  0.750000  0.376702  0.023285  1
  S  S20  1  0.250000  0.525427  0.213127  1
  S  S21  1  0.250000  0.025427  0.286873  1
  S  S22  1  0.750000  0.475263  0.783880  1
  S  S23  1  0.750000  0.975263  0.716120  1
  S  S24  1  0.250000  0.418223  0.580440  1
  S  S25  1  0.250000  0.918223  0.919560  1
  S  S26  1  0.750000  0.587838  0.426371  1
  S  S27  1  0.750000  0.087838  0.073629  1
