# generated using pymatgen
data_Os5Ru2W
_symmetry_space_group_name_H-M   'P 1'
_cell_length_a   5.51807900
_cell_length_b   5.52632708
_cell_length_c   4.37698100
_cell_angle_alpha   90.00000000
_cell_angle_beta   90.00000000
_cell_angle_gamma   119.95064653
_symmetry_Int_Tables_number   1
_chemical_formula_structural   Os5Ru2W
_chemical_formula_sum   'Os5 Ru2 W1'
_cell_volume   115.64997949
_cell_formula_units_Z   1
loop_
 _symmetry_equiv_pos_site_id
 _symmetry_equiv_pos_as_xyz
  1  'x, y, z'
loop_
 _atom_site_type_symbol
 _atom_site_label
 _atom_site_symmetry_multiplicity
 _atom_site_fract_x
 _atom_site_fract_y
 _atom_site_fract_z
 _atom_site_occupancy
  Os  Os0  1  0.671247  0.832286  0.250000  1
  Os  Os1  1  0.161039  0.832286  0.250000  1
  Os  Os2  1  0.834421  0.668842  0.750001  1
  Os  Os3  1  0.333597  0.162093  0.750001  1
  Os  Os4  1  0.828494  0.162093  0.750001  1
  Ru  Ru5  1  0.335193  0.670388  0.750001  1
  Ru  Ru6  1  0.669732  0.339467  0.250000  1
  W  W7  1  0.166272  0.332544  0.250000  1
