# generated using pymatgen
data_Tm5Lu5In8Co3Pt
_symmetry_space_group_name_H-M   'P 1'
_cell_length_a   3.52950600
_cell_length_b   7.92172941
_cell_length_c   17.83778608
_cell_angle_alpha   89.93820186
_cell_angle_beta   90.00000000
_cell_angle_gamma   90.00000000
_symmetry_Int_Tables_number   1
_chemical_formula_structural   Tm5Lu5In8Co3Pt
_chemical_formula_sum   'Tm5 Lu5 In8 Co3 Pt1'
_cell_volume   498.74048960
_cell_formula_units_Z   1
loop_
 _symmetry_equiv_pos_site_id
 _symmetry_equiv_pos_as_xyz
  1  'x, y, z'
loop_
 _atom_site_type_symbol
 _atom_site_label
 _atom_site_symmetry_multiplicity
 _atom_site_fract_x
 _atom_site_fract_y
 _atom_site_fract_z
 _atom_site_occupancy
  Tm  Tm0  1  0.000000  0.754615  0.777481  1
  Tm  Tm1  1  0.000000  0.254008  0.721978  1
  Tm  Tm2  1  0.000000  0.757214  0.280411  1
  Tm  Tm3  1  0.000000  0.999675  0.998698  1
  Tm  Tm4  1  0.000000  0.500405  0.501390  1
  Lu  Lu5  1  0.000000  0.113832  0.410747  1
  Lu  Lu6  1  0.000000  0.885154  0.591766  1
  Lu  Lu7  1  0.000000  0.384604  0.907860  1
  Lu  Lu8  1  0.000000  0.617807  0.085006  1
  Lu  Lu9  1  0.000000  0.234282  0.224014  1
  In  In10  1  0.500000  0.423596  0.352388  1
  In  In11  1  0.500000  0.571202  0.652233  1
  In  In12  1  0.500000  0.072064  0.847506  1
  In  In13  1  0.500000  0.930318  0.150393  1
  In  In14  1  0.500000  0.292817  0.064872  1
  In  In15  1  0.500000  0.703459  0.929568  1
  In  In16  1  0.500000  0.203051  0.568774  1
  In  In17  1  0.500000  0.796371  0.433557  1
  Co  Co18  1  0.500000  0.023447  0.305237  1
  Co  Co19  1  0.500000  0.979984  0.695999  1
  Co  Co20  1  0.500000  0.478923  0.803707  1
  Pt  Pt21  1  0.500000  0.523173  0.196417  1
