# generated using pymatgen
data_Sc3Zn3Hg2Pt
_symmetry_space_group_name_H-M   'P 1'
_cell_length_a   7.42404300
_cell_length_b   7.42404116
_cell_length_c   3.63548600
_cell_angle_alpha   90.00000000
_cell_angle_beta   90.00000000
_cell_angle_gamma   120.00000375
_symmetry_Int_Tables_number   1
_chemical_formula_structural   Sc3Zn3Hg2Pt
_chemical_formula_sum   'Sc3 Zn3 Hg2 Pt1'
_cell_volume   173.52975014
_cell_formula_units_Z   1
loop_
 _symmetry_equiv_pos_site_id
 _symmetry_equiv_pos_as_xyz
  1  'x, y, z'
loop_
 _atom_site_type_symbol
 _atom_site_label
 _atom_site_symmetry_multiplicity
 _atom_site_fract_x
 _atom_site_fract_y
 _atom_site_fract_z
 _atom_site_occupancy
  Sc  Sc0  1  0.578902  0.606424  0.000000  1
  Sc  Sc1  1  0.393576  0.972477  0.000000  1
  Sc  Sc2  1  0.027523  0.421098  0.000000  1
  Zn  Zn3  1  0.273154  0.278747  0.500000  1
  Zn  Zn4  1  0.721253  0.994408  0.500000  1
  Zn  Zn5  1  0.005592  0.726846  0.500000  1
  Hg  Hg6  1  0.000000  0.000000  0.000000  1
  Hg  Hg7  1  0.666667  0.333333  0.500000  1
  Pt  Pt8  1  0.333333  0.666667  0.500000  1
