# generated using pymatgen
data_Tb3HoSn5SbRh7
_symmetry_space_group_name_H-M   'P 1'
_cell_length_a   7.63240967
_cell_length_b   7.62152968
_cell_length_c   7.62470723
_cell_angle_alpha   109.38130707
_cell_angle_beta   109.43920931
_cell_angle_gamma   109.60520616
_symmetry_Int_Tables_number   1
_chemical_formula_structural   Tb3HoSn5SbRh7
_chemical_formula_sum   'Tb3 Ho1 Sn5 Sb1 Rh7'
_cell_volume   341.38080667
_cell_formula_units_Z   1
loop_
 _symmetry_equiv_pos_site_id
 _symmetry_equiv_pos_as_xyz
  1  'x, y, z'
loop_
 _atom_site_type_symbol
 _atom_site_label
 _atom_site_symmetry_multiplicity
 _atom_site_fract_x
 _atom_site_fract_y
 _atom_site_fract_z
 _atom_site_occupancy
  Tb  Tb0  1  0.998641  0.495907  0.000000  1
  Tb  Tb1  1  0.998738  0.998762  0.502787  1
  Tb  Tb2  1  0.495951  0.495975  0.497213  1
  Ho  Ho3  1  0.495869  0.998503  0.000000  1
  Sn  Sn4  1  0.996355  0.313393  0.316434  1
  Sn  Sn5  1  0.679920  0.996958  0.683566  1
  Sn  Sn6  1  0.690535  0.691336  0.000000  1
  Sn  Sn7  1  0.997799  0.680713  0.683565  1
  Sn  Sn8  1  0.314235  0.997148  0.316435  1
  Sb  Sb9  1  0.321801  0.321040  0.000000  1
  Rh  Rh10  1  0.008237  0.008162  0.000000  1
  Rh  Rh11  1  0.501610  0.750836  0.248507  1
  Rh  Rh12  1  0.749996  0.500792  0.248493  1
  Rh  Rh13  1  0.248235  0.748305  0.500761  1
  Rh  Rh14  1  0.253104  0.502329  0.751493  1
  Rh  Rh15  1  0.501502  0.252299  0.751507  1
  Rh  Rh16  1  0.747474  0.247544  0.499239  1
