# generated using pymatgen
data_CaTh2(InPd)3
_symmetry_space_group_name_H-M   'P 1'
_cell_length_a   7.72951700
_cell_length_b   7.72951833
_cell_length_c   4.07226100
_cell_angle_alpha   90.00000000
_cell_angle_beta   90.00000000
_cell_angle_gamma   120.37970904
_symmetry_Int_Tables_number   1
_chemical_formula_structural   CaTh2(InPd)3
_chemical_formula_sum   'Ca1 Th2 In3 Pd3'
_cell_volume   209.89233499
_cell_formula_units_Z   1
loop_
 _symmetry_equiv_pos_site_id
 _symmetry_equiv_pos_as_xyz
  1  'x, y, z'
loop_
 _atom_site_type_symbol
 _atom_site_label
 _atom_site_symmetry_multiplicity
 _atom_site_fract_x
 _atom_site_fract_y
 _atom_site_fract_z
 _atom_site_occupancy
  Ca  Ca0  1  0.408111  0.408111  0.500000  1
  Th  Th1  1  0.997950  0.587756  0.500000  1
  Th  Th2  1  0.587756  0.997950  0.500000  1
  In  In3  1  0.011418  0.253552  0.000000  1
  In  In4  1  0.253552  0.011418  0.000000  1
  In  In5  1  0.738326  0.738326  0.000000  1
  Pd  Pd6  1  0.991326  0.991326  0.500000  1
  Pd  Pd7  1  0.678701  0.332860  0.000000  1
  Pd  Pd8  1  0.332860  0.678701  0.000000  1
