# generated using pymatgen
data_Ac3ZnCd(HgAu)2
_symmetry_space_group_name_H-M   'P 1'
_cell_length_a   8.17484251
_cell_length_b   8.17484243
_cell_length_c   4.29601400
_cell_angle_alpha   90.00000000
_cell_angle_beta   90.00000000
_cell_angle_gamma   120.36307941
_symmetry_Int_Tables_number   1
_chemical_formula_structural   Ac3ZnCd(HgAu)2
_chemical_formula_sum   'Ac3 Zn1 Cd1 Hg2 Au2'
_cell_volume   247.71626736
_cell_formula_units_Z   1
loop_
 _symmetry_equiv_pos_site_id
 _symmetry_equiv_pos_as_xyz
  1  'x, y, z'
loop_
 _atom_site_type_symbol
 _atom_site_label
 _atom_site_symmetry_multiplicity
 _atom_site_fract_x
 _atom_site_fract_y
 _atom_site_fract_z
 _atom_site_occupancy
  Ac  Ac0  1  0.586877  0.005188  0.000000  1
  Ac  Ac1  1  0.005188  0.586877  0.000000  1
  Ac  Ac2  1  0.406279  0.406279  0.000000  1
  Zn  Zn3  1  0.993738  0.993738  0.000000  1
  Cd  Cd4  1  0.760690  0.760690  0.500000  1
  Hg  Hg5  1  0.238294  0.997005  0.500000  1
  Hg  Hg6  1  0.997005  0.238294  0.500000  1
  Au  Au7  1  0.343577  0.668353  0.500000  1
  Au  Au8  1  0.668353  0.343577  0.500000  1
