# generated using pymatgen
data_Ca5ZnAgPd
_symmetry_space_group_name_H-M   'P 1'
_cell_length_a   9.32259208
_cell_length_b   9.32259225
_cell_length_c   9.32259400
_cell_angle_alpha   129.72432828
_cell_angle_beta   129.66319507
_cell_angle_gamma   73.89682371
_symmetry_Int_Tables_number   1
_chemical_formula_structural   Ca5ZnAgPd
_chemical_formula_sum   'Ca10 Zn2 Ag2 Pd2'
_cell_volume   467.91838994
_cell_formula_units_Z   2
loop_
 _symmetry_equiv_pos_site_id
 _symmetry_equiv_pos_as_xyz
  1  'x, y, z'
loop_
 _atom_site_type_symbol
 _atom_site_label
 _atom_site_symmetry_multiplicity
 _atom_site_fract_x
 _atom_site_fract_y
 _atom_site_fract_z
 _atom_site_occupancy
  Ca  Ca0  1  0.004732  0.008825  0.013557  1
  Ca  Ca1  1  0.504743  0.491187  0.995929  1
  Ca  Ca2  1  0.810598  0.315171  0.843614  1
  Ca  Ca3  1  0.310604  0.466968  0.495421  1
  Ca  Ca4  1  0.972121  0.807838  0.494845  1
  Ca  Ca5  1  0.687007  0.522723  0.494845  1
  Ca  Ca6  1  0.028452  0.184817  0.495421  1
  Ca  Ca7  1  0.528442  0.033016  0.843614  1
  Ca  Ca8  1  0.187016  0.692166  0.164289  1
  Ca  Ca9  1  0.472123  0.977274  0.164289  1
  Zn  Zn10  1  0.615989  0.882988  0.498977  1
  Zn  Zn11  1  0.115964  0.616985  0.732947  1
  Ag  Ag12  1  0.248632  0.249999  0.998631  1
  Ag  Ag13  1  0.748632  0.749999  0.998631  1
  Pd  Pd14  1  0.882488  0.381855  0.264344  1
  Pd  Pd15  1  0.382457  0.118188  0.500645  1
