# generated using pymatgen
data_Y4Er6Si5Te
_symmetry_space_group_name_H-M   'P 1'
_cell_length_a   8.40046100
_cell_length_b   8.41717136
_cell_length_c   6.29034500
_cell_angle_alpha   90.00000000
_cell_angle_beta   90.00000000
_cell_angle_gamma   119.93434556
_symmetry_Int_Tables_number   1
_chemical_formula_structural   Y4Er6Si5Te
_chemical_formula_sum   'Y4 Er6 Si5 Te1'
_cell_volume   385.44403173
_cell_formula_units_Z   1
loop_
 _symmetry_equiv_pos_site_id
 _symmetry_equiv_pos_as_xyz
  1  'x, y, z'
loop_
 _atom_site_type_symbol
 _atom_site_label
 _atom_site_symmetry_multiplicity
 _atom_site_fract_x
 _atom_site_fract_y
 _atom_site_fract_z
 _atom_site_occupancy
  Y  Y0  1  0.985668  0.744527  0.750000  1
  Y  Y1  1  0.764693  0.000000  0.750000  1
  Y  Y2  1  0.241142  0.255473  0.750000  1
  Y  Y3  1  0.242381  0.000000  0.250000  1
  Er  Er4  1  0.000161  0.245605  0.250000  1
  Er  Er5  1  0.754556  0.754395  0.250000  1
  Er  Er6  1  0.331125  0.655780  0.496078  1
  Er  Er7  1  0.675346  0.344220  0.003922  1
  Er  Er8  1  0.675346  0.344220  0.496078  1
  Er  Er9  1  0.331125  0.655780  0.003922  1
  Si  Si10  1  0.394752  0.392790  0.250000  1
  Si  Si11  1  0.001965  0.607210  0.250000  1
  Si  Si12  1  0.998918  0.396154  0.750000  1
  Si  Si13  1  0.602765  0.603846  0.750000  1
  Si  Si14  1  0.607668  0.000000  0.250000  1
  Te  Te15  1  0.392390  0.000000  0.750000  1
