# generated using pymatgen
data_Cs2Pu(GeO3)3
_symmetry_space_group_name_H-M   'P 1'
_cell_length_a   7.60021100
_cell_length_b   7.60021118
_cell_length_c   11.10213000
_cell_angle_alpha   90.00000000
_cell_angle_beta   90.00000000
_cell_angle_gamma   119.99999936
_symmetry_Int_Tables_number   1
_chemical_formula_structural   Cs2Pu(GeO3)3
_chemical_formula_sum   'Cs4 Pu2 Ge6 O18'
_cell_volume   555.37746300
_cell_formula_units_Z   2
loop_
 _symmetry_equiv_pos_site_id
 _symmetry_equiv_pos_as_xyz
  1  'x, y, z'
loop_
 _atom_site_type_symbol
 _atom_site_label
 _atom_site_symmetry_multiplicity
 _atom_site_fract_x
 _atom_site_fract_y
 _atom_site_fract_z
 _atom_site_occupancy
  Cs  Cs0  1  0.333333  0.666667  0.060611  1
  Cs  Cs1  1  0.666667  0.333333  0.560611  1
  Cs  Cs2  1  0.666667  0.333333  0.939389  1
  Cs  Cs3  1  0.333333  0.666667  0.439389  1
  Pu  Pu4  1  0.000000  0.000000  0.000000  1
  Pu  Pu5  1  0.000000  0.000000  0.500000  1
  Ge  Ge6  1  0.384431  0.244111  0.250000  1
  Ge  Ge7  1  0.140322  0.384431  0.750000  1
  Ge  Ge8  1  0.244111  0.859678  0.750000  1
  Ge  Ge9  1  0.755889  0.140322  0.250000  1
  Ge  Ge10  1  0.859678  0.615569  0.250000  1
  Ge  Ge11  1  0.615569  0.755889  0.750000  1
  O  O12  1  0.492755  0.081023  0.250000  1
  O  O13  1  0.411733  0.492755  0.750000  1
  O  O14  1  0.081023  0.588267  0.750000  1
  O  O15  1  0.918977  0.411733  0.250000  1
  O  O16  1  0.588267  0.507245  0.250000  1
  O  O17  1  0.507245  0.918977  0.750000  1
  O  O18  1  0.255988  0.221223  0.115129  1
  O  O19  1  0.034764  0.255988  0.615129  1
  O  O20  1  0.221223  0.965236  0.615129  1
  O  O21  1  0.778777  0.034764  0.115129  1
  O  O22  1  0.965236  0.744012  0.115129  1
  O  O23  1  0.744012  0.778777  0.615129  1
  O  O24  1  0.744012  0.778777  0.884871  1
  O  O25  1  0.965236  0.744012  0.384871  1
  O  O26  1  0.778777  0.034764  0.384871  1
  O  O27  1  0.221223  0.965236  0.884871  1
  O  O28  1  0.034764  0.255988  0.884871  1
  O  O29  1  0.255988  0.221223  0.384871  1
