# generated using pymatgen
data_Li6V6Ir11Rh
_symmetry_space_group_name_H-M   'P 1'
_cell_length_a   4.19255300
_cell_length_b   5.91734900
_cell_length_c   12.57820500
_cell_angle_alpha   89.99971355
_cell_angle_beta   90.00016855
_cell_angle_gamma   90.00051141
_symmetry_Int_Tables_number   1
_chemical_formula_structural   Li6V6Ir11Rh
_chemical_formula_sum   'Li6 V6 Ir11 Rh1'
_cell_volume   312.05016342
_cell_formula_units_Z   1
loop_
 _symmetry_equiv_pos_site_id
 _symmetry_equiv_pos_as_xyz
  1  'x, y, z'
loop_
 _atom_site_type_symbol
 _atom_site_label
 _atom_site_symmetry_multiplicity
 _atom_site_fract_x
 _atom_site_fract_y
 _atom_site_fract_z
 _atom_site_occupancy
  Li  Li0  1  0.000000  0.999712  0.999881  1
  Li  Li1  1  0.499109  0.500000  0.166646  1
  Li  Li2  1  0.999111  0.999947  0.333353  1
  Li  Li3  1  0.499999  0.500001  0.499994  1
  Li  Li4  1  0.000888  0.999708  0.666766  1
  Li  Li5  1  0.500917  0.500589  0.833359  1
  V  V6  1  0.999998  0.499776  0.000277  1
  V  V7  1  0.499588  0.999809  0.166679  1
  V  V8  1  0.999591  0.499946  0.333329  1
  V  V9  1  0.499997  0.999807  0.499997  1
  V  V10  1  0.000406  0.499777  0.666396  1
  V  V11  1  0.500422  0.000951  0.833323  1
  Ir  Ir12  1  0.499999  0.250146  0.999782  1
  Ir  Ir13  1  0.499999  0.749789  0.999957  1
  Ir  Ir14  1  0.999616  0.250141  0.166485  1
  Ir  Ir15  1  0.999613  0.750214  0.166659  1
  Ir  Ir16  1  0.499615  0.250258  0.333341  1
  Ir  Ir17  1  0.499614  0.749841  0.333341  1
  Ir  Ir18  1  0.999999  0.250126  0.500176  1
  Ir  Ir19  1  0.000000  0.750227  0.500002  1
  Ir  Ir20  1  0.500386  0.250132  0.666875  1
  Ir  Ir21  1  0.500383  0.749807  0.666699  1
  Ir  Ir22  1  0.000387  0.249250  0.833338  1
  Rh  Rh23  1  0.000365  0.750040  0.833344  1
