# generated using pymatgen
data_Ti2Be9Rh
_symmetry_space_group_name_H-M   'P 1'
_cell_length_a   7.42622072
_cell_length_b   7.42622020
_cell_length_c   7.42621976
_cell_angle_alpha   34.38933897
_cell_angle_beta   34.38934497
_cell_angle_gamma   34.38933335
_symmetry_Int_Tables_number   1
_chemical_formula_structural   Ti2Be9Rh
_chemical_formula_sum   'Ti2 Be9 Rh1'
_cell_volume   116.53528181
_cell_formula_units_Z   1
loop_
 _symmetry_equiv_pos_site_id
 _symmetry_equiv_pos_as_xyz
  1  'x, y, z'
loop_
 _atom_site_type_symbol
 _atom_site_label
 _atom_site_symmetry_multiplicity
 _atom_site_fract_x
 _atom_site_fract_y
 _atom_site_fract_z
 _atom_site_occupancy
  Ti  Ti0  1  0.144388  0.144388  0.144388  1
  Ti  Ti1  1  0.000586  0.000586  0.000586  1
  Be  Be2  1  0.416163  0.920186  0.416163  1
  Be  Be3  1  0.416163  0.416163  0.920186  1
  Be  Be4  1  0.920186  0.416163  0.416163  1
  Be  Be5  1  0.583004  0.080790  0.583004  1
  Be  Be6  1  0.583004  0.583004  0.080790  1
  Be  Be7  1  0.080790  0.583004  0.583004  1
  Be  Be8  1  0.666522  0.666522  0.666522  1
  Be  Be9  1  0.332665  0.332665  0.332665  1
  Be  Be10  1  0.500322  0.500322  0.500322  1
  Rh  Rh11  1  0.856206  0.856206  0.856206  1
