# generated using pymatgen
data_LaTb3P7Ir8
_symmetry_space_group_name_H-M   'P 1'
_cell_length_a   3.96798300
_cell_length_b   12.78061603
_cell_length_c   13.18252001
_cell_angle_alpha   80.88411488
_cell_angle_beta   90.00000000
_cell_angle_gamma   90.00000000
_symmetry_Int_Tables_number   1
_chemical_formula_structural   LaTb3P7Ir8
_chemical_formula_sum   'La2 Tb6 P14 Ir16'
_cell_volume   660.08508830
_cell_formula_units_Z   2
loop_
 _symmetry_equiv_pos_site_id
 _symmetry_equiv_pos_as_xyz
  1  'x, y, z'
loop_
 _atom_site_type_symbol
 _atom_site_label
 _atom_site_symmetry_multiplicity
 _atom_site_fract_x
 _atom_site_fract_y
 _atom_site_fract_z
 _atom_site_occupancy
  La  La0  1  0.750000  0.895559  0.210945  1
  La  La1  1  0.250000  0.281766  0.104211  1
  Tb  Tb2  1  0.750000  0.791069  0.561365  1
  Tb  Tb3  1  0.250000  0.208594  0.440266  1
  Tb  Tb4  1  0.750000  0.480351  0.706069  1
  Tb  Tb5  1  0.250000  0.519526  0.294438  1
  Tb  Tb6  1  0.750000  0.719587  0.898175  1
  Tb  Tb7  1  0.250000  0.102399  0.789529  1
  P  P8  1  0.250000  0.906802  0.412747  1
  P  P9  1  0.750000  0.473349  0.129220  1
  P  P10  1  0.250000  0.528231  0.870195  1
  P  P11  1  0.750000  0.092492  0.588716  1
  P  P12  1  0.250000  0.741488  0.078404  1
  P  P13  1  0.750000  0.258329  0.915916  1
  P  P14  1  0.750000  0.157543  0.284167  1
  P  P15  1  0.250000  0.843103  0.717499  1
  P  P16  1  0.250000  0.052912  0.097331  1
  P  P17  1  0.750000  0.946863  0.898705  1
  P  P18  1  0.250000  0.311803  0.688921  1
  P  P19  1  0.750000  0.682970  0.312670  1
  P  P20  1  0.250000  0.607551  0.566307  1
  P  P21  1  0.750000  0.391918  0.436485  1
  Ir  Ir22  1  0.250000  0.989964  0.576470  1
  Ir  Ir23  1  0.750000  0.010950  0.424540  1
  Ir  Ir24  1  0.250000  0.662930  0.730586  1
  Ir  Ir25  1  0.750000  0.339273  0.273072  1
  Ir  Ir26  1  0.250000  0.554339  0.045587  1
  Ir  Ir27  1  0.750000  0.450076  0.950640  1
  Ir  Ir28  1  0.250000  0.063247  0.273100  1
  Ir  Ir29  1  0.750000  0.938954  0.726841  1
  Ir  Ir30  1  0.250000  0.421939  0.525704  1
  Ir  Ir31  1  0.750000  0.576639  0.476749  1
  Ir  Ir32  1  0.250000  0.915296  0.994430  1
  Ir  Ir33  1  0.750000  0.085061  0.998193  1
  Ir  Ir34  1  0.250000  0.727371  0.397609  1
  Ir  Ir35  1  0.750000  0.270415  0.605701  1
  Ir  Ir36  1  0.250000  0.342400  0.856530  1
  Ir  Ir37  1  0.750000  0.656940  0.141970  1
