# generated using pymatgen
data_EuSb12MoOs3
_symmetry_space_group_name_H-M   'P 1'
_cell_length_a   8.22574686
_cell_length_b   8.27884310
_cell_length_c   8.27884309
_cell_angle_alpha   109.60077162
_cell_angle_beta   109.34134510
_cell_angle_gamma   109.34135715
_symmetry_Int_Tables_number   1
_chemical_formula_structural   EuSb12MoOs3
_chemical_formula_sum   'Eu1 Sb12 Mo1 Os3'
_cell_volume   434.69670271
_cell_formula_units_Z   1
loop_
 _symmetry_equiv_pos_site_id
 _symmetry_equiv_pos_as_xyz
  1  'x, y, z'
loop_
 _atom_site_type_symbol
 _atom_site_label
 _atom_site_symmetry_multiplicity
 _atom_site_fract_x
 _atom_site_fract_y
 _atom_site_fract_z
 _atom_site_occupancy
  Eu  Eu0  1  0.000000  0.000000  0.000000  1
  Sb  Sb1  1  0.336828  0.157973  0.494213  1
  Sb  Sb2  1  0.336158  0.840037  0.186010  1
  Sb  Sb3  1  0.663842  0.159963  0.813990  1
  Sb  Sb4  1  0.821143  0.663759  0.157973  1
  Sb  Sb5  1  0.157385  0.494213  0.336241  1
  Sb  Sb6  1  0.503879  0.654028  0.840037  1
  Sb  Sb7  1  0.849851  0.186010  0.345972  1
  Sb  Sb8  1  0.663172  0.842027  0.505787  1
  Sb  Sb9  1  0.178857  0.336241  0.842027  1
  Sb  Sb10  1  0.150149  0.813990  0.654028  1
  Sb  Sb11  1  0.496121  0.345972  0.159963  1
  Sb  Sb12  1  0.842615  0.505787  0.663759  1
  Mo  Mo13  1  0.500000  0.000000  0.000000  1
  Os  Os14  1  0.500000  0.500000  0.500000  1
  Os  Os15  1  0.000000  0.500000  0.000000  1
  Os  Os16  1  0.000000  0.000000  0.500000  1
