# generated using pymatgen
data_DyHo3(Si5Pt3)2
_symmetry_space_group_name_H-M   'P 1'
_cell_length_a   8.14209079
_cell_length_b   8.14520795
_cell_length_c   8.14520822
_cell_angle_alpha   136.28616823
_cell_angle_beta   104.65490308
_cell_angle_gamma   91.39295412
_symmetry_Int_Tables_number   1
_chemical_formula_structural   DyHo3(Si5Pt3)2
_chemical_formula_sum   'Dy1 Ho3 Si10 Pt6'
_cell_volume   343.37529853
_cell_formula_units_Z   1
loop_
 _symmetry_equiv_pos_site_id
 _symmetry_equiv_pos_as_xyz
  1  'x, y, z'
loop_
 _atom_site_type_symbol
 _atom_site_label
 _atom_site_symmetry_multiplicity
 _atom_site_fract_x
 _atom_site_fract_y
 _atom_site_fract_z
 _atom_site_occupancy
  Dy  Dy0  1  0.899722  0.129574  0.770148  1
  Ho  Ho1  1  0.641191  0.370249  0.270942  1
  Ho  Ho2  1  0.359040  0.629856  0.729184  1
  Ho  Ho3  1  0.099436  0.870155  0.229281  1
  Si  Si4  1  0.272340  0.521959  0.250069  1
  Si  Si5  1  0.728070  0.477819  0.749807  1
  Si  Si6  1  0.728070  0.978263  0.250251  1
  Si  Si7  1  0.272340  0.022272  0.750381  1
  Si  Si8  1  0.460396  0.111740  0.348655  1
  Si  Si9  1  0.538822  0.887448  0.651375  1
  Si  Si10  1  0.763624  0.611860  0.151764  1
  Si  Si11  1  0.236780  0.388595  0.848187  1
  Si  Si12  1  0.000049  0.249465  0.249497  1
  Si  Si13  1  0.000049  0.750552  0.750584  1
  Pt  Pt14  1  0.250393  0.137620  0.112773  1
  Pt  Pt15  1  0.749466  0.862089  0.887378  1
  Pt  Pt16  1  0.025289  0.637463  0.387826  1
  Pt  Pt17  1  0.975454  0.363124  0.612330  1
  Pt  Pt18  1  0.499733  0.250116  0.749952  1
  Pt  Pt19  1  0.499733  0.749782  0.249618  1
