# generated using pymatgen
data_Tb6MgCd22P
_symmetry_space_group_name_H-M   'P 1'
_cell_length_a   9.92578305
_cell_length_b   9.92578260
_cell_length_c   9.92578100
_cell_angle_alpha   59.99999535
_cell_angle_beta   59.99999684
_cell_angle_gamma   59.99999448
_symmetry_Int_Tables_number   1
_chemical_formula_structural   Tb6MgCd22P
_chemical_formula_sum   'Tb6 Mg1 Cd22 P1'
_cell_volume   691.47930155
_cell_formula_units_Z   1
loop_
 _symmetry_equiv_pos_site_id
 _symmetry_equiv_pos_as_xyz
  1  'x, y, z'
loop_
 _atom_site_type_symbol
 _atom_site_label
 _atom_site_symmetry_multiplicity
 _atom_site_fract_x
 _atom_site_fract_y
 _atom_site_fract_z
 _atom_site_occupancy
  Tb  Tb0  1  0.801773  0.801773  0.198227  1
  Tb  Tb1  1  0.198227  0.801773  0.198227  1
  Tb  Tb2  1  0.801773  0.198227  0.198227  1
  Tb  Tb3  1  0.198227  0.198227  0.801773  1
  Tb  Tb4  1  0.801773  0.198227  0.801773  1
  Tb  Tb5  1  0.198227  0.801773  0.801773  1
  Mg  Mg6  1  0.500000  0.500000  0.500000  1
  Cd  Cd7  1  0.834917  0.834917  0.495247  1
  Cd  Cd8  1  0.834917  0.495247  0.834917  1
  Cd  Cd9  1  0.495247  0.834917  0.834917  1
  Cd  Cd10  1  0.834917  0.834917  0.834917  1
  Cd  Cd11  1  0.165083  0.165083  0.504753  1
  Cd  Cd12  1  0.165083  0.504753  0.165083  1
  Cd  Cd13  1  0.504753  0.165083  0.165083  1
  Cd  Cd14  1  0.165083  0.165083  0.165083  1
  Cd  Cd15  1  0.620109  0.620109  0.139671  1
  Cd  Cd16  1  0.620109  0.139671  0.620109  1
  Cd  Cd17  1  0.139671  0.620109  0.620109  1
  Cd  Cd18  1  0.620109  0.620109  0.620109  1
  Cd  Cd19  1  0.379891  0.379891  0.860329  1
  Cd  Cd20  1  0.379891  0.860329  0.379891  1
  Cd  Cd21  1  0.860329  0.379891  0.379891  1
  Cd  Cd22  1  0.379891  0.379891  0.379891  1
  Cd  Cd23  1  0.000000  0.000000  0.500000  1
  Cd  Cd24  1  0.500000  0.000000  0.500000  1
  Cd  Cd25  1  0.000000  0.500000  0.500000  1
  Cd  Cd26  1  0.500000  0.500000  0.000000  1
  Cd  Cd27  1  0.000000  0.500000  0.000000  1
  Cd  Cd28  1  0.500000  0.000000  0.000000  1
  P  P29  1  0.000000  0.000000  0.000000  1
