# generated using pymatgen
data_NaZr(Ni2P)4
_symmetry_space_group_name_H-M   'P 1'
_cell_length_a   7.02750234
_cell_length_b   7.02750234
_cell_length_c   3.55003700
_cell_angle_alpha   90.00000000
_cell_angle_beta   90.00000000
_cell_angle_gamma   91.08039677
_symmetry_Int_Tables_number   1
_chemical_formula_structural   NaZr(Ni2P)4
_chemical_formula_sum   'Na1 Zr1 Ni8 P4'
_cell_volume   175.29021046
_cell_formula_units_Z   1
loop_
 _symmetry_equiv_pos_site_id
 _symmetry_equiv_pos_as_xyz
  1  'x, y, z'
loop_
 _atom_site_type_symbol
 _atom_site_label
 _atom_site_symmetry_multiplicity
 _atom_site_fract_x
 _atom_site_fract_y
 _atom_site_fract_z
 _atom_site_occupancy
  Na  Na0  1  0.000000  0.000000  0.500000  1
  Zr  Zr1  1  0.500000  0.500000  0.000000  1
  Ni  Ni2  1  0.335454  0.083943  0.000000  1
  Ni  Ni3  1  0.583482  0.165700  0.500000  1
  Ni  Ni4  1  0.416518  0.834300  0.500000  1
  Ni  Ni5  1  0.664546  0.916057  0.000000  1
  Ni  Ni6  1  0.165700  0.583482  0.500000  1
  Ni  Ni7  1  0.834300  0.416518  0.500000  1
  Ni  Ni8  1  0.083943  0.335454  0.000000  1
  Ni  Ni9  1  0.916057  0.664546  0.000000  1
  P  P10  1  0.774702  0.225298  0.000000  1
  P  P11  1  0.717058  0.717058  0.500000  1
  P  P12  1  0.282942  0.282942  0.500000  1
  P  P13  1  0.225298  0.774702  0.000000  1
