# generated using pymatgen
data_Eu2TaN3
_symmetry_space_group_name_H-M   'P 1'
_cell_length_a   6.41519270
_cell_length_b   6.41519225
_cell_length_c   12.23165300
_cell_angle_alpha   90.00000000
_cell_angle_beta   90.00000000
_cell_angle_gamma   125.30233544
_symmetry_Int_Tables_number   1
_chemical_formula_structural   Eu2TaN3
_chemical_formula_sum   'Eu8 Ta4 N12'
_cell_volume   410.82359704
_cell_formula_units_Z   4
loop_
 _symmetry_equiv_pos_site_id
 _symmetry_equiv_pos_as_xyz
  1  'x, y, z'
loop_
 _atom_site_type_symbol
 _atom_site_label
 _atom_site_symmetry_multiplicity
 _atom_site_fract_x
 _atom_site_fract_y
 _atom_site_fract_z
 _atom_site_occupancy
  Eu  Eu0  1  0.541850  0.458150  0.643451  1
  Eu  Eu1  1  0.458150  0.541850  0.356549  1
  Eu  Eu2  1  0.958150  0.041850  0.143451  1
  Eu  Eu3  1  0.041850  0.958150  0.856549  1
  Eu  Eu4  1  0.869512  0.130488  0.579080  1
  Eu  Eu5  1  0.130488  0.869512  0.420920  1
  Eu  Eu6  1  0.630488  0.369512  0.079080  1
  Eu  Eu7  1  0.369512  0.630488  0.920920  1
  Ta  Ta8  1  0.751933  0.248067  0.838560  1
  Ta  Ta9  1  0.248067  0.751933  0.161440  1
  Ta  Ta10  1  0.748067  0.251933  0.338560  1
  Ta  Ta11  1  0.251933  0.748067  0.661440  1
  N  N12  1  0.842623  0.157377  0.971530  1
  N  N13  1  0.157377  0.842623  0.028470  1
  N  N14  1  0.657377  0.342623  0.471530  1
  N  N15  1  0.342623  0.657377  0.528470  1
  N  N16  1  0.582061  0.417939  0.865377  1
  N  N17  1  0.417939  0.582061  0.134623  1
  N  N18  1  0.917939  0.082061  0.365377  1
  N  N19  1  0.082061  0.917939  0.634623  1
  N  N20  1  0.567105  0.932895  0.750000  1
  N  N21  1  0.932895  0.567105  0.250000  1
  N  N22  1  0.432895  0.067105  0.250000  1
  N  N23  1  0.067105  0.432895  0.750000  1
