# generated using pymatgen
data_Tb4Tm4Sc12Si15Ag
_symmetry_space_group_name_H-M   'P 1'
_cell_length_a   7.10431592
_cell_length_b   7.35068247
_cell_length_c   14.02713496
_cell_angle_alpha   89.92294046
_cell_angle_beta   89.59310608
_cell_angle_gamma   90.24675659
_symmetry_Int_Tables_number   1
_chemical_formula_structural   Tb4Tm4Sc12Si15Ag
_chemical_formula_sum   'Tb4 Tm4 Sc12 Si15 Ag1'
_cell_volume   732.49305929
_cell_formula_units_Z   1
loop_
 _symmetry_equiv_pos_site_id
 _symmetry_equiv_pos_as_xyz
  1  'x, y, z'
loop_
 _atom_site_type_symbol
 _atom_site_label
 _atom_site_symmetry_multiplicity
 _atom_site_fract_x
 _atom_site_fract_y
 _atom_site_fract_z
 _atom_site_occupancy
  Tb  Tb0  1  0.011578  0.175492  0.097440  1
  Tb  Tb1  1  0.988506  0.826425  0.904239  1
  Tb  Tb2  1  0.488116  0.676323  0.904774  1
  Tb  Tb3  1  0.989921  0.830748  0.597025  1
  Tm  Tm4  1  0.511708  0.322775  0.096947  1
  Tm  Tm5  1  0.007801  0.172409  0.398220  1
  Tm  Tm6  1  0.511129  0.321796  0.400364  1
  Tm  Tm7  1  0.494719  0.678833  0.599811  1
  Sc  Sc8  1  0.164029  0.501510  0.752705  1
  Sc  Sc9  1  0.836612  0.497715  0.251307  1
  Sc  Sc10  1  0.337223  0.000772  0.249257  1
  Sc  Sc11  1  0.665430  0.996888  0.751097  1
  Sc  Sc12  1  0.343496  0.174135  0.626443  1
  Sc  Sc13  1  0.663459  0.823270  0.373610  1
  Sc  Sc14  1  0.166560  0.674373  0.371493  1
  Sc  Sc15  1  0.669070  0.824210  0.125167  1
  Sc  Sc16  1  0.826539  0.325962  0.625095  1
  Sc  Sc17  1  0.329820  0.175581  0.876190  1
  Sc  Sc18  1  0.830181  0.323055  0.875953  1
  Sc  Sc19  1  0.169241  0.675253  0.125612  1
  Si  Si20  1  0.037335  0.121682  0.750060  1
  Si  Si21  1  0.964341  0.883814  0.249175  1
  Si  Si22  1  0.466403  0.612649  0.248154  1
  Si  Si23  1  0.535115  0.386854  0.751952  1
  Si  Si24  1  0.287207  0.873841  0.750236  1
  Si  Si25  1  0.710847  0.128901  0.249092  1
  Si  Si26  1  0.215040  0.369681  0.249033  1
  Si  Si27  1  0.787877  0.627469  0.751813  1
  Si  Si28  1  0.832943  0.535566  0.458898  1
  Si  Si29  1  0.336078  0.962596  0.460711  1
  Si  Si30  1  0.841838  0.534663  0.039510  1
  Si  Si31  1  0.659666  0.036760  0.537204  1
  Si  Si32  1  0.155497  0.464246  0.962170  1
  Si  Si33  1  0.656645  0.036867  0.961348  1
  Si  Si34  1  0.343460  0.965557  0.040218  1
  Ag  Ag35  1  0.164566  0.461327  0.537677  1
