# generated using pymatgen
data_Tm3Lu5(Hf3Si4)4
_symmetry_space_group_name_H-M   'P 1'
_cell_length_a   7.22949211
_cell_length_b   7.22977700
_cell_length_c   13.26767320
_cell_angle_alpha   89.99909930
_cell_angle_beta   89.97994419
_cell_angle_gamma   90.00163250
_symmetry_Int_Tables_number   1
_chemical_formula_structural   Tm3Lu5(Hf3Si4)4
_chemical_formula_sum   'Tm3 Lu5 Hf12 Si16'
_cell_volume   693.46960266
_cell_formula_units_Z   1
loop_
 _symmetry_equiv_pos_site_id
 _symmetry_equiv_pos_as_xyz
  1  'x, y, z'
loop_
 _atom_site_type_symbol
 _atom_site_label
 _atom_site_symmetry_multiplicity
 _atom_site_fract_x
 _atom_site_fract_y
 _atom_site_fract_z
 _atom_site_occupancy
  Tm  Tm0  1  0.494819  0.154059  0.535029  1
  Tm  Tm1  1  0.505223  0.845511  0.034613  1
  Tm  Tm2  1  0.654476  0.004944  0.284808  1
  Lu  Lu3  1  0.345762  0.995312  0.784639  1
  Lu  Lu4  1  0.846220  0.504583  0.964869  1
  Lu  Lu5  1  0.154088  0.495591  0.465351  1
  Lu  Lu6  1  0.004883  0.654182  0.715358  1
  Lu  Lu7  1  0.995714  0.345771  0.215025  1
  Hf  Hf8  1  0.675855  0.324472  0.749926  1
  Hf  Hf9  1  0.324054  0.675315  0.250017  1
  Hf  Hf10  1  0.824512  0.824115  0.500176  1
  Hf  Hf11  1  0.175464  0.175957  0.999757  1
  Hf  Hf12  1  0.496657  0.353270  0.124442  1
  Hf  Hf13  1  0.502765  0.646777  0.625038  1
  Hf  Hf14  1  0.853686  0.003221  0.874628  1
  Hf  Hf15  1  0.146507  0.996660  0.374739  1
  Hf  Hf16  1  0.646854  0.502717  0.375394  1
  Hf  Hf17  1  0.353222  0.497515  0.875085  1
  Hf  Hf18  1  0.002756  0.853243  0.125078  1
  Hf  Hf19  1  0.997245  0.146556  0.625418  1
  Si  Si20  1  0.796312  0.142537  0.067743  1
  Si  Si21  1  0.203696  0.857455  0.567948  1
  Si  Si22  1  0.642152  0.704266  0.818017  1
  Si  Si23  1  0.357480  0.296245  0.317861  1
  Si  Si24  1  0.858991  0.204633  0.432401  1
  Si  Si25  1  0.141573  0.795763  0.931765  1
  Si  Si26  1  0.704793  0.640825  0.182286  1
  Si  Si27  1  0.295349  0.358537  0.682444  1
  Si  Si28  1  0.549548  0.203355  0.935355  1
  Si  Si29  1  0.449951  0.796247  0.435815  1
  Si  Si30  1  0.703030  0.950218  0.685916  1
  Si  Si31  1  0.296357  0.049899  0.185650  1
  Si  Si32  1  0.797595  0.450963  0.564482  1
  Si  Si33  1  0.202380  0.549407  0.064250  1
  Si  Si34  1  0.950685  0.702228  0.314352  1
  Si  Si35  1  0.049347  0.297650  0.814323  1
