# generated using pymatgen
data_TbNd7(Ho3Sn4)4
_symmetry_space_group_name_H-M   'P 1'
_cell_length_a   8.06563501
_cell_length_b   8.22192060
_cell_length_c   15.51825400
_cell_angle_alpha   90.06629289
_cell_angle_beta   90.08562082
_cell_angle_gamma   89.91010980
_symmetry_Int_Tables_number   1
_chemical_formula_structural   TbNd7(Ho3Sn4)4
_chemical_formula_sum   'Tb1 Nd7 Ho12 Sn16'
_cell_volume   1029.09007699
_cell_formula_units_Z   1
loop_
 _symmetry_equiv_pos_site_id
 _symmetry_equiv_pos_as_xyz
  1  'x, y, z'
loop_
 _atom_site_type_symbol
 _atom_site_label
 _atom_site_symmetry_multiplicity
 _atom_site_fract_x
 _atom_site_fract_y
 _atom_site_fract_z
 _atom_site_occupancy
  Tb  Tb0  1  0.517833  0.321399  0.902467  1
  Nd  Nd1  1  0.015559  0.179148  0.597493  1
  Nd  Nd2  1  0.484761  0.678784  0.403395  1
  Nd  Nd3  1  0.984442  0.820834  0.096308  1
  Nd  Nd4  1  0.484000  0.677970  0.096337  1
  Nd  Nd5  1  0.984582  0.821343  0.403401  1
  Nd  Nd6  1  0.514671  0.321512  0.596343  1
  Nd  Nd7  1  0.015764  0.179457  0.903204  1
  Ho  Ho8  1  0.362521  0.836081  0.876915  1
  Ho  Ho9  1  0.861621  0.663663  0.623344  1
  Ho  Ho10  1  0.637940  0.163970  0.377004  1
  Ho  Ho11  1  0.136761  0.336524  0.122157  1
  Ho  Ho12  1  0.636928  0.164007  0.122632  1
  Ho  Ho13  1  0.138119  0.336055  0.377199  1
  Ho  Ho14  1  0.362189  0.836580  0.623834  1
  Ho  Ho15  1  0.862726  0.663331  0.877529  1
  Ho  Ho16  1  0.195415  0.502770  0.750564  1
  Ho  Ho17  1  0.694809  0.996819  0.750429  1
  Ho  Ho18  1  0.804578  0.496703  0.249771  1
  Ho  Ho19  1  0.304796  0.003424  0.249833  1
  Sn  Sn20  1  0.302020  0.040703  0.041462  1
  Sn  Sn21  1  0.801939  0.459505  0.458322  1
  Sn  Sn22  1  0.697992  0.959745  0.542054  1
  Sn  Sn23  1  0.202846  0.537426  0.957047  1
  Sn  Sn24  1  0.697360  0.961934  0.957631  1
  Sn  Sn25  1  0.197740  0.541415  0.542005  1
  Sn  Sn26  1  0.302041  0.040255  0.458478  1
  Sn  Sn27  1  0.798120  0.457862  0.040412  1
  Sn  Sn28  1  0.561044  0.621031  0.750449  1
  Sn  Sn29  1  0.061061  0.877467  0.750295  1
  Sn  Sn30  1  0.438437  0.377666  0.249829  1
  Sn  Sn31  1  0.938699  0.122918  0.249694  1
  Sn  Sn32  1  0.326892  0.145415  0.751545  1
  Sn  Sn33  1  0.822927  0.356505  0.750790  1
  Sn  Sn34  1  0.675427  0.856869  0.249859  1
  Sn  Sn35  1  0.175441  0.642913  0.249969  1
