# generated using pymatgen
data_Yb4Zn5Ag9
_symmetry_space_group_name_H-M   'P 1'
_cell_length_a   5.43317252
_cell_length_b   5.43317305
_cell_length_c   13.76431400
_cell_angle_alpha   90.00000000
_cell_angle_beta   90.00000000
_cell_angle_gamma   119.61909666
_symmetry_Int_Tables_number   1
_chemical_formula_structural   Yb4Zn5Ag9
_chemical_formula_sum   'Yb4 Zn5 Ag9'
_cell_volume   353.22090393
_cell_formula_units_Z   1
loop_
 _symmetry_equiv_pos_site_id
 _symmetry_equiv_pos_as_xyz
  1  'x, y, z'
loop_
 _atom_site_type_symbol
 _atom_site_label
 _atom_site_symmetry_multiplicity
 _atom_site_fract_x
 _atom_site_fract_y
 _atom_site_fract_z
 _atom_site_occupancy
  Yb  Yb0  1  0.817359  0.817359  0.114864  1
  Yb  Yb1  1  0.181979  0.181979  0.886185  1
  Yb  Yb2  1  0.817359  0.817359  0.385136  1
  Yb  Yb3  1  0.181979  0.181979  0.613815  1
  Zn  Zn4  1  0.170440  0.670225  0.750000  1
  Zn  Zn5  1  0.670225  0.170440  0.750000  1
  Zn  Zn6  1  0.668479  0.668479  0.750000  1
  Zn  Zn7  1  0.329551  0.829926  0.250000  1
  Zn  Zn8  1  0.829926  0.329551  0.250000  1
  Ag  Ag9  1  0.156475  0.498280  0.078716  1
  Ag  Ag10  1  0.507410  0.839153  0.917509  1
  Ag  Ag11  1  0.498280  0.156475  0.078716  1
  Ag  Ag12  1  0.839153  0.507410  0.582491  1
  Ag  Ag13  1  0.498280  0.156475  0.421284  1
  Ag  Ag14  1  0.839153  0.507410  0.917509  1
  Ag  Ag15  1  0.507410  0.839153  0.582491  1
  Ag  Ag16  1  0.156475  0.498280  0.421284  1
  Ag  Ag17  1  0.330066  0.330066  0.250000  1
