# generated using pymatgen
data_PaInBr4O
_symmetry_space_group_name_H-M   'P 1'
_cell_length_a   7.87739619
_cell_length_b   7.87739592
_cell_length_c   8.20440428
_cell_angle_alpha   105.91540976
_cell_angle_beta   105.91540863
_cell_angle_gamma   30.76636784
_symmetry_Int_Tables_number   1
_chemical_formula_structural   PaInBr4O
_chemical_formula_sum   'Pa1 In1 Br4 O1'
_cell_volume   249.67505015
_cell_formula_units_Z   1
loop_
 _symmetry_equiv_pos_site_id
 _symmetry_equiv_pos_as_xyz
  1  'x, y, z'
loop_
 _atom_site_type_symbol
 _atom_site_label
 _atom_site_symmetry_multiplicity
 _atom_site_fract_x
 _atom_site_fract_y
 _atom_site_fract_z
 _atom_site_occupancy
  Pa  Pa0  1  0.499298  0.500701  0.500000  1
  In  In1  1  0.009529  0.990470  0.000000  1
  Br  Br2  1  0.368004  0.372222  0.183569  1
  Br  Br3  1  0.626286  0.630923  0.317724  1
  Br  Br4  1  0.369077  0.373714  0.682276  1
  Br  Br5  1  0.627779  0.631997  0.816431  1
  O  O6  1  0.999340  0.000660  0.500000  1
