# generated using pymatgen
data_Ho11ErCo4SnRu
_symmetry_space_group_name_H-M   'P 1'
_cell_length_a   8.28029606
_cell_length_b   8.26169983
_cell_length_c   8.26169909
_cell_angle_alpha   111.15259560
_cell_angle_beta   110.78947878
_cell_angle_gamma   106.42596698
_symmetry_Int_Tables_number   1
_chemical_formula_structural   Ho11ErCo4SnRu
_chemical_formula_sum   'Ho11 Er1 Co4 Sn1 Ru1'
_cell_volume   434.63853690
_cell_formula_units_Z   1
loop_
 _symmetry_equiv_pos_site_id
 _symmetry_equiv_pos_as_xyz
  1  'x, y, z'
loop_
 _atom_site_type_symbol
 _atom_site_label
 _atom_site_symmetry_multiplicity
 _atom_site_fract_x
 _atom_site_fract_y
 _atom_site_fract_z
 _atom_site_occupancy
  Ho  Ho0  1  0.592288  0.785414  0.806874  1
  Ho  Ho1  1  0.021389  0.214909  0.806481  1
  Ho  Ho2  1  0.978639  0.785073  0.193566  1
  Ho  Ho3  1  0.184710  0.286447  0.470707  1
  Ho  Ho4  1  0.815448  0.713214  0.528636  1
  Ho  Ho5  1  0.184710  0.714004  0.898263  1
  Ho  Ho6  1  0.815448  0.286812  0.102234  1
  Ho  Ho7  1  0.313209  0.620045  0.307330  1
  Ho  Ho8  1  0.686585  0.379886  0.692685  1
  Ho  Ho9  1  0.313209  0.005880  0.693163  1
  Ho  Ho10  1  0.686585  0.993900  0.306700  1
  Er  Er11  1  0.409516  0.215541  0.193975  1
  Co  Co12  1  0.376978  0.000211  0.376766  1
  Co  Co13  1  0.622043  0.999999  0.622044  1
  Co  Co14  1  0.111102  0.611097  0.500005  1
  Co  Co15  1  0.887704  0.388236  0.499468  1
  Sn  Sn16  1  0.498633  0.498453  0.000180  1
  Ru  Ru17  1  0.001801  0.000878  0.000922  1
