# generated using pymatgen
data_Tm5Lu(CoI3)2
_symmetry_space_group_name_H-M   'P 1'
_cell_length_a   4.07203400
_cell_length_b   8.81537765
_cell_length_c   12.15987875
_cell_angle_alpha   86.38819773
_cell_angle_beta   90.00000000
_cell_angle_gamma   90.00000000
_symmetry_Int_Tables_number   1
_chemical_formula_structural   Tm5Lu(CoI3)2
_chemical_formula_sum   'Tm5 Lu1 Co2 I6'
_cell_volume   435.63031767
_cell_formula_units_Z   1
loop_
 _symmetry_equiv_pos_site_id
 _symmetry_equiv_pos_as_xyz
  1  'x, y, z'
loop_
 _atom_site_type_symbol
 _atom_site_label
 _atom_site_symmetry_multiplicity
 _atom_site_fract_x
 _atom_site_fract_y
 _atom_site_fract_z
 _atom_site_occupancy
  Tm  Tm0  1  0.250000  0.867586  0.876632  1
  Tm  Tm1  1  0.750000  0.094970  0.693878  1
  Tm  Tm2  1  0.250000  0.906658  0.305857  1
  Tm  Tm3  1  0.250000  0.249617  0.902192  1
  Tm  Tm4  1  0.750000  0.750057  0.098970  1
  Lu  Lu5  1  0.750000  0.130317  0.122877  1
  Co  Co6  1  0.750000  0.052541  0.911002  1
  Co  Co7  1  0.250000  0.947726  0.089140  1
  I  I8  1  0.250000  0.350459  0.639430  1
  I  I9  1  0.750000  0.650453  0.360479  1
  I  I10  1  0.750000  0.143605  0.388578  1
  I  I11  1  0.250000  0.858297  0.610162  1
  I  I12  1  0.250000  0.419381  0.133743  1
  I  I13  1  0.750000  0.578332  0.867060  1
