# generated using pymatgen
data_PrNd2Hf3(SnRh)6
_symmetry_space_group_name_H-M   'P 1'
_cell_length_a   7.51272701
_cell_length_b   7.51325675
_cell_length_c   7.71721600
_cell_angle_alpha   90.00000000
_cell_angle_beta   90.00000000
_cell_angle_gamma   120.00230636
_symmetry_Int_Tables_number   1
_chemical_formula_structural   PrNd2Hf3(SnRh)6
_chemical_formula_sum   'Pr1 Nd2 Hf3 Sn6 Rh6'
_cell_volume   377.23070217
_cell_formula_units_Z   1
loop_
 _symmetry_equiv_pos_site_id
 _symmetry_equiv_pos_as_xyz
  1  'x, y, z'
loop_
 _atom_site_type_symbol
 _atom_site_label
 _atom_site_symmetry_multiplicity
 _atom_site_fract_x
 _atom_site_fract_y
 _atom_site_fract_z
 _atom_site_occupancy
  Pr  Pr0  1  0.000019  0.408868  0.750000  1
  Nd  Nd1  1  0.591208  0.591247  0.750000  1
  Nd  Nd2  1  0.408772  0.000000  0.750000  1
  Hf  Hf3  1  0.999135  0.393954  0.250000  1
  Hf  Hf4  1  0.606042  0.605179  0.250000  1
  Hf  Hf5  1  0.394819  0.000862  0.250000  1
  Sn  Sn6  1  0.264225  0.264740  0.487215  1
  Sn  Sn7  1  0.000621  0.735963  0.487146  1
  Sn  Sn8  1  0.000621  0.735963  0.012854  1
  Sn  Sn9  1  0.735156  0.999275  0.487216  1
  Sn  Sn10  1  0.735156  0.999275  0.012784  1
  Sn  Sn11  1  0.264225  0.264740  0.012785  1
  Rh  Rh12  1  0.333411  0.666728  0.450522  1
  Rh  Rh13  1  0.666589  0.333316  0.452308  1
  Rh  Rh14  1  0.333411  0.666728  0.049478  1
  Rh  Rh15  1  0.000000  0.999856  0.750000  1
  Rh  Rh16  1  0.000000  0.999994  0.250000  1
  Rh  Rh17  1  0.666589  0.333316  0.047692  1
