# generated using pymatgen
data_RbGd3Te5
_symmetry_space_group_name_H-M   'P 1'
_cell_length_a   4.43175000
_cell_length_b   13.42941000
_cell_length_c   23.56737900
_cell_angle_alpha   90.00000000
_cell_angle_beta   90.00000000
_cell_angle_gamma   90.00000000
_symmetry_Int_Tables_number   1
_chemical_formula_structural   RbGd3Te5
_chemical_formula_sum   'Rb4 Gd12 Te20'
_cell_volume   1402.63112680
_cell_formula_units_Z   4
loop_
 _symmetry_equiv_pos_site_id
 _symmetry_equiv_pos_as_xyz
  1  'x, y, z'
loop_
 _atom_site_type_symbol
 _atom_site_label
 _atom_site_symmetry_multiplicity
 _atom_site_fract_x
 _atom_site_fract_y
 _atom_site_fract_z
 _atom_site_occupancy
  Rb  Rb0  1  0.250000  0.336870  0.099024  1
  Rb  Rb1  1  0.750000  0.663130  0.900976  1
  Rb  Rb2  1  0.750000  0.836870  0.400976  1
  Rb  Rb3  1  0.250000  0.163130  0.599024  1
  Gd  Gd4  1  0.250000  0.466644  0.701682  1
  Gd  Gd5  1  0.750000  0.533356  0.298318  1
  Gd  Gd6  1  0.750000  0.966644  0.798318  1
  Gd  Gd7  1  0.250000  0.033356  0.201682  1
  Gd  Gd8  1  0.250000  0.805611  0.669182  1
  Gd  Gd9  1  0.750000  0.194389  0.330818  1
  Gd  Gd10  1  0.750000  0.305611  0.830818  1
  Gd  Gd11  1  0.250000  0.694389  0.169182  1
  Gd  Gd12  1  0.250000  0.390536  0.446255  1
  Gd  Gd13  1  0.750000  0.609464  0.553745  1
  Gd  Gd14  1  0.750000  0.890536  0.053745  1
  Gd  Gd15  1  0.250000  0.109464  0.946255  1
  Te  Te16  1  0.250000  0.446569  0.571494  1
  Te  Te17  1  0.750000  0.553431  0.428506  1
  Te  Te18  1  0.750000  0.946569  0.928506  1
  Te  Te19  1  0.250000  0.053431  0.071494  1
  Te  Te20  1  0.250000  0.768241  0.539986  1
  Te  Te21  1  0.750000  0.231759  0.460014  1
  Te  Te22  1  0.750000  0.268241  0.960014  1
  Te  Te23  1  0.250000  0.731759  0.039986  1
  Te  Te24  1  0.250000  0.809878  0.800313  1
  Te  Te25  1  0.750000  0.190122  0.199687  1
  Te  Te26  1  0.750000  0.309878  0.699687  1
  Te  Te27  1  0.250000  0.690122  0.300313  1
  Te  Te28  1  0.250000  0.463800  0.833216  1
  Te  Te29  1  0.750000  0.536200  0.166784  1
  Te  Te30  1  0.750000  0.963800  0.666784  1
  Te  Te31  1  0.250000  0.036200  0.333216  1
  Te  Te32  1  0.250000  0.364251  0.313131  1
  Te  Te33  1  0.750000  0.635749  0.686869  1
  Te  Te34  1  0.750000  0.864251  0.186869  1
  Te  Te35  1  0.250000  0.135749  0.813131  1
