# generated using pymatgen
data_Hf8Ta11Si16Rh
_symmetry_space_group_name_H-M   'P 1'
_cell_length_a   6.61712095
_cell_length_b   6.80384801
_cell_length_c   13.09133300
_cell_angle_alpha   90.00000000
_cell_angle_beta   90.00000000
_cell_angle_gamma   90.68527520
_symmetry_Int_Tables_number   1
_chemical_formula_structural   Hf8Ta11Si16Rh
_chemical_formula_sum   'Hf8 Ta11 Si16 Rh1'
_cell_volume   589.35433622
_cell_formula_units_Z   1
loop_
 _symmetry_equiv_pos_site_id
 _symmetry_equiv_pos_as_xyz
  1  'x, y, z'
loop_
 _atom_site_type_symbol
 _atom_site_label
 _atom_site_symmetry_multiplicity
 _atom_site_fract_x
 _atom_site_fract_y
 _atom_site_fract_z
 _atom_site_occupancy
  Hf  Hf0  1  0.491370  0.676906  0.590067  1
  Hf  Hf1  1  0.998318  0.828495  0.910631  1
  Hf  Hf2  1  0.503343  0.328437  0.092642  1
  Hf  Hf3  1  0.006726  0.171974  0.405362  1
  Hf  Hf4  1  0.503343  0.328437  0.407358  1
  Hf  Hf5  1  0.006726  0.171974  0.094638  1
  Hf  Hf6  1  0.491370  0.676906  0.909933  1
  Hf  Hf7  1  0.998318  0.828495  0.589369  1
  Ta  Ta8  1  0.666273  0.167123  0.626001  1
  Ta  Ta9  1  0.160852  0.324323  0.874028  1
  Ta  Ta10  1  0.334173  0.828129  0.123850  1
  Ta  Ta11  1  0.839156  0.672272  0.378329  1
  Ta  Ta12  1  0.334173  0.828129  0.376150  1
  Ta  Ta13  1  0.839156  0.672272  0.121671  1
  Ta  Ta14  1  0.666273  0.167123  0.873999  1
  Ta  Ta15  1  0.160852  0.324323  0.625972  1
  Ta  Ta16  1  0.338946  0.998865  0.750000  1
  Ta  Ta17  1  0.164989  0.501803  0.250000  1
  Ta  Ta18  1  0.663011  0.996975  0.250000  1
  Si  Si19  1  0.670912  0.965443  0.461159  1
  Si  Si20  1  0.170769  0.533632  0.037230  1
  Si  Si21  1  0.330878  0.038074  0.961903  1
  Si  Si22  1  0.827514  0.461687  0.539874  1
  Si  Si23  1  0.330878  0.038074  0.538097  1
  Si  Si24  1  0.827514  0.461687  0.960126  1
  Si  Si25  1  0.670912  0.965443  0.038841  1
  Si  Si26  1  0.170769  0.533632  0.462770  1
  Si  Si27  1  0.469723  0.392161  0.750000  1
  Si  Si28  1  0.962021  0.104082  0.750000  1
  Si  Si29  1  0.541152  0.613358  0.250000  1
  Si  Si30  1  0.038214  0.887682  0.250000  1
  Si  Si31  1  0.703589  0.851846  0.750000  1
  Si  Si32  1  0.195261  0.635210  0.750000  1
  Si  Si33  1  0.299734  0.141614  0.250000  1
  Si  Si34  1  0.796454  0.360578  0.250000  1
  Rh  Rh35  1  0.826341  0.522835  0.750000  1
