# generated using pymatgen
data_Cs8BeCo3Br16
_symmetry_space_group_name_H-M   'P 1'
_cell_length_a   7.79837600
_cell_length_b   10.35735187
_cell_length_c   13.86335173
_cell_angle_alpha   89.89839992
_cell_angle_beta   89.99894193
_cell_angle_gamma   89.99984863
_symmetry_Int_Tables_number   1
_chemical_formula_structural   Cs8BeCo3Br16
_chemical_formula_sum   'Cs8 Be1 Co3 Br16'
_cell_volume   1119.74842607
_cell_formula_units_Z   1
loop_
 _symmetry_equiv_pos_site_id
 _symmetry_equiv_pos_as_xyz
  1  'x, y, z'
loop_
 _atom_site_type_symbol
 _atom_site_label
 _atom_site_symmetry_multiplicity
 _atom_site_fract_x
 _atom_site_fract_y
 _atom_site_fract_z
 _atom_site_occupancy
  Cs  Cs0  1  0.250001  0.981983  0.172420  1
  Cs  Cs1  1  0.750001  0.013078  0.824924  1
  Cs  Cs2  1  0.749999  0.519839  0.669620  1
  Cs  Cs3  1  0.249996  0.483612  0.330008  1
  Cs  Cs4  1  0.250003  0.633232  0.906265  1
  Cs  Cs5  1  0.749998  0.366771  0.088964  1
  Cs  Cs6  1  0.749999  0.864147  0.413744  1
  Cs  Cs7  1  0.250003  0.133838  0.590140  1
  Be  Be8  1  0.249995  0.738786  0.579566  1
  Co  Co9  1  0.750002  0.264257  0.421645  1
  Co  Co10  1  0.750001  0.766044  0.078199  1
  Co  Co11  1  0.250000  0.234227  0.921520  1
  Br  Br12  1  0.018314  0.817433  0.650153  1
  Br  Br13  1  0.001404  0.176628  0.347895  1
  Br  Br14  1  0.000293  0.678995  0.153879  1
  Br  Br15  1  0.498603  0.176627  0.347898  1
  Br  Br16  1  0.999557  0.320252  0.845123  1
  Br  Br17  1  0.481684  0.817440  0.650139  1
  Br  Br18  1  0.500445  0.320252  0.845122  1
  Br  Br19  1  0.499707  0.678996  0.153880  1
  Br  Br20  1  0.249999  0.526059  0.592886  1
  Br  Br21  1  0.750001  0.495240  0.404213  1
  Br  Br22  1  0.750001  0.997339  0.092285  1
  Br  Br23  1  0.250001  0.002931  0.906401  1
  Br  Br24  1  0.250000  0.315872  0.084134  1
  Br  Br25  1  0.749999  0.682937  0.915729  1
  Br  Br26  1  0.750001  0.184122  0.584913  1
  Br  Br27  1  0.249994  0.809063  0.428334  1
