# generated using pymatgen
data_RbPaTe3Pd
_symmetry_space_group_name_H-M   'P 1'
_cell_length_a   8.62124190
_cell_length_b   8.62124099
_cell_length_c   11.08027700
_cell_angle_alpha   90.00000000
_cell_angle_beta   90.00000000
_cell_angle_gamma   150.60821553
_symmetry_Int_Tables_number   1
_chemical_formula_structural   RbPaTe3Pd
_chemical_formula_sum   'Rb2 Pa2 Te6 Pd2'
_cell_volume   404.18114700
_cell_formula_units_Z   2
loop_
 _symmetry_equiv_pos_site_id
 _symmetry_equiv_pos_as_xyz
  1  'x, y, z'
loop_
 _atom_site_type_symbol
 _atom_site_label
 _atom_site_symmetry_multiplicity
 _atom_site_fract_x
 _atom_site_fract_y
 _atom_site_fract_z
 _atom_site_occupancy
  Rb  Rb0  1  0.749930  0.250070  0.250000  1
  Rb  Rb1  1  0.250070  0.749930  0.750000  1
  Pa  Pa2  1  0.500000  0.500000  0.000000  1
  Pa  Pa3  1  0.500000  0.500000  0.500000  1
  Te  Te4  1  0.123283  0.876717  0.055196  1
  Te  Te5  1  0.428527  0.571473  0.250000  1
  Te  Te6  1  0.123283  0.876717  0.444805  1
  Te  Te7  1  0.876717  0.123283  0.555196  1
  Te  Te8  1  0.571473  0.428527  0.750000  1
  Te  Te9  1  0.876717  0.123283  0.944804  1
  Pd  Pd10  1  0.025517  0.974483  0.250000  1
  Pd  Pd11  1  0.974483  0.025517  0.750000  1
