# generated using pymatgen
data_Th2Ni8P
_symmetry_space_group_name_H-M   'P 1'
_cell_length_a   8.54656373
_cell_length_b   8.54656231
_cell_length_c   3.93579800
_cell_angle_alpha   90.00000000
_cell_angle_beta   90.00000000
_cell_angle_gamma   146.50905273
_symmetry_Int_Tables_number   1
_chemical_formula_structural   Th2Ni8P
_chemical_formula_sum   'Th2 Ni8 P1'
_cell_volume   158.63594772
_cell_formula_units_Z   1
loop_
 _symmetry_equiv_pos_site_id
 _symmetry_equiv_pos_as_xyz
  1  'x, y, z'
loop_
 _atom_site_type_symbol
 _atom_site_label
 _atom_site_symmetry_multiplicity
 _atom_site_fract_x
 _atom_site_fract_y
 _atom_site_fract_z
 _atom_site_occupancy
  Th  Th0  1  0.616738  0.371052  0.500000  1
  Th  Th1  1  0.371052  0.616738  0.500000  1
  Ni  Ni2  1  0.108194  0.874637  0.000000  1
  Ni  Ni3  1  0.874637  0.108194  0.000000  1
  Ni  Ni4  1  0.492730  0.990157  0.000000  1
  Ni  Ni5  1  0.990157  0.492730  0.000000  1
  Ni  Ni6  1  0.200066  0.788711  0.500000  1
  Ni  Ni7  1  0.788711  0.200066  0.500000  1
  Ni  Ni8  1  0.989302  0.989302  0.500000  1
  Ni  Ni9  1  0.666737  0.666737  0.000000  1
  P  P10  1  0.215276  0.215276  0.000000  1
