# generated using pymatgen
data_ErThZr2(Ga3Ir)6
_symmetry_space_group_name_H-M   'P 1'
_cell_length_a   7.60044735
_cell_length_b   7.59385933
_cell_length_c   9.40031400
_cell_angle_alpha   90.00000000
_cell_angle_beta   90.00000000
_cell_angle_gamma   119.93604594
_symmetry_Int_Tables_number   1
_chemical_formula_structural   ErThZr2(Ga3Ir)6
_chemical_formula_sum   'Er1 Th1 Zr2 Ga18 Ir6'
_cell_volume   470.16924007
_cell_formula_units_Z   1
loop_
 _symmetry_equiv_pos_site_id
 _symmetry_equiv_pos_as_xyz
  1  'x, y, z'
loop_
 _atom_site_type_symbol
 _atom_site_label
 _atom_site_symmetry_multiplicity
 _atom_site_fract_x
 _atom_site_fract_y
 _atom_site_fract_z
 _atom_site_occupancy
  Er  Er0  1  0.329947  0.003306  0.250000  1
  Th  Th1  1  0.997052  0.670052  0.750000  1
  Zr  Zr2  1  0.003497  0.330370  0.250000  1
  Zr  Zr3  1  0.669624  0.995030  0.750000  1
  Ga  Ga4  1  0.128826  0.133540  0.750000  1
  Ga  Ga5  1  0.872495  0.876613  0.250000  1
  Ga  Ga6  1  0.996263  0.326321  0.575097  1
  Ga  Ga7  1  0.001601  0.662617  0.411944  1
  Ga  Ga8  1  0.001601  0.662617  0.088056  1
  Ga  Ga9  1  0.343301  0.004329  0.922174  1
  Ga  Ga10  1  0.996263  0.326321  0.924903  1
  Ga  Ga11  1  0.668444  0.005039  0.079993  1
  Ga  Ga12  1  0.668444  0.005039  0.420007  1
  Ga  Ga13  1  0.343301  0.004329  0.577826  1
  Ga  Ga14  1  0.328640  0.330971  0.070920  1
  Ga  Ga15  1  0.662087  0.669536  0.936689  1
  Ga  Ga16  1  0.662087  0.669536  0.563311  1
  Ga  Ga17  1  0.328640  0.330971  0.429080  1
  Ga  Ga18  1  0.343292  0.548274  0.750000  1
  Ga  Ga19  1  0.659983  0.450898  0.250000  1
  Ga  Ga20  1  0.541805  0.334508  0.750000  1
  Ga  Ga21  1  0.450069  0.661061  0.250000  1
  Ir  Ir22  1  0.674217  0.331101  0.500290  1
  Ir  Ir23  1  0.326265  0.671379  0.500081  1
  Ir  Ir24  1  0.326265  0.671379  0.999919  1
  Ir  Ir25  1  0.674217  0.331101  0.999710  1
  Ir  Ir26  1  0.000885  0.996882  0.500876  1
  Ir  Ir27  1  0.000885  0.996882  0.999124  1
