# generated using pymatgen
data_ZrVTcBr13
_symmetry_space_group_name_H-M   'P 1'
_cell_length_a   11.75925100
_cell_length_b   9.93195162
_cell_length_c   10.55913200
_cell_angle_alpha   83.01984474
_cell_angle_beta   90.00000000
_cell_angle_gamma   90.00000000
_symmetry_Int_Tables_number   1
_chemical_formula_structural   ZrVTcBr13
_chemical_formula_sum   'Zr2 V2 Tc2 Br26'
_cell_volume   1224.08514542
_cell_formula_units_Z   2
loop_
 _symmetry_equiv_pos_site_id
 _symmetry_equiv_pos_as_xyz
  1  'x, y, z'
loop_
 _atom_site_type_symbol
 _atom_site_label
 _atom_site_symmetry_multiplicity
 _atom_site_fract_x
 _atom_site_fract_y
 _atom_site_fract_z
 _atom_site_occupancy
  Zr  Zr0  1  0.250000  0.666230  0.838638  1
  Zr  Zr1  1  0.750000  0.333770  0.161362  1
  V  V2  1  0.250000  0.262515  0.504448  1
  V  V3  1  0.750000  0.737485  0.495552  1
  Tc  Tc4  1  0.250000  0.843217  0.114848  1
  Tc  Tc5  1  0.750000  0.156783  0.885152  1
  Br  Br6  1  0.595141  0.815640  0.589159  1
  Br  Br7  1  0.095141  0.184360  0.410841  1
  Br  Br8  1  0.750000  0.418393  0.901338  1
  Br  Br9  1  0.250000  0.581607  0.098662  1
  Br  Br10  1  0.899085  0.148612  0.069531  1
  Br  Br11  1  0.399085  0.851388  0.930469  1
  Br  Br12  1  0.100915  0.851388  0.930469  1
  Br  Br13  1  0.600915  0.148612  0.069531  1
  Br  Br14  1  0.750000  0.190727  0.379881  1
  Br  Br15  1  0.250000  0.809273  0.620119  1
  Br  Br16  1  0.916174  0.488923  0.192559  1
  Br  Br17  1  0.416174  0.511077  0.807441  1
  Br  Br18  1  0.083826  0.511077  0.807441  1
  Br  Br19  1  0.583826  0.488923  0.192559  1
  Br  Br20  1  0.750000  0.909463  0.901791  1
  Br  Br21  1  0.250000  0.090537  0.098209  1
  Br  Br22  1  0.902331  0.187900  0.726371  1
  Br  Br23  1  0.402331  0.812100  0.273629  1
  Br  Br24  1  0.097669  0.812100  0.273629  1
  Br  Br25  1  0.597669  0.187900  0.726371  1
  Br  Br26  1  0.750000  0.809247  0.285457  1
  Br  Br27  1  0.250000  0.190753  0.714543  1
  Br  Br28  1  0.750000  0.509486  0.527020  1
  Br  Br29  1  0.250000  0.490514  0.472980  1
  Br  Br30  1  0.904859  0.815640  0.589159  1
  Br  Br31  1  0.404859  0.184360  0.410841  1
