# generated using pymatgen
data_La3Hg5Ir
_symmetry_space_group_name_H-M   'P 1'
_cell_length_a   8.39391300
_cell_length_b   8.39391371
_cell_length_c   3.90004300
_cell_angle_alpha   90.00000000
_cell_angle_beta   90.00000000
_cell_angle_gamma   119.99999327
_symmetry_Int_Tables_number   1
_chemical_formula_structural   La3Hg5Ir
_chemical_formula_sum   'La3 Hg5 Ir1'
_cell_volume   237.97373135
_cell_formula_units_Z   1
loop_
 _symmetry_equiv_pos_site_id
 _symmetry_equiv_pos_as_xyz
  1  'x, y, z'
loop_
 _atom_site_type_symbol
 _atom_site_label
 _atom_site_symmetry_multiplicity
 _atom_site_fract_x
 _atom_site_fract_y
 _atom_site_fract_z
 _atom_site_occupancy
  La  La0  1  0.426713  0.390157  0.500000  1
  La  La1  1  0.609843  0.036557  0.500000  1
  La  La2  1  0.963443  0.573287  0.500000  1
  Hg  Hg3  1  0.722956  0.726449  0.000000  1
  Hg  Hg4  1  0.273551  0.996507  0.000000  1
  Hg  Hg5  1  0.003493  0.277044  0.000000  1
  Hg  Hg6  1  0.333333  0.666667  0.000000  1
  Hg  Hg7  1  0.000000  0.000000  0.500000  1
  Ir  Ir8  1  0.666667  0.333333  0.000000  1
