# generated using pymatgen
data_Na6GaSb3
_symmetry_space_group_name_H-M   'P 1'
_cell_length_a   8.72637100
_cell_length_b   8.78056947
_cell_length_c   9.51868514
_cell_angle_alpha   82.72421271
_cell_angle_beta   108.03278489
_cell_angle_gamma   119.22499542
_symmetry_Int_Tables_number   1
_chemical_formula_structural   Na6GaSb3
_chemical_formula_sum   'Na12 Ga2 Sb6'
_cell_volume   604.97729819
_cell_formula_units_Z   2
loop_
 _symmetry_equiv_pos_site_id
 _symmetry_equiv_pos_as_xyz
  1  'x, y, z'
loop_
 _atom_site_type_symbol
 _atom_site_label
 _atom_site_symmetry_multiplicity
 _atom_site_fract_x
 _atom_site_fract_y
 _atom_site_fract_z
 _atom_site_occupancy
  Na  Na0  1  0.362788  0.504524  0.134127  1
  Na  Na1  1  0.582500  0.852461  0.607844  1
  Na  Na2  1  0.630149  0.877002  0.995283  1
  Na  Na3  1  0.169488  0.185525  0.607934  1
  Na  Na4  1  0.157409  0.539006  0.396438  1
  Na  Na5  1  0.042326  0.778872  0.110731  1
  Na  Na6  1  0.957674  0.221128  0.889269  1
  Na  Na7  1  0.842591  0.460994  0.603562  1
  Na  Na8  1  0.830512  0.814475  0.392066  1
  Na  Na9  1  0.369851  0.122998  0.004717  1
  Na  Na10  1  0.417500  0.147539  0.392156  1
  Na  Na11  1  0.637212  0.495476  0.865873  1
  Ga  Ga12  1  0.242262  0.826906  0.750255  1
  Ga  Ga13  1  0.757738  0.173094  0.249745  1
  Sb  Sb14  1  0.464722  0.866388  0.257323  1
  Sb  Sb15  1  0.051185  0.163645  0.236596  1
  Sb  Sb16  1  0.271527  0.539015  0.761401  1
  Sb  Sb17  1  0.728473  0.460985  0.238599  1
  Sb  Sb18  1  0.948815  0.836355  0.763404  1
  Sb  Sb19  1  0.535278  0.133612  0.742677  1
