# generated using pymatgen
data_BaEuCrF7
_symmetry_space_group_name_H-M   'P 1'
_cell_length_a   5.58139983
_cell_length_b   5.58945800
_cell_length_c   19.72680700
_cell_angle_alpha   90.00000000
_cell_angle_beta   92.19809218
_cell_angle_gamma   90.00000000
_symmetry_Int_Tables_number   1
_chemical_formula_structural   BaEuCrF7
_chemical_formula_sum   'Ba4 Eu4 Cr4 F28'
_cell_volume   614.96436867
_cell_formula_units_Z   4
loop_
 _symmetry_equiv_pos_site_id
 _symmetry_equiv_pos_as_xyz
  1  'x, y, z'
loop_
 _atom_site_type_symbol
 _atom_site_label
 _atom_site_symmetry_multiplicity
 _atom_site_fract_x
 _atom_site_fract_y
 _atom_site_fract_z
 _atom_site_occupancy
  Ba  Ba0  1  0.756555  0.753826  0.062848  1
  Ba  Ba1  1  0.743444  0.753826  0.437152  1
  Ba  Ba2  1  0.256555  0.246175  0.562848  1
  Ba  Ba3  1  0.243445  0.246175  0.937152  1
  Eu  Eu4  1  0.250000  0.795197  0.250000  1
  Eu  Eu5  1  0.750001  0.320343  0.250000  1
  Eu  Eu6  1  0.749999  0.204802  0.750000  1
  Eu  Eu7  1  0.249999  0.679656  0.750000  1
  Cr  Cr8  1  0.302526  0.224207  0.116996  1
  Cr  Cr9  1  0.197475  0.224207  0.383004  1
  Cr  Cr10  1  0.802525  0.775793  0.616996  1
  Cr  Cr11  1  0.697474  0.775793  0.883004  1
  F  F12  1  0.558912  0.293590  0.053567  1
  F  F13  1  0.086195  0.408968  0.060405  1
  F  F14  1  0.214483  0.943008  0.060475  1
  F  F15  1  0.423566  0.496875  0.176026  1
  F  F16  1  0.529513  0.021833  0.173571  1
  F  F17  1  0.060776  0.132633  0.185209  1
  F  F18  1  0.916876  0.635808  0.187639  1
  F  F19  1  0.583124  0.635808  0.312361  1
  F  F20  1  0.439223  0.132633  0.314791  1
  F  F21  1  0.970487  0.021833  0.326428  1
  F  F22  1  0.076435  0.496875  0.323975  1
  F  F23  1  0.285516  0.943008  0.439525  1
  F  F24  1  0.413804  0.408968  0.439595  1
  F  F25  1  0.941088  0.293590  0.446434  1
  F  F26  1  0.058912  0.706410  0.553567  1
  F  F27  1  0.586196  0.591032  0.560405  1
  F  F28  1  0.714484  0.056991  0.560475  1
  F  F29  1  0.923565  0.503124  0.676026  1
  F  F30  1  0.029513  0.978168  0.673571  1
  F  F31  1  0.560777  0.867366  0.685209  1
  F  F32  1  0.416876  0.364191  0.687639  1
  F  F33  1  0.083124  0.364191  0.812361  1
  F  F34  1  0.939224  0.867366  0.814791  1
  F  F35  1  0.470487  0.978168  0.826428  1
  F  F36  1  0.576434  0.503124  0.823974  1
  F  F37  1  0.785517  0.056991  0.939525  1
  F  F38  1  0.913805  0.591032  0.939595  1
  F  F39  1  0.441088  0.706410  0.946434  1
