# generated using pymatgen
data_BaAl2Au3
_symmetry_space_group_name_H-M   'P 1'
_cell_length_a   5.67507900
_cell_length_b   7.07590200
_cell_length_c   13.39936800
_cell_angle_alpha   90.00000000
_cell_angle_beta   90.00000000
_cell_angle_gamma   90.00000000
_symmetry_Int_Tables_number   1
_chemical_formula_structural   BaAl2Au3
_chemical_formula_sum   'Ba4 Al8 Au12'
_cell_volume   538.06907936
_cell_formula_units_Z   4
loop_
 _symmetry_equiv_pos_site_id
 _symmetry_equiv_pos_as_xyz
  1  'x, y, z'
loop_
 _atom_site_type_symbol
 _atom_site_label
 _atom_site_symmetry_multiplicity
 _atom_site_fract_x
 _atom_site_fract_y
 _atom_site_fract_z
 _atom_site_occupancy
  Ba  Ba0  1  0.250000  0.129099  0.085873  1
  Ba  Ba1  1  0.250000  0.370901  0.585873  1
  Ba  Ba2  1  0.750000  0.870901  0.914127  1
  Ba  Ba3  1  0.750000  0.629099  0.414127  1
  Al  Al4  1  0.998774  0.891878  0.656765  1
  Al  Al5  1  0.501226  0.608122  0.156765  1
  Al  Al6  1  0.498774  0.108122  0.343235  1
  Al  Al7  1  0.001226  0.391878  0.843235  1
  Al  Al8  1  0.001226  0.108122  0.343235  1
  Al  Al9  1  0.498774  0.391878  0.843235  1
  Al  Al10  1  0.501226  0.891878  0.656765  1
  Al  Al11  1  0.998774  0.608122  0.156765  1
  Au  Au12  1  0.250000  0.097429  0.800989  1
  Au  Au13  1  0.250000  0.402571  0.300989  1
  Au  Au14  1  0.750000  0.902571  0.199011  1
  Au  Au15  1  0.750000  0.597429  0.699011  1
  Au  Au16  1  0.250000  0.689888  0.789687  1
  Au  Au17  1  0.250000  0.810112  0.289687  1
  Au  Au18  1  0.750000  0.310112  0.210313  1
  Au  Au19  1  0.750000  0.189888  0.710313  1
  Au  Au20  1  0.250000  0.598338  0.997420  1
  Au  Au21  1  0.250000  0.901662  0.497420  1
  Au  Au22  1  0.750000  0.401662  0.002580  1
  Au  Au23  1  0.750000  0.098338  0.502580  1
