# generated using pymatgen
data_Tb2YIn3PdPt2
_symmetry_space_group_name_H-M   'P 1'
_cell_length_a   7.79893613
_cell_length_b   7.79893557
_cell_length_c   3.78006100
_cell_angle_alpha   90.00000000
_cell_angle_beta   90.00000000
_cell_angle_gamma   120.02063250
_symmetry_Int_Tables_number   1
_chemical_formula_structural   Tb2YIn3PdPt2
_chemical_formula_sum   'Tb2 Y1 In3 Pd1 Pt2'
_cell_volume   199.07182857
_cell_formula_units_Z   1
loop_
 _symmetry_equiv_pos_site_id
 _symmetry_equiv_pos_as_xyz
  1  'x, y, z'
loop_
 _atom_site_type_symbol
 _atom_site_label
 _atom_site_symmetry_multiplicity
 _atom_site_fract_x
 _atom_site_fract_y
 _atom_site_fract_z
 _atom_site_occupancy
  Tb  Tb0  1  0.409688  0.999917  0.500000  1
  Tb  Tb1  1  0.999917  0.409688  0.500000  1
  Y  Y2  1  0.590513  0.590513  0.500000  1
  In  In3  1  0.738835  0.999743  0.000000  1
  In  In4  1  0.261249  0.261249  0.000000  1
  In  In5  1  0.999743  0.738835  0.000000  1
  Pd  Pd6  1  0.000209  0.000209  0.500000  1
  Pt  Pt7  1  0.666760  0.333086  0.000000  1
  Pt  Pt8  1  0.333086  0.666760  0.000000  1
