# generated using pymatgen
data_Pr4CoGe3F28
_symmetry_space_group_name_H-M   'P 1'
_cell_length_a   5.57065218
_cell_length_b   9.05599223
_cell_length_c   12.08490400
_cell_angle_alpha   61.79995731
_cell_angle_beta   89.98559031
_cell_angle_gamma   89.99696147
_symmetry_Int_Tables_number   1
_chemical_formula_structural   Pr4CoGe3F28
_chemical_formula_sum   'Pr4 Co1 Ge3 F28'
_cell_volume   537.29224374
_cell_formula_units_Z   1
loop_
 _symmetry_equiv_pos_site_id
 _symmetry_equiv_pos_as_xyz
  1  'x, y, z'
loop_
 _atom_site_type_symbol
 _atom_site_label
 _atom_site_symmetry_multiplicity
 _atom_site_fract_x
 _atom_site_fract_y
 _atom_site_fract_z
 _atom_site_occupancy
  Pr  Pr0  1  0.759941  0.807702  0.764595  1
  Pr  Pr1  1  0.261091  0.192161  0.735208  1
  Pr  Pr2  1  0.239421  0.192494  0.237575  1
  Pr  Pr3  1  0.739360  0.807210  0.264131  1
  Co  Co4  1  0.742394  0.274609  0.457513  1
  Ge  Ge5  1  0.756968  0.273980  0.958287  1
  Ge  Ge6  1  0.256316  0.725828  0.541902  1
  Ge  Ge7  1  0.243353  0.725566  0.042164  1
  F  F8  1  0.428332  0.708875  0.923685  1
  F  F9  1  0.921215  0.291044  0.576201  1
  F  F10  1  0.571209  0.290603  0.076365  1
  F  F11  1  0.071368  0.709118  0.423583  1
  F  F12  1  0.468445  0.283911  0.536569  1
  F  F13  1  0.966865  0.716191  0.962334  1
  F  F14  1  0.533020  0.716216  0.462425  1
  F  F15  1  0.032706  0.283081  0.038526  1
  F  F16  1  0.766698  0.502472  0.866518  1
  F  F17  1  0.265057  0.497155  0.633372  1
  F  F18  1  0.233684  0.497318  0.133886  1
  F  F19  1  0.732110  0.500744  0.366364  1
  F  F20  1  0.761195  0.045769  0.046375  1
  F  F21  1  0.261607  0.954078  0.454109  1
  F  F22  1  0.238715  0.953730  0.953282  1
  F  F23  1  0.741239  0.049253  0.543576  1
  F  F24  1  0.986491  0.729843  0.627044  1
  F  F25  1  0.488078  0.270903  0.872395  1
  F  F26  1  0.012466  0.270884  0.374906  1
  F  F27  1  0.512872  0.728807  0.127355  1
  F  F28  1  0.060113  0.738115  0.164119  1
  F  F29  1  0.564876  0.262818  0.335185  1
  F  F30  1  0.940755  0.261598  0.836264  1
  F  F31  1  0.440584  0.738790  0.663629  1
  F  F32  1  0.396005  0.966182  0.226622  1
  F  F33  1  0.896693  0.033580  0.273810  1
  F  F34  1  0.604314  0.033914  0.774609  1
  F  F35  1  0.104445  0.965460  0.725522  1
