# generated using pymatgen
data_Pr9Th(Zn2Ru3)2
_symmetry_space_group_name_H-M   'P 1'
_cell_length_a   8.59626451
_cell_length_b   8.52424870
_cell_length_c   8.52424746
_cell_angle_alpha   108.59132248
_cell_angle_beta   109.86021032
_cell_angle_gamma   109.61821430
_symmetry_Int_Tables_number   1
_chemical_formula_structural   Pr9Th(Zn2Ru3)2
_chemical_formula_sum   'Pr9 Th1 Zn4 Ru6'
_cell_volume   482.81946876
_cell_formula_units_Z   1
loop_
 _symmetry_equiv_pos_site_id
 _symmetry_equiv_pos_as_xyz
  1  'x, y, z'
loop_
 _atom_site_type_symbol
 _atom_site_label
 _atom_site_symmetry_multiplicity
 _atom_site_fract_x
 _atom_site_fract_y
 _atom_site_fract_z
 _atom_site_occupancy
  Pr  Pr0  1  0.750000  0.815273  0.065273  1
  Pr  Pr1  1  0.436702  0.249771  0.686809  1
  Pr  Pr2  1  0.685520  0.437159  0.250055  1
  Pr  Pr3  1  0.063298  0.750107  0.813069  1
  Pr  Pr4  1  0.814480  0.064535  0.751639  1
  Pr  Pr5  1  0.224791  0.222322  0.224790  1
  Pr  Pr6  1  0.501678  0.999870  0.278741  1
  Pr  Pr7  1  0.275209  0.499998  0.997531  1
  Pr  Pr8  1  0.998322  0.277064  0.498193  1
  Th  Th9  1  0.250000  0.688985  0.438985  1
  Zn  Zn10  1  0.591798  0.589734  0.588888  1
  Zn  Zn11  1  0.502837  0.005214  0.913297  1
  Zn  Zn12  1  0.908202  0.497090  0.997936  1
  Zn  Zn13  1  0.997163  0.910459  0.502377  1
  Ru  Ru14  1  0.250000  0.129088  0.879088  1
  Ru  Ru15  1  0.750000  0.372702  0.622702  1
  Ru  Ru16  1  0.881054  0.250234  0.130215  1
  Ru  Ru17  1  0.134301  0.862418  0.263115  1
  Ru  Ru18  1  0.618945  0.749160  0.369179  1
  Ru  Ru19  1  0.365699  0.628815  0.728118  1
