# generated using pymatgen
data_RbPr6AuBr12
_symmetry_space_group_name_H-M   'P 1'
_cell_length_a   9.67897921
_cell_length_b   9.67940385
_cell_length_c   9.68114190
_cell_angle_alpha   104.50746082
_cell_angle_beta   104.51828655
_cell_angle_gamma   104.47117095
_symmetry_Int_Tables_number   1
_chemical_formula_structural   RbPr6AuBr12
_chemical_formula_sum   'Rb1 Pr6 Au1 Br12'
_cell_volume   801.32826588
_cell_formula_units_Z   1
loop_
 _symmetry_equiv_pos_site_id
 _symmetry_equiv_pos_as_xyz
  1  'x, y, z'
loop_
 _atom_site_type_symbol
 _atom_site_label
 _atom_site_symmetry_multiplicity
 _atom_site_fract_x
 _atom_site_fract_y
 _atom_site_fract_z
 _atom_site_occupancy
  Rb  Rb0  1  0.500000  0.500000  0.500000  1
  Pr  Pr1  1  0.104547  0.315397  0.010969  1
  Pr  Pr2  1  0.315523  0.011053  0.104918  1
  Pr  Pr3  1  0.010858  0.104740  0.315355  1
  Pr  Pr4  1  0.989143  0.895260  0.684646  1
  Pr  Pr5  1  0.684477  0.988948  0.895082  1
  Pr  Pr6  1  0.895453  0.684603  0.989031  1
  Au  Au7  1  0.000000  0.000000  0.000000  1
  Br  Br8  1  0.214083  0.673674  0.074555  1
  Br  Br9  1  0.424407  0.332693  0.113653  1
  Br  Br10  1  0.673504  0.074478  0.213773  1
  Br  Br11  1  0.925497  0.786178  0.326317  1
  Br  Br12  1  0.113672  0.424501  0.332685  1
  Br  Br13  1  0.332598  0.113592  0.424445  1
  Br  Br14  1  0.667402  0.886408  0.575556  1
  Br  Br15  1  0.886329  0.575499  0.667315  1
  Br  Br16  1  0.074504  0.213822  0.673684  1
  Br  Br17  1  0.326497  0.925523  0.786227  1
  Br  Br18  1  0.575593  0.667307  0.886348  1
  Br  Br19  1  0.785917  0.326326  0.925445  1
