# generated using pymatgen
data_Li4Pr3LuSi8
_symmetry_space_group_name_H-M   'P 1'
_cell_length_a   3.86493600
_cell_length_b   7.72301909
_cell_length_c   10.41663298
_cell_angle_alpha   89.83314881
_cell_angle_beta   90.00000000
_cell_angle_gamma   90.00000000
_symmetry_Int_Tables_number   1
_chemical_formula_structural   Li4Pr3LuSi8
_chemical_formula_sum   'Li4 Pr3 Lu1 Si8'
_cell_volume   310.92449376
_cell_formula_units_Z   1
loop_
 _symmetry_equiv_pos_site_id
 _symmetry_equiv_pos_as_xyz
  1  'x, y, z'
loop_
 _atom_site_type_symbol
 _atom_site_label
 _atom_site_symmetry_multiplicity
 _atom_site_fract_x
 _atom_site_fract_y
 _atom_site_fract_z
 _atom_site_occupancy
  Li  Li0  1  0.250000  0.993824  0.389546  1
  Li  Li1  1  0.750000  0.003913  0.610571  1
  Li  Li2  1  0.250000  0.494812  0.105977  1
  Li  Li3  1  0.750000  0.512348  0.890906  1
  Pr  Pr4  1  0.750000  0.863405  0.135385  1
  Pr  Pr5  1  0.250000  0.637355  0.637826  1
  Pr  Pr6  1  0.750000  0.358221  0.364799  1
  Lu  Lu7  1  0.250000  0.131974  0.864314  1
  Si  Si8  1  0.750000  0.270313  0.059887  1
  Si  Si9  1  0.250000  0.736695  0.929598  1
  Si  Si10  1  0.750000  0.771886  0.430381  1
  Si  Si11  1  0.250000  0.220083  0.578478  1
  Si  Si12  1  0.750000  0.847475  0.822549  1
  Si  Si13  1  0.250000  0.164624  0.171136  1
  Si  Si14  1  0.750000  0.330198  0.686483  1
  Si  Si15  1  0.250000  0.662874  0.322164  1
