# generated using pymatgen
data_Mn2CrNi4MoP4
_symmetry_space_group_name_H-M   'P 1'
_cell_length_a   5.87759404
_cell_length_b   3.52391700
_cell_length_c   6.83691305
_cell_angle_alpha   90.00000000
_cell_angle_beta   89.98657597
_cell_angle_gamma   90.00000000
_symmetry_Int_Tables_number   1
_chemical_formula_structural   Mn2CrNi4MoP4
_chemical_formula_sum   'Mn2 Cr1 Ni4 Mo1 P4'
_cell_volume   141.60718900
_cell_formula_units_Z   1
loop_
 _symmetry_equiv_pos_site_id
 _symmetry_equiv_pos_as_xyz
  1  'x, y, z'
loop_
 _atom_site_type_symbol
 _atom_site_label
 _atom_site_symmetry_multiplicity
 _atom_site_fract_x
 _atom_site_fract_y
 _atom_site_fract_z
 _atom_site_occupancy
  Mn  Mn0  1  0.968198  0.750000  0.836183  1
  Mn  Mn1  1  0.468433  0.750000  0.666286  1
  Cr  Cr2  1  0.029763  0.250000  0.169278  1
  Ni  Ni3  1  0.144511  0.250000  0.568964  1
  Ni  Ni4  1  0.641814  0.250000  0.931609  1
  Ni  Ni5  1  0.863348  0.750000  0.438842  1
  Ni  Ni6  1  0.357097  0.750000  0.057480  1
  Mo  Mo7  1  0.531370  0.250000  0.333896  1
  P  P8  1  0.764714  0.250000  0.628970  1
  P  P9  1  0.256657  0.250000  0.876254  1
  P  P10  1  0.231334  0.750000  0.368190  1
  P  P11  1  0.742765  0.750000  0.124048  1
