# generated using pymatgen
data_Tb8Hf12Si15Os
_symmetry_space_group_name_H-M   'P 1'
_cell_length_a   7.30052196
_cell_length_b   7.30672707
_cell_length_c   13.43114413
_cell_angle_alpha   89.88004938
_cell_angle_beta   89.85462370
_cell_angle_gamma   90.01537032
_symmetry_Int_Tables_number   1
_chemical_formula_structural   Tb8Hf12Si15Os
_chemical_formula_sum   'Tb8 Hf12 Si15 Os1'
_cell_volume   716.45256328
_cell_formula_units_Z   1
loop_
 _symmetry_equiv_pos_site_id
 _symmetry_equiv_pos_as_xyz
  1  'x, y, z'
loop_
 _atom_site_type_symbol
 _atom_site_label
 _atom_site_symmetry_multiplicity
 _atom_site_fract_x
 _atom_site_fract_y
 _atom_site_fract_z
 _atom_site_occupancy
  Tb  Tb0  1  0.997308  0.346618  0.214695  1
  Tb  Tb1  1  0.004328  0.655416  0.714543  1
  Tb  Tb2  1  0.158513  0.495257  0.463181  1
  Tb  Tb3  1  0.503680  0.843239  0.034304  1
  Tb  Tb4  1  0.844500  0.502399  0.965273  1
  Tb  Tb5  1  0.496304  0.158605  0.534715  1
  Tb  Tb6  1  0.343586  0.996743  0.784909  1
  Tb  Tb7  1  0.654806  0.003382  0.284479  1
  Hf  Hf8  1  0.175698  0.174707  0.998418  1
  Hf  Hf9  1  0.826813  0.825959  0.500560  1
  Hf  Hf10  1  0.325411  0.665790  0.253008  1
  Hf  Hf11  1  0.674149  0.325489  0.750266  1
  Hf  Hf12  1  0.155322  0.002823  0.373188  1
  Hf  Hf13  1  0.850229  0.004102  0.874765  1
  Hf  Hf14  1  0.503780  0.650651  0.626241  1
  Hf  Hf15  1  0.350898  0.496216  0.873213  1
  Hf  Hf16  1  0.494434  0.345718  0.128446  1
  Hf  Hf17  1  0.644505  0.498771  0.377232  1
  Hf  Hf18  1  0.997166  0.149005  0.625748  1
  Hf  Hf19  1  0.000339  0.848483  0.124634  1
  Si  Si20  1  0.638656  0.704924  0.818750  1
  Si  Si21  1  0.205913  0.861943  0.567382  1
  Si  Si22  1  0.137726  0.795658  0.933059  1
  Si  Si23  1  0.796826  0.137029  0.065829  1
  Si  Si24  1  0.862679  0.200452  0.435046  1
  Si  Si25  1  0.295820  0.362182  0.683244  1
  Si  Si26  1  0.703780  0.639593  0.182123  1
  Si  Si27  1  0.289539  0.046093  0.183446  1
  Si  Si28  1  0.705445  0.951562  0.685599  1
  Si  Si29  1  0.453048  0.798046  0.438715  1
  Si  Si30  1  0.206496  0.551007  0.061121  1
  Si  Si31  1  0.548103  0.204943  0.935322  1
  Si  Si32  1  0.795385  0.451918  0.566107  1
  Si  Si33  1  0.047560  0.295237  0.814475  1
  Si  Si34  1  0.946903  0.710140  0.313937  1
  Os  Os35  1  0.364353  0.299899  0.314025  1
