# generated using pymatgen
data_GaNi2Mo3N
_symmetry_space_group_name_H-M   'P 1'
_cell_length_a   7.88961833
_cell_length_b   7.88961775
_cell_length_c   7.88961700
_cell_angle_alpha   59.99999893
_cell_angle_beta   60.00000140
_cell_angle_gamma   60.00000331
_symmetry_Int_Tables_number   1
_chemical_formula_structural   GaNi2Mo3N
_chemical_formula_sum   'Ga4 Ni8 Mo12 N4'
_cell_volume   347.25850523
_cell_formula_units_Z   4
loop_
 _symmetry_equiv_pos_site_id
 _symmetry_equiv_pos_as_xyz
  1  'x, y, z'
loop_
 _atom_site_type_symbol
 _atom_site_label
 _atom_site_symmetry_multiplicity
 _atom_site_fract_x
 _atom_site_fract_y
 _atom_site_fract_z
 _atom_site_occupancy
  Ga  Ga0  1  0.125000  0.625000  0.625000  1
  Ga  Ga1  1  0.625000  0.125000  0.625000  1
  Ga  Ga2  1  0.625000  0.625000  0.125000  1
  Ga  Ga3  1  0.625000  0.625000  0.625000  1
  Ni  Ni4  1  0.753005  0.415665  0.415665  1
  Ni  Ni5  1  0.415665  0.753005  0.415665  1
  Ni  Ni6  1  0.415665  0.415665  0.753005  1
  Ni  Ni7  1  0.415665  0.415665  0.415665  1
  Ni  Ni8  1  0.496995  0.834335  0.834335  1
  Ni  Ni9  1  0.834335  0.496995  0.834335  1
  Ni  Ni10  1  0.834335  0.834335  0.496995  1
  Ni  Ni11  1  0.834335  0.834335  0.834335  1
  Mo  Mo12  1  0.808572  0.808572  0.191428  1
  Mo  Mo13  1  0.191428  0.191428  0.808572  1
  Mo  Mo14  1  0.808572  0.191428  0.808572  1
  Mo  Mo15  1  0.191428  0.808572  0.191428  1
  Mo  Mo16  1  0.191428  0.808572  0.808572  1
  Mo  Mo17  1  0.808572  0.191428  0.191428  1
  Mo  Mo18  1  0.441428  0.441428  0.058572  1
  Mo  Mo19  1  0.058572  0.058572  0.441428  1
  Mo  Mo20  1  0.441428  0.058572  0.441428  1
  Mo  Mo21  1  0.058572  0.441428  0.058572  1
  Mo  Mo22  1  0.058572  0.441428  0.441428  1
  Mo  Mo23  1  0.441428  0.058572  0.058572  1
  N  N24  1  0.625000  0.125000  0.125000  1
  N  N25  1  0.125000  0.625000  0.125000  1
  N  N26  1  0.125000  0.125000  0.625000  1
  N  N27  1  0.125000  0.125000  0.125000  1
