# generated using pymatgen
data_Tm10Ru3Rh
_symmetry_space_group_name_H-M   'P 1'
_cell_length_a   6.24387720
_cell_length_b   7.24555600
_cell_length_c   8.34500193
_cell_angle_alpha   96.84429078
_cell_angle_beta   111.90633115
_cell_angle_gamma   90.09516360
_symmetry_Int_Tables_number   1
_chemical_formula_structural   Tm10Ru3Rh
_chemical_formula_sum   'Tm10 Ru3 Rh1'
_cell_volume   347.33896461
_cell_formula_units_Z   1
loop_
 _symmetry_equiv_pos_site_id
 _symmetry_equiv_pos_as_xyz
  1  'x, y, z'
loop_
 _atom_site_type_symbol
 _atom_site_label
 _atom_site_symmetry_multiplicity
 _atom_site_fract_x
 _atom_site_fract_y
 _atom_site_fract_z
 _atom_site_occupancy
  Tm  Tm0  1  0.792564  0.082067  0.814417  1
  Tm  Tm1  1  0.978870  0.415189  0.188178  1
  Tm  Tm2  1  0.208757  0.915760  0.186043  1
  Tm  Tm3  1  0.024423  0.585751  0.814279  1
  Tm  Tm4  1  0.203207  0.183008  0.563758  1
  Tm  Tm5  1  0.641945  0.315120  0.432820  1
  Tm  Tm6  1  0.794009  0.815670  0.434951  1
  Tm  Tm7  1  0.357497  0.685988  0.563904  1
  Tm  Tm8  1  0.418495  0.249170  0.001194  1
  Tm  Tm9  1  0.580913  0.751888  0.000972  1
  Ru  Ru10  1  0.823096  0.077158  0.219668  1
  Ru  Ru11  1  0.396614  0.575826  0.220359  1
  Ru  Ru12  1  0.177554  0.923785  0.779818  1
  Rh  Rh13  1  0.602055  0.423620  0.779639  1
