# generated using pymatgen
data_Zr3Sc(Co4P3)2
_symmetry_space_group_name_H-M   'P 1'
_cell_length_a   12.07602546
_cell_length_b   12.08704177
_cell_length_c   3.65003700
_cell_angle_alpha   90.00000000
_cell_angle_beta   90.00000000
_cell_angle_gamma   120.03016876
_symmetry_Int_Tables_number   1
_chemical_formula_structural   Zr3Sc(Co4P3)2
_chemical_formula_sum   'Zr6 Sc2 Co16 P12'
_cell_volume   461.25367087
_cell_formula_units_Z   2
loop_
 _symmetry_equiv_pos_site_id
 _symmetry_equiv_pos_as_xyz
  1  'x, y, z'
loop_
 _atom_site_type_symbol
 _atom_site_label
 _atom_site_symmetry_multiplicity
 _atom_site_fract_x
 _atom_site_fract_y
 _atom_site_fract_z
 _atom_site_occupancy
  Zr  Zr0  1  0.000000  0.555420  0.000000  1
  Zr  Zr1  1  0.666111  0.332355  0.000000  1
  Zr  Zr2  1  0.333889  0.666245  0.000000  1
  Zr  Zr3  1  0.821588  0.822336  0.500000  1
  Zr  Zr4  1  0.178412  0.000749  0.500000  1
  Zr  Zr5  1  0.000000  0.175760  0.500000  1
  Sc  Sc6  1  0.443238  0.442799  0.000000  1
  Sc  Sc7  1  0.556762  0.999560  0.000000  1
  Co  Co8  1  0.194676  0.372663  0.000000  1
  Co  Co9  1  0.178188  0.807171  0.000000  1
  Co  Co10  1  0.821812  0.628984  0.000000  1
  Co  Co11  1  0.805324  0.177987  0.000000  1
  Co  Co12  1  0.372191  0.194173  0.000000  1
  Co  Co13  1  0.126594  0.479602  0.500000  1
  Co  Co14  1  0.354539  0.874214  0.500000  1
  Co  Co15  1  0.520559  0.646701  0.500000  1
  Co  Co16  1  0.645461  0.519676  0.500000  1
  Co  Co17  1  0.873406  0.353008  0.500000  1
  Co  Co18  1  0.479441  0.126140  0.500000  1
  Co  Co19  1  0.000000  0.000273  0.000000  1
  Co  Co20  1  0.720722  0.000305  0.500000  1
  Co  Co21  1  0.000000  0.722141  0.500000  1
  Co  Co22  1  0.627809  0.821981  0.000000  1
  Co  Co23  1  0.279278  0.279583  0.500000  1
  P  P24  1  0.650262  0.651404  0.000000  1
  P  P25  1  0.349738  0.001143  0.000000  1
  P  P26  1  0.000000  0.344654  0.000000  1
  P  P27  1  0.481914  0.310287  0.500000  1
  P  P28  1  0.688572  0.171205  0.500000  1
  P  P29  1  0.825608  0.517633  0.500000  1
  P  P30  1  0.518086  0.828373  0.500000  1
  P  P31  1  0.174392  0.692024  0.500000  1
  P  P32  1  0.824083  0.999691  0.000000  1
  P  P33  1  0.000000  0.825522  0.000000  1
  P  P34  1  0.311428  0.482633  0.500000  1
  P  P35  1  0.175917  0.175608  0.000000  1
