# generated using pymatgen
data_Ac3Ge2Ir
_symmetry_space_group_name_H-M   'P 1'
_cell_length_a   12.78742400
_cell_length_b   4.51488400
_cell_length_c   12.35052900
_cell_angle_alpha   90.00000000
_cell_angle_beta   90.00000000
_cell_angle_gamma   90.00000000
_symmetry_Int_Tables_number   1
_chemical_formula_structural   Ac3Ge2Ir
_chemical_formula_sum   'Ac12 Ge8 Ir4'
_cell_volume   713.04218098
_cell_formula_units_Z   4
loop_
 _symmetry_equiv_pos_site_id
 _symmetry_equiv_pos_as_xyz
  1  'x, y, z'
loop_
 _atom_site_type_symbol
 _atom_site_label
 _atom_site_symmetry_multiplicity
 _atom_site_fract_x
 _atom_site_fract_y
 _atom_site_fract_z
 _atom_site_occupancy
  Ac  Ac0  1  0.384993  0.249999  0.054228  1
  Ac  Ac1  1  0.058979  0.249999  0.126508  1
  Ac  Ac2  1  0.779186  0.749999  0.197870  1
  Ac  Ac3  1  0.279186  0.749999  0.302131  1
  Ac  Ac4  1  0.558979  0.249999  0.373492  1
  Ac  Ac5  1  0.884993  0.249999  0.445772  1
  Ac  Ac6  1  0.115007  0.749999  0.554228  1
  Ac  Ac7  1  0.441021  0.749999  0.626508  1
  Ac  Ac8  1  0.720814  0.249999  0.697870  1
  Ac  Ac9  1  0.220814  0.249999  0.802130  1
  Ac  Ac10  1  0.941021  0.749999  0.873492  1
  Ac  Ac11  1  0.615007  0.749999  0.945772  1
  Ge  Ge12  1  0.799988  0.249999  0.003841  1
  Ge  Ge13  1  0.522301  0.749999  0.187253  1
  Ge  Ge14  1  0.022301  0.749999  0.312746  1
  Ge  Ge15  1  0.299988  0.249999  0.496159  1
  Ge  Ge16  1  0.700012  0.749999  0.503840  1
  Ge  Ge17  1  0.977699  0.249999  0.687254  1
  Ge  Ge18  1  0.477700  0.249999  0.812746  1
  Ge  Ge19  1  0.200012  0.749999  0.996159  1
  Ir  Ir20  1  0.628169  0.249999  0.133834  1
  Ir  Ir21  1  0.128169  0.249999  0.366166  1
  Ir  Ir22  1  0.871831  0.749999  0.633834  1
  Ir  Ir23  1  0.371831  0.749999  0.866166  1
