# generated using pymatgen
data_Nd3Eu(SiO5)2
_symmetry_space_group_name_H-M   'P 1'
_cell_length_a   7.39742300
_cell_length_b   6.88698903
_cell_length_c   9.31240017
_cell_angle_alpha   71.43755333
_cell_angle_beta   90.00000000
_cell_angle_gamma   90.00000000
_symmetry_Int_Tables_number   1
_chemical_formula_structural   Nd3Eu(SiO5)2
_chemical_formula_sum   'Nd6 Eu2 Si4 O20'
_cell_volume   449.74815968
_cell_formula_units_Z   2
loop_
 _symmetry_equiv_pos_site_id
 _symmetry_equiv_pos_as_xyz
  1  'x, y, z'
loop_
 _atom_site_type_symbol
 _atom_site_label
 _atom_site_symmetry_multiplicity
 _atom_site_fract_x
 _atom_site_fract_y
 _atom_site_fract_z
 _atom_site_occupancy
  Nd  Nd0  1  0.654251  0.093533  0.612712  1
  Nd  Nd1  1  0.844085  0.592798  0.609119  1
  Nd  Nd2  1  0.154251  0.406467  0.387288  1
  Nd  Nd3  1  0.344085  0.907202  0.390881  1
  Nd  Nd4  1  0.875408  0.734591  0.982827  1
  Nd  Nd5  1  0.375408  0.765409  0.017173  1
  Eu  Eu6  1  0.625693  0.234999  0.984095  1
  Eu  Eu7  1  0.125693  0.265001  0.015905  1
  Si  Si8  1  0.079333  0.041895  0.701479  1
  Si  Si9  1  0.579333  0.458105  0.298521  1
  Si  Si10  1  0.420661  0.543577  0.702549  1
  Si  Si11  1  0.920661  0.956423  0.297451  1
  O  O12  1  0.575353  0.366080  0.708847  1
  O  O13  1  0.364597  0.497769  0.881827  1
  O  O14  1  0.376934  0.057619  0.109358  1
  O  O15  1  0.864597  0.002231  0.118173  1
  O  O16  1  0.249062  0.054380  0.589634  1
  O  O17  1  0.751130  0.944159  0.409801  1
  O  O18  1  0.039475  0.744074  0.367732  1
  O  O19  1  0.135312  0.992804  0.881440  1
  O  O20  1  0.459721  0.247120  0.367776  1
  O  O21  1  0.622397  0.953250  0.885400  1
  O  O22  1  0.075353  0.133920  0.291153  1
  O  O23  1  0.122397  0.546750  0.114600  1
  O  O24  1  0.749062  0.445620  0.410366  1
  O  O25  1  0.539475  0.755926  0.632268  1
  O  O26  1  0.959721  0.252880  0.632224  1
  O  O27  1  0.926587  0.860880  0.709421  1
  O  O28  1  0.635312  0.507196  0.118560  1
  O  O29  1  0.876934  0.442381  0.890642  1
  O  O30  1  0.426587  0.639120  0.290579  1
  O  O31  1  0.251130  0.555841  0.590199  1
