# generated using pymatgen
data_TbEr3Al18(NiIr2)2
_symmetry_space_group_name_H-M   'P 1'
_cell_length_a   7.52719300
_cell_length_b   7.52660006
_cell_length_c   9.39666200
_cell_angle_alpha   90.07169506
_cell_angle_beta   90.05843753
_cell_angle_gamma   119.71728636
_symmetry_Int_Tables_number   1
_chemical_formula_structural   TbEr3Al18(NiIr2)2
_chemical_formula_sum   'Tb1 Er3 Al18 Ni2 Ir4'
_cell_volume   462.34397329
_cell_formula_units_Z   1
loop_
 _symmetry_equiv_pos_site_id
 _symmetry_equiv_pos_as_xyz
  1  'x, y, z'
loop_
 _atom_site_type_symbol
 _atom_site_label
 _atom_site_symmetry_multiplicity
 _atom_site_fract_x
 _atom_site_fract_y
 _atom_site_fract_z
 _atom_site_occupancy
  Tb  Tb0  1  0.328999  0.003963  0.750040  1
  Er  Er1  1  0.996345  0.671253  0.250314  1
  Er  Er2  1  0.006072  0.331373  0.749751  1
  Er  Er3  1  0.668684  0.993776  0.250308  1
  Al  Al4  1  0.124561  0.124683  0.245809  1
  Al  Al5  1  0.874530  0.874859  0.754018  1
  Al  Al6  1  0.994703  0.332445  0.074841  1
  Al  Al7  1  0.996909  0.664972  0.926253  1
  Al  Al8  1  0.998586  0.664623  0.574261  1
  Al  Al9  1  0.334991  0.000963  0.424343  1
  Al  Al10  1  0.999937  0.333435  0.424414  1
  Al  Al11  1  0.667064  0.000050  0.574790  1
  Al  Al12  1  0.668286  0.005050  0.926085  1
  Al  Al13  1  0.334274  0.002321  0.075332  1
  Al  Al14  1  0.333643  0.333220  0.551517  1
  Al  Al15  1  0.667152  0.666316  0.447346  1
  Al  Al16  1  0.669623  0.668621  0.052536  1
  Al  Al17  1  0.331482  0.331103  0.948853  1
  Al  Al18  1  0.339717  0.546551  0.249134  1
  Al  Al19  1  0.661541  0.449623  0.753326  1
  Al  Al20  1  0.551600  0.339558  0.246481  1
  Al  Al21  1  0.453440  0.659603  0.750852  1
  Ni  Ni22  1  0.670984  0.329137  0.000103  1
  Ni  Ni23  1  0.999171  0.000389  0.000111  1
  Ir  Ir24  1  0.327286  0.672707  0.000296  1
  Ir  Ir25  1  0.328237  0.671786  0.499704  1
  Ir  Ir26  1  0.672222  0.328112  0.499593  1
  Ir  Ir27  1  0.999959  0.999510  0.499588  1
