# generated using pymatgen
data_Tm10Ir5Au
_symmetry_space_group_name_H-M   'P 1'
_cell_length_a   10.89704971
_cell_length_b   10.85280100
_cell_length_c   6.29102062
_cell_angle_alpha   90.00000000
_cell_angle_beta   89.87984567
_cell_angle_gamma   90.00000000
_symmetry_Int_Tables_number   1
_chemical_formula_structural   Tm10Ir5Au
_chemical_formula_sum   'Tm20 Ir10 Au2'
_cell_volume   743.99655701
_cell_formula_units_Z   2
loop_
 _symmetry_equiv_pos_site_id
 _symmetry_equiv_pos_as_xyz
  1  'x, y, z'
loop_
 _atom_site_type_symbol
 _atom_site_label
 _atom_site_symmetry_multiplicity
 _atom_site_fract_x
 _atom_site_fract_y
 _atom_site_fract_z
 _atom_site_occupancy
  Tm  Tm0  1  0.292564  0.087752  0.372853  1
  Tm  Tm1  1  0.292564  0.912248  0.872853  1
  Tm  Tm2  1  0.697801  0.091605  0.867017  1
  Tm  Tm3  1  0.697801  0.908395  0.367017  1
  Tm  Tm4  1  0.577522  0.789886  0.877384  1
  Tm  Tm5  1  0.577522  0.210114  0.377384  1
  Tm  Tm6  1  0.409407  0.791162  0.376854  1
  Tm  Tm7  1  0.409407  0.208838  0.876854  1
  Tm  Tm8  1  0.208901  0.411990  0.621796  1
  Tm  Tm9  1  0.208901  0.588010  0.121796  1
  Tm  Tm10  1  0.790422  0.420192  0.122697  1
  Tm  Tm11  1  0.790422  0.579808  0.622697  1
  Tm  Tm12  1  0.917436  0.704599  0.137654  1
  Tm  Tm13  1  0.917436  0.295401  0.637654  1
  Tm  Tm14  1  0.095406  0.702837  0.622868  1
  Tm  Tm15  1  0.095406  0.297163  0.122868  1
  Tm  Tm16  1  0.009372  0.998525  0.500223  1
  Tm  Tm17  1  0.009372  0.001475  0.000223  1
  Tm  Tm18  1  0.499656  0.498936  0.000442  1
  Tm  Tm19  1  0.499656  0.501064  0.500442  1
  Ir  Ir20  1  0.154138  0.154409  0.749924  1
  Ir  Ir21  1  0.154138  0.845591  0.249924  1
  Ir  Ir22  1  0.655593  0.346188  0.748213  1
  Ir  Ir23  1  0.655593  0.653812  0.248213  1
  Ir  Ir24  1  0.347438  0.346136  0.251797  1
  Ir  Ir25  1  0.347438  0.653864  0.751797  1
  Ir  Ir26  1  0.499678  0.000145  0.121065  1
  Ir  Ir27  1  0.499678  0.999855  0.621065  1
  Ir  Ir28  1  0.000185  0.500842  0.878760  1
  Ir  Ir29  1  0.000185  0.499158  0.378760  1
  Au  Au30  1  0.844481  0.155066  0.250452  1
  Au  Au31  1  0.844481  0.844934  0.750452  1
