# generated using pymatgen
data_SrAl2CuSi
_symmetry_space_group_name_H-M   'P 1'
_cell_length_a   6.21037066
_cell_length_b   6.21037069
_cell_length_c   6.21037036
_cell_angle_alpha   140.34443374
_cell_angle_beta   140.34443890
_cell_angle_gamma   57.33069123
_symmetry_Int_Tables_number   1
_chemical_formula_structural   SrAl2CuSi
_chemical_formula_sum   'Sr1 Al2 Cu1 Si1'
_cell_volume   96.72189331
_cell_formula_units_Z   1
loop_
 _symmetry_equiv_pos_site_id
 _symmetry_equiv_pos_as_xyz
  1  'x, y, z'
loop_
 _atom_site_type_symbol
 _atom_site_label
 _atom_site_symmetry_multiplicity
 _atom_site_fract_x
 _atom_site_fract_y
 _atom_site_fract_z
 _atom_site_occupancy
  Sr  Sr0  1  0.005484  0.005484  0.000000  1
  Al  Al1  1  0.254652  0.754652  0.500000  1
  Al  Al2  1  0.754652  0.254652  0.500000  1
  Cu  Cu3  1  0.380311  0.380311  0.000000  1
  Si  Si4  1  0.604901  0.604901  0.000000  1
