# generated using pymatgen
data_Tm10Si4Bi3Pb
_symmetry_space_group_name_H-M   'P 1'
_cell_length_a   8.52864058
_cell_length_b   8.52864067
_cell_length_c   7.82889979
_cell_angle_alpha   90.10550509
_cell_angle_beta   90.10550326
_cell_angle_gamma   125.39180002
_symmetry_Int_Tables_number   1
_chemical_formula_structural   Tm10Si4Bi3Pb
_chemical_formula_sum   'Tm10 Si4 Bi3 Pb1'
_cell_volume   464.22308283
_cell_formula_units_Z   1
loop_
 _symmetry_equiv_pos_site_id
 _symmetry_equiv_pos_as_xyz
  1  'x, y, z'
loop_
 _atom_site_type_symbol
 _atom_site_label
 _atom_site_symmetry_multiplicity
 _atom_site_fract_x
 _atom_site_fract_y
 _atom_site_fract_z
 _atom_site_occupancy
  Tm  Tm0  1  0.542495  0.785151  0.167250  1
  Tm  Tm1  1  0.285410  0.040520  0.337353  1
  Tm  Tm2  1  0.214849  0.457505  0.832750  1
  Tm  Tm3  1  0.959480  0.714590  0.662647  1
  Tm  Tm4  1  0.711993  0.954921  0.662814  1
  Tm  Tm5  1  0.455764  0.212474  0.834230  1
  Tm  Tm6  1  0.787526  0.544236  0.165770  1
  Tm  Tm7  1  0.045079  0.288007  0.337186  1
  Tm  Tm8  1  0.497603  0.502397  0.500000  1
  Tm  Tm9  1  0.000293  0.999707  0.000000  1
  Si  Si10  1  0.635143  0.633953  0.866475  1
  Si  Si11  1  0.133557  0.133346  0.633956  1
  Si  Si12  1  0.866654  0.866443  0.366044  1
  Si  Si13  1  0.366047  0.364857  0.133525  1
  Bi  Bi14  1  0.207482  0.792518  0.000000  1
  Bi  Bi15  1  0.707283  0.292717  0.500000  1
  Bi  Bi16  1  0.792351  0.207649  0.000000  1
  Pb  Pb17  1  0.290990  0.709010  0.500000  1
