# generated using pymatgen
data_Nb12Ga8Fe4CN3
_symmetry_space_group_name_H-M   'P 1'
_cell_length_a   8.20903042
_cell_length_b   8.20903011
_cell_length_c   8.19883417
_cell_angle_alpha   59.95885169
_cell_angle_beta   59.95885194
_cell_angle_gamma   59.99999987
_symmetry_Int_Tables_number   1
_chemical_formula_structural   Nb12Ga8Fe4CN3
_chemical_formula_sum   'Nb12 Ga8 Fe4 C1 N3'
_cell_volume   390.43651332
_cell_formula_units_Z   1
loop_
 _symmetry_equiv_pos_site_id
 _symmetry_equiv_pos_as_xyz
  1  'x, y, z'
loop_
 _atom_site_type_symbol
 _atom_site_label
 _atom_site_symmetry_multiplicity
 _atom_site_fract_x
 _atom_site_fract_y
 _atom_site_fract_z
 _atom_site_occupancy
  Nb  Nb0  1  0.803804  0.803804  0.193736  1
  Nb  Nb1  1  0.195522  0.195522  0.805335  1
  Nb  Nb2  1  0.803621  0.195522  0.805335  1
  Nb  Nb3  1  0.198655  0.803804  0.193736  1
  Nb  Nb4  1  0.195522  0.803621  0.805335  1
  Nb  Nb5  1  0.803804  0.198655  0.193736  1
  Nb  Nb6  1  0.446196  0.446196  0.056264  1
  Nb  Nb7  1  0.054478  0.054478  0.444665  1
  Nb  Nb8  1  0.446379  0.054478  0.444665  1
  Nb  Nb9  1  0.051345  0.446196  0.056264  1
  Nb  Nb10  1  0.054478  0.446379  0.444665  1
  Nb  Nb11  1  0.446196  0.051345  0.056264  1
  Ga  Ga12  1  0.752740  0.414651  0.417960  1
  Ga  Ga13  1  0.414651  0.752740  0.417960  1
  Ga  Ga14  1  0.415868  0.415868  0.752399  1
  Ga  Ga15  1  0.414651  0.414651  0.417960  1
  Ga  Ga16  1  0.497260  0.835349  0.832040  1
  Ga  Ga17  1  0.835349  0.497260  0.832040  1
  Ga  Ga18  1  0.834132  0.834132  0.497601  1
  Ga  Ga19  1  0.835349  0.835349  0.832040  1
  Fe  Fe20  1  0.125000  0.625000  0.625000  1
  Fe  Fe21  1  0.625000  0.125000  0.625000  1
  Fe  Fe22  1  0.625000  0.625000  0.125000  1
  Fe  Fe23  1  0.625000  0.625000  0.625000  1
  C  C24  1  0.125000  0.125000  0.625000  1
  N  N25  1  0.625000  0.125000  0.125000  1
  N  N26  1  0.125000  0.625000  0.125000  1
  N  N27  1  0.125000  0.125000  0.125000  1
