# generated using pymatgen
data_PaTi3Co2
_symmetry_space_group_name_H-M   'P 1'
_cell_length_a   4.89878748
_cell_length_b   4.89878523
_cell_length_c   5.18411109
_cell_angle_alpha   104.51703629
_cell_angle_beta   104.51704095
_cell_angle_gamma   117.99954775
_symmetry_Int_Tables_number   1
_chemical_formula_structural   PaTi3Co2
_chemical_formula_sum   'Pa1 Ti3 Co2'
_cell_volume   95.95924986
_cell_formula_units_Z   1
loop_
 _symmetry_equiv_pos_site_id
 _symmetry_equiv_pos_as_xyz
  1  'x, y, z'
loop_
 _atom_site_type_symbol
 _atom_site_label
 _atom_site_symmetry_multiplicity
 _atom_site_fract_x
 _atom_site_fract_y
 _atom_site_fract_z
 _atom_site_occupancy
  Pa  Pa0  1  0.173920  0.673920  0.847840  1
  Ti  Ti1  1  0.864235  0.364235  0.228472  1
  Ti  Ti2  1  0.321409  0.161619  0.483028  1
  Ti  Ti3  1  0.661619  0.821409  0.483028  1
  Co  Co4  1  0.239408  0.239408  0.978817  1
  Co  Co5  1  0.739408  0.739408  0.978817  1
