# generated using pymatgen
data_Ca6Hf2(Al2Ir)7
_symmetry_space_group_name_H-M   'P 1'
_cell_length_a   9.03678949
_cell_length_b   9.06126844
_cell_length_c   9.06126800
_cell_angle_alpha   60.13402237
_cell_angle_beta   60.08931231
_cell_angle_gamma   60.08932284
_symmetry_Int_Tables_number   1
_chemical_formula_structural   Ca6Hf2(Al2Ir)7
_chemical_formula_sum   'Ca6 Hf2 Al14 Ir7'
_cell_volume   525.89770675
_cell_formula_units_Z   1
loop_
 _symmetry_equiv_pos_site_id
 _symmetry_equiv_pos_as_xyz
  1  'x, y, z'
loop_
 _atom_site_type_symbol
 _atom_site_label
 _atom_site_symmetry_multiplicity
 _atom_site_fract_x
 _atom_site_fract_y
 _atom_site_fract_z
 _atom_site_occupancy
  Ca  Ca0  1  0.704078  0.702861  0.292853  1
  Ca  Ca1  1  0.300208  0.702861  0.292854  1
  Ca  Ca2  1  0.700359  0.299641  0.299641  1
  Ca  Ca3  1  0.300208  0.292854  0.702861  1
  Ca  Ca4  1  0.704078  0.292853  0.702861  1
  Ca  Ca5  1  0.291033  0.708967  0.708967  1
  Hf  Hf6  1  0.879820  0.879789  0.360571  1
  Hf  Hf7  1  0.879820  0.360571  0.879789  1
  Al  Al8  1  0.356377  0.881382  0.881382  1
  Al  Al9  1  0.880859  0.881382  0.881382  1
  Al  Al10  1  0.121872  0.119982  0.636275  1
  Al  Al11  1  0.121872  0.636275  0.119982  1
  Al  Al12  1  0.638681  0.118669  0.118669  1
  Al  Al13  1  0.123981  0.118669  0.118669  1
  Al  Al14  1  0.668064  0.676306  0.987565  1
  Al  Al15  1  0.668064  0.987565  0.676306  1
  Al  Al16  1  0.988229  0.673930  0.673930  1
  Al  Al17  1  0.663911  0.673930  0.673930  1
  Al  Al18  1  0.326796  0.327719  0.018688  1
  Al  Al19  1  0.326796  0.018688  0.327719  1
  Al  Al20  1  0.019759  0.326807  0.326807  1
  Al  Al21  1  0.326627  0.326807  0.326807  1
  Ir  Ir22  1  0.001859  0.998141  0.998141  1
  Ir  Ir23  1  0.000371  0.997831  0.498793  1
  Ir  Ir24  1  0.503005  0.997831  0.498793  1
  Ir  Ir25  1  0.998885  0.501115  0.501115  1
  Ir  Ir26  1  0.503005  0.498793  0.997831  1
  Ir  Ir27  1  0.000371  0.498793  0.997831  1
  Ir  Ir28  1  0.501011  0.998989  0.998989  1
