# generated using pymatgen
data_Rb6ErTmF12
_symmetry_space_group_name_H-M   'P 1'
_cell_length_a   6.83093179
_cell_length_b   6.59327581
_cell_length_c   11.46110700
_cell_angle_alpha   55.23208027
_cell_angle_beta   89.94818081
_cell_angle_gamma   89.95704120
_symmetry_Int_Tables_number   1
_chemical_formula_structural   Rb6ErTmF12
_chemical_formula_sum   'Rb6 Er1 Tm1 F12'
_cell_volume   424.03191531
_cell_formula_units_Z   1
loop_
 _symmetry_equiv_pos_site_id
 _symmetry_equiv_pos_as_xyz
  1  'x, y, z'
loop_
 _atom_site_type_symbol
 _atom_site_label
 _atom_site_symmetry_multiplicity
 _atom_site_fract_x
 _atom_site_fract_y
 _atom_site_fract_z
 _atom_site_occupancy
  Rb  Rb0  1  0.500000  0.500000  0.000000  1
  Rb  Rb1  1  0.000000  0.500000  0.500000  1
  Rb  Rb2  1  0.049068  0.733192  0.753356  1
  Rb  Rb3  1  0.950932  0.266808  0.246644  1
  Rb  Rb4  1  0.549832  0.265521  0.747857  1
  Rb  Rb5  1  0.450168  0.734479  0.252143  1
  Er  Er6  1  0.500000  0.000000  0.500000  1
  Tm  Tm7  1  0.000000  0.000000  0.000000  1
  F  F8  1  0.762333  0.773495  0.562981  1
  F  F9  1  0.237667  0.226505  0.437019  1
  F  F10  1  0.261028  0.225013  0.936625  1
  F  F11  1  0.738972  0.774987  0.063375  1
  F  F12  1  0.451537  0.884884  0.716894  1
  F  F13  1  0.548463  0.115116  0.283106  1
  F  F14  1  0.951650  0.113464  0.784684  1
  F  F15  1  0.048350  0.886536  0.215316  1
  F  F16  1  0.328516  0.686458  0.545191  1
  F  F17  1  0.671484  0.313542  0.454809  1
  F  F18  1  0.829479  0.312408  0.954680  1
  F  F19  1  0.170521  0.687592  0.045320  1
