# generated using pymatgen
data_La4Ho6Si7Rh
_symmetry_space_group_name_H-M   'P 1'
_cell_length_a   7.77382800
_cell_length_b   7.82999660
_cell_length_c   14.34140500
_cell_angle_alpha   90.00000000
_cell_angle_beta   90.00000000
_cell_angle_gamma   90.03662395
_symmetry_Int_Tables_number   1
_chemical_formula_structural   La4Ho6Si7Rh
_chemical_formula_sum   'La8 Ho12 Si14 Rh2'
_cell_volume   872.94747387
_cell_formula_units_Z   2
loop_
 _symmetry_equiv_pos_site_id
 _symmetry_equiv_pos_as_xyz
  1  'x, y, z'
loop_
 _atom_site_type_symbol
 _atom_site_label
 _atom_site_symmetry_multiplicity
 _atom_site_fract_x
 _atom_site_fract_y
 _atom_site_fract_z
 _atom_site_occupancy
  La  La0  1  0.633987  0.988566  0.461447  1
  La  La1  1  0.366013  0.011434  0.961447  1
  La  La2  1  0.987161  0.639479  0.538941  1
  La  La3  1  0.489695  0.855905  0.208592  1
  La  La4  1  0.510305  0.144095  0.708592  1
  La  La5  1  0.859528  0.496448  0.791450  1
  La  La6  1  0.140472  0.503552  0.291450  1
  La  La7  1  0.012839  0.360521  0.038941  1
  Ho  Ho8  1  0.492707  0.359511  0.121400  1
  Ho  Ho9  1  0.993734  0.137878  0.626507  1
  Ho  Ho10  1  0.863337  0.016143  0.878489  1
  Ho  Ho11  1  0.136663  0.983857  0.378489  1
  Ho  Ho12  1  0.507293  0.640489  0.621400  1
  Ho  Ho13  1  0.364099  0.497184  0.875822  1
  Ho  Ho14  1  0.635901  0.502816  0.375822  1
  Ho  Ho15  1  0.006266  0.862122  0.126507  1
  Ho  Ho16  1  0.312377  0.309032  0.502467  1
  Ho  Ho17  1  0.188050  0.825673  0.743675  1
  Ho  Ho18  1  0.811950  0.174327  0.243675  1
  Ho  Ho19  1  0.687623  0.690968  0.002467  1
  Si  Si20  1  0.930900  0.286277  0.436830  1
  Si  Si21  1  0.430203  0.208475  0.311509  1
  Si  Si22  1  0.569797  0.791525  0.811509  1
  Si  Si23  1  0.212045  0.437761  0.689487  1
  Si  Si24  1  0.787955  0.562239  0.189487  1
  Si  Si25  1  0.069100  0.713723  0.936830  1
  Si  Si26  1  0.794394  0.851093  0.690824  1
  Si  Si27  1  0.205606  0.148907  0.190824  1
  Si  Si28  1  0.846097  0.787391  0.311546  1
  Si  Si29  1  0.344849  0.694159  0.440476  1
  Si  Si30  1  0.655151  0.305841  0.940476  1
  Si  Si31  1  0.706094  0.346069  0.558354  1
  Si  Si32  1  0.293906  0.653931  0.058354  1
  Si  Si33  1  0.153903  0.212609  0.811546  1
  Rh  Rh34  1  0.288284  0.933845  0.562186  1
  Rh  Rh35  1  0.711716  0.066155  0.062186  1
