# generated using pymatgen
data_Ce6NdDy(AlRu)8
_symmetry_space_group_name_H-M   'P 1'
_cell_length_a   4.01570200
_cell_length_b   7.31958967
_cell_length_c   15.97692423
_cell_angle_alpha   89.94547623
_cell_angle_beta   90.00000000
_cell_angle_gamma   90.00000000
_symmetry_Int_Tables_number   1
_chemical_formula_structural   Ce6NdDy(AlRu)8
_chemical_formula_sum   'Ce6 Nd1 Dy1 Al8 Ru8'
_cell_volume   469.61416882
_cell_formula_units_Z   1
loop_
 _symmetry_equiv_pos_site_id
 _symmetry_equiv_pos_as_xyz
  1  'x, y, z'
loop_
 _atom_site_type_symbol
 _atom_site_label
 _atom_site_symmetry_multiplicity
 _atom_site_fract_x
 _atom_site_fract_y
 _atom_site_fract_z
 _atom_site_occupancy
  Ce  Ce0  1  0.750000  0.821343  0.439335  1
  Ce  Ce1  1  0.750000  0.454838  0.283131  1
  Ce  Ce2  1  0.750000  0.329921  0.062100  1
  Ce  Ce3  1  0.250000  0.674309  0.937820  1
  Ce  Ce4  1  0.250000  0.048402  0.779004  1
  Ce  Ce5  1  0.250000  0.542262  0.718559  1
  Nd  Nd6  1  0.750000  0.957266  0.219069  1
  Dy  Dy7  1  0.250000  0.159315  0.560158  1
  Al  Al8  1  0.750000  0.488598  0.563461  1
  Al  Al9  1  0.750000  0.371299  0.850400  1
  Al  Al10  1  0.750000  0.007293  0.935800  1
  Al  Al11  1  0.750000  0.870100  0.649023  1
  Al  Al12  1  0.250000  0.487459  0.438963  1
  Al  Al13  1  0.250000  0.997449  0.063282  1
  Al  Al14  1  0.250000  0.633985  0.150704  1
  Al  Al15  1  0.250000  0.126817  0.348106  1
  Ru  Ru16  1  0.750000  0.750834  0.816603  1
  Ru  Ru17  1  0.250000  0.240568  0.937495  1
  Ru  Ru18  1  0.750000  0.266477  0.427438  1
  Ru  Ru19  1  0.250000  0.753297  0.327452  1
  Ru  Ru20  1  0.750000  0.761589  0.059648  1
  Ru  Ru21  1  0.750000  0.248619  0.690126  1
  Ru  Ru22  1  0.250000  0.276158  0.177366  1
  Ru  Ru23  1  0.250000  0.731801  0.564956  1
