# generated using pymatgen
data_Dy8Zr10TiSi16Ag
_symmetry_space_group_name_H-M   'P 1'
_cell_length_a   7.32879355
_cell_length_b   7.32879316
_cell_length_c   13.34546807
_cell_angle_alpha   89.94708392
_cell_angle_beta   90.05291992
_cell_angle_gamma   89.90925908
_symmetry_Int_Tables_number   1
_chemical_formula_structural   Dy8Zr10TiSi16Ag
_chemical_formula_sum   'Dy8 Zr10 Ti1 Si16 Ag1'
_cell_volume   716.79975341
_cell_formula_units_Z   1
loop_
 _symmetry_equiv_pos_site_id
 _symmetry_equiv_pos_as_xyz
  1  'x, y, z'
loop_
 _atom_site_type_symbol
 _atom_site_label
 _atom_site_symmetry_multiplicity
 _atom_site_fract_x
 _atom_site_fract_y
 _atom_site_fract_z
 _atom_site_occupancy
  Dy  Dy0  1  0.997423  0.653188  0.035816  1
  Dy  Dy1  1  0.998002  0.349588  0.534328  1
  Dy  Dy2  1  0.653188  0.997423  0.964184  1
  Dy  Dy3  1  0.154117  0.504055  0.785784  1
  Dy  Dy4  1  0.847787  0.497445  0.288659  1
  Dy  Dy5  1  0.504055  0.154117  0.214216  1
  Dy  Dy6  1  0.497445  0.847787  0.711341  1
  Dy  Dy7  1  0.349588  0.998002  0.465672  1
  Zr  Zr8  1  0.358278  0.502989  0.377703  1
  Zr  Zr9  1  0.856711  0.991883  0.376657  1
  Zr  Zr10  1  0.005768  0.144687  0.125250  1
  Zr  Zr11  1  0.991883  0.856711  0.623343  1
  Zr  Zr12  1  0.502989  0.358278  0.622297  1
  Zr  Zr13  1  0.144687  0.005768  0.874750  1
  Zr  Zr14  1  0.821760  0.178023  0.750024  1
  Zr  Zr15  1  0.178023  0.821760  0.249976  1
  Zr  Zr16  1  0.496589  0.642098  0.123711  1
  Zr  Zr17  1  0.642098  0.496589  0.876289  1
  Ti  Ti18  1  0.322666  0.322666  0.000000  1
  Si  Si19  1  0.065651  0.709017  0.436980  1
  Si  Si20  1  0.950956  0.296936  0.937731  1
  Si  Si21  1  0.709017  0.065651  0.563020  1
  Si  Si22  1  0.206582  0.445408  0.184225  1
  Si  Si23  1  0.795739  0.554600  0.690615  1
  Si  Si24  1  0.445408  0.206582  0.815775  1
  Si  Si25  1  0.554600  0.795739  0.309385  1
  Si  Si26  1  0.296936  0.950956  0.062269  1
  Si  Si27  1  0.794325  0.857965  0.182512  1
  Si  Si28  1  0.276300  0.633031  0.572205  1
  Si  Si29  1  0.707652  0.359129  0.068269  1
  Si  Si30  1  0.633031  0.276300  0.427795  1
  Si  Si31  1  0.359129  0.707652  0.931731  1
  Si  Si32  1  0.142070  0.205778  0.318727  1
  Si  Si33  1  0.205778  0.142070  0.681273  1
  Si  Si34  1  0.857965  0.794325  0.817488  1
  Ag  Ag35  1  0.675804  0.675804  0.500000  1
