# generated using pymatgen
data_BaCaU2(Al3Ir)6
_symmetry_space_group_name_H-M   'P 1'
_cell_length_a   7.61914000
_cell_length_b   7.65201961
_cell_length_c   9.52793300
_cell_angle_alpha   90.00000000
_cell_angle_beta   90.00000000
_cell_angle_gamma   119.38728075
_symmetry_Int_Tables_number   1
_chemical_formula_structural   BaCaU2(Al3Ir)6
_chemical_formula_sum   'Ba1 Ca1 U2 Al18 Ir6'
_cell_volume   484.01607354
_cell_formula_units_Z   1
loop_
 _symmetry_equiv_pos_site_id
 _symmetry_equiv_pos_as_xyz
  1  'x, y, z'
loop_
 _atom_site_type_symbol
 _atom_site_label
 _atom_site_symmetry_multiplicity
 _atom_site_fract_x
 _atom_site_fract_y
 _atom_site_fract_z
 _atom_site_occupancy
  Ba  Ba0  1  0.005998  0.329845  0.250000  1
  Ca  Ca1  1  0.994802  0.672903  0.750000  1
  U  U2  1  0.674902  0.000997  0.750000  1
  U  U3  1  0.328445  0.001868  0.250000  1
  Al  Al4  1  0.128242  0.130621  0.750000  1
  Al  Al5  1  0.871919  0.861224  0.250000  1
  Al  Al6  1  0.003822  0.339788  0.582225  1
  Al  Al7  1  0.996394  0.665890  0.431674  1
  Al  Al8  1  0.996394  0.665890  0.068326  1
  Al  Al9  1  0.333457  0.998860  0.923448  1
  Al  Al10  1  0.003822  0.339788  0.917775  1
  Al  Al11  1  0.662089  0.994941  0.071141  1
  Al  Al12  1  0.662089  0.994941  0.428859  1
  Al  Al13  1  0.333457  0.998860  0.576552  1
  Al  Al14  1  0.335605  0.333720  0.042309  1
  Al  Al15  1  0.666955  0.666133  0.944318  1
  Al  Al16  1  0.666955  0.666133  0.555682  1
  Al  Al17  1  0.335605  0.333720  0.457691  1
  Al  Al18  1  0.349119  0.554347  0.750000  1
  Al  Al19  1  0.647521  0.449175  0.250000  1
  Al  Al20  1  0.547465  0.335849  0.750000  1
  Al  Al21  1  0.459132  0.669835  0.250000  1
  Ir  Ir22  1  0.667841  0.324774  0.504478  1
  Ir  Ir23  1  0.332792  0.675623  0.503216  1
  Ir  Ir24  1  0.332792  0.675623  0.996784  1
  Ir  Ir25  1  0.667841  0.324774  0.995522  1
  Ir  Ir26  1  0.997270  0.996939  0.505086  1
  Ir  Ir27  1  0.997270  0.996939  0.994914  1
