# generated using pymatgen
data_Lu3ThInIr
_symmetry_space_group_name_H-M   'P 1'
_cell_length_a   9.65445140
_cell_length_b   9.65445108
_cell_length_c   9.65445100
_cell_angle_alpha   59.99999684
_cell_angle_beta   59.99999795
_cell_angle_gamma   59.99999752
_symmetry_Int_Tables_number   1
_chemical_formula_structural   Lu3ThInIr
_chemical_formula_sum   'Lu12 Th4 In4 Ir4'
_cell_volume   636.30853187
_cell_formula_units_Z   4
loop_
 _symmetry_equiv_pos_site_id
 _symmetry_equiv_pos_as_xyz
  1  'x, y, z'
loop_
 _atom_site_type_symbol
 _atom_site_label
 _atom_site_symmetry_multiplicity
 _atom_site_fract_x
 _atom_site_fract_y
 _atom_site_fract_z
 _atom_site_occupancy
  Lu  Lu0  1  0.811594  0.188406  0.188406  1
  Lu  Lu1  1  0.188406  0.811594  0.811594  1
  Lu  Lu2  1  0.188406  0.811594  0.188406  1
  Lu  Lu3  1  0.811594  0.188406  0.811594  1
  Lu  Lu4  1  0.188406  0.188406  0.811594  1
  Lu  Lu5  1  0.811594  0.811594  0.188406  1
  Lu  Lu6  1  0.935674  0.564326  0.564326  1
  Lu  Lu7  1  0.564326  0.935674  0.935674  1
  Lu  Lu8  1  0.564326  0.935674  0.564326  1
  Lu  Lu9  1  0.935674  0.564326  0.935674  1
  Lu  Lu10  1  0.564326  0.564326  0.935674  1
  Lu  Lu11  1  0.935674  0.935674  0.564326  1
  Th  Th12  1  0.349690  0.349690  0.349690  1
  Th  Th13  1  0.349690  0.349690  0.950930  1
  Th  Th14  1  0.349690  0.950930  0.349690  1
  Th  Th15  1  0.950930  0.349690  0.349690  1
  In  In16  1  0.585516  0.585516  0.585516  1
  In  In17  1  0.585516  0.585516  0.243450  1
  In  In18  1  0.585516  0.243450  0.585516  1
  In  In19  1  0.243450  0.585516  0.585516  1
  Ir  Ir20  1  0.141252  0.141252  0.141252  1
  Ir  Ir21  1  0.141252  0.141252  0.576243  1
  Ir  Ir22  1  0.141252  0.576243  0.141252  1
  Ir  Ir23  1  0.576243  0.141252  0.141252  1
