# generated using pymatgen
data_Tb20Ga3Si12Rh
_symmetry_space_group_name_H-M   'P 1'
_cell_length_a   7.51487272
_cell_length_b   7.76775928
_cell_length_c   14.82594500
_cell_angle_alpha   90.14895316
_cell_angle_beta   90.35435006
_cell_angle_gamma   90.15300052
_symmetry_Int_Tables_number   1
_chemical_formula_structural   Tb20Ga3Si12Rh
_chemical_formula_sum   'Tb20 Ga3 Si12 Rh1'
_cell_volume   865.42299748
_cell_formula_units_Z   1
loop_
 _symmetry_equiv_pos_site_id
 _symmetry_equiv_pos_as_xyz
  1  'x, y, z'
loop_
 _atom_site_type_symbol
 _atom_site_label
 _atom_site_symmetry_multiplicity
 _atom_site_fract_x
 _atom_site_fract_y
 _atom_site_fract_z
 _atom_site_occupancy
  Tb  Tb0  1  0.679712  0.161552  0.618265  1
  Tb  Tb1  1  0.181155  0.324970  0.874789  1
  Tb  Tb2  1  0.324375  0.823039  0.124049  1
  Tb  Tb3  1  0.817927  0.691230  0.381685  1
  Tb  Tb4  1  0.324833  0.824411  0.379352  1
  Tb  Tb5  1  0.818962  0.678909  0.122353  1
  Tb  Tb6  1  0.679854  0.177935  0.877710  1
  Tb  Tb7  1  0.179376  0.321990  0.622444  1
  Tb  Tb8  1  0.523369  0.687326  0.598986  1
  Tb  Tb9  1  0.025518  0.816404  0.899041  1
  Tb  Tb10  1  0.475023  0.315067  0.101855  1
  Tb  Tb11  1  0.974142  0.176104  0.399456  1
  Tb  Tb12  1  0.473196  0.315179  0.400918  1
  Tb  Tb13  1  0.971678  0.180665  0.101345  1
  Tb  Tb14  1  0.529240  0.680106  0.898541  1
  Tb  Tb15  1  0.026795  0.817383  0.601453  1
  Tb  Tb16  1  0.847909  0.504759  0.749954  1
  Tb  Tb17  1  0.349014  0.991101  0.747117  1
  Tb  Tb18  1  0.150079  0.491037  0.253212  1
  Tb  Tb19  1  0.655010  0.011193  0.257231  1
  Ga  Ga20  1  0.153530  0.531287  0.040606  1
  Ga  Ga21  1  0.346989  0.032099  0.959187  1
  Ga  Ga22  1  0.846291  0.469549  0.540351  1
  Si  Si23  1  0.343528  0.028078  0.540613  1
  Si  Si24  1  0.853928  0.470596  0.959330  1
  Si  Si25  1  0.648172  0.970942  0.040070  1
  Si  Si26  1  0.148671  0.530143  0.460247  1
  Si  Si27  1  0.477674  0.392252  0.747096  1
  Si  Si28  1  0.974646  0.102326  0.751513  1
  Si  Si29  1  0.525939  0.602315  0.250120  1
  Si  Si30  1  0.029323  0.893646  0.248127  1
  Si  Si31  1  0.734476  0.871525  0.750974  1
  Si  Si32  1  0.234333  0.626879  0.749527  1
  Si  Si33  1  0.264520  0.126545  0.247933  1
  Si  Si34  1  0.768838  0.377578  0.248993  1
  Rh  Rh35  1  0.641973  0.983879  0.455558  1
