# generated using pymatgen
data_Tb12Ga2Tc3
_symmetry_space_group_name_H-M   'P 1'
_cell_length_a   8.37883757
_cell_length_b   8.37883763
_cell_length_c   8.37883789
_cell_angle_alpha   109.99347524
_cell_angle_beta   109.99348988
_cell_angle_gamma   108.43166922
_symmetry_Int_Tables_number   1
_chemical_formula_structural   Tb12Ga2Tc3
_chemical_formula_sum   'Tb12 Ga2 Tc3'
_cell_volume   452.71246619
_cell_formula_units_Z   1
loop_
 _symmetry_equiv_pos_site_id
 _symmetry_equiv_pos_as_xyz
  1  'x, y, z'
loop_
 _atom_site_type_symbol
 _atom_site_label
 _atom_site_symmetry_multiplicity
 _atom_site_fract_x
 _atom_site_fract_y
 _atom_site_fract_z
 _atom_site_occupancy
  Tb  Tb0  1  0.317130  0.317130  0.634261  1
  Tb  Tb1  1  0.682870  0.682870  0.365739  1
  Tb  Tb2  1  0.682870  0.317130  0.000000  1
  Tb  Tb3  1  0.317130  0.682870  0.000000  1
  Tb  Tb4  1  0.183806  0.432891  0.249085  1
  Tb  Tb5  1  0.816194  0.567109  0.750915  1
  Tb  Tb6  1  0.183806  0.934721  0.750915  1
  Tb  Tb7  1  0.934721  0.183806  0.750915  1
  Tb  Tb8  1  0.816194  0.065279  0.249085  1
  Tb  Tb9  1  0.065279  0.816194  0.249085  1
  Tb  Tb10  1  0.432891  0.183806  0.249085  1
  Tb  Tb11  1  0.567109  0.816194  0.750915  1
  Ga  Ga12  1  0.000000  0.500000  0.500000  1
  Ga  Ga13  1  0.500000  0.000000  0.500000  1
  Tc  Tc14  1  0.337046  0.337046  0.000000  1
  Tc  Tc15  1  0.662954  0.662954  0.000000  1
  Tc  Tc16  1  0.000000  0.000000  0.000000  1
