# generated using pymatgen
data_Th4ScCdPt4
_symmetry_space_group_name_H-M   'P 1'
_cell_length_a   7.91990400
_cell_length_b   7.91990400
_cell_length_c   3.88165000
_cell_angle_alpha   90.00000000
_cell_angle_beta   90.00000000
_cell_angle_gamma   90.00000000
_symmetry_Int_Tables_number   1
_chemical_formula_structural   Th4ScCdPt4
_chemical_formula_sum   'Th4 Sc1 Cd1 Pt4'
_cell_volume   243.47602800
_cell_formula_units_Z   1
loop_
 _symmetry_equiv_pos_site_id
 _symmetry_equiv_pos_as_xyz
  1  'x, y, z'
loop_
 _atom_site_type_symbol
 _atom_site_label
 _atom_site_symmetry_multiplicity
 _atom_site_fract_x
 _atom_site_fract_y
 _atom_site_fract_z
 _atom_site_occupancy
  Th  Th0  1  0.330042  0.174421  0.500001  1
  Th  Th1  1  0.825579  0.330042  0.500001  1
  Th  Th2  1  0.174421  0.669958  0.500001  1
  Th  Th3  1  0.669958  0.825579  0.500001  1
  Sc  Sc4  1  0.000000  0.000000  0.000000  1
  Cd  Cd5  1  0.500000  0.500000  0.000000  1
  Pt  Pt6  1  0.640729  0.125404  0.000000  1
  Pt  Pt7  1  0.125404  0.359271  0.000000  1
  Pt  Pt8  1  0.874596  0.640729  0.000000  1
  Pt  Pt9  1  0.359271  0.874596  0.000000  1
