# generated using pymatgen
data_Tb3Th11(Os2Ru)2
_symmetry_space_group_name_H-M   'P 1'
_cell_length_a   9.87797122
_cell_length_b   9.94720874
_cell_length_c   6.37866205
_cell_angle_alpha   89.99260546
_cell_angle_beta   89.81611300
_cell_angle_gamma   120.14781567
_symmetry_Int_Tables_number   1
_chemical_formula_structural   Tb3Th11(Os2Ru)2
_chemical_formula_sum   'Tb3 Th11 Os4 Ru2'
_cell_volume   541.97254972
_cell_formula_units_Z   1
loop_
 _symmetry_equiv_pos_site_id
 _symmetry_equiv_pos_as_xyz
  1  'x, y, z'
loop_
 _atom_site_type_symbol
 _atom_site_label
 _atom_site_symmetry_multiplicity
 _atom_site_fract_x
 _atom_site_fract_y
 _atom_site_fract_z
 _atom_site_occupancy
  Tb  Tb0  1  0.460581  0.535385  0.296789  1
  Tb  Tb1  1  0.072627  0.535889  0.297161  1
  Tb  Tb2  1  0.926079  0.462507  0.799114  1
  Th  Th3  1  0.251687  0.127893  0.510576  1
  Th  Th4  1  0.543029  0.081996  0.796423  1
  Th  Th5  1  0.746744  0.872859  0.014839  1
  Th  Th6  1  0.666715  0.333889  0.276540  1
  Th  Th7  1  0.126302  0.870560  0.006982  1
  Th  Th8  1  0.459340  0.918564  0.297594  1
  Th  Th9  1  0.539556  0.466570  0.799382  1
  Th  Th10  1  0.876327  0.129175  0.512130  1
  Th  Th11  1  0.124955  0.252779  0.013402  1
  Th  Th12  1  0.875035  0.748198  0.508704  1
  Th  Th13  1  0.333450  0.666351  0.773550  1
  Os  Os14  1  0.812951  0.629015  0.049296  1
  Os  Os15  1  0.813690  0.183531  0.049520  1
  Os  Os16  1  0.628284  0.813437  0.548938  1
  Os  Os17  1  0.371232  0.187581  0.041084  1
  Ru  Ru18  1  0.183039  0.363873  0.550935  1
  Ru  Ru19  1  0.188377  0.819951  0.541036  1
