# generated using pymatgen
data_Hf6Ti4Ga5Pb
_symmetry_space_group_name_H-M   'P 1'
_cell_length_a   7.97601400
_cell_length_b   7.96377955
_cell_length_c   5.49649600
_cell_angle_alpha   90.00000000
_cell_angle_beta   90.00000000
_cell_angle_gamma   120.05083215
_symmetry_Int_Tables_number   1
_chemical_formula_structural   Hf6Ti4Ga5Pb
_chemical_formula_sum   'Hf6 Ti4 Ga5 Pb1'
_cell_volume   302.20316156
_cell_formula_units_Z   1
loop_
 _symmetry_equiv_pos_site_id
 _symmetry_equiv_pos_as_xyz
  1  'x, y, z'
loop_
 _atom_site_type_symbol
 _atom_site_label
 _atom_site_symmetry_multiplicity
 _atom_site_fract_x
 _atom_site_fract_y
 _atom_site_fract_z
 _atom_site_occupancy
  Hf  Hf0  1  0.228357  0.000000  0.250000  1
  Hf  Hf1  1  0.763686  0.000000  0.750000  1
  Hf  Hf2  1  0.014181  0.253188  0.250000  1
  Hf  Hf3  1  0.999034  0.755070  0.750000  1
  Hf  Hf4  1  0.760991  0.746812  0.250000  1
  Hf  Hf5  1  0.243963  0.244930  0.750000  1
  Ti  Ti6  1  0.325668  0.655662  0.994150  1
  Ti  Ti7  1  0.670008  0.344338  0.994150  1
  Ti  Ti8  1  0.670008  0.344338  0.505850  1
  Ti  Ti9  1  0.325668  0.655662  0.505850  1
  Ga  Ga10  1  0.396351  0.000000  0.750000  1
  Ga  Ga11  1  0.003516  0.600515  0.250000  1
  Ga  Ga12  1  0.996620  0.395886  0.750000  1
  Ga  Ga13  1  0.403001  0.399485  0.250000  1
  Ga  Ga14  1  0.600733  0.604114  0.750000  1
  Pb  Pb15  1  0.598215  0.000000  0.250000  1
