# generated using pymatgen
data_TbMnCo4As3
_symmetry_space_group_name_H-M   'P 1'
_cell_length_a   3.80187200
_cell_length_b   10.76410000
_cell_length_c   12.31323800
_cell_angle_alpha   90.00000000
_cell_angle_beta   90.00000000
_cell_angle_gamma   90.00000000
_symmetry_Int_Tables_number   1
_chemical_formula_structural   TbMnCo4As3
_chemical_formula_sum   'Tb4 Mn4 Co16 As12'
_cell_volume   503.90363220
_cell_formula_units_Z   4
loop_
 _symmetry_equiv_pos_site_id
 _symmetry_equiv_pos_as_xyz
  1  'x, y, z'
loop_
 _atom_site_type_symbol
 _atom_site_label
 _atom_site_symmetry_multiplicity
 _atom_site_fract_x
 _atom_site_fract_y
 _atom_site_fract_z
 _atom_site_occupancy
  Tb  Tb0  1  0.250000  0.920276  0.203322  1
  Tb  Tb1  1  0.750000  0.079724  0.796678  1
  Tb  Tb2  1  0.750000  0.420276  0.296678  1
  Tb  Tb3  1  0.250000  0.579724  0.703322  1
  Mn  Mn4  1  0.250000  0.797226  0.490468  1
  Mn  Mn5  1  0.750000  0.202774  0.509532  1
  Mn  Mn6  1  0.750000  0.297226  0.009532  1
  Mn  Mn7  1  0.250000  0.702774  0.990468  1
  Co  Co8  1  0.250000  0.094150  0.987772  1
  Co  Co9  1  0.750000  0.905850  0.012228  1
  Co  Co10  1  0.750000  0.594150  0.512228  1
  Co  Co11  1  0.250000  0.405850  0.487772  1
  Co  Co12  1  0.250000  0.282818  0.675617  1
  Co  Co13  1  0.750000  0.717182  0.324383  1
  Co  Co14  1  0.750000  0.782818  0.824383  1
  Co  Co15  1  0.250000  0.217182  0.175617  1
  Co  Co16  1  0.250000  0.617630  0.197858  1
  Co  Co17  1  0.750000  0.382370  0.802142  1
  Co  Co18  1  0.750000  0.117630  0.302142  1
  Co  Co19  1  0.250000  0.882370  0.697858  1
  Co  Co20  1  0.250000  0.034091  0.433082  1
  Co  Co21  1  0.750000  0.965909  0.566918  1
  Co  Co22  1  0.750000  0.534091  0.066918  1
  Co  Co23  1  0.250000  0.465909  0.933082  1
  As  As24  1  0.250000  0.081145  0.615827  1
  As  As25  1  0.750000  0.918855  0.384173  1
  As  As26  1  0.750000  0.581145  0.884173  1
  As  As27  1  0.250000  0.418855  0.115827  1
  As  As28  1  0.250000  0.232326  0.365590  1
  As  As29  1  0.750000  0.767674  0.634410  1
  As  As30  1  0.750000  0.732326  0.134410  1
  As  As31  1  0.250000  0.267674  0.865590  1
  As  As32  1  0.250000  0.902321  0.890821  1
  As  As33  1  0.750000  0.097679  0.109179  1
  As  As34  1  0.750000  0.402321  0.609179  1
  As  As35  1  0.250000  0.597679  0.390821  1
