# generated using pymatgen
data_V3Re(SiW)2
_symmetry_space_group_name_H-M   'P 1'
_cell_length_a   4.79950165
_cell_length_b   4.79772743
_cell_length_c   4.79950076
_cell_angle_alpha   89.99574806
_cell_angle_beta   89.97022780
_cell_angle_gamma   90.00424275
_symmetry_Int_Tables_number   1
_chemical_formula_structural   V3Re(SiW)2
_chemical_formula_sum   'V3 Re1 Si2 W2'
_cell_volume   110.51665192
_cell_formula_units_Z   1
loop_
 _symmetry_equiv_pos_site_id
 _symmetry_equiv_pos_as_xyz
  1  'x, y, z'
loop_
 _atom_site_type_symbol
 _atom_site_label
 _atom_site_symmetry_multiplicity
 _atom_site_fract_x
 _atom_site_fract_y
 _atom_site_fract_z
 _atom_site_occupancy
  V  V0  1  0.499095  0.250000  0.999095  1
  V  V1  1  0.750101  0.999560  0.500718  1
  V  V2  1  0.000718  0.500440  0.250101  1
  Re  Re3  1  0.500199  0.750000  0.000199  1
  Si  Si4  1  0.505893  0.493809  0.493408  1
  Si  Si5  1  0.993408  0.006191  0.005893  1
  W  W6  1  0.250226  0.999932  0.500359  1
  W  W7  1  0.000359  0.500068  0.750226  1
