# generated using pymatgen
data_Ho8Sc12Ga11Ge5
_symmetry_space_group_name_H-M   'P 1'
_cell_length_a   7.18950718
_cell_length_b   7.55143207
_cell_length_c   14.33925647
_cell_angle_alpha   89.97547351
_cell_angle_beta   90.04098102
_cell_angle_gamma   90.11149695
_symmetry_Int_Tables_number   1
_chemical_formula_structural   Ho8Sc12Ga11Ge5
_chemical_formula_sum   'Ho8 Sc12 Ga11 Ge5'
_cell_volume   778.49190485
_cell_formula_units_Z   1
loop_
 _symmetry_equiv_pos_site_id
 _symmetry_equiv_pos_as_xyz
  1  'x, y, z'
loop_
 _atom_site_type_symbol
 _atom_site_label
 _atom_site_symmetry_multiplicity
 _atom_site_fract_x
 _atom_site_fract_y
 _atom_site_fract_z
 _atom_site_occupancy
  Ho  Ho0  1  0.010835  0.177638  0.406077  1
  Ho  Ho1  1  0.512345  0.321715  0.406136  1
  Ho  Ho2  1  0.486914  0.678436  0.905946  1
  Ho  Ho3  1  0.487526  0.681181  0.594121  1
  Ho  Ho4  1  0.989720  0.819697  0.593698  1
  Ho  Ho5  1  0.989880  0.822114  0.906061  1
  Ho  Ho6  1  0.510997  0.321615  0.094648  1
  Ho  Ho7  1  0.010545  0.180238  0.094443  1
  Sc  Sc8  1  0.328283  0.171451  0.621856  1
  Sc  Sc9  1  0.673180  0.826799  0.377956  1
  Sc  Sc10  1  0.664228  0.993564  0.749985  1
  Sc  Sc11  1  0.174437  0.673645  0.377405  1
  Sc  Sc12  1  0.825409  0.327380  0.877261  1
  Sc  Sc13  1  0.827324  0.327719  0.622351  1
  Sc  Sc14  1  0.836349  0.493874  0.249883  1
  Sc  Sc15  1  0.336560  0.005701  0.249965  1
  Sc  Sc16  1  0.327643  0.173525  0.877131  1
  Sc  Sc17  1  0.172138  0.671334  0.123171  1
  Sc  Sc18  1  0.671563  0.826793  0.122461  1
  Sc  Sc19  1  0.162632  0.505538  0.750534  1
  Ga  Ga20  1  0.284689  0.872857  0.749375  1
  Ga  Ga21  1  0.470645  0.617349  0.251226  1
  Ga  Ga22  1  0.030238  0.118608  0.748880  1
  Ga  Ga23  1  0.528668  0.383893  0.748868  1
  Ga  Ga24  1  0.163437  0.464062  0.541533  1
  Ga  Ga25  1  0.969052  0.881792  0.250068  1
  Ga  Ga26  1  0.715233  0.127850  0.250756  1
  Ga  Ga27  1  0.839106  0.535262  0.041325  1
  Ga  Ga28  1  0.335455  0.963464  0.041968  1
  Ga  Ga29  1  0.159638  0.463512  0.958182  1
  Ga  Ga30  1  0.664922  0.036269  0.541573  1
  Ge  Ge31  1  0.338394  0.964593  0.458031  1
  Ge  Ge32  1  0.840542  0.534914  0.457801  1
  Ge  Ge33  1  0.785439  0.627607  0.749381  1
  Ge  Ge34  1  0.214787  0.372821  0.251200  1
  Ge  Ge35  1  0.661246  0.035192  0.958742  1
