# generated using pymatgen
data_Ta3Tl12VS16
_symmetry_space_group_name_H-M   'P 1'
_cell_length_a   9.77092200
_cell_length_b   9.85033648
_cell_length_c   11.56030800
_cell_angle_alpha   90.00000000
_cell_angle_beta   90.00000000
_cell_angle_gamma   89.94532947
_symmetry_Int_Tables_number   1
_chemical_formula_structural   Ta3Tl12VS16
_chemical_formula_sum   'Ta3 Tl12 V1 S16'
_cell_volume   1112.64294849
_cell_formula_units_Z   1
loop_
 _symmetry_equiv_pos_site_id
 _symmetry_equiv_pos_as_xyz
  1  'x, y, z'
loop_
 _atom_site_type_symbol
 _atom_site_label
 _atom_site_symmetry_multiplicity
 _atom_site_fract_x
 _atom_site_fract_y
 _atom_site_fract_z
 _atom_site_occupancy
  Ta  Ta0  1  0.698610  0.962346  0.750000  1
  Ta  Ta1  1  0.197047  0.536276  0.750000  1
  Ta  Ta2  1  0.300827  0.036513  0.250000  1
  Tl  Tl3  1  0.616152  0.204669  0.065275  1
  Tl  Tl4  1  0.105362  0.303486  0.436785  1
  Tl  Tl5  1  0.388220  0.804927  0.561364  1
  Tl  Tl6  1  0.888366  0.695620  0.940183  1
  Tl  Tl7  1  0.388220  0.804927  0.938636  1
  Tl  Tl8  1  0.888366  0.695620  0.559817  1
  Tl  Tl9  1  0.616152  0.204669  0.434725  1
  Tl  Tl10  1  0.105362  0.303486  0.063215  1
  Tl  Tl11  1  0.550474  0.395997  0.750000  1
  Tl  Tl12  1  0.052778  0.101219  0.750000  1
  Tl  Tl13  1  0.457418  0.599301  0.250000  1
  Tl  Tl14  1  0.945834  0.898058  0.250000  1
  V  V15  1  0.802462  0.462414  0.250000  1
  S  S16  1  0.824728  0.019883  0.590004  1
  S  S17  1  0.323610  0.479260  0.909919  1
  S  S18  1  0.174038  0.979242  0.090131  1
  S  S19  1  0.683866  0.515926  0.402416  1
  S  S20  1  0.174038  0.979242  0.409869  1
  S  S21  1  0.683866  0.515926  0.097584  1
  S  S22  1  0.824728  0.019883  0.909996  1
  S  S23  1  0.323610  0.479260  0.590081  1
  S  S24  1  0.490076  0.064543  0.750000  1
  S  S25  1  0.989217  0.432896  0.750000  1
  S  S26  1  0.508456  0.933044  0.250000  1
  S  S27  1  0.996419  0.562189  0.250000  1
  S  S28  1  0.674590  0.729010  0.750000  1
  S  S29  1  0.171174  0.769396  0.750000  1
  S  S30  1  0.326055  0.269626  0.250000  1
  S  S31  1  0.829875  0.241145  0.250000  1
