# generated using pymatgen
data_Sm3Er2Bi3O14
_symmetry_space_group_name_H-M   'P 1'
_cell_length_a   6.63302260
_cell_length_b   6.67312106
_cell_length_c   7.79082684
_cell_angle_alpha   106.74629393
_cell_angle_beta   89.70077858
_cell_angle_gamma   98.76253522
_symmetry_Int_Tables_number   1
_chemical_formula_structural   Sm3Er2Bi3O14
_chemical_formula_sum   'Sm3 Er2 Bi3 O14'
_cell_volume   326.09336179
_cell_formula_units_Z   1
loop_
 _symmetry_equiv_pos_site_id
 _symmetry_equiv_pos_as_xyz
  1  'x, y, z'
loop_
 _atom_site_type_symbol
 _atom_site_label
 _atom_site_symmetry_multiplicity
 _atom_site_fract_x
 _atom_site_fract_y
 _atom_site_fract_z
 _atom_site_occupancy
  Sm  Sm0  1  0.270963  0.537538  0.883047  1
  Sm  Sm1  1  0.738737  0.457323  0.113492  1
  Sm  Sm2  1  0.746194  0.479830  0.618290  1
  Er  Er3  1  0.460498  0.008890  0.255267  1
  Er  Er4  1  0.536926  0.998859  0.749019  1
  Bi  Bi5  1  0.994347  0.999176  0.500231  1
  Bi  Bi6  1  0.999057  0.996018  0.997730  1
  Bi  Bi7  1  0.283416  0.536733  0.388622  1
  O  O8  1  0.450926  0.659680  0.172003  1
  O  O9  1  0.555440  0.346922  0.832992  1
  O  O10  1  0.303714  0.928975  0.951259  1
  O  O11  1  0.696390  0.067867  0.050705  1
  O  O12  1  0.298856  0.935901  0.518372  1
  O  O13  1  0.696510  0.077427  0.488375  1
  O  O14  1  0.543914  0.357032  0.342640  1
  O  O15  1  0.460876  0.647166  0.656129  1
  O  O16  1  0.927501  0.662415  0.945608  1
  O  O17  1  0.068325  0.323769  0.031929  1
  O  O18  1  0.067672  0.336403  0.625015  1
  O  O19  1  0.909589  0.664664  0.384484  1
  O  O20  1  0.868776  0.908841  0.727705  1
  O  O21  1  0.121371  0.068574  0.267088  1
