# generated using pymatgen
data_Tb3Zr(Al3Co)6
_symmetry_space_group_name_H-M   'P 1'
_cell_length_a   7.35350138
_cell_length_b   7.34197862
_cell_length_c   9.23904100
_cell_angle_alpha   90.00000000
_cell_angle_beta   90.00000000
_cell_angle_gamma   119.30559831
_symmetry_Int_Tables_number   1
_chemical_formula_structural   Tb3Zr(Al3Co)6
_chemical_formula_sum   'Tb3 Zr1 Al18 Co6'
_cell_volume   434.97205528
_cell_formula_units_Z   1
loop_
 _symmetry_equiv_pos_site_id
 _symmetry_equiv_pos_as_xyz
  1  'x, y, z'
loop_
 _atom_site_type_symbol
 _atom_site_label
 _atom_site_symmetry_multiplicity
 _atom_site_fract_x
 _atom_site_fract_y
 _atom_site_fract_z
 _atom_site_occupancy
  Tb  Tb0  1  0.007027  0.326882  0.750000  1
  Tb  Tb1  1  0.671455  0.993493  0.250000  1
  Tb  Tb2  1  0.328314  0.008153  0.750000  1
  Zr  Zr3  1  0.994758  0.672324  0.250000  1
  Al  Al4  1  0.121197  0.117704  0.250000  1
  Al  Al5  1  0.873789  0.872128  0.750000  1
  Al  Al6  1  0.996794  0.337790  0.075000  1
  Al  Al7  1  0.002108  0.665229  0.934259  1
  Al  Al8  1  0.002108  0.665229  0.565741  1
  Al  Al9  1  0.332100  0.994784  0.424997  1
  Al  Al10  1  0.996794  0.337790  0.425000  1
  Al  Al11  1  0.664512  0.000700  0.569924  1
  Al  Al12  1  0.664512  0.000700  0.930076  1
  Al  Al13  1  0.332100  0.994784  0.075003  1
  Al  Al14  1  0.333091  0.333186  0.537149  1
  Al  Al15  1  0.671053  0.668540  0.451141  1
  Al  Al16  1  0.671053  0.668540  0.048859  1
  Al  Al17  1  0.333091  0.333186  0.962851  1
  Al  Al18  1  0.333716  0.555152  0.250000  1
  Al  Al19  1  0.661870  0.448080  0.750000  1
  Al  Al20  1  0.561375  0.345028  0.250000  1
  Al  Al21  1  0.446218  0.660139  0.750000  1
  Co  Co22  1  0.671758  0.329518  0.001347  1
  Co  Co23  1  0.328772  0.671222  0.002016  1
  Co  Co24  1  0.328772  0.671222  0.497984  1
  Co  Co25  1  0.671758  0.329518  0.498653  1
  Co  Co26  1  0.999952  0.999488  0.001043  1
  Co  Co27  1  0.999952  0.999488  0.498957  1
