# generated using pymatgen
data_Na4P7(Ir3Pt)2
_symmetry_space_group_name_H-M   'P 1'
_cell_length_a   3.93764900
_cell_length_b   12.79183640
_cell_length_c   13.01954806
_cell_angle_alpha   79.99891745
_cell_angle_beta   90.00000000
_cell_angle_gamma   90.00000000
_symmetry_Int_Tables_number   1
_chemical_formula_structural   Na4P7(Ir3Pt)2
_chemical_formula_sum   'Na8 P14 Ir12 Pt4'
_cell_volume   645.82643635
_cell_formula_units_Z   2
loop_
 _symmetry_equiv_pos_site_id
 _symmetry_equiv_pos_as_xyz
  1  'x, y, z'
loop_
 _atom_site_type_symbol
 _atom_site_label
 _atom_site_symmetry_multiplicity
 _atom_site_fract_x
 _atom_site_fract_y
 _atom_site_fract_z
 _atom_site_occupancy
  Na  Na0  1  0.750000  0.785494  0.566148  1
  Na  Na1  1  0.250000  0.214506  0.433852  1
  Na  Na2  1  0.750000  0.481965  0.707990  1
  Na  Na3  1  0.250000  0.518035  0.292010  1
  Na  Na4  1  0.750000  0.713045  0.890680  1
  Na  Na5  1  0.250000  0.100879  0.796891  1
  Na  Na6  1  0.750000  0.899121  0.203109  1
  Na  Na7  1  0.250000  0.286955  0.109320  1
  P  P8  1  0.250000  0.903575  0.402588  1
  P  P9  1  0.750000  0.479289  0.127920  1
  P  P10  1  0.250000  0.520711  0.872080  1
  P  P11  1  0.750000  0.096425  0.597412  1
  P  P12  1  0.250000  0.741682  0.077543  1
  P  P13  1  0.750000  0.258318  0.922457  1
  P  P14  1  0.750000  0.159526  0.278054  1
  P  P15  1  0.250000  0.840474  0.721946  1
  P  P16  1  0.250000  0.058883  0.097231  1
  P  P17  1  0.750000  0.941117  0.902769  1
  P  P18  1  0.250000  0.304204  0.688574  1
  P  P19  1  0.750000  0.695796  0.311426  1
  P  P20  1  0.250000  0.606180  0.561668  1
  P  P21  1  0.750000  0.393820  0.438332  1
  Ir  Ir22  1  0.250000  0.558252  0.045480  1
  Ir  Ir23  1  0.750000  0.441748  0.954520  1
  Ir  Ir24  1  0.250000  0.064099  0.271264  1
  Ir  Ir25  1  0.750000  0.935901  0.728736  1
  Ir  Ir26  1  0.250000  0.422609  0.527003  1
  Ir  Ir27  1  0.750000  0.577391  0.472997  1
  Ir  Ir28  1  0.250000  0.917395  0.000260  1
  Ir  Ir29  1  0.750000  0.082605  0.999740  1
  Ir  Ir30  1  0.250000  0.728438  0.396900  1
  Ir  Ir31  1  0.750000  0.271562  0.603100  1
  Ir  Ir32  1  0.250000  0.336395  0.857239  1
  Ir  Ir33  1  0.750000  0.663605  0.142761  1
  Pt  Pt34  1  0.250000  0.988872  0.575171  1
  Pt  Pt35  1  0.750000  0.011128  0.424829  1
  Pt  Pt36  1  0.250000  0.660761  0.726710  1
  Pt  Pt37  1  0.750000  0.339239  0.273290  1
