# generated using pymatgen
data_TbTh2In5
_symmetry_space_group_name_H-M   'P 1'
_cell_length_a   6.58112116
_cell_length_b   6.58112175
_cell_length_c   10.35423700
_cell_angle_alpha   90.00000000
_cell_angle_beta   90.00000000
_cell_angle_gamma   102.37365148
_symmetry_Int_Tables_number   1
_chemical_formula_structural   TbTh2In5
_chemical_formula_sum   'Tb2 Th4 In10'
_cell_volume   438.03683936
_cell_formula_units_Z   2
loop_
 _symmetry_equiv_pos_site_id
 _symmetry_equiv_pos_as_xyz
  1  'x, y, z'
loop_
 _atom_site_type_symbol
 _atom_site_label
 _atom_site_symmetry_multiplicity
 _atom_site_fract_x
 _atom_site_fract_y
 _atom_site_fract_z
 _atom_site_occupancy
  Tb  Tb0  1  0.631390  0.631390  0.250000  1
  Tb  Tb1  1  0.368610  0.368610  0.750000  1
  Th  Th2  1  0.205593  0.794407  0.500000  1
  Th  Th3  1  0.205593  0.794407  0.000000  1
  Th  Th4  1  0.794407  0.205593  0.500000  1
  Th  Th5  1  0.794407  0.205593  0.000000  1
  In  In6  1  0.011465  0.011465  0.250000  1
  In  In7  1  0.988535  0.988535  0.750000  1
  In  In8  1  0.310643  0.310643  0.047225  1
  In  In9  1  0.689357  0.689357  0.952775  1
  In  In10  1  0.310643  0.310643  0.452775  1
  In  In11  1  0.689357  0.689357  0.547225  1
  In  In12  1  0.493889  0.069346  0.250000  1
  In  In13  1  0.930654  0.506111  0.750000  1
  In  In14  1  0.506111  0.930654  0.750000  1
  In  In15  1  0.069346  0.493889  0.250000  1
