# generated using pymatgen
data_Lu4Ga7AsRh16
_symmetry_space_group_name_H-M   'P 1'
_cell_length_a   4.23537900
_cell_length_b   9.26121250
_cell_length_c   11.32109100
_cell_angle_alpha   89.95019755
_cell_angle_beta   90.00000000
_cell_angle_gamma   90.00000000
_symmetry_Int_Tables_number   1
_chemical_formula_structural   Lu4Ga7AsRh16
_chemical_formula_sum   'Lu4 Ga7 As1 Rh16'
_cell_volume   444.06673906
_cell_formula_units_Z   1
loop_
 _symmetry_equiv_pos_site_id
 _symmetry_equiv_pos_as_xyz
  1  'x, y, z'
loop_
 _atom_site_type_symbol
 _atom_site_label
 _atom_site_symmetry_multiplicity
 _atom_site_fract_x
 _atom_site_fract_y
 _atom_site_fract_z
 _atom_site_occupancy
  Lu  Lu0  1  0.250000  0.142415  0.829160  1
  Lu  Lu1  1  0.250000  0.355460  0.322683  1
  Lu  Lu2  1  0.750000  0.855516  0.173823  1
  Lu  Lu3  1  0.750000  0.648352  0.673912  1
  Ga  Ga4  1  0.250000  0.086689  0.135753  1
  Ga  Ga5  1  0.750000  0.586725  0.362541  1
  Ga  Ga6  1  0.750000  0.912244  0.865454  1
  Ga  Ga7  1  0.250000  0.611658  0.061222  1
  Ga  Ga8  1  0.250000  0.888027  0.560796  1
  Ga  Ga9  1  0.750000  0.387057  0.939975  1
  Ga  Ga10  1  0.750000  0.112009  0.439001  1
  As  As11  1  0.250000  0.413898  0.635942  1
  Rh  Rh12  1  0.250000  0.615839  0.501760  1
  Rh  Rh13  1  0.250000  0.877288  0.000949  1
  Rh  Rh14  1  0.750000  0.379302  0.498755  1
  Rh  Rh15  1  0.750000  0.121684  0.999450  1
  Rh  Rh16  1  0.250000  0.704235  0.273345  1
  Rh  Rh17  1  0.250000  0.798319  0.772617  1
  Rh  Rh18  1  0.750000  0.298242  0.728333  1
  Rh  Rh19  1  0.750000  0.203143  0.227114  1
  Rh  Rh20  1  0.250000  0.175028  0.564012  1
  Rh  Rh21  1  0.250000  0.332671  0.062370  1
  Rh  Rh22  1  0.750000  0.830372  0.438062  1
  Rh  Rh23  1  0.750000  0.665541  0.936343  1
  Rh  Rh24  1  0.250000  0.002048  0.343614  1
  Rh  Rh25  1  0.250000  0.496106  0.836516  1
  Rh  Rh26  1  0.750000  0.998903  0.658639  1
  Rh  Rh27  1  0.750000  0.501228  0.157857  1
