# generated using pymatgen
data_TbTlP6Pd20Pb
_symmetry_space_group_name_H-M   'P 1'
_cell_length_a   8.68722155
_cell_length_b   8.68722146
_cell_length_c   8.68722200
_cell_angle_alpha   60.00000554
_cell_angle_beta   60.00000591
_cell_angle_gamma   60.00000358
_symmetry_Int_Tables_number   1
_chemical_formula_structural   TbTlP6Pd20Pb
_chemical_formula_sum   'Tb1 Tl1 P6 Pd20 Pb1'
_cell_volume   463.58327767
_cell_formula_units_Z   1
loop_
 _symmetry_equiv_pos_site_id
 _symmetry_equiv_pos_as_xyz
  1  'x, y, z'
loop_
 _atom_site_type_symbol
 _atom_site_label
 _atom_site_symmetry_multiplicity
 _atom_site_fract_x
 _atom_site_fract_y
 _atom_site_fract_z
 _atom_site_occupancy
  Tb  Tb0  1  0.000000  0.000000  0.000000  1
  Tl  Tl1  1  0.250000  0.250000  0.250000  1
  P  P2  1  0.734886  0.265114  0.265114  1
  P  P3  1  0.265114  0.734886  0.734886  1
  P  P4  1  0.265114  0.734886  0.265114  1
  P  P5  1  0.734886  0.265114  0.734886  1
  P  P6  1  0.265114  0.265114  0.734886  1
  P  P7  1  0.734886  0.734886  0.265114  1
  Pd  Pd8  1  0.383655  0.383655  0.383655  1
  Pd  Pd9  1  0.615412  0.615412  0.615412  1
  Pd  Pd10  1  0.383655  0.383655  0.849036  1
  Pd  Pd11  1  0.383655  0.849036  0.383655  1
  Pd  Pd12  1  0.615412  0.615412  0.153765  1
  Pd  Pd13  1  0.615412  0.153765  0.615412  1
  Pd  Pd14  1  0.849036  0.383655  0.383655  1
  Pd  Pd15  1  0.153765  0.615412  0.615412  1
  Pd  Pd16  1  0.343505  0.000189  0.000189  1
  Pd  Pd17  1  0.656117  0.000189  0.000189  1
  Pd  Pd18  1  0.000189  0.343505  0.656117  1
  Pd  Pd19  1  0.000189  0.656117  0.343505  1
  Pd  Pd20  1  0.000189  0.343505  0.000189  1
  Pd  Pd21  1  0.656117  0.000189  0.343505  1
  Pd  Pd22  1  0.000189  0.656117  0.000189  1
  Pd  Pd23  1  0.343505  0.000189  0.656117  1
  Pd  Pd24  1  0.000189  0.000189  0.343505  1
  Pd  Pd25  1  0.000189  0.000189  0.656117  1
  Pd  Pd26  1  0.656117  0.343505  0.000189  1
  Pd  Pd27  1  0.343505  0.656117  0.000189  1
  Pb  Pb28  1  0.750000  0.750000  0.750000  1
