# generated using pymatgen
data_RbTbTa6Cl18
_symmetry_space_group_name_H-M   'P 1'
_cell_length_a   10.18819539
_cell_length_b   10.18819633
_cell_length_c   10.18819600
_cell_angle_alpha   55.72781819
_cell_angle_beta   55.72781459
_cell_angle_gamma   55.72781596
_symmetry_Int_Tables_number   1
_chemical_formula_structural   RbTbTa6Cl18
_chemical_formula_sum   'Rb1 Tb1 Ta6 Cl18'
_cell_volume   673.68407040
_cell_formula_units_Z   1
loop_
 _symmetry_equiv_pos_site_id
 _symmetry_equiv_pos_as_xyz
  1  'x, y, z'
loop_
 _atom_site_type_symbol
 _atom_site_label
 _atom_site_symmetry_multiplicity
 _atom_site_fract_x
 _atom_site_fract_y
 _atom_site_fract_z
 _atom_site_occupancy
  Rb  Rb0  1  0.221404  0.221404  0.221404  1
  Tb  Tb1  1  0.498936  0.498936  0.498936  1
  Ta  Ta2  1  0.804609  0.146849  0.911484  1
  Ta  Ta3  1  0.911484  0.804609  0.146849  1
  Ta  Ta4  1  0.146849  0.911484  0.804609  1
  Ta  Ta5  1  0.196219  0.853371  0.087733  1
  Ta  Ta6  1  0.087733  0.196219  0.853371  1
  Ta  Ta7  1  0.853371  0.087733  0.196219  1
  Cl  Cl8  1  0.867982  0.410439  0.724760  1
  Cl  Cl9  1  0.724760  0.867982  0.410439  1
  Cl  Cl10  1  0.410439  0.724760  0.867982  1
  Cl  Cl11  1  0.131865  0.589052  0.276462  1
  Cl  Cl12  1  0.276462  0.131865  0.589052  1
  Cl  Cl13  1  0.589052  0.276462  0.131865  1
  Cl  Cl14  1  0.542357  0.337610  0.799873  1
  Cl  Cl15  1  0.799873  0.542357  0.337610  1
  Cl  Cl16  1  0.337610  0.799873  0.542357  1
  Cl  Cl17  1  0.452549  0.663927  0.203983  1
  Cl  Cl18  1  0.203983  0.452549  0.663927  1
  Cl  Cl19  1  0.663927  0.203983  0.452549  1
  Cl  Cl20  1  0.661060  0.940785  0.069740  1
  Cl  Cl21  1  0.069740  0.661060  0.940785  1
  Cl  Cl22  1  0.940785  0.069740  0.661060  1
  Cl  Cl23  1  0.340015  0.058606  0.929467  1
  Cl  Cl24  1  0.929467  0.340015  0.058606  1
  Cl  Cl25  1  0.058606  0.929467  0.340015  1
