# generated using pymatgen
data_Tb5Dy2IrI12
_symmetry_space_group_name_H-M   'P 1'
_cell_length_a   9.83637622
_cell_length_b   9.83690739
_cell_length_c   9.83371500
_cell_angle_alpha   106.93844775
_cell_angle_beta   106.93647689
_cell_angle_gamma   106.95579786
_symmetry_Int_Tables_number   1
_chemical_formula_structural   Tb5Dy2IrI12
_chemical_formula_sum   'Tb5 Dy2 Ir1 I12'
_cell_volume   793.63948306
_cell_formula_units_Z   1
loop_
 _symmetry_equiv_pos_site_id
 _symmetry_equiv_pos_as_xyz
  1  'x, y, z'
loop_
 _atom_site_type_symbol
 _atom_site_label
 _atom_site_symmetry_multiplicity
 _atom_site_fract_x
 _atom_site_fract_y
 _atom_site_fract_z
 _atom_site_occupancy
  Tb  Tb0  1  0.976869  0.703653  0.904854  1
  Tb  Tb1  1  0.703602  0.905082  0.976748  1
  Tb  Tb2  1  0.094944  0.023065  0.296496  1
  Tb  Tb3  1  0.022979  0.296268  0.094601  1
  Tb  Tb4  1  0.296273  0.094920  0.022832  1
  Dy  Dy5  1  0.499973  0.500000  0.499916  1
  Dy  Dy6  1  0.905573  0.977043  0.704783  1
  Ir  Ir7  1  0.000000  0.999978  0.999958  1
  I  I8  1  0.535653  0.836698  0.612144  1
  I  I9  1  0.836524  0.612685  0.535122  1
  I  I10  1  0.612232  0.535111  0.836539  1
  I  I11  1  0.464862  0.163426  0.387764  1
  I  I12  1  0.163399  0.387722  0.464863  1
  I  I13  1  0.387764  0.464896  0.163402  1
  I  I14  1  0.676296  0.224518  0.070687  1
  I  I15  1  0.223737  0.070476  0.676142  1
  I  I16  1  0.070705  0.676382  0.224496  1
  I  I17  1  0.323693  0.775491  0.929304  1
  I  I18  1  0.775714  0.929432  0.324210  1
  I  I19  1  0.929209  0.323154  0.775139  1
