# generated using pymatgen
data_Ni9Sn8IrRh2
_symmetry_space_group_name_H-M   'P 1'
_cell_length_a   5.33878520
_cell_length_b   7.22056172
_cell_length_c   8.28337717
_cell_angle_alpha   90.27061936
_cell_angle_beta   90.27676520
_cell_angle_gamma   90.08566364
_symmetry_Int_Tables_number   1
_chemical_formula_structural   Ni9Sn8IrRh2
_chemical_formula_sum   'Ni9 Sn8 Ir1 Rh2'
_cell_volume   319.30848435
_cell_formula_units_Z   1
loop_
 _symmetry_equiv_pos_site_id
 _symmetry_equiv_pos_as_xyz
  1  'x, y, z'
loop_
 _atom_site_type_symbol
 _atom_site_label
 _atom_site_symmetry_multiplicity
 _atom_site_fract_x
 _atom_site_fract_y
 _atom_site_fract_z
 _atom_site_occupancy
  Ni  Ni0  1  0.253571  0.906413  0.368631  1
  Ni  Ni1  1  0.755501  0.090343  0.625922  1
  Ni  Ni2  1  0.993389  0.265193  0.876246  1
  Ni  Ni3  1  0.506849  0.766496  0.624127  1
  Ni  Ni4  1  0.004210  0.233225  0.375535  1
  Ni  Ni5  1  0.493629  0.734721  0.124062  1
  Ni  Ni6  1  0.236208  0.411776  0.126930  1
  Ni  Ni7  1  0.004077  0.740220  0.122628  1
  Ni  Ni8  1  0.748686  0.594769  0.877067  1
  Sn  Sn9  1  0.251448  0.562868  0.401271  1
  Sn  Sn10  1  0.246857  0.094818  0.640569  1
  Sn  Sn11  1  0.750264  0.899119  0.356651  1
  Sn  Sn12  1  0.752391  0.408445  0.141205  1
  Sn  Sn13  1  0.254232  0.598332  0.861743  1
  Sn  Sn14  1  0.247366  0.060857  0.096768  1
  Sn  Sn15  1  0.749834  0.436548  0.602491  1
  Sn  Sn16  1  0.754044  0.938097  0.902606  1
  Ir  Ir17  1  0.496645  0.238076  0.374222  1
  Rh  Rh18  1  0.999222  0.758395  0.623409  1
  Rh  Rh19  1  0.501577  0.261288  0.877915  1
