# generated using pymatgen
data_Tb3NdAgIr
_symmetry_space_group_name_H-M   'P 1'
_cell_length_a   9.65934871
_cell_length_b   9.64311627
_cell_length_c   9.64311669
_cell_angle_alpha   60.11139344
_cell_angle_beta   59.94429447
_cell_angle_gamma   59.94429947
_symmetry_Int_Tables_number   1
_chemical_formula_structural   Tb3NdAgIr
_chemical_formula_sum   'Tb12 Nd4 Ag4 Ir4'
_cell_volume   635.13371288
_cell_formula_units_Z   4
loop_
 _symmetry_equiv_pos_site_id
 _symmetry_equiv_pos_as_xyz
  1  'x, y, z'
loop_
 _atom_site_type_symbol
 _atom_site_label
 _atom_site_symmetry_multiplicity
 _atom_site_fract_x
 _atom_site_fract_y
 _atom_site_fract_z
 _atom_site_occupancy
  Tb  Tb0  1  0.352693  0.350591  0.350591  1
  Tb  Tb1  1  0.350591  0.352693  0.946125  1
  Tb  Tb2  1  0.350591  0.946125  0.352693  1
  Tb  Tb3  1  0.946125  0.350591  0.350591  1
  Tb  Tb4  1  0.813075  0.186925  0.186925  1
  Tb  Tb5  1  0.186925  0.813075  0.813075  1
  Tb  Tb6  1  0.187805  0.812195  0.187805  1
  Tb  Tb7  1  0.812195  0.187805  0.812195  1
  Tb  Tb8  1  0.187805  0.187805  0.812195  1
  Tb  Tb9  1  0.812195  0.812195  0.187805  1
  Tb  Tb10  1  0.942783  0.557217  0.557217  1
  Tb  Tb11  1  0.557217  0.942783  0.942783  1
  Nd  Nd12  1  0.562674  0.937326  0.562674  1
  Nd  Nd13  1  0.937326  0.562674  0.937326  1
  Nd  Nd14  1  0.562674  0.562674  0.937326  1
  Nd  Nd15  1  0.937326  0.937326  0.562674  1
  Ag  Ag16  1  0.583577  0.579166  0.579166  1
  Ag  Ag17  1  0.579166  0.583577  0.258091  1
  Ag  Ag18  1  0.579166  0.258091  0.583577  1
  Ag  Ag19  1  0.258091  0.579166  0.579166  1
  Ir  Ir20  1  0.145634  0.140963  0.140963  1
  Ir  Ir21  1  0.140963  0.145634  0.572438  1
  Ir  Ir22  1  0.140963  0.572438  0.145634  1
  Ir  Ir23  1  0.572438  0.140963  0.140963  1
