# generated using pymatgen
data_Tb4MnCoRu6
_symmetry_space_group_name_H-M   'P 1'
_cell_length_a   5.19888917
_cell_length_b   5.19888830
_cell_length_c   8.89350800
_cell_angle_alpha   90.00000000
_cell_angle_beta   90.00000000
_cell_angle_gamma   119.27094146
_symmetry_Int_Tables_number   1
_chemical_formula_structural   Tb4MnCoRu6
_chemical_formula_sum   'Tb4 Mn1 Co1 Ru6'
_cell_volume   209.68562629
_cell_formula_units_Z   1
loop_
 _symmetry_equiv_pos_site_id
 _symmetry_equiv_pos_as_xyz
  1  'x, y, z'
loop_
 _atom_site_type_symbol
 _atom_site_label
 _atom_site_symmetry_multiplicity
 _atom_site_fract_x
 _atom_site_fract_y
 _atom_site_fract_z
 _atom_site_occupancy
  Tb  Tb0  1  0.331548  0.668452  0.436467  1
  Tb  Tb1  1  0.667497  0.332503  0.568816  1
  Tb  Tb2  1  0.667497  0.332503  0.931184  1
  Tb  Tb3  1  0.331548  0.668452  0.063533  1
  Mn  Mn4  1  0.835507  0.164493  0.250000  1
  Co  Co5  1  0.165259  0.834741  0.750000  1
  Ru  Ru6  1  0.999226  0.000774  0.500659  1
  Ru  Ru7  1  0.999226  0.000774  0.999341  1
  Ru  Ru8  1  0.825324  0.653226  0.250000  1
  Ru  Ru9  1  0.346774  0.174676  0.250000  1
  Ru  Ru10  1  0.175417  0.344822  0.750000  1
  Ru  Ru11  1  0.655178  0.824583  0.750000  1
