# generated using pymatgen
data_Er4Ni5(P4Ir5)3
_symmetry_space_group_name_H-M   'P 1'
_cell_length_a   3.91929000
_cell_length_b   10.68059416
_cell_length_c   12.38040705
_cell_angle_alpha   89.93031497
_cell_angle_beta   90.00000000
_cell_angle_gamma   90.00000000
_symmetry_Int_Tables_number   1
_chemical_formula_structural   Er4Ni5(P4Ir5)3
_chemical_formula_sum   'Er4 Ni5 P12 Ir15'
_cell_volume   518.24773779
_cell_formula_units_Z   1
loop_
 _symmetry_equiv_pos_site_id
 _symmetry_equiv_pos_as_xyz
  1  'x, y, z'
loop_
 _atom_site_type_symbol
 _atom_site_label
 _atom_site_symmetry_multiplicity
 _atom_site_fract_x
 _atom_site_fract_y
 _atom_site_fract_z
 _atom_site_occupancy
  Er  Er0  1  0.250000  0.589928  0.710282  1
  Er  Er1  1  0.250000  0.912088  0.210860  1
  Er  Er2  1  0.750000  0.412863  0.290215  1
  Er  Er3  1  0.750000  0.091486  0.789619  1
  Ni  Ni4  1  0.750000  0.397719  0.804820  1
  Ni  Ni5  1  0.250000  0.462089  0.933897  1
  Ni  Ni6  1  0.250000  0.032813  0.434811  1
  Ni  Ni7  1  0.750000  0.530696  0.063815  1
  Ni  Ni8  1  0.750000  0.962538  0.562814  1
  P  P9  1  0.250000  0.421004  0.107555  1
  P  P10  1  0.250000  0.091029  0.607315  1
  P  P11  1  0.750000  0.579990  0.889239  1
  P  P12  1  0.750000  0.920626  0.391510  1
  P  P13  1  0.250000  0.269460  0.877222  1
  P  P14  1  0.250000  0.228436  0.368673  1
  P  P15  1  0.750000  0.726638  0.131074  1
  P  P16  1  0.750000  0.771710  0.624781  1
  P  P17  1  0.250000  0.591110  0.382991  1
  P  P18  1  0.250000  0.905122  0.880621  1
  P  P19  1  0.750000  0.406399  0.625806  1
  P  P20  1  0.750000  0.093472  0.116969  1
  Ir  Ir21  1  0.250000  0.714143  0.968804  1
  Ir  Ir22  1  0.250000  0.776797  0.481051  1
  Ir  Ir23  1  0.750000  0.276500  0.007680  1
  Ir  Ir24  1  0.750000  0.216261  0.534344  1
  Ir  Ir25  1  0.250000  0.403029  0.475504  1
  Ir  Ir26  1  0.250000  0.085388  0.977756  1
  Ir  Ir27  1  0.750000  0.587879  0.525025  1
  Ir  Ir28  1  0.750000  0.902052  0.025634  1
  Ir  Ir29  1  0.250000  0.226781  0.176593  1
  Ir  Ir30  1  0.250000  0.284099  0.690805  1
  Ir  Ir31  1  0.750000  0.774823  0.813950  1
  Ir  Ir32  1  0.750000  0.725939  0.321606  1
  Ir  Ir33  1  0.250000  0.899033  0.695852  1
  Ir  Ir34  1  0.250000  0.614289  0.194078  1
  Ir  Ir35  1  0.750000  0.115771  0.306428  1
