# generated using pymatgen
data_Dy3Ho2Pt9
_symmetry_space_group_name_H-M   'P 1'
_cell_length_a   9.76735228
_cell_length_b   9.77439628
_cell_length_c   5.77400900
_cell_angle_alpha   90.00000000
_cell_angle_beta   90.00000000
_cell_angle_gamma   90.02723799
_symmetry_Int_Tables_number   1
_chemical_formula_structural   Dy3Ho2Pt9
_chemical_formula_sum   'Dy6 Ho4 Pt18'
_cell_volume   551.24441361
_cell_formula_units_Z   2
loop_
 _symmetry_equiv_pos_site_id
 _symmetry_equiv_pos_as_xyz
  1  'x, y, z'
loop_
 _atom_site_type_symbol
 _atom_site_label
 _atom_site_symmetry_multiplicity
 _atom_site_fract_x
 _atom_site_fract_y
 _atom_site_fract_z
 _atom_site_occupancy
  Dy  Dy0  1  0.452265  0.809396  0.000000  1
  Dy  Dy1  1  0.547735  0.190604  0.000000  1
  Dy  Dy2  1  0.190541  0.547707  0.000000  1
  Dy  Dy3  1  0.809459  0.452293  0.000000  1
  Dy  Dy4  1  0.309334  0.047772  0.500000  1
  Dy  Dy5  1  0.690666  0.952228  0.500000  1
  Ho  Ho6  1  0.500000  0.500000  0.500000  1
  Ho  Ho7  1  0.952253  0.690547  0.500000  1
  Ho  Ho8  1  0.047747  0.309453  0.500000  1
  Ho  Ho9  1  0.000000  0.000000  0.000000  1
  Pt  Pt10  1  0.191177  0.808580  0.250899  1
  Pt  Pt11  1  0.808823  0.191420  0.749101  1
  Pt  Pt12  1  0.808823  0.191420  0.250899  1
  Pt  Pt13  1  0.191177  0.808580  0.749101  1
  Pt  Pt14  1  0.440025  0.781188  0.500000  1
  Pt  Pt15  1  0.559975  0.218812  0.500000  1
  Pt  Pt16  1  0.218495  0.559874  0.500000  1
  Pt  Pt17  1  0.781505  0.440126  0.500000  1
  Pt  Pt18  1  0.308457  0.308664  0.249392  1
  Pt  Pt19  1  0.691543  0.691336  0.750608  1
  Pt  Pt20  1  0.691543  0.691336  0.249392  1
  Pt  Pt21  1  0.308457  0.308664  0.750608  1
  Pt  Pt22  1  0.281213  0.059940  0.000000  1
  Pt  Pt23  1  0.718787  0.940060  0.000000  1
  Pt  Pt24  1  0.940070  0.718782  0.000000  1
  Pt  Pt25  1  0.059930  0.281218  0.000000  1
  Pt  Pt26  1  0.000000  0.000000  0.500000  1
  Pt  Pt27  1  0.500000  0.500000  0.000000  1
