# generated using pymatgen
data_Hf18Cu2Re5Mo3
_symmetry_space_group_name_H-M   'P 1'
_cell_length_a   8.68707308
_cell_length_b   8.68500118
_cell_length_c   8.45950400
_cell_angle_alpha   90.00000000
_cell_angle_beta   90.00000000
_cell_angle_gamma   119.99210724
_symmetry_Int_Tables_number   1
_chemical_formula_structural   Hf18Cu2Re5Mo3
_chemical_formula_sum   'Hf18 Cu2 Re5 Mo3'
_cell_volume   552.78140333
_cell_formula_units_Z   1
loop_
 _symmetry_equiv_pos_site_id
 _symmetry_equiv_pos_as_xyz
  1  'x, y, z'
loop_
 _atom_site_type_symbol
 _atom_site_label
 _atom_site_symmetry_multiplicity
 _atom_site_fract_x
 _atom_site_fract_y
 _atom_site_fract_z
 _atom_site_occupancy
  Hf  Hf0  1  0.196261  0.803590  0.446233  1
  Hf  Hf1  1  0.196261  0.392672  0.446233  1
  Hf  Hf2  1  0.606726  0.803363  0.445877  1
  Hf  Hf3  1  0.803389  0.197210  0.551998  1
  Hf  Hf4  1  0.803389  0.606178  0.551998  1
  Hf  Hf5  1  0.392956  0.196477  0.553008  1
  Hf  Hf6  1  0.803389  0.197210  0.948002  1
  Hf  Hf7  1  0.803389  0.606178  0.948002  1
  Hf  Hf8  1  0.392956  0.196477  0.946992  1
  Hf  Hf9  1  0.196261  0.803590  0.053767  1
  Hf  Hf10  1  0.196261  0.392672  0.053767  1
  Hf  Hf11  1  0.606726  0.803363  0.054123  1
  Hf  Hf12  1  0.540470  0.458631  0.250000  1
  Hf  Hf13  1  0.540470  0.081838  0.250000  1
  Hf  Hf14  1  0.918261  0.459130  0.250000  1
  Hf  Hf15  1  0.458239  0.539726  0.750000  1
  Hf  Hf16  1  0.458239  0.918514  0.750000  1
  Hf  Hf17  1  0.081831  0.540916  0.750000  1
  Cu  Cu18  1  0.332778  0.666389  0.250000  1
  Cu  Cu19  1  0.666638  0.333318  0.750000  1
  Re  Re20  1  0.888944  0.111796  0.250000  1
  Re  Re21  1  0.888944  0.777147  0.250000  1
  Re  Re22  1  0.222384  0.111191  0.250000  1
  Re  Re23  1  0.112992  0.888860  0.750000  1
  Re  Re24  1  0.112992  0.224133  0.750000  1
  Mo  Mo25  1  0.778689  0.889345  0.750000  1
  Mo  Mo26  1  0.000083  0.000042  0.500914  1
  Mo  Mo27  1  0.000083  0.000042  0.999086  1
