# generated using pymatgen
data_Th14TcIr2Os3
_symmetry_space_group_name_H-M   'P 1'
_cell_length_a   10.04459882
_cell_length_b   10.00931857
_cell_length_c   6.32893938
_cell_angle_alpha   89.99999943
_cell_angle_beta   89.88972284
_cell_angle_gamma   119.88387640
_symmetry_Int_Tables_number   1
_chemical_formula_structural   Th14TcIr2Os3
_chemical_formula_sum   'Th14 Tc1 Ir2 Os3'
_cell_volume   551.70205522
_cell_formula_units_Z   1
loop_
 _symmetry_equiv_pos_site_id
 _symmetry_equiv_pos_as_xyz
  1  'x, y, z'
loop_
 _atom_site_type_symbol
 _atom_site_label
 _atom_site_symmetry_multiplicity
 _atom_site_fract_x
 _atom_site_fract_y
 _atom_site_fract_z
 _atom_site_occupancy
  Th  Th0  1  0.460845  0.540840  0.297543  1
  Th  Th1  1  0.077845  0.538923  0.295384  1
  Th  Th2  1  0.917494  0.458746  0.797854  1
  Th  Th3  1  0.256303  0.128152  0.501843  1
  Th  Th4  1  0.541930  0.082635  0.799164  1
  Th  Th5  1  0.749335  0.874668  0.001730  1
  Th  Th6  1  0.666271  0.333135  0.285653  1
  Th  Th7  1  0.127182  0.876769  0.003047  1
  Th  Th8  1  0.460845  0.920005  0.297543  1
  Th  Th9  1  0.541930  0.459294  0.799164  1
  Th  Th10  1  0.870841  0.124769  0.502100  1
  Th  Th11  1  0.127182  0.250413  0.003047  1
  Th  Th12  1  0.870841  0.746073  0.502100  1
  Th  Th13  1  0.334395  0.667199  0.793468  1
  Tc  Tc14  1  0.371744  0.185872  0.046381  1
  Ir  Ir15  1  0.185544  0.375944  0.551808  1
  Ir  Ir16  1  0.185544  0.809599  0.551808  1
  Os  Os17  1  0.815783  0.627716  0.050764  1
  Os  Os18  1  0.815783  0.188066  0.050764  1
  Os  Os19  1  0.622368  0.811184  0.552838  1
