# generated using pymatgen
data_DyTaCrB6
_symmetry_space_group_name_H-M   'P 1'
_cell_length_a   3.40783300
_cell_length_b   8.91651300
_cell_length_c   11.28141400
_cell_angle_alpha   90.00000000
_cell_angle_beta   90.00000000
_cell_angle_gamma   90.00000000
_symmetry_Int_Tables_number   1
_chemical_formula_structural   DyTaCrB6
_chemical_formula_sum   'Dy4 Ta4 Cr4 B24'
_cell_volume   342.79690192
_cell_formula_units_Z   4
loop_
 _symmetry_equiv_pos_site_id
 _symmetry_equiv_pos_as_xyz
  1  'x, y, z'
loop_
 _atom_site_type_symbol
 _atom_site_label
 _atom_site_symmetry_multiplicity
 _atom_site_fract_x
 _atom_site_fract_y
 _atom_site_fract_z
 _atom_site_occupancy
  Dy  Dy0  1  0.000000  0.822336  0.085965  1
  Dy  Dy1  1  0.000000  0.177664  0.914035  1
  Dy  Dy2  1  0.000000  0.322336  0.414035  1
  Dy  Dy3  1  0.000000  0.677664  0.585965  1
  Ta  Ta4  1  0.000000  0.444932  0.127704  1
  Ta  Ta5  1  0.000000  0.555068  0.872296  1
  Ta  Ta6  1  0.000000  0.944932  0.372296  1
  Ta  Ta7  1  0.000000  0.055068  0.627704  1
  Cr  Cr8  1  0.000000  0.143703  0.183654  1
  Cr  Cr9  1  0.000000  0.856297  0.816346  1
  Cr  Cr10  1  0.000000  0.643703  0.316346  1
  Cr  Cr11  1  0.000000  0.356297  0.683654  1
  B  B12  1  0.500000  0.054620  0.067803  1
  B  B13  1  0.500000  0.945380  0.932197  1
  B  B14  1  0.500000  0.554620  0.432197  1
  B  B15  1  0.500000  0.445380  0.567803  1
  B  B16  1  0.500000  0.253690  0.082829  1
  B  B17  1  0.500000  0.746310  0.917171  1
  B  B18  1  0.500000  0.753690  0.417171  1
  B  B19  1  0.500000  0.246310  0.582829  1
  B  B20  1  0.500000  0.296420  0.235983  1
  B  B21  1  0.500000  0.703580  0.764017  1
  B  B22  1  0.500000  0.796420  0.264017  1
  B  B23  1  0.500000  0.203580  0.735983  1
  B  B24  1  0.500000  0.129656  0.317353  1
  B  B25  1  0.500000  0.870344  0.682647  1
  B  B26  1  0.500000  0.629656  0.182647  1
  B  B27  1  0.500000  0.370344  0.817353  1
  B  B28  1  0.500000  0.482172  0.286387  1
  B  B29  1  0.500000  0.517828  0.713613  1
  B  B30  1  0.500000  0.982172  0.213613  1
  B  B31  1  0.500000  0.017828  0.786387  1
  B  B32  1  0.500000  0.098978  0.473829  1
  B  B33  1  0.500000  0.901022  0.526171  1
  B  B34  1  0.500000  0.598978  0.026171  1
  B  B35  1  0.500000  0.401022  0.973829  1
