# generated using pymatgen
data_Ta8Tc2Mo
_symmetry_space_group_name_H-M   'P 1'
_cell_length_a   5.44581611
_cell_length_b   5.44581617
_cell_length_c   11.75012700
_cell_angle_alpha   104.51261204
_cell_angle_beta   104.51260134
_cell_angle_gamma   34.44277278
_symmetry_Int_Tables_number   1
_chemical_formula_structural   Ta8Tc2Mo
_chemical_formula_sum   'Ta8 Tc2 Mo1'
_cell_volume   190.18627659
_cell_formula_units_Z   1
loop_
 _symmetry_equiv_pos_site_id
 _symmetry_equiv_pos_as_xyz
  1  'x, y, z'
loop_
 _atom_site_type_symbol
 _atom_site_label
 _atom_site_symmetry_multiplicity
 _atom_site_fract_x
 _atom_site_fract_y
 _atom_site_fract_z
 _atom_site_occupancy
  Ta  Ta0  1  0.719066  0.719066  0.087709  1
  Ta  Ta1  1  0.456342  0.456342  0.184433  1
  Ta  Ta2  1  0.192295  0.192295  0.278053  1
  Ta  Ta3  1  0.630160  0.630160  0.457456  1
  Ta  Ta4  1  0.369840  0.369840  0.542544  1
  Ta  Ta5  1  0.807705  0.807705  0.721947  1
  Ta  Ta6  1  0.543658  0.543658  0.815567  1
  Ta  Ta7  1  0.280934  0.280934  0.912292  1
  Tc  Tc8  1  0.911095  0.911095  0.364766  1
  Tc  Tc9  1  0.088905  0.088905  0.635235  1
  Mo  Mo10  1  0.000000  0.000000  0.000000  1
