# generated using pymatgen
data_Er4Co9B4Ir
_symmetry_space_group_name_H-M   'P 1'
_cell_length_a   10.53834721
_cell_length_b   10.53834679
_cell_length_c   10.53834727
_cell_angle_alpha   27.69970374
_cell_angle_beta   27.69970718
_cell_angle_gamma   27.69970269
_symmetry_Int_Tables_number   1
_chemical_formula_structural   Er4Co9B4Ir
_chemical_formula_sum   'Er4 Co9 B4 Ir1'
_cell_volume   223.26423077
_cell_formula_units_Z   1
loop_
 _symmetry_equiv_pos_site_id
 _symmetry_equiv_pos_as_xyz
  1  'x, y, z'
loop_
 _atom_site_type_symbol
 _atom_site_label
 _atom_site_symmetry_multiplicity
 _atom_site_fract_x
 _atom_site_fract_y
 _atom_site_fract_z
 _atom_site_occupancy
  Er  Er0  1  0.150601  0.150601  0.150601  1
  Er  Er1  1  0.950699  0.950699  0.950699  1
  Er  Er2  1  0.849399  0.849399  0.849399  1
  Er  Er3  1  0.049301  0.049301  0.049301  1
  Co  Co4  1  0.407227  0.899875  0.407227  1
  Co  Co5  1  0.899875  0.407227  0.407227  1
  Co  Co6  1  0.500000  0.500000  0.000000  1
  Co  Co7  1  0.500000  0.000000  0.500000  1
  Co  Co8  1  0.000000  0.500000  0.500000  1
  Co  Co9  1  0.592773  0.100125  0.592773  1
  Co  Co10  1  0.592773  0.592773  0.100125  1
  Co  Co11  1  0.100125  0.592773  0.592773  1
  Co  Co12  1  0.407227  0.407227  0.899875  1
  B  B13  1  0.618421  0.618421  0.618421  1
  B  B14  1  0.715466  0.715466  0.715466  1
  B  B15  1  0.381579  0.381579  0.381579  1
  B  B16  1  0.284534  0.284534  0.284534  1
  Ir  Ir17  1  0.500000  0.500000  0.500000  1
