# generated using pymatgen
data_Ba6Sc2Fe(SbO6)3
_symmetry_space_group_name_H-M   'P 1'
_cell_length_a   10.14228474
_cell_length_b   10.14228317
_cell_length_c   10.14228374
_cell_angle_alpha   146.43461281
_cell_angle_beta   131.84372879
_cell_angle_gamma   59.97640160
_symmetry_Int_Tables_number   1
_chemical_formula_structural   Ba6Sc2Fe(SbO6)3
_chemical_formula_sum   'Ba6 Sc2 Fe1 Sb3 O18'
_cell_volume   425.79594929
_cell_formula_units_Z   1
loop_
 _symmetry_equiv_pos_site_id
 _symmetry_equiv_pos_as_xyz
  1  'x, y, z'
loop_
 _atom_site_type_symbol
 _atom_site_label
 _atom_site_symmetry_multiplicity
 _atom_site_fract_x
 _atom_site_fract_y
 _atom_site_fract_z
 _atom_site_occupancy
  Ba  Ba0  1  0.582879  0.334738  0.248140  1
  Ba  Ba1  1  0.913401  0.665262  0.248140  1
  Ba  Ba2  1  0.253630  0.000000  0.253630  1
  Ba  Ba3  1  0.417121  0.665262  0.751860  1
  Ba  Ba4  1  0.746370  0.000000  0.746370  1
  Ba  Ba5  1  0.086599  0.334738  0.751860  1
  Sc  Sc6  1  0.833302  0.833302  0.000000  1
  Sc  Sc7  1  0.166698  0.166698  0.000000  1
  Fe  Fe8  1  0.500000  0.500000  0.000000  1
  Sb  Sb9  1  0.000000  0.500000  0.500000  1
  Sb  Sb10  1  0.333724  0.833724  0.500000  1
  Sb  Sb11  1  0.666276  0.166276  0.500000  1
  O  O12  1  0.751738  0.500000  0.251738  1
  O  O13  1  0.090248  0.833678  0.256570  1
  O  O14  1  0.422892  0.166322  0.256570  1
  O  O15  1  0.248262  0.500000  0.748262  1
  O  O16  1  0.577108  0.833678  0.743430  1
  O  O17  1  0.909752  0.166322  0.743430  1
  O  O18  1  0.918899  0.662167  0.743270  1
  O  O19  1  0.252307  0.996102  0.743795  1
  O  O20  1  0.584159  0.331373  0.747214  1
  O  O21  1  0.918899  0.175628  0.256730  1
  O  O22  1  0.252307  0.508512  0.256205  1
  O  O23  1  0.584159  0.836946  0.252786  1
  O  O24  1  0.081101  0.824372  0.743270  1
  O  O25  1  0.415841  0.163054  0.747214  1
  O  O26  1  0.747693  0.491488  0.743795  1
  O  O27  1  0.081101  0.337833  0.256730  1
  O  O28  1  0.415841  0.668627  0.252786  1
  O  O29  1  0.747693  0.003898  0.256205  1
