# generated using pymatgen
data_Pr3AlPd5
_symmetry_space_group_name_H-M   'P 1'
_cell_length_a   8.53117227
_cell_length_b   8.53117157
_cell_length_c   8.53117100
_cell_angle_alpha   127.54707233
_cell_angle_beta   126.02859350
_cell_angle_gamma   78.60324128
_symmetry_Int_Tables_number   1
_chemical_formula_structural   Pr3AlPd5
_chemical_formula_sum   'Pr6 Al2 Pd10'
_cell_volume   385.39419180
_cell_formula_units_Z   2
loop_
 _symmetry_equiv_pos_site_id
 _symmetry_equiv_pos_as_xyz
  1  'x, y, z'
loop_
 _atom_site_type_symbol
 _atom_site_label
 _atom_site_symmetry_multiplicity
 _atom_site_fract_x
 _atom_site_fract_y
 _atom_site_fract_z
 _atom_site_occupancy
  Pr  Pr0  1  0.224927  0.452150  0.772778  1
  Pr  Pr1  1  0.775073  0.547850  0.227222  1
  Pr  Pr2  1  0.820626  0.047850  0.772778  1
  Pr  Pr3  1  0.179374  0.952150  0.227222  1
  Pr  Pr4  1  0.376366  0.250000  0.126366  1
  Pr  Pr5  1  0.623634  0.750000  0.873634  1
  Al  Al6  1  0.781883  0.250000  0.531883  1
  Al  Al7  1  0.218117  0.750000  0.468117  1
  Pd  Pd8  1  0.168893  0.401313  0.359665  1
  Pd  Pd9  1  0.831107  0.190771  0.232419  1
  Pd  Pd10  1  0.458352  0.098687  0.767581  1
  Pd  Pd11  1  0.541648  0.309229  0.640335  1
  Pd  Pd12  1  0.000000  0.500000  0.000000  1
  Pd  Pd13  1  0.000000  0.000000  0.500000  1
  Pd  Pd14  1  0.458352  0.690771  0.359665  1
  Pd  Pd15  1  0.541648  0.901313  0.232419  1
  Pd  Pd16  1  0.168893  0.809229  0.767581  1
  Pd  Pd17  1  0.831107  0.598687  0.640335  1
