# generated using pymatgen
data_TcCl4O
_symmetry_space_group_name_H-M   'P 1'
_cell_length_a   6.61004720
_cell_length_b   7.60000473
_cell_length_c   8.26984115
_cell_angle_alpha   101.13701466
_cell_angle_beta   96.07740097
_cell_angle_gamma   108.60864360
_symmetry_Int_Tables_number   1
_chemical_formula_structural   TcCl4O
_chemical_formula_sum   'Tc2 Cl8 O2'
_cell_volume   379.99309283
_cell_formula_units_Z   2
loop_
 _symmetry_equiv_pos_site_id
 _symmetry_equiv_pos_as_xyz
  1  'x, y, z'
loop_
 _atom_site_type_symbol
 _atom_site_label
 _atom_site_symmetry_multiplicity
 _atom_site_fract_x
 _atom_site_fract_y
 _atom_site_fract_z
 _atom_site_occupancy
  Tc  Tc0  1  0.064851  0.219927  0.286947  1
  Tc  Tc1  1  0.935149  0.780073  0.713053  1
  Cl  Cl2  1  0.175834  0.083581  0.832067  1
  Cl  Cl3  1  0.320200  0.077954  0.308586  1
  Cl  Cl4  1  0.152882  0.681726  0.879366  1
  Cl  Cl5  1  0.847118  0.318274  0.120634  1
  Cl  Cl6  1  0.342189  0.480341  0.263642  1
  Cl  Cl7  1  0.824166  0.916419  0.167933  1
  Cl  Cl8  1  0.679800  0.922046  0.691414  1
  Cl  Cl9  1  0.657811  0.519659  0.736358  1
  O  O10  1  0.986277  0.724794  0.519797  1
  O  O11  1  0.013723  0.275206  0.480203  1
