# generated using pymatgen
data_Tm4Al3ZnPt4
_symmetry_space_group_name_H-M   'P 1'
_cell_length_a   4.39936600
_cell_length_b   6.75197974
_cell_length_c   7.76717451
_cell_angle_alpha   89.80844310
_cell_angle_beta   90.00000000
_cell_angle_gamma   90.00000000
_symmetry_Int_Tables_number   1
_chemical_formula_structural   Tm4Al3ZnPt4
_chemical_formula_sum   'Tm4 Al3 Zn1 Pt4'
_cell_volume   230.71820274
_cell_formula_units_Z   1
loop_
 _symmetry_equiv_pos_site_id
 _symmetry_equiv_pos_as_xyz
  1  'x, y, z'
loop_
 _atom_site_type_symbol
 _atom_site_label
 _atom_site_symmetry_multiplicity
 _atom_site_fract_x
 _atom_site_fract_y
 _atom_site_fract_z
 _atom_site_occupancy
  Tm  Tm0  1  0.250000  0.027259  0.685576  1
  Tm  Tm1  1  0.250000  0.526218  0.818301  1
  Tm  Tm2  1  0.750000  0.972594  0.316853  1
  Tm  Tm3  1  0.750000  0.468992  0.179148  1
  Al  Al4  1  0.250000  0.649126  0.437998  1
  Al  Al5  1  0.750000  0.853772  0.937180  1
  Al  Al6  1  0.750000  0.355541  0.559930  1
  Zn  Zn7  1  0.250000  0.150828  0.066280  1
  Pt  Pt8  1  0.250000  0.271337  0.391070  1
  Pt  Pt9  1  0.250000  0.761053  0.116235  1
  Pt  Pt10  1  0.750000  0.731084  0.616901  1
  Pt  Pt11  1  0.750000  0.232196  0.874527  1
