# generated using pymatgen
data_TbTm4Bi3O14
_symmetry_space_group_name_H-M   'P 1'
_cell_length_a   6.56244191
_cell_length_b   6.57662180
_cell_length_c   7.70774200
_cell_angle_alpha   106.85400232
_cell_angle_beta   89.65507645
_cell_angle_gamma   98.87299088
_symmetry_Int_Tables_number   1
_chemical_formula_structural   TbTm4Bi3O14
_chemical_formula_sum   'Tb1 Tm4 Bi3 O14'
_cell_volume   314.29385661
_cell_formula_units_Z   1
loop_
 _symmetry_equiv_pos_site_id
 _symmetry_equiv_pos_as_xyz
  1  'x, y, z'
loop_
 _atom_site_type_symbol
 _atom_site_label
 _atom_site_symmetry_multiplicity
 _atom_site_fract_x
 _atom_site_fract_y
 _atom_site_fract_z
 _atom_site_occupancy
  Tb  Tb0  1  0.741335  0.478942  0.619386  1
  Tm  Tm1  1  0.462886  0.007574  0.252649  1
  Tm  Tm2  1  0.536341  0.997881  0.751405  1
  Tm  Tm3  1  0.273735  0.535755  0.883566  1
  Tm  Tm4  1  0.734603  0.460296  0.111873  1
  Bi  Bi5  1  0.994577  0.999790  0.500413  1
  Bi  Bi6  1  0.999589  0.996656  0.997990  1
  Bi  Bi7  1  0.280049  0.531171  0.386314  1
  O  O8  1  0.455587  0.655517  0.163271  1
  O  O9  1  0.551949  0.349816  0.837782  1
  O  O10  1  0.303632  0.918440  0.950308  1
  O  O11  1  0.697461  0.079289  0.051014  1
  O  O12  1  0.300347  0.933300  0.517717  1
  O  O13  1  0.695670  0.082411  0.491018  1
  O  O14  1  0.550042  0.360235  0.339779  1
  O  O15  1  0.459112  0.641356  0.661275  1
  O  O16  1  0.926938  0.659311  0.953308  1
  O  O17  1  0.069999  0.328992  0.027973  1
  O  O18  1  0.069048  0.343594  0.631890  1
  O  O19  1  0.904278  0.661358  0.375844  1
  O  O20  1  0.866337  0.897937  0.724972  1
  O  O21  1  0.126480  0.080380  0.270256  1
