# generated using pymatgen
data_Sr4HoTm3(LuSe4)4
_symmetry_space_group_name_H-M   'P 1'
_cell_length_a   4.10464900
_cell_length_b   12.55809125
_cell_length_c   14.83142829
_cell_angle_alpha   89.97732013
_cell_angle_beta   90.00000000
_cell_angle_gamma   90.00000000
_symmetry_Int_Tables_number   1
_chemical_formula_structural   Sr4HoTm3(LuSe4)4
_chemical_formula_sum   'Sr4 Ho1 Tm3 Lu4 Se16'
_cell_volume   764.50899905
_cell_formula_units_Z   1
loop_
 _symmetry_equiv_pos_site_id
 _symmetry_equiv_pos_as_xyz
  1  'x, y, z'
loop_
 _atom_site_type_symbol
 _atom_site_label
 _atom_site_symmetry_multiplicity
 _atom_site_fract_x
 _atom_site_fract_y
 _atom_site_fract_z
 _atom_site_occupancy
  Sr  Sr0  1  0.250000  0.760256  0.333741  1
  Sr  Sr1  1  0.250000  0.260003  0.166140  1
  Sr  Sr2  1  0.750000  0.239855  0.666309  1
  Sr  Sr3  1  0.750000  0.739841  0.833769  1
  Ho  Ho4  1  0.250000  0.438660  0.389166  1
  Tm  Tm5  1  0.250000  0.939044  0.110963  1
  Tm  Tm6  1  0.750000  0.561014  0.611047  1
  Tm  Tm7  1  0.750000  0.060948  0.889053  1
  Lu  Lu8  1  0.250000  0.417416  0.902652  1
  Lu  Lu9  1  0.250000  0.917372  0.597353  1
  Lu  Lu10  1  0.750000  0.582665  0.097225  1
  Lu  Lu11  1  0.750000  0.082505  0.402632  1
  Se  Se12  1  0.250000  0.205360  0.831563  1
  Se  Se13  1  0.250000  0.705348  0.668430  1
  Se  Se14  1  0.750000  0.794634  0.168447  1
  Se  Se15  1  0.750000  0.293689  0.330980  1
  Se  Se16  1  0.250000  0.127299  0.529995  1
  Se  Se17  1  0.250000  0.627269  0.969928  1
  Se  Se18  1  0.750000  0.872779  0.470010  1
  Se  Se19  1  0.750000  0.372739  0.030029  1
  Se  Se20  1  0.250000  0.028466  0.285328  1
  Se  Se21  1  0.250000  0.528851  0.214099  1
  Se  Se22  1  0.750000  0.971492  0.714666  1
  Se  Se23  1  0.750000  0.471495  0.785378  1
  Se  Se24  1  0.250000  0.409442  0.577589  1
  Se  Se25  1  0.250000  0.909470  0.923297  1
  Se  Se26  1  0.750000  0.591562  0.423512  1
  Se  Se27  1  0.750000  0.090527  0.076700  1
