# generated using pymatgen
data_Tb6Y2SnPd24
_symmetry_space_group_name_H-M   'P 1'
_cell_length_a   8.41373400
_cell_length_b   8.41373400
_cell_length_c   8.41373400
_cell_angle_alpha   90.00034049
_cell_angle_beta   90.00034049
_cell_angle_gamma   90.00034049
_symmetry_Int_Tables_number   1
_chemical_formula_structural   Tb6Y2SnPd24
_chemical_formula_sum   'Tb6 Y2 Sn1 Pd24'
_cell_volume   595.61596899
_cell_formula_units_Z   1
loop_
 _symmetry_equiv_pos_site_id
 _symmetry_equiv_pos_as_xyz
  1  'x, y, z'
loop_
 _atom_site_type_symbol
 _atom_site_label
 _atom_site_symmetry_multiplicity
 _atom_site_fract_x
 _atom_site_fract_y
 _atom_site_fract_z
 _atom_site_occupancy
  Tb  Tb0  1  0.747281  0.747281  0.252745  1
  Tb  Tb1  1  0.747281  0.252745  0.747281  1
  Tb  Tb2  1  0.252719  0.252719  0.747255  1
  Tb  Tb3  1  0.252719  0.747255  0.252719  1
  Tb  Tb4  1  0.252745  0.747281  0.747281  1
  Tb  Tb5  1  0.747255  0.252719  0.252719  1
  Y  Y6  1  0.252725  0.252725  0.252725  1
  Y  Y7  1  0.747275  0.747275  0.747275  1
  Sn  Sn8  1  0.000000  0.000000  0.000000  1
  Pd  Pd9  1  0.265450  0.500005  0.999997  1
  Pd  Pd10  1  0.734550  0.499995  0.000003  1
  Pd  Pd11  1  0.999997  0.265450  0.500005  1
  Pd  Pd12  1  0.500005  0.265450  0.999997  1
  Pd  Pd13  1  0.000003  0.734550  0.499995  1
  Pd  Pd14  1  0.499995  0.734550  0.000003  1
  Pd  Pd15  1  0.500005  0.999997  0.265450  1
  Pd  Pd16  1  0.265450  0.999997  0.500005  1
  Pd  Pd17  1  0.499995  0.000003  0.734550  1
  Pd  Pd18  1  0.734550  0.000003  0.499995  1
  Pd  Pd19  1  0.999997  0.500005  0.265450  1
  Pd  Pd20  1  0.000003  0.499995  0.734550  1
  Pd  Pd21  1  0.255023  0.500007  0.500007  1
  Pd  Pd22  1  0.744977  0.499993  0.499993  1
  Pd  Pd23  1  0.500007  0.255023  0.500007  1
  Pd  Pd24  1  0.499993  0.744977  0.499993  1
  Pd  Pd25  1  0.500007  0.500007  0.255023  1
  Pd  Pd26  1  0.499993  0.499993  0.744977  1
  Pd  Pd27  1  0.308431  0.000009  0.000009  1
  Pd  Pd28  1  0.691569  0.999991  0.999991  1
  Pd  Pd29  1  0.000009  0.308431  0.000009  1
  Pd  Pd30  1  0.999991  0.691569  0.999991  1
  Pd  Pd31  1  0.000009  0.000009  0.308431  1
  Pd  Pd32  1  0.999991  0.999991  0.691569  1
