# generated using pymatgen
data_Co3Tc2MoP3
_symmetry_space_group_name_H-M   'P 1'
_cell_length_a   5.74863847
_cell_length_b   5.74863886
_cell_length_c   3.76300200
_cell_angle_alpha   90.00000000
_cell_angle_beta   90.00000000
_cell_angle_gamma   120.05055630
_symmetry_Int_Tables_number   1
_chemical_formula_structural   Co3Tc2MoP3
_chemical_formula_sum   'Co3 Tc2 Mo1 P3'
_cell_volume   107.63998593
_cell_formula_units_Z   1
loop_
 _symmetry_equiv_pos_site_id
 _symmetry_equiv_pos_as_xyz
  1  'x, y, z'
loop_
 _atom_site_type_symbol
 _atom_site_label
 _atom_site_symmetry_multiplicity
 _atom_site_fract_x
 _atom_site_fract_y
 _atom_site_fract_z
 _atom_site_occupancy
  Co  Co0  1  0.745581  0.745581  0.000000  1
  Co  Co1  1  0.254568  0.999658  0.000000  1
  Co  Co2  1  0.999658  0.254568  0.000000  1
  Tc  Tc3  1  0.997944  0.590060  0.500000  1
  Tc  Tc4  1  0.590060  0.997944  0.500000  1
  Mo  Mo5  1  0.412130  0.412130  0.500000  1
  P  P6  1  0.999322  0.999322  0.500000  1
  P  P7  1  0.668400  0.332335  0.000000  1
  P  P8  1  0.332335  0.668400  0.000000  1
