# generated using pymatgen
data_Yb5Y3(HoRu2)2
_symmetry_space_group_name_H-M   'P 1'
_cell_length_a   6.42914725
_cell_length_b   7.26346191
_cell_length_c   8.53206853
_cell_angle_alpha   96.90594395
_cell_angle_beta   112.79768583
_cell_angle_gamma   90.28044483
_symmetry_Int_Tables_number   1
_chemical_formula_structural   Yb5Y3(HoRu2)2
_chemical_formula_sum   'Yb5 Y3 Ho2 Ru4'
_cell_volume   364.06132807
_cell_formula_units_Z   1
loop_
 _symmetry_equiv_pos_site_id
 _symmetry_equiv_pos_as_xyz
  1  'x, y, z'
loop_
 _atom_site_type_symbol
 _atom_site_label
 _atom_site_symmetry_multiplicity
 _atom_site_fract_x
 _atom_site_fract_y
 _atom_site_fract_z
 _atom_site_occupancy
  Yb  Yb0  1  0.977347  0.919652  0.178608  1
  Yb  Yb1  1  0.796769  0.580007  0.820821  1
  Yb  Yb2  1  0.021889  0.080702  0.821457  1
  Yb  Yb3  1  0.203748  0.418701  0.181706  1
  Yb  Yb4  1  0.639418  0.816328  0.435607  1
  Y  Y5  1  0.203957  0.682144  0.566156  1
  Y  Y6  1  0.367484  0.181529  0.566278  1
  Y  Y7  1  0.797781  0.317116  0.431360  1
  Ho  Ho8  1  0.433489  0.751151  0.002590  1
  Ho  Ho9  1  0.564682  0.250888  0.000501  1
  Ru  Ru10  1  0.822051  0.571057  0.221681  1
  Ru  Ru11  1  0.587007  0.926774  0.782654  1
  Ru  Ru12  1  0.179303  0.425439  0.768092  1
  Ru  Ru13  1  0.405072  0.078514  0.222492  1
