# generated using pymatgen
data_CaTmTc5(PRh)7
_symmetry_space_group_name_H-M   'P 1'
_cell_length_a   3.94607000
_cell_length_b   9.46921909
_cell_length_c   9.49009442
_cell_angle_alpha   119.70584523
_cell_angle_beta   89.99934957
_cell_angle_gamma   90.00109008
_symmetry_Int_Tables_number   1
_chemical_formula_structural   CaTmTc5(PRh)7
_chemical_formula_sum   'Ca1 Tm1 Tc5 P7 Rh7'
_cell_volume   308.00643535
_cell_formula_units_Z   1
loop_
 _symmetry_equiv_pos_site_id
 _symmetry_equiv_pos_as_xyz
  1  'x, y, z'
loop_
 _atom_site_type_symbol
 _atom_site_label
 _atom_site_symmetry_multiplicity
 _atom_site_fract_x
 _atom_site_fract_y
 _atom_site_fract_z
 _atom_site_occupancy
  Ca  Ca0  1  0.261916  0.667817  0.333288  1
  Tm  Tm1  1  0.762016  0.333047  0.666434  1
  Tc  Tc2  1  0.761899  0.092034  0.872411  1
  Tc  Tc3  1  0.761867  0.126453  0.215629  1
  Tc  Tc4  1  0.761866  0.783371  0.909075  1
  Tc  Tc5  1  0.261857  0.885541  0.159483  1
  Tc  Tc6  1  0.261875  0.840683  0.726348  1
  P  P7  1  0.261891  0.997248  0.998211  1
  P  P8  1  0.761901  0.881203  0.600348  1
  P  P9  1  0.761915  0.401596  0.285383  1
  P  P10  1  0.761817  0.719539  0.121785  1
  P  P11  1  0.261973  0.114636  0.412076  1
  P  P12  1  0.261960  0.586127  0.701628  1
  P  P13  1  0.261946  0.297406  0.882811  1
  Rh  Rh14  1  0.261864  0.273255  0.112792  1
  Rh  Rh15  1  0.761908  0.605331  0.558838  1
  Rh  Rh16  1  0.761881  0.440901  0.049563  1
  Rh  Rh17  1  0.761915  0.952932  0.394942  1
  Rh  Rh18  1  0.261918  0.365415  0.434713  1
  Rh  Rh19  1  0.261891  0.563040  0.929230  1
  Rh  Rh20  1  0.261927  0.072422  0.635014  1
