# generated using pymatgen
data_Dy2TmLuB3C4
_symmetry_space_group_name_H-M   'P 1'
_cell_length_a   3.47866010
_cell_length_b   3.58525324
_cell_length_c   11.77244126
_cell_angle_alpha   92.91187032
_cell_angle_beta   96.28897795
_cell_angle_gamma   90.19216356
_symmetry_Int_Tables_number   1
_chemical_formula_structural   Dy2TmLuB3C4
_chemical_formula_sum   'Dy2 Tm1 Lu1 B3 C4'
_cell_volume   145.74654759
_cell_formula_units_Z   1
loop_
 _symmetry_equiv_pos_site_id
 _symmetry_equiv_pos_as_xyz
  1  'x, y, z'
loop_
 _atom_site_type_symbol
 _atom_site_label
 _atom_site_symmetry_multiplicity
 _atom_site_fract_x
 _atom_site_fract_y
 _atom_site_fract_z
 _atom_site_occupancy
  Dy  Dy0  1  0.806532  0.024530  0.651104  1
  Dy  Dy1  1  0.193576  0.975546  0.349238  1
  Tm  Tm2  1  0.611902  0.445467  0.138670  1
  Lu  Lu3  1  0.387480  0.554538  0.860238  1
  B  B4  1  0.000582  0.999135  0.999920  1
  B  B5  1  0.265628  0.506401  0.541175  1
  B  B6  1  0.734574  0.493651  0.459274  1
  C  C7  1  0.889258  0.064175  0.878425  1
  C  C8  1  0.110325  0.936460  0.121461  1
  C  C9  1  0.313761  0.528295  0.669710  1
  C  C10  1  0.686384  0.471803  0.330785  1
