# generated using pymatgen
data_Sm2Si4RuPt3
_symmetry_space_group_name_H-M   'P 1'
_cell_length_a   4.19850100
_cell_length_b   4.19850100
_cell_length_c   9.94329200
_cell_angle_alpha   90.00000000
_cell_angle_beta   90.00000000
_cell_angle_gamma   90.00000000
_symmetry_Int_Tables_number   1
_chemical_formula_structural   Sm2Si4RuPt3
_chemical_formula_sum   'Sm2 Si4 Ru1 Pt3'
_cell_volume   175.27449127
_cell_formula_units_Z   1
loop_
 _symmetry_equiv_pos_site_id
 _symmetry_equiv_pos_as_xyz
  1  'x, y, z'
loop_
 _atom_site_type_symbol
 _atom_site_label
 _atom_site_symmetry_multiplicity
 _atom_site_fract_x
 _atom_site_fract_y
 _atom_site_fract_z
 _atom_site_occupancy
  Sm  Sm0  1  0.000000  0.500000  0.745053  1
  Sm  Sm1  1  0.500000  0.000000  0.254947  1
  Si  Si2  1  0.000000  0.500000  0.129633  1
  Si  Si3  1  0.500000  0.500000  0.500000  1
  Si  Si4  1  0.500000  0.000000  0.870367  1
  Si  Si5  1  0.000000  0.000000  0.500000  1
  Ru  Ru6  1  0.000000  0.000000  0.000000  1
  Pt  Pt7  1  0.500000  0.000000  0.624727  1
  Pt  Pt8  1  0.500000  0.500000  0.000000  1
  Pt  Pt9  1  0.000000  0.500000  0.375273  1
