# generated using pymatgen
data_Ta12Al8CN3
_symmetry_space_group_name_H-M   'P 1'
_cell_length_a   7.05589723
_cell_length_b   7.05589723
_cell_length_c   7.05589723
_cell_angle_alpha   90.11596362
_cell_angle_beta   90.11596362
_cell_angle_gamma   90.11596362
_symmetry_Int_Tables_number   1
_chemical_formula_structural   Ta12Al8CN3
_chemical_formula_sum   'Ta12 Al8 C1 N3'
_cell_volume   351.28052106
_cell_formula_units_Z   1
loop_
 _symmetry_equiv_pos_site_id
 _symmetry_equiv_pos_as_xyz
  1  'x, y, z'
loop_
 _atom_site_type_symbol
 _atom_site_label
 _atom_site_symmetry_multiplicity
 _atom_site_fract_x
 _atom_site_fract_y
 _atom_site_fract_z
 _atom_site_occupancy
  Ta  Ta0  1  0.795488  0.954512  0.375000  1
  Ta  Ta1  1  0.704555  0.045445  0.875000  1
  Ta  Ta2  1  0.203415  0.454973  0.124218  1
  Ta  Ta3  1  0.295027  0.546585  0.625782  1
  Ta  Ta4  1  0.954512  0.375000  0.795488  1
  Ta  Ta5  1  0.045445  0.875000  0.704555  1
  Ta  Ta6  1  0.454973  0.124218  0.203415  1
  Ta  Ta7  1  0.546585  0.625782  0.295027  1
  Ta  Ta8  1  0.375000  0.795488  0.954512  1
  Ta  Ta9  1  0.875000  0.704555  0.045445  1
  Ta  Ta10  1  0.124218  0.203415  0.454973  1
  Ta  Ta11  1  0.625782  0.295027  0.546585  1
  Al  Al12  1  0.179561  0.820473  0.320852  1
  Al  Al13  1  0.320852  0.179561  0.820473  1
  Al  Al14  1  0.820473  0.320852  0.179561  1
  Al  Al15  1  0.679826  0.679826  0.679826  1
  Al  Al16  1  0.570439  0.429148  0.929527  1
  Al  Al17  1  0.429148  0.929527  0.570439  1
  Al  Al18  1  0.929527  0.570439  0.429148  1
  Al  Al19  1  0.070174  0.070174  0.070174  1
  C  C20  1  0.375000  0.375000  0.375000  1
  N  N21  1  0.875000  0.123274  0.626726  1
  N  N22  1  0.626726  0.875000  0.123274  1
  N  N23  1  0.123274  0.626726  0.875000  1
