# generated using pymatgen
data_Hf3NbAl2Pt
_symmetry_space_group_name_H-M   'P 1'
_cell_length_a   5.22660193
_cell_length_b   5.36651857
_cell_length_c   5.30520100
_cell_angle_alpha   90.00000000
_cell_angle_beta   90.00000000
_cell_angle_gamma   120.88957254
_symmetry_Int_Tables_number   1
_chemical_formula_structural   Hf3NbAl2Pt
_chemical_formula_sum   'Hf3 Nb1 Al2 Pt1'
_cell_volume   127.69718908
_cell_formula_units_Z   1
loop_
 _symmetry_equiv_pos_site_id
 _symmetry_equiv_pos_as_xyz
  1  'x, y, z'
loop_
 _atom_site_type_symbol
 _atom_site_label
 _atom_site_symmetry_multiplicity
 _atom_site_fract_x
 _atom_site_fract_y
 _atom_site_fract_z
 _atom_site_occupancy
  Hf  Hf0  1  0.000000  0.000000  0.740625  1
  Hf  Hf1  1  0.334878  0.667439  0.495445  1
  Hf  Hf2  1  0.665122  0.332561  0.495445  1
  Nb  Nb3  1  0.000000  0.000000  0.259477  1
  Al  Al4  1  0.500000  0.000000  0.005744  1
  Al  Al5  1  0.500000  0.500000  0.005744  1
  Pt  Pt6  1  0.000000  0.500000  0.997518  1
