# generated using pymatgen
data_Np6TaVAs10
_symmetry_space_group_name_H-M   'P 1'
_cell_length_a   8.51115700
_cell_length_b   8.51115660
_cell_length_c   5.67217200
_cell_angle_alpha   90.00000000
_cell_angle_beta   90.00000000
_cell_angle_gamma   119.99999768
_symmetry_Int_Tables_number   1
_chemical_formula_structural   Np6TaVAs10
_chemical_formula_sum   'Np6 Ta1 V1 As10'
_cell_volume   355.84200812
_cell_formula_units_Z   1
loop_
 _symmetry_equiv_pos_site_id
 _symmetry_equiv_pos_as_xyz
  1  'x, y, z'
loop_
 _atom_site_type_symbol
 _atom_site_label
 _atom_site_symmetry_multiplicity
 _atom_site_fract_x
 _atom_site_fract_y
 _atom_site_fract_z
 _atom_site_occupancy
  Np  Np0  1  0.385871  0.385871  0.753014  1
  Np  Np1  1  0.614129  0.000000  0.753014  1
  Np  Np2  1  0.000000  0.614129  0.753014  1
  Np  Np3  1  0.614129  0.614129  0.246986  1
  Np  Np4  1  0.385871  0.000000  0.246986  1
  Np  Np5  1  0.000000  0.385871  0.246986  1
  Ta  Ta6  1  0.000000  0.000000  0.000000  1
  V  V7  1  0.000000  0.000000  0.500000  1
  As  As8  1  0.739565  0.739565  0.743389  1
  As  As9  1  0.260435  0.000000  0.743389  1
  As  As10  1  0.000000  0.260435  0.743389  1
  As  As11  1  0.260435  0.260435  0.256611  1
  As  As12  1  0.739565  0.000000  0.256611  1
  As  As13  1  0.000000  0.739565  0.256611  1
  As  As14  1  0.666667  0.333333  0.000000  1
  As  As15  1  0.333333  0.666667  0.000000  1
  As  As16  1  0.333333  0.666667  0.500000  1
  As  As17  1  0.666667  0.333333  0.500000  1
