# generated using pymatgen
data_Cs7NbTl3AsP4
_symmetry_space_group_name_H-M   'P 1'
_cell_length_a   8.92361801
_cell_length_b   9.72508650
_cell_length_c   14.95975481
_cell_angle_alpha   85.32795253
_cell_angle_beta   84.10168268
_cell_angle_gamma   85.16367974
_symmetry_Int_Tables_number   1
_chemical_formula_structural   Cs7NbTl3AsP4
_chemical_formula_sum   'Cs14 Nb2 Tl6 As2 P8'
_cell_volume   1283.30628428
_cell_formula_units_Z   2
loop_
 _symmetry_equiv_pos_site_id
 _symmetry_equiv_pos_as_xyz
  1  'x, y, z'
loop_
 _atom_site_type_symbol
 _atom_site_label
 _atom_site_symmetry_multiplicity
 _atom_site_fract_x
 _atom_site_fract_y
 _atom_site_fract_z
 _atom_site_occupancy
  Cs  Cs0  1  0.844530  0.360624  0.653987  1
  Cs  Cs1  1  0.813965  0.806181  0.132701  1
  Cs  Cs2  1  0.239603  0.009297  0.471727  1
  Cs  Cs3  1  0.268966  0.256407  0.251927  1
  Cs  Cs4  1  0.733776  0.501462  0.973305  1
  Cs  Cs5  1  0.259082  0.498079  0.026904  1
  Cs  Cs6  1  0.678035  0.083269  0.889300  1
  Cs  Cs7  1  0.763655  0.993542  0.530066  1
  Cs  Cs8  1  0.732457  0.745486  0.745039  1
  Cs  Cs9  1  0.338266  0.346906  0.597995  1
  Cs  Cs10  1  0.158336  0.635677  0.347801  1
  Cs  Cs11  1  0.181576  0.192307  0.864036  1
  Cs  Cs12  1  0.321090  0.917461  0.115929  1
  Cs  Cs13  1  0.662545  0.656881  0.399684  1
  Nb  Nb14  1  0.355954  0.603670  0.773231  1
  Nb  Nb15  1  0.644927  0.394564  0.226711  1
  Tl  Tl16  1  0.052742  0.815815  0.869108  1
  Tl  Tl17  1  0.941833  0.187246  0.127466  1
  Tl  Tl18  1  0.364164  0.954754  0.702012  1
  Tl  Tl19  1  0.099406  0.719534  0.621776  1
  Tl  Tl20  1  0.901101  0.283105  0.378196  1
  Tl  Tl21  1  0.632143  0.047052  0.295979  1
  As  As22  1  0.380978  0.795099  0.878594  1
  As  As23  1  0.973328  0.994326  0.299980  1
  P  P24  1  0.907243  0.449515  0.211576  1
  P  P25  1  0.623205  0.209720  0.127235  1
  P  P26  1  0.093854  0.549878  0.787947  1
  P  P27  1  0.583150  0.300916  0.382278  1
  P  P28  1  0.418094  0.697983  0.618308  1
  P  P29  1  0.032635  0.995832  0.700121  1
  P  P30  1  0.511084  0.403901  0.806868  1
  P  P31  1  0.488279  0.593508  0.192209  1
