# generated using pymatgen
data_Sm6As13Ru3Rh17
_symmetry_space_group_name_H-M   'P 1'
_cell_length_a   13.91599500
_cell_length_b   13.91599372
_cell_length_c   4.00334100
_cell_angle_alpha   90.00000000
_cell_angle_beta   90.00000000
_cell_angle_gamma   120.00000066
_symmetry_Int_Tables_number   1
_chemical_formula_structural   Sm6As13Ru3Rh17
_chemical_formula_sum   'Sm6 As13 Ru3 Rh17'
_cell_volume   671.40056334
_cell_formula_units_Z   1
loop_
 _symmetry_equiv_pos_site_id
 _symmetry_equiv_pos_as_xyz
  1  'x, y, z'
loop_
 _atom_site_type_symbol
 _atom_site_label
 _atom_site_symmetry_multiplicity
 _atom_site_fract_x
 _atom_site_fract_y
 _atom_site_fract_z
 _atom_site_occupancy
  Sm  Sm0  1  0.186862  0.468403  0.000000  1
  Sm  Sm1  1  0.531597  0.718459  0.000000  1
  Sm  Sm2  1  0.281541  0.813138  0.000000  1
  Sm  Sm3  1  0.720519  0.187481  0.500000  1
  Sm  Sm4  1  0.812519  0.533039  0.500000  1
  Sm  Sm5  1  0.466961  0.279481  0.500000  1
  As  As6  1  0.387410  0.525624  0.500000  1
  As  As7  1  0.474376  0.861786  0.500000  1
  As  As8  1  0.138214  0.612590  0.500000  1
  As  As9  1  0.051755  0.280613  0.500000  1
  As  As10  1  0.719387  0.771144  0.500000  1
  As  As11  1  0.228856  0.948245  0.500000  1
  As  As12  1  0.525698  0.138233  0.000000  1
  As  As13  1  0.861767  0.387464  0.000000  1
  As  As14  1  0.612536  0.474302  0.000000  1
  As  As15  1  0.768720  0.051498  0.000000  1
  As  As16  1  0.948502  0.717223  0.000000  1
  As  As17  1  0.282777  0.231280  0.000000  1
  As  As18  1  0.000000  0.000000  0.000000  1
  Ru  Ru19  1  0.094727  0.197112  0.000000  1
  Ru  Ru20  1  0.802888  0.897615  0.000000  1
  Ru  Ru21  1  0.102385  0.905273  0.000000  1
  Rh  Rh22  1  0.333333  0.666667  0.500000  1
  Rh  Rh23  1  0.902858  0.086146  0.500000  1
  Rh  Rh24  1  0.913854  0.816712  0.500000  1
  Rh  Rh25  1  0.183288  0.097142  0.500000  1
  Rh  Rh26  1  0.666667  0.333333  0.000000  1
  Rh  Rh27  1  0.416382  0.440213  0.000000  1
  Rh  Rh28  1  0.559787  0.976169  0.000000  1
  Rh  Rh29  1  0.023831  0.583618  0.000000  1
  Rh  Rh30  1  0.251158  0.326526  0.500000  1
  Rh  Rh31  1  0.673474  0.924633  0.500000  1
  Rh  Rh32  1  0.075367  0.748842  0.500000  1
  Rh  Rh33  1  0.439332  0.024791  0.500000  1
  Rh  Rh34  1  0.975209  0.414541  0.500000  1
  Rh  Rh35  1  0.585459  0.560668  0.500000  1
  Rh  Rh36  1  0.920138  0.247312  0.000000  1
  Rh  Rh37  1  0.752688  0.672826  0.000000  1
  Rh  Rh38  1  0.327174  0.079862  0.000000  1
