# generated using pymatgen
data_Nd3In3HgIrPt
_symmetry_space_group_name_H-M   'P 1'
_cell_length_a   7.87060600
_cell_length_b   7.87060709
_cell_length_c   4.08697200
_cell_angle_alpha   90.00000000
_cell_angle_beta   90.00000000
_cell_angle_gamma   119.99999541
_symmetry_Int_Tables_number   1
_chemical_formula_structural   Nd3In3HgIrPt
_chemical_formula_sum   'Nd3 In3 Hg1 Ir1 Pt1'
_cell_volume   219.25460266
_cell_formula_units_Z   1
loop_
 _symmetry_equiv_pos_site_id
 _symmetry_equiv_pos_as_xyz
  1  'x, y, z'
loop_
 _atom_site_type_symbol
 _atom_site_label
 _atom_site_symmetry_multiplicity
 _atom_site_fract_x
 _atom_site_fract_y
 _atom_site_fract_z
 _atom_site_occupancy
  Nd  Nd0  1  0.391834  0.418233  0.500000  1
  Nd  Nd1  1  0.581767  0.973601  0.500000  1
  Nd  Nd2  1  0.026399  0.608166  0.500000  1
  In  In3  1  0.748063  0.751307  0.000000  1
  In  In4  1  0.248693  0.996756  0.000000  1
  In  In5  1  0.003244  0.251937  0.000000  1
  Hg  Hg6  1  0.666667  0.333333  0.000000  1
  Ir  Ir7  1  0.333333  0.666667  0.000000  1
  Pt  Pt8  1  0.000000  0.000000  0.500000  1
