# generated using pymatgen
data_Er13Tm7Sn3Pb13
_symmetry_space_group_name_H-M   'P 1'
_cell_length_a   8.12951004
_cell_length_b   8.17321926
_cell_length_c   15.47452700
_cell_angle_alpha   90.00058911
_cell_angle_beta   89.99905383
_cell_angle_gamma   89.82172759
_symmetry_Int_Tables_number   1
_chemical_formula_structural   Er13Tm7Sn3Pb13
_chemical_formula_sum   'Er13 Tm7 Sn3 Pb13'
_cell_volume   1028.18864309
_cell_formula_units_Z   1
loop_
 _symmetry_equiv_pos_site_id
 _symmetry_equiv_pos_as_xyz
  1  'x, y, z'
loop_
 _atom_site_type_symbol
 _atom_site_label
 _atom_site_symmetry_multiplicity
 _atom_site_fract_x
 _atom_site_fract_y
 _atom_site_fract_z
 _atom_site_occupancy
  Er  Er0  1  0.123360  0.340791  0.121237  1
  Er  Er1  1  0.618615  0.161804  0.122326  1
  Er  Er2  1  0.123352  0.340785  0.378765  1
  Er  Er3  1  0.379510  0.838889  0.623453  1
  Er  Er4  1  0.878857  0.661717  0.876606  1
  Er  Er5  1  0.538210  0.327366  0.898304  1
  Er  Er6  1  0.037730  0.172246  0.601716  1
  Er  Er7  1  0.462329  0.672237  0.399559  1
  Er  Er8  1  0.962181  0.824181  0.099896  1
  Er  Er9  1  0.462325  0.672219  0.100430  1
  Er  Er10  1  0.962153  0.824186  0.400140  1
  Er  Er11  1  0.538238  0.327375  0.601670  1
  Er  Er12  1  0.037730  0.172211  0.898266  1
  Tm  Tm13  1  0.379500  0.838913  0.876525  1
  Tm  Tm14  1  0.878837  0.661700  0.623405  1
  Tm  Tm15  1  0.618588  0.161771  0.377679  1
  Tm  Tm16  1  0.211237  0.507696  0.750005  1
  Tm  Tm17  1  0.711438  0.992595  0.750003  1
  Tm  Tm18  1  0.787588  0.494373  0.250013  1
  Tm  Tm19  1  0.290829  0.006655  0.250013  1
  Sn  Sn20  1  0.574656  0.624217  0.750010  1
  Sn  Sn21  1  0.074348  0.875763  0.749990  1
  Sn  Sn22  1  0.425186  0.375798  0.250032  1
  Pb  Pb23  1  0.281452  0.031730  0.041566  1
  Pb  Pb24  1  0.781878  0.467127  0.458588  1
  Pb  Pb25  1  0.717837  0.967912  0.541868  1
  Pb  Pb26  1  0.218040  0.533034  0.957321  1
  Pb  Pb27  1  0.717743  0.967930  0.958078  1
  Pb  Pb28  1  0.217914  0.532980  0.542680  1
  Pb  Pb29  1  0.281508  0.031810  0.458373  1
  Pb  Pb30  1  0.781875  0.467154  0.041447  1
  Pb  Pb31  1  0.926853  0.125350  0.250015  1
  Pb  Pb32  1  0.349229  0.153596  0.750025  1
  Pb  Pb33  1  0.848342  0.346846  0.749980  1
  Pb  Pb34  1  0.649977  0.845459  0.250019  1
  Pb  Pb35  1  0.150554  0.653586  0.249997  1
