# generated using pymatgen
data_Y10Tl3Tc
_symmetry_space_group_name_H-M   'P 1'
_cell_length_a   9.82375200
_cell_length_b   9.82375131
_cell_length_c   9.76607300
_cell_angle_alpha   90.00000000
_cell_angle_beta   90.00000000
_cell_angle_gamma   120.00000231
_symmetry_Int_Tables_number   1
_chemical_formula_structural   Y10Tl3Tc
_chemical_formula_sum   'Y20 Tl6 Tc2'
_cell_volume   816.21643986
_cell_formula_units_Z   2
loop_
 _symmetry_equiv_pos_site_id
 _symmetry_equiv_pos_as_xyz
  1  'x, y, z'
loop_
 _atom_site_type_symbol
 _atom_site_label
 _atom_site_symmetry_multiplicity
 _atom_site_fract_x
 _atom_site_fract_y
 _atom_site_fract_z
 _atom_site_occupancy
  Y  Y0  1  0.000000  0.000000  0.500000  1
  Y  Y1  1  0.000000  0.000000  0.000000  1
  Y  Y2  1  0.210337  0.789663  0.438843  1
  Y  Y3  1  0.210337  0.420673  0.438843  1
  Y  Y4  1  0.579327  0.789663  0.438843  1
  Y  Y5  1  0.789663  0.210337  0.561157  1
  Y  Y6  1  0.789663  0.579327  0.561157  1
  Y  Y7  1  0.420673  0.210337  0.561157  1
  Y  Y8  1  0.789663  0.210337  0.938843  1
  Y  Y9  1  0.789663  0.579327  0.938843  1
  Y  Y10  1  0.420673  0.210337  0.938843  1
  Y  Y11  1  0.210337  0.789663  0.061157  1
  Y  Y12  1  0.210337  0.420673  0.061157  1
  Y  Y13  1  0.579327  0.789663  0.061157  1
  Y  Y14  1  0.537408  0.462592  0.250000  1
  Y  Y15  1  0.537408  0.074817  0.250000  1
  Y  Y16  1  0.925183  0.462592  0.250000  1
  Y  Y17  1  0.462592  0.537408  0.750000  1
  Y  Y18  1  0.462592  0.925183  0.750000  1
  Y  Y19  1  0.074817  0.537408  0.750000  1
  Tl  Tl20  1  0.881380  0.118620  0.250000  1
  Tl  Tl21  1  0.881380  0.762760  0.250000  1
  Tl  Tl22  1  0.237240  0.118620  0.250000  1
  Tl  Tl23  1  0.118620  0.881380  0.750000  1
  Tl  Tl24  1  0.118620  0.237240  0.750000  1
  Tl  Tl25  1  0.762760  0.881380  0.750000  1
  Tc  Tc26  1  0.333333  0.666667  0.250000  1
  Tc  Tc27  1  0.666667  0.333333  0.750000  1
