# generated using pymatgen
data_BaSmTi4N7
_symmetry_space_group_name_H-M   'P 1'
_cell_length_a   6.52013100
_cell_length_b   6.52013105
_cell_length_c   10.59451900
_cell_angle_alpha   90.00000000
_cell_angle_beta   90.00000000
_cell_angle_gamma   119.99998455
_symmetry_Int_Tables_number   1
_chemical_formula_structural   BaSmTi4N7
_chemical_formula_sum   'Ba2 Sm2 Ti8 N14'
_cell_volume   390.05386844
_cell_formula_units_Z   2
loop_
 _symmetry_equiv_pos_site_id
 _symmetry_equiv_pos_as_xyz
  1  'x, y, z'
loop_
 _atom_site_type_symbol
 _atom_site_label
 _atom_site_symmetry_multiplicity
 _atom_site_fract_x
 _atom_site_fract_y
 _atom_site_fract_z
 _atom_site_occupancy
  Ba  Ba0  1  0.666667  0.333333  0.582681  1
  Ba  Ba1  1  0.333333  0.666667  0.082681  1
  Sm  Sm2  1  0.666667  0.333333  0.948917  1
  Sm  Sm3  1  0.333333  0.666667  0.448917  1
  Ti  Ti4  1  0.168816  0.337630  0.763421  1
  Ti  Ti5  1  0.831184  0.168816  0.263421  1
  Ti  Ti6  1  0.337630  0.168816  0.263421  1
  Ti  Ti7  1  0.662370  0.831184  0.763421  1
  Ti  Ti8  1  0.168816  0.831184  0.763421  1
  Ti  Ti9  1  0.831184  0.662370  0.263421  1
  Ti  Ti10  1  0.000000  0.000000  0.023638  1
  Ti  Ti11  1  0.000000  0.000000  0.523638  1
  N  N12  1  0.000000  0.000000  0.831847  1
  N  N13  1  0.000000  0.000000  0.331847  1
  N  N14  1  0.842487  0.684975  0.084986  1
  N  N15  1  0.157513  0.842487  0.584986  1
  N  N16  1  0.684975  0.842487  0.584986  1
  N  N17  1  0.315025  0.157513  0.084986  1
  N  N18  1  0.842487  0.157513  0.084986  1
  N  N19  1  0.157513  0.315025  0.584986  1
  N  N20  1  0.492293  0.507707  0.813505  1
  N  N21  1  0.984587  0.492293  0.313505  1
  N  N22  1  0.507707  0.015413  0.313505  1
  N  N23  1  0.492293  0.984587  0.813505  1
  N  N24  1  0.507707  0.492293  0.313505  1
  N  N25  1  0.015413  0.507707  0.813505  1
