# generated using pymatgen
data_NdHo7(SiPd)8
_symmetry_space_group_name_H-M   'P 1'
_cell_length_a   4.34615200
_cell_length_b   7.51517000
_cell_length_c   13.93010900
_cell_angle_alpha   90.00000000
_cell_angle_beta   90.00000000
_cell_angle_gamma   90.00000000
_symmetry_Int_Tables_number   1
_chemical_formula_structural   NdHo7(SiPd)8
_chemical_formula_sum   'Nd1 Ho7 Si8 Pd8'
_cell_volume   454.98621095
_cell_formula_units_Z   1
loop_
 _symmetry_equiv_pos_site_id
 _symmetry_equiv_pos_as_xyz
  1  'x, y, z'
loop_
 _atom_site_type_symbol
 _atom_site_label
 _atom_site_symmetry_multiplicity
 _atom_site_fract_x
 _atom_site_fract_y
 _atom_site_fract_z
 _atom_site_occupancy
  Nd  Nd0  1  0.000000  0.300432  0.000000  1
  Ho  Ho1  1  0.500000  0.788992  0.747855  1
  Ho  Ho2  1  0.000000  0.210475  0.749746  1
  Ho  Ho3  1  0.500000  0.788992  0.252145  1
  Ho  Ho4  1  0.000000  0.210475  0.250254  1
  Ho  Ho5  1  0.500000  0.712739  0.000000  1
  Ho  Ho6  1  0.000000  0.289583  0.500000  1
  Ho  Ho7  1  0.500000  0.701590  0.500000  1
  Si  Si8  1  0.500000  0.409201  0.643408  1
  Si  Si9  1  0.000000  0.593113  0.853267  1
  Si  Si10  1  0.500000  0.409201  0.356592  1
  Si  Si11  1  0.000000  0.593113  0.146733  1
  Si  Si12  1  0.500000  0.085928  0.095732  1
  Si  Si13  1  0.000000  0.909694  0.406483  1
  Si  Si14  1  0.500000  0.085928  0.904268  1
  Si  Si15  1  0.000000  0.909694  0.593517  1
  Pd  Pd16  1  0.500000  0.076524  0.608961  1
  Pd  Pd17  1  0.000000  0.921080  0.889614  1
  Pd  Pd18  1  0.500000  0.076524  0.391039  1
  Pd  Pd19  1  0.000000  0.921080  0.110386  1
  Pd  Pd20  1  0.500000  0.422838  0.159798  1
  Pd  Pd21  1  0.000000  0.579983  0.344827  1
  Pd  Pd22  1  0.500000  0.422838  0.840202  1
  Pd  Pd23  1  0.000000  0.579983  0.655173  1
