# generated using pymatgen
data_AcAs2Pd3
_symmetry_space_group_name_H-M   'P 1'
_cell_length_a   4.26746200
_cell_length_b   8.84814353
_cell_length_c   10.26827646
_cell_angle_alpha   108.15372758
_cell_angle_beta   90.00000000
_cell_angle_gamma   103.95443882
_symmetry_Int_Tables_number   1
_chemical_formula_structural   AcAs2Pd3
_chemical_formula_sum   'Ac3 As6 Pd9'
_cell_volume   356.36018541
_cell_formula_units_Z   3
loop_
 _symmetry_equiv_pos_site_id
 _symmetry_equiv_pos_as_xyz
  1  'x, y, z'
loop_
 _atom_site_type_symbol
 _atom_site_label
 _atom_site_symmetry_multiplicity
 _atom_site_fract_x
 _atom_site_fract_y
 _atom_site_fract_z
 _atom_site_occupancy
  Ac  Ac0  1  0.843735  0.687469  0.299250  1
  Ac  Ac1  1  0.156265  0.312531  0.700750  1
  Ac  Ac2  1  0.000000  0.000000  0.000000  1
  As  As3  1  0.799559  0.599117  0.875318  1
  As  As4  1  0.200441  0.400883  0.124682  1
  As  As5  1  0.534258  0.068516  0.776270  1
  As  As6  1  0.465742  0.931484  0.223730  1
  As  As7  1  0.635534  0.271066  0.448109  1
  As  As8  1  0.364466  0.728934  0.551891  1
  Pd  Pd9  1  0.952419  0.904838  0.663145  1
  Pd  Pd10  1  0.047581  0.095162  0.336855  1
  Pd  Pd11  1  0.778741  0.557481  0.606824  1
  Pd  Pd12  1  0.221259  0.442519  0.393176  1
  Pd  Pd13  1  0.370722  0.741444  0.796069  1
  Pd  Pd14  1  0.629278  0.258556  0.203931  1
  Pd  Pd15  1  0.500000  0.000000  0.500000  1
  Pd  Pd16  1  0.675767  0.351534  0.966799  1
  Pd  Pd17  1  0.324233  0.648466  0.033201  1
