# generated using pymatgen
data_Nd5Sn15(PdRh3)2
_symmetry_space_group_name_H-M   'P 1'
_cell_length_a   4.54586700
_cell_length_b   7.34409268
_cell_length_c   18.86058621
_cell_angle_alpha   89.79184815
_cell_angle_beta   90.00000000
_cell_angle_gamma   90.00000000
_symmetry_Int_Tables_number   1
_chemical_formula_structural   Nd5Sn15(PdRh3)2
_chemical_formula_sum   'Nd5 Sn15 Pd2 Rh6'
_cell_volume   629.66158077
_cell_formula_units_Z   1
loop_
 _symmetry_equiv_pos_site_id
 _symmetry_equiv_pos_as_xyz
  1  'x, y, z'
loop_
 _atom_site_type_symbol
 _atom_site_label
 _atom_site_symmetry_multiplicity
 _atom_site_fract_x
 _atom_site_fract_y
 _atom_site_fract_z
 _atom_site_occupancy
  Nd  Nd0  1  0.500000  0.003211  0.855757  1
  Nd  Nd1  1  0.500000  0.499462  0.356903  1
  Nd  Nd2  1  0.000000  0.000111  0.143719  1
  Nd  Nd3  1  0.000000  0.501105  0.641532  1
  Nd  Nd4  1  0.500000  0.493423  0.929243  1
  Sn  Sn5  1  0.000000  0.718630  0.806229  1
  Sn  Sn6  1  0.000000  0.780283  0.304482  1
  Sn  Sn7  1  0.500000  0.277616  0.195079  1
  Sn  Sn8  1  0.500000  0.218970  0.694608  1
  Sn  Sn9  1  0.000000  0.855003  0.967960  1
  Sn  Sn10  1  0.000000  0.628678  0.467615  1
  Sn  Sn11  1  0.500000  0.137810  0.031873  1
  Sn  Sn12  1  0.500000  0.362618  0.530182  1
  Sn  Sn13  1  0.000000  0.303150  0.819327  1
  Sn  Sn14  1  0.000000  0.198998  0.317754  1
  Sn  Sn15  1  0.500000  0.697496  0.186204  1
  Sn  Sn16  1  0.500000  0.806548  0.680916  1
  Sn  Sn17  1  0.500000  0.022388  0.431459  1
  Sn  Sn18  1  0.000000  0.507339  0.067750  1
  Sn  Sn19  1  0.000000  0.985767  0.569017  1
  Pd  Pd20  1  0.500000  0.764923  0.044881  1
  Pd  Pd21  1  0.500000  0.750674  0.533275  1
  Rh  Rh22  1  0.000000  0.230277  0.966364  1
  Rh  Rh23  1  0.000000  0.248617  0.465216  1
  Rh  Rh24  1  0.000000  0.018411  0.715487  1
  Rh  Rh25  1  0.000000  0.482801  0.212731  1
  Rh  Rh26  1  0.500000  0.984996  0.289094  1
  Rh  Rh27  1  0.500000  0.520693  0.775346  1
