# generated using pymatgen
data_SmY4FeCoB6
_symmetry_space_group_name_H-M   'P 1'
_cell_length_a   5.44942034
_cell_length_b   5.44941981
_cell_length_c   8.35279373
_cell_angle_alpha   70.96148927
_cell_angle_beta   70.96148860
_cell_angle_gamma   59.99998962
_symmetry_Int_Tables_number   1
_chemical_formula_structural   SmY4FeCoB6
_chemical_formula_sum   'Sm1 Y4 Fe1 Co1 B6'
_cell_volume   198.99278970
_cell_formula_units_Z   1
loop_
 _symmetry_equiv_pos_site_id
 _symmetry_equiv_pos_as_xyz
  1  'x, y, z'
loop_
 _atom_site_type_symbol
 _atom_site_label
 _atom_site_symmetry_multiplicity
 _atom_site_fract_x
 _atom_site_fract_y
 _atom_site_fract_z
 _atom_site_occupancy
  Sm  Sm0  1  0.001027  0.001027  0.996919  1
  Y  Y1  1  0.250996  0.250996  0.247013  1
  Y  Y2  1  0.748947  0.748947  0.753160  1
  Y  Y3  1  0.416810  0.416810  0.749571  1
  Y  Y4  1  0.583265  0.583265  0.250204  1
  Fe  Fe5  1  0.119271  0.119271  0.642186  1
  Co  Co6  1  0.880545  0.880545  0.358366  1
  B  B7  1  0.168337  0.831975  0.500430  1
  B  B8  1  0.831975  0.499258  0.500430  1
  B  B9  1  0.499258  0.168337  0.500430  1
  B  B10  1  0.168337  0.499258  0.500430  1
  B  B11  1  0.499258  0.831975  0.500430  1
  B  B12  1  0.831975  0.168337  0.500430  1
