# generated using pymatgen
data_HoLu11Tc4
_symmetry_space_group_name_H-M   'P 1'
_cell_length_a   6.11831110
_cell_length_b   7.38967550
_cell_length_c   8.89630100
_cell_angle_alpha   90.00000000
_cell_angle_beta   90.00000000
_cell_angle_gamma   90.11992999
_symmetry_Int_Tables_number   1
_chemical_formula_structural   HoLu11Tc4
_chemical_formula_sum   'Ho1 Lu11 Tc4'
_cell_volume   402.22164795
_cell_formula_units_Z   1
loop_
 _symmetry_equiv_pos_site_id
 _symmetry_equiv_pos_as_xyz
  1  'x, y, z'
loop_
 _atom_site_type_symbol
 _atom_site_label
 _atom_site_symmetry_multiplicity
 _atom_site_fract_x
 _atom_site_fract_y
 _atom_site_fract_z
 _atom_site_occupancy
  Ho  Ho0  1  0.375501  0.960390  0.750000  1
  Lu  Lu1  1  0.346343  0.673112  0.062543  1
  Lu  Lu2  1  0.153035  0.175812  0.437199  1
  Lu  Lu3  1  0.654378  0.325608  0.561737  1
  Lu  Lu4  1  0.847362  0.825253  0.938395  1
  Lu  Lu5  1  0.654378  0.325608  0.938263  1
  Lu  Lu6  1  0.847362  0.825253  0.561605  1
  Lu  Lu7  1  0.346343  0.673112  0.437457  1
  Lu  Lu8  1  0.153035  0.175812  0.062801  1
  Lu  Lu9  1  0.872788  0.541544  0.250000  1
  Lu  Lu10  1  0.624999  0.038984  0.250000  1
  Lu  Lu11  1  0.125942  0.459695  0.750000  1
  Tc  Tc12  1  0.043816  0.882692  0.250000  1
  Tc  Tc13  1  0.457483  0.381766  0.250000  1
  Tc  Tc14  1  0.954095  0.118306  0.750000  1
  Tc  Tc15  1  0.543138  0.617052  0.750000  1
