# generated using pymatgen
data_La3Cu4B2Pt9
_symmetry_space_group_name_H-M   'P 1'
_cell_length_a   5.52234202
_cell_length_b   5.52128490
_cell_length_c   11.47021900
_cell_angle_alpha   89.99860704
_cell_angle_beta   90.00188068
_cell_angle_gamma   120.00040487
_symmetry_Int_Tables_number   1
_chemical_formula_structural   La3Cu4B2Pt9
_chemical_formula_sum   'La3 Cu4 B2 Pt9'
_cell_volume   302.87541888
_cell_formula_units_Z   1
loop_
 _symmetry_equiv_pos_site_id
 _symmetry_equiv_pos_as_xyz
  1  'x, y, z'
loop_
 _atom_site_type_symbol
 _atom_site_label
 _atom_site_symmetry_multiplicity
 _atom_site_fract_x
 _atom_site_fract_y
 _atom_site_fract_z
 _atom_site_occupancy
  La  La0  1  0.000048  0.000046  0.000018  1
  La  La1  1  0.999992  0.999998  0.334611  1
  La  La2  1  0.999995  0.999967  0.665422  1
  Cu  Cu3  1  0.333292  0.666578  0.319443  1
  Cu  Cu4  1  0.666695  0.333429  0.319446  1
  Cu  Cu5  1  0.666689  0.333390  0.680549  1
  Cu  Cu6  1  0.333307  0.666626  0.680552  1
  B  B7  1  0.333310  0.666649  0.999988  1
  B  B8  1  0.666670  0.333349  0.999992  1
  Pt  Pt9  1  0.499999  0.999999  0.499997  1
  Pt  Pt10  1  0.499962  0.499970  0.500003  1
  Pt  Pt11  1  0.999988  0.500015  0.499997  1
  Pt  Pt12  1  0.500020  0.000000  0.133888  1
  Pt  Pt13  1  0.500020  0.500015  0.133873  1
  Pt  Pt14  1  0.000011  0.499977  0.133839  1
  Pt  Pt15  1  0.499956  0.999994  0.866132  1
  Pt  Pt16  1  0.499980  0.500012  0.866111  1
  Pt  Pt17  1  0.999966  0.499985  0.866136  1
