# generated using pymatgen
data_La2Tb7(SbO)5
_symmetry_space_group_name_H-M   'P 1'
_cell_length_a   10.01890026
_cell_length_b   10.02396035
_cell_length_c   9.05577613
_cell_angle_alpha   89.86768334
_cell_angle_beta   89.99543491
_cell_angle_gamma   89.92088689
_symmetry_Int_Tables_number   1
_chemical_formula_structural   La2Tb7(SbO)5
_chemical_formula_sum   'La4 Tb14 Sb10 O10'
_cell_volume   909.45978096
_cell_formula_units_Z   2
loop_
 _symmetry_equiv_pos_site_id
 _symmetry_equiv_pos_as_xyz
  1  'x, y, z'
loop_
 _atom_site_type_symbol
 _atom_site_label
 _atom_site_symmetry_multiplicity
 _atom_site_fract_x
 _atom_site_fract_y
 _atom_site_fract_z
 _atom_site_occupancy
  La  La0  1  0.204831  0.895140  0.345258  1
  La  La1  1  0.501439  0.998754  0.668101  1
  La  La2  1  0.295169  0.604860  0.654742  1
  La  La3  1  0.998561  0.501246  0.331899  1
  Tb  Tb4  1  0.704241  0.393655  0.662976  1
  Tb  Tb5  1  0.725661  0.917249  0.004865  1
  Tb  Tb6  1  0.394741  0.292472  0.337551  1
  Tb  Tb7  1  0.105259  0.207528  0.662449  1
  Tb  Tb8  1  0.604679  0.705027  0.336867  1
  Tb  Tb9  1  0.895321  0.794973  0.663133  1
  Tb  Tb10  1  0.274586  0.082914  0.000975  1
  Tb  Tb11  1  0.774339  0.582751  0.995135  1
  Tb  Tb12  1  0.225414  0.417086  0.999025  1
  Tb  Tb13  1  0.795759  0.106345  0.337024  1
  Tb  Tb14  1  0.582774  0.224895  0.004435  1
  Tb  Tb15  1  0.917226  0.275105  0.995565  1
  Tb  Tb16  1  0.082912  0.726237  0.996296  1
  Tb  Tb17  1  0.417088  0.773763  0.003704  1
  Sb  Sb18  1  0.602487  0.691288  0.697576  1
  Sb  Sb19  1  0.897513  0.808712  0.302424  1
  Sb  Sb20  1  0.690078  0.402306  0.303035  1
  Sb  Sb21  1  0.994208  0.498754  0.691840  1
  Sb  Sb22  1  0.189125  0.907990  0.707892  1
  Sb  Sb23  1  0.809922  0.097694  0.696965  1
  Sb  Sb24  1  0.310875  0.592010  0.292108  1
  Sb  Sb25  1  0.403655  0.303380  0.699103  1
  Sb  Sb26  1  0.096345  0.196620  0.300897  1
  Sb  Sb27  1  0.505792  0.001246  0.308160  1
  O  O28  1  0.226030  0.879497  0.081315  1
  O  O29  1  0.723494  0.378849  0.914475  1
  O  O30  1  0.502223  0.999680  0.939782  1
  O  O31  1  0.621021  0.724543  0.084960  1
  O  O32  1  0.997777  0.500320  0.060218  1
  O  O33  1  0.878979  0.775457  0.915040  1
  O  O34  1  0.120612  0.226075  0.914454  1
  O  O35  1  0.379388  0.273925  0.085546  1
  O  O36  1  0.776506  0.121151  0.085525  1
  O  O37  1  0.273970  0.620503  0.918685  1
