# generated using pymatgen
data_Nd3GdCu4
_symmetry_space_group_name_H-M   'P 1'
_cell_length_a   4.55639700
_cell_length_b   5.58495400
_cell_length_c   7.40532700
_cell_angle_alpha   90.00000000
_cell_angle_beta   90.00000000
_cell_angle_gamma   90.00000000
_symmetry_Int_Tables_number   1
_chemical_formula_structural   Nd3GdCu4
_chemical_formula_sum   'Nd3 Gd1 Cu4'
_cell_volume   188.44533821
_cell_formula_units_Z   1
loop_
 _symmetry_equiv_pos_site_id
 _symmetry_equiv_pos_as_xyz
  1  'x, y, z'
loop_
 _atom_site_type_symbol
 _atom_site_label
 _atom_site_symmetry_multiplicity
 _atom_site_fract_x
 _atom_site_fract_y
 _atom_site_fract_z
 _atom_site_occupancy
  Nd  Nd0  1  0.750000  0.625289  0.320190  1
  Nd  Nd1  1  0.750000  0.874711  0.820190  1
  Nd  Nd2  1  0.250000  0.125289  0.179810  1
  Gd  Gd3  1  0.250000  0.374711  0.679810  1
  Cu  Cu4  1  0.250000  0.882343  0.533206  1
  Cu  Cu5  1  0.750000  0.117657  0.466794  1
  Cu  Cu6  1  0.750000  0.382343  0.966794  1
  Cu  Cu7  1  0.250000  0.617657  0.033206  1
