# generated using pymatgen
data_Tb7Yb(LuIr3)2
_symmetry_space_group_name_H-M   'P 1'
_cell_length_a   10.88016943
_cell_length_b   10.89964400
_cell_length_c   6.36031656
_cell_angle_alpha   90.00000000
_cell_angle_beta   90.19893282
_cell_angle_gamma   90.00000000
_symmetry_Int_Tables_number   1
_chemical_formula_structural   Tb7Yb(LuIr3)2
_chemical_formula_sum   'Tb14 Yb2 Lu4 Ir12'
_cell_volume   754.26522605
_cell_formula_units_Z   2
loop_
 _symmetry_equiv_pos_site_id
 _symmetry_equiv_pos_as_xyz
  1  'x, y, z'
loop_
 _atom_site_type_symbol
 _atom_site_label
 _atom_site_symmetry_multiplicity
 _atom_site_fract_x
 _atom_site_fract_y
 _atom_site_fract_z
 _atom_site_occupancy
  Tb  Tb0  1  0.708987  0.086517  0.879177  1
  Tb  Tb1  1  0.708987  0.913483  0.379177  1
  Tb  Tb2  1  0.586354  0.791363  0.878324  1
  Tb  Tb3  1  0.586354  0.208637  0.378324  1
  Tb  Tb4  1  0.411948  0.791758  0.378929  1
  Tb  Tb5  1  0.411948  0.208242  0.878929  1
  Tb  Tb6  1  0.210474  0.412795  0.621687  1
  Tb  Tb7  1  0.210474  0.587205  0.121687  1
  Tb  Tb8  1  0.789925  0.412523  0.120566  1
  Tb  Tb9  1  0.789925  0.587477  0.620566  1
  Tb  Tb10  1  0.912689  0.710648  0.122281  1
  Tb  Tb11  1  0.912689  0.289352  0.622281  1
  Tb  Tb12  1  0.088150  0.710899  0.620144  1
  Tb  Tb13  1  0.088150  0.289101  0.120144  1
  Yb  Yb14  1  0.289399  0.087213  0.376927  1
  Yb  Yb15  1  0.289399  0.912787  0.876927  1
  Lu  Lu16  1  0.000945  0.999746  0.498913  1
  Lu  Lu17  1  0.000945  0.000254  0.998913  1
  Lu  Lu18  1  0.499625  0.499791  0.999796  1
  Lu  Lu19  1  0.499625  0.500209  0.499796  1
  Ir  Ir20  1  0.850753  0.150705  0.250224  1
  Ir  Ir21  1  0.850753  0.849295  0.750224  1
  Ir  Ir22  1  0.147417  0.153827  0.752770  1
  Ir  Ir23  1  0.147417  0.846173  0.252770  1
  Ir  Ir24  1  0.649746  0.349298  0.750114  1
  Ir  Ir25  1  0.649746  0.650702  0.250114  1
  Ir  Ir26  1  0.350239  0.352074  0.248451  1
  Ir  Ir27  1  0.350239  0.647926  0.748451  1
  Ir  Ir28  1  0.502955  0.000457  0.122772  1
  Ir  Ir29  1  0.502955  0.999543  0.622772  1
  Ir  Ir30  1  0.000393  0.500227  0.878926  1
  Ir  Ir31  1  0.000393  0.499773  0.378926  1
