# generated using pymatgen
data_Er2HfZr(Al3Rh)6
_symmetry_space_group_name_H-M   'P 1'
_cell_length_a   7.51026962
_cell_length_b   7.48979316
_cell_length_c   9.32946200
_cell_angle_alpha   90.00000000
_cell_angle_beta   90.00000000
_cell_angle_gamma   119.65734727
_symmetry_Int_Tables_number   1
_chemical_formula_structural   Er2HfZr(Al3Rh)6
_chemical_formula_sum   'Er2 Hf1 Zr1 Al18 Rh6'
_cell_volume   456.03878883
_cell_formula_units_Z   1
loop_
 _symmetry_equiv_pos_site_id
 _symmetry_equiv_pos_as_xyz
  1  'x, y, z'
loop_
 _atom_site_type_symbol
 _atom_site_label
 _atom_site_symmetry_multiplicity
 _atom_site_fract_x
 _atom_site_fract_y
 _atom_site_fract_z
 _atom_site_occupancy
  Er  Er0  1  0.671079  0.993366  0.750000  1
  Er  Er1  1  0.328853  0.006728  0.250000  1
  Hf  Hf2  1  0.004820  0.327350  0.250000  1
  Zr  Zr3  1  0.994720  0.671509  0.750000  1
  Al  Al4  1  0.125364  0.124191  0.750000  1
  Al  Al5  1  0.874287  0.875771  0.250000  1
  Al  Al6  1  0.999064  0.337318  0.575670  1
  Al  Al7  1  0.001026  0.662447  0.424259  1
  Al  Al8  1  0.001026  0.662447  0.075741  1
  Al  Al9  1  0.332775  0.997990  0.921200  1
  Al  Al10  1  0.999064  0.337318  0.924330  1
  Al  Al11  1  0.667517  0.002249  0.079060  1
  Al  Al12  1  0.667517  0.002249  0.420940  1
  Al  Al13  1  0.332775  0.997990  0.578800  1
  Al  Al14  1  0.330686  0.333412  0.055961  1
  Al  Al15  1  0.669098  0.666679  0.944508  1
  Al  Al16  1  0.669098  0.666679  0.555492  1
  Al  Al17  1  0.330686  0.333412  0.444039  1
  Al  Al18  1  0.334706  0.549228  0.750000  1
  Al  Al19  1  0.665472  0.450961  0.250000  1
  Al  Al20  1  0.556284  0.343665  0.750000  1
  Al  Al21  1  0.443361  0.655895  0.250000  1
  Rh  Rh22  1  0.672671  0.327052  0.498551  1
  Rh  Rh23  1  0.327457  0.672442  0.500183  1
  Rh  Rh24  1  0.327457  0.672442  0.999817  1
  Rh  Rh25  1  0.672671  0.327052  0.001449  1
  Rh  Rh26  1  0.000233  0.001079  0.499100  1
  Rh  Rh27  1  0.000233  0.001079  0.000900  1
