# generated using pymatgen
data_Tb7YTi3Si16Mo9
_symmetry_space_group_name_H-M   'P 1'
_cell_length_a   6.93363137
_cell_length_b   6.93343197
_cell_length_c   12.85245705
_cell_angle_alpha   89.97907669
_cell_angle_beta   90.02920326
_cell_angle_gamma   89.82190535
_symmetry_Int_Tables_number   1
_chemical_formula_structural   Tb7YTi3Si16Mo9
_chemical_formula_sum   'Tb7 Y1 Ti3 Si16 Mo9'
_cell_volume   617.86413196
_cell_formula_units_Z   1
loop_
 _symmetry_equiv_pos_site_id
 _symmetry_equiv_pos_as_xyz
  1  'x, y, z'
loop_
 _atom_site_type_symbol
 _atom_site_label
 _atom_site_symmetry_multiplicity
 _atom_site_fract_x
 _atom_site_fract_y
 _atom_site_fract_z
 _atom_site_occupancy
  Tb  Tb0  1  0.495834  0.838906  0.718993  1
  Tb  Tb1  1  0.499999  0.161560  0.217221  1
  Tb  Tb2  1  0.838827  0.495835  0.280927  1
  Tb  Tb3  1  0.161581  0.500045  0.782776  1
  Tb  Tb4  1  0.659655  0.998701  0.968676  1
  Tb  Tb5  1  0.002526  0.339622  0.531500  1
  Tb  Tb6  1  0.998694  0.659624  0.031307  1
  Y  Y7  1  0.339759  0.002194  0.468486  1
  Ti  Ti8  1  0.171396  0.830984  0.248418  1
  Ti  Ti9  1  0.831015  0.171466  0.751652  1
  Ti  Ti10  1  0.669618  0.669321  0.500020  1
  Si  Si11  1  0.199494  0.128436  0.684415  1
  Si  Si12  1  0.374709  0.695834  0.935165  1
  Si  Si13  1  0.627865  0.299876  0.434609  1
  Si  Si14  1  0.695859  0.374729  0.064821  1
  Si  Si15  1  0.299955  0.628424  0.565360  1
  Si  Si16  1  0.797515  0.872594  0.185083  1
  Si  Si17  1  0.128643  0.199225  0.315580  1
  Si  Si18  1  0.872572  0.797483  0.814900  1
  Si  Si19  1  0.286686  0.964025  0.061330  1
  Si  Si20  1  0.540435  0.790203  0.313820  1
  Si  Si21  1  0.457863  0.211700  0.814912  1
  Si  Si22  1  0.790180  0.540447  0.686273  1
  Si  Si23  1  0.211693  0.457781  0.185089  1
  Si  Si24  1  0.710937  0.041649  0.563776  1
  Si  Si25  1  0.964034  0.286672  0.938653  1
  Si  Si26  1  0.041780  0.711515  0.436161  1
  Mo  Mo27  1  0.331384  0.331264  0.000027  1
  Mo  Mo28  1  0.156105  0.001925  0.872976  1
  Mo  Mo29  1  0.494526  0.666834  0.125808  1
  Mo  Mo30  1  0.506487  0.340351  0.624955  1
  Mo  Mo31  1  0.666744  0.494558  0.874289  1
  Mo  Mo32  1  0.340510  0.506715  0.374991  1
  Mo  Mo33  1  0.840221  0.993107  0.374661  1
  Mo  Mo34  1  0.001918  0.156166  0.127042  1
  Mo  Mo35  1  0.992981  0.840229  0.625331  1
