# generated using pymatgen
data_Ho12Ni4PdPb
_symmetry_space_group_name_H-M   'P 1'
_cell_length_a   8.32599475
_cell_length_b   8.32591227
_cell_length_c   8.32599410
_cell_angle_alpha   111.74330215
_cell_angle_beta   109.67512504
_cell_angle_gamma   107.02994023
_symmetry_Int_Tables_number   1
_chemical_formula_structural   Ho12Ni4PdPb
_chemical_formula_sum   'Ho12 Ni4 Pd1 Pb1'
_cell_volume   443.55062463
_cell_formula_units_Z   1
loop_
 _symmetry_equiv_pos_site_id
 _symmetry_equiv_pos_as_xyz
  1  'x, y, z'
loop_
 _atom_site_type_symbol
 _atom_site_label
 _atom_site_symmetry_multiplicity
 _atom_site_fract_x
 _atom_site_fract_y
 _atom_site_fract_z
 _atom_site_occupancy
  Ho  Ho0  1  0.409838  0.214135  0.195704  1
  Ho  Ho1  1  0.590162  0.785865  0.804296  1
  Ho  Ho2  1  0.018431  0.214135  0.804298  1
  Ho  Ho3  1  0.981569  0.785865  0.195702  1
  Ho  Ho4  1  0.181929  0.295732  0.477661  1
  Ho  Ho5  1  0.818071  0.704268  0.522339  1
  Ho  Ho6  1  0.181930  0.704268  0.886197  1
  Ho  Ho7  1  0.818070  0.295732  0.113803  1
  Ho  Ho8  1  0.321204  0.628224  0.307020  1
  Ho  Ho9  1  0.678796  0.371776  0.692980  1
  Ho  Ho10  1  0.321204  0.014180  0.692977  1
  Ho  Ho11  1  0.678796  0.985820  0.307023  1
  Ni  Ni12  1  0.364178  0.000000  0.364178  1
  Ni  Ni13  1  0.635822  0.000000  0.635822  1
  Ni  Ni14  1  0.125070  0.625084  0.500014  1
  Ni  Ni15  1  0.874930  0.374916  0.499986  1
  Pd  Pd16  1  0.000000  0.000000  0.000000  1
  Pb  Pb17  1  0.500000  0.500000  0.000000  1
