# generated using pymatgen
data_V19Si12W
_symmetry_space_group_name_H-M   'P 1'
_cell_length_a   7.06881596
_cell_length_b   7.06903576
_cell_length_c   13.31979496
_cell_angle_alpha   89.94576029
_cell_angle_beta   90.05378682
_cell_angle_gamma   140.79581971
_symmetry_Int_Tables_number   1
_chemical_formula_structural   V19Si12W
_chemical_formula_sum   'V19 Si12 W1'
_cell_volume   420.70748330
_cell_formula_units_Z   1
loop_
 _symmetry_equiv_pos_site_id
 _symmetry_equiv_pos_as_xyz
  1  'x, y, z'
loop_
 _atom_site_type_symbol
 _atom_site_label
 _atom_site_symmetry_multiplicity
 _atom_site_fract_x
 _atom_site_fract_y
 _atom_site_fract_z
 _atom_site_occupancy
  V  V0  1  0.499424  0.499664  0.999925  1
  V  V1  1  0.500088  0.500044  0.500147  1
  V  V2  1  0.001424  0.001696  0.999862  1
  V  V3  1  0.576045  0.925200  0.899931  1
  V  V4  1  0.423543  0.074648  0.601212  1
  V  V5  1  0.925088  0.575904  0.099112  1
  V  V6  1  0.850169  0.650184  0.675956  1
  V  V7  1  0.349605  0.150722  0.173611  1
  V  V8  1  0.649954  0.849667  0.324645  1
  V  V9  1  0.150030  0.349991  0.825215  1
  V  V10  1  0.649946  0.850296  0.675705  1
  V  V11  1  0.150657  0.349634  0.173894  1
  V  V12  1  0.850356  0.649560  0.325487  1
  V  V13  1  0.350010  0.150135  0.825134  1
  V  V14  1  0.424837  0.073460  0.399825  1
  V  V15  1  0.925057  0.576099  0.899949  1
  V  V16  1  0.074522  0.424359  0.602131  1
  V  V17  1  0.576419  0.924605  0.099546  1
  V  V18  1  0.999013  0.998675  0.500224  1
  Si  Si19  1  0.250098  0.750233  0.750930  1
  Si  Si20  1  0.747439  0.249471  0.247088  1
  Si  Si21  1  0.749609  0.250099  0.750893  1
  Si  Si22  1  0.250570  0.752432  0.247057  1
  Si  Si23  1  0.250086  0.250357  0.666144  1
  Si  Si24  1  0.750821  0.750042  0.165679  1
  Si  Si25  1  0.252939  0.246881  0.333263  1
  Si  Si26  1  0.750201  0.750338  0.834587  1
  Si  Si27  1  0.582952  0.915555  0.501691  1
  Si  Si28  1  0.084646  0.416926  0.999603  1
  Si  Si29  1  0.913153  0.583671  0.502338  1
  Si  Si30  1  0.416986  0.084651  0.999563  1
  W  W31  1  0.074312  0.424802  0.399652  1
