# generated using pymatgen
data_Ti6Re5Si6Ir
_symmetry_space_group_name_H-M   'P 1'
_cell_length_a   7.55134715
_cell_length_b   7.55408062
_cell_length_c   7.55125139
_cell_angle_alpha   126.26360030
_cell_angle_beta   129.24866583
_cell_angle_gamma   77.03841210
_symmetry_Int_Tables_number   1
_chemical_formula_structural   Ti6Re5Si6Ir
_chemical_formula_sum   'Ti6 Re5 Si6 Ir1'
_cell_volume   261.09403075
_cell_formula_units_Z   1
loop_
 _symmetry_equiv_pos_site_id
 _symmetry_equiv_pos_as_xyz
  1  'x, y, z'
loop_
 _atom_site_type_symbol
 _atom_site_label
 _atom_site_symmetry_multiplicity
 _atom_site_fract_x
 _atom_site_fract_y
 _atom_site_fract_z
 _atom_site_occupancy
  Ti  Ti0  1  0.550887  0.085985  0.038673  1
  Ti  Ti1  1  0.449295  0.497162  0.554743  1
  Ti  Ti2  1  0.942639  0.496663  0.047173  1
  Ti  Ti3  1  0.047297  0.085965  0.535416  1
  Ti  Ti4  1  0.758063  0.906947  0.655508  1
  Ti  Ti5  1  0.251444  0.906881  0.148796  1
  Re  Re6  1  0.498849  0.235151  0.736040  1
  Re  Re7  1  0.001083  0.236530  0.235571  1
  Re  Re8  1  0.131188  0.758775  0.627520  1
  Re  Re9  1  0.868169  0.497227  0.628965  1
  Re  Re10  1  0.630175  0.756918  0.126719  1
  Si  Si11  1  0.748740  0.496622  0.249138  1
  Si  Si12  1  0.247299  0.496664  0.747979  1
  Si  Si13  1  0.333878  0.825671  0.491689  1
  Si  Si14  1  0.667763  0.165342  0.497251  1
  Si  Si15  1  0.834372  0.828062  0.993849  1
  Si  Si16  1  0.170113  0.168752  0.998965  1
  Ir  Ir17  1  0.368745  0.496685  0.128006  1
