# generated using pymatgen
data_Pr4Pd3Au
_symmetry_space_group_name_H-M   'P 1'
_cell_length_a   4.78123900
_cell_length_b   5.80293924
_cell_length_c   7.41966091
_cell_angle_alpha   89.37434632
_cell_angle_beta   90.00000000
_cell_angle_gamma   90.00000000
_symmetry_Int_Tables_number   1
_chemical_formula_structural   Pr4Pd3Au
_chemical_formula_sum   'Pr4 Pd3 Au1'
_cell_volume   205.84799509
_cell_formula_units_Z   1
loop_
 _symmetry_equiv_pos_site_id
 _symmetry_equiv_pos_as_xyz
  1  'x, y, z'
loop_
 _atom_site_type_symbol
 _atom_site_label
 _atom_site_symmetry_multiplicity
 _atom_site_fract_x
 _atom_site_fract_y
 _atom_site_fract_z
 _atom_site_occupancy
  Pr  Pr0  1  0.250000  0.357018  0.679931  1
  Pr  Pr1  1  0.250000  0.139333  0.189724  1
  Pr  Pr2  1  0.750000  0.645020  0.317835  1
  Pr  Pr3  1  0.750000  0.855820  0.812134  1
  Pd  Pd4  1  0.250000  0.850487  0.541059  1
  Pd  Pd5  1  0.250000  0.650090  0.040757  1
  Pd  Pd6  1  0.750000  0.149753  0.458848  1
  Au  Au7  1  0.750000  0.352479  0.959714  1
