# generated using pymatgen
data_Ta6Cr5Si6Tc
_symmetry_space_group_name_H-M   'P 1'
_cell_length_a   7.43517091
_cell_length_b   7.43507148
_cell_length_c   7.43507111
_cell_angle_alpha   126.59437007
_cell_angle_beta   127.06371548
_cell_angle_gamma   78.53002912
_symmetry_Int_Tables_number   1
_chemical_formula_structural   Ta6Cr5Si6Tc
_chemical_formula_sum   'Ta6 Cr5 Si6 Tc1'
_cell_volume   254.93496595
_cell_formula_units_Z   1
loop_
 _symmetry_equiv_pos_site_id
 _symmetry_equiv_pos_as_xyz
  1  'x, y, z'
loop_
 _atom_site_type_symbol
 _atom_site_label
 _atom_site_symmetry_multiplicity
 _atom_site_fract_x
 _atom_site_fract_y
 _atom_site_fract_z
 _atom_site_occupancy
  Ta  Ta0  1  0.545017  0.091493  0.044148  1
  Ta  Ta1  1  0.454983  0.499131  0.546477  1
  Ta  Ta2  1  0.952879  0.499081  0.043923  1
  Ta  Ta3  1  0.047121  0.091044  0.546202  1
  Ta  Ta4  1  0.748051  0.895864  0.643784  1
  Ta  Ta5  1  0.251949  0.895732  0.147814  1
  Cr  Cr6  1  0.127220  0.751301  0.624515  1
  Cr  Cr7  1  0.872780  0.497295  0.624081  1
  Cr  Cr8  1  0.627860  0.753003  0.124719  1
  Cr  Cr9  1  0.372140  0.496859  0.125144  1
  Cr  Cr10  1  0.500000  0.241630  0.741630  1
  Si  Si11  1  0.333588  0.831369  0.498008  1
  Si  Si12  1  0.666412  0.164419  0.497781  1
  Si  Si13  1  0.832979  0.828942  0.995755  1
  Si  Si14  1  0.167021  0.162775  0.995963  1
  Si  Si15  1  0.745506  0.499462  0.244666  1
  Si  Si16  1  0.254494  0.499160  0.753957  1
  Tc  Tc17  1  0.000000  0.243437  0.243437  1
