# generated using pymatgen
data_Tb4Al18IrPd4Rh
_symmetry_space_group_name_H-M   'P 1'
_cell_length_a   7.62007619
_cell_length_b   7.62007597
_cell_length_c   9.47278616
_cell_angle_alpha   90.01042784
_cell_angle_beta   90.01042631
_cell_angle_gamma   119.59825220
_symmetry_Int_Tables_number   1
_chemical_formula_structural   Tb4Al18IrPd4Rh
_chemical_formula_sum   'Tb4 Al18 Ir1 Pd4 Rh1'
_cell_volume   478.26753239
_cell_formula_units_Z   1
loop_
 _symmetry_equiv_pos_site_id
 _symmetry_equiv_pos_as_xyz
  1  'x, y, z'
loop_
 _atom_site_type_symbol
 _atom_site_label
 _atom_site_symmetry_multiplicity
 _atom_site_fract_x
 _atom_site_fract_y
 _atom_site_fract_z
 _atom_site_occupancy
  Tb  Tb0  1  0.994141  0.668663  0.250136  1
  Tb  Tb1  1  0.005859  0.331337  0.749864  1
  Tb  Tb2  1  0.668663  0.994141  0.250136  1
  Tb  Tb3  1  0.331337  0.005859  0.749864  1
  Al  Al4  1  0.128006  0.128006  0.249539  1
  Al  Al5  1  0.871994  0.871994  0.750461  1
  Al  Al6  1  0.000174  0.331192  0.075980  1
  Al  Al7  1  0.999826  0.668808  0.924020  1
  Al  Al8  1  0.999919  0.668587  0.575936  1
  Al  Al9  1  0.331413  0.000081  0.424064  1
  Al  Al10  1  0.000081  0.331413  0.424064  1
  Al  Al11  1  0.668587  0.999919  0.575936  1
  Al  Al12  1  0.668808  0.999826  0.924020  1
  Al  Al13  1  0.331192  0.000174  0.075980  1
  Al  Al14  1  0.330753  0.330753  0.555355  1
  Al  Al15  1  0.669247  0.669247  0.444645  1
  Al  Al16  1  0.669495  0.669495  0.055344  1
  Al  Al17  1  0.330505  0.330505  0.944656  1
  Al  Al18  1  0.340804  0.547518  0.249989  1
  Al  Al19  1  0.659196  0.452482  0.750011  1
  Al  Al20  1  0.547518  0.340804  0.249989  1
  Al  Al21  1  0.452482  0.659196  0.750011  1
  Ir  Ir22  1  0.000000  0.000000  0.500000  1
  Pd  Pd23  1  0.672331  0.327669  0.000000  1
  Pd  Pd24  1  0.327669  0.672331  0.000000  1
  Pd  Pd25  1  0.327758  0.672242  0.500000  1
  Pd  Pd26  1  0.672242  0.327758  0.500000  1
  Rh  Rh27  1  0.000000  0.000000  0.000000  1
