# generated using pymatgen
data_Tb3Al12Ru3Pt
_symmetry_space_group_name_H-M   'P 1'
_cell_length_a   8.85484676
_cell_length_b   8.81324023
_cell_length_c   9.57797323
_cell_angle_alpha   90.00000207
_cell_angle_beta   90.08147615
_cell_angle_gamma   119.84469080
_symmetry_Int_Tables_number   1
_chemical_formula_structural   Tb3Al12Ru3Pt
_chemical_formula_sum   'Tb6 Al24 Ru6 Pt2'
_cell_volume   648.33261539
_cell_formula_units_Z   2
loop_
 _symmetry_equiv_pos_site_id
 _symmetry_equiv_pos_as_xyz
  1  'x, y, z'
loop_
 _atom_site_type_symbol
 _atom_site_label
 _atom_site_symmetry_multiplicity
 _atom_site_fract_x
 _atom_site_fract_y
 _atom_site_fract_z
 _atom_site_occupancy
  Tb  Tb0  1  0.384093  0.192046  0.248740  1
  Tb  Tb1  1  0.808870  0.194477  0.248161  1
  Tb  Tb2  1  0.808870  0.614392  0.248161  1
  Tb  Tb3  1  0.615907  0.807954  0.751260  1
  Tb  Tb4  1  0.191130  0.805523  0.751839  1
  Tb  Tb5  1  0.191130  0.385608  0.751839  1
  Al  Al6  1  0.437762  0.874970  0.247191  1
  Al  Al7  1  0.122226  0.561113  0.250851  1
  Al  Al8  1  0.437762  0.562792  0.247191  1
  Al  Al9  1  0.562238  0.125030  0.752809  1
  Al  Al10  1  0.877774  0.438887  0.749149  1
  Al  Al11  1  0.562238  0.437208  0.752809  1
  Al  Al12  1  0.157675  0.833029  0.421169  1
  Al  Al13  1  0.157675  0.324647  0.421169  1
  Al  Al14  1  0.677427  0.838714  0.420954  1
  Al  Al15  1  0.842325  0.166971  0.578831  1
  Al  Al16  1  0.842325  0.675353  0.578831  1
  Al  Al17  1  0.322573  0.161286  0.579046  1
  Al  Al18  1  0.836417  0.163217  0.923438  1
  Al  Al19  1  0.836417  0.673199  0.923438  1
  Al  Al20  1  0.326350  0.163174  0.924435  1
  Al  Al21  1  0.163583  0.836783  0.076562  1
  Al  Al22  1  0.163583  0.326801  0.076562  1
  Al  Al23  1  0.673650  0.836826  0.075565  1
  Al  Al24  1  0.327126  0.663564  0.522389  1
  Al  Al25  1  0.672874  0.336436  0.477611  1
  Al  Al26  1  0.666868  0.333433  0.021633  1
  Al  Al27  1  0.333132  0.666567  0.978367  1
  Al  Al28  1  0.002069  0.001034  0.249605  1
  Al  Al29  1  0.997931  0.998966  0.750395  1
  Ru  Ru30  1  0.000000  0.000000  0.500000  1
  Ru  Ru31  1  0.000000  0.000000  0.000000  1
  Ru  Ru32  1  0.000000  0.500000  0.500000  1
  Ru  Ru33  1  0.500000  0.000000  0.000000  1
  Ru  Ru34  1  0.000000  0.500000  0.000000  1
  Ru  Ru35  1  0.500000  0.500000  0.000000  1
  Pt  Pt36  1  0.500000  0.000000  0.500000  1
  Pt  Pt37  1  0.500000  0.500000  0.500000  1
