# generated using pymatgen
data_Pr2MnSi5PPd20
_symmetry_space_group_name_H-M   'P 1'
_cell_length_a   8.71510670
_cell_length_b   8.72149286
_cell_length_c   8.72149534
_cell_angle_alpha   59.95155227
_cell_angle_beta   60.02422370
_cell_angle_gamma   60.02422274
_symmetry_Int_Tables_number   1
_chemical_formula_structural   Pr2MnSi5PPd20
_chemical_formula_sum   'Pr2 Mn1 Si5 P1 Pd20'
_cell_volume   468.74756350
_cell_formula_units_Z   1
loop_
 _symmetry_equiv_pos_site_id
 _symmetry_equiv_pos_as_xyz
  1  'x, y, z'
loop_
 _atom_site_type_symbol
 _atom_site_label
 _atom_site_symmetry_multiplicity
 _atom_site_fract_x
 _atom_site_fract_y
 _atom_site_fract_z
 _atom_site_occupancy
  Pr  Pr0  1  0.249682  0.250318  0.250318  1
  Pr  Pr1  1  0.749682  0.750318  0.750318  1
  Mn  Mn2  1  0.000627  0.999373  0.999373  1
  Si  Si3  1  0.265249  0.734751  0.734751  1
  Si  Si4  1  0.264488  0.735512  0.265428  1
  Si  Si5  1  0.734572  0.265428  0.735512  1
  Si  Si6  1  0.264488  0.265428  0.735512  1
  Si  Si7  1  0.734572  0.735512  0.265428  1
  P  P8  1  0.735378  0.264622  0.264622  1
  Pd  Pd9  1  0.386844  0.385296  0.385296  1
  Pd  Pd10  1  0.614639  0.614430  0.614430  1
  Pd  Pd11  1  0.385570  0.385361  0.843500  1
  Pd  Pd12  1  0.385570  0.843500  0.385361  1
  Pd  Pd13  1  0.614704  0.613156  0.157437  1
  Pd  Pd14  1  0.614704  0.157437  0.613156  1
  Pd  Pd15  1  0.842563  0.385296  0.385296  1
  Pd  Pd16  1  0.156500  0.614430  0.614430  1
  Pd  Pd17  1  0.344001  0.999541  0.999541  1
  Pd  Pd18  1  0.656916  0.999541  0.999541  1
  Pd  Pd19  1  0.000459  0.343084  0.655999  1
  Pd  Pd20  1  0.000459  0.655999  0.343084  1
  Pd  Pd21  1  0.998522  0.342622  0.001478  1
  Pd  Pd22  1  0.657378  0.001478  0.342622  1
  Pd  Pd23  1  0.000033  0.656764  0.999967  1
  Pd  Pd24  1  0.343236  0.999967  0.656764  1
  Pd  Pd25  1  0.998522  0.001478  0.342622  1
  Pd  Pd26  1  0.000033  0.999967  0.656764  1
  Pd  Pd27  1  0.657378  0.342622  0.001478  1
  Pd  Pd28  1  0.343236  0.656764  0.999967  1
