# generated using pymatgen
data_Eu3DyCdIr
_symmetry_space_group_name_H-M   'P 1'
_cell_length_a   10.11426351
_cell_length_b   10.11426387
_cell_length_c   10.11426200
_cell_angle_alpha   59.99999958
_cell_angle_beta   59.99999840
_cell_angle_gamma   60.00000200
_symmetry_Int_Tables_number   1
_chemical_formula_structural   Eu3DyCdIr
_chemical_formula_sum   'Eu12 Dy4 Cd4 Ir4'
_cell_volume   731.62366642
_cell_formula_units_Z   4
loop_
 _symmetry_equiv_pos_site_id
 _symmetry_equiv_pos_as_xyz
  1  'x, y, z'
loop_
 _atom_site_type_symbol
 _atom_site_label
 _atom_site_symmetry_multiplicity
 _atom_site_fract_x
 _atom_site_fract_y
 _atom_site_fract_z
 _atom_site_occupancy
  Eu  Eu0  1  0.805526  0.194474  0.194474  1
  Eu  Eu1  1  0.194474  0.805526  0.805526  1
  Eu  Eu2  1  0.194474  0.805526  0.194474  1
  Eu  Eu3  1  0.805526  0.194474  0.805526  1
  Eu  Eu4  1  0.194474  0.194474  0.805526  1
  Eu  Eu5  1  0.805526  0.805526  0.194474  1
  Eu  Eu6  1  0.945861  0.554139  0.554139  1
  Eu  Eu7  1  0.554139  0.945861  0.945861  1
  Eu  Eu8  1  0.554139  0.945861  0.554139  1
  Eu  Eu9  1  0.945861  0.554139  0.945861  1
  Eu  Eu10  1  0.554139  0.554139  0.945861  1
  Eu  Eu11  1  0.945861  0.945861  0.554139  1
  Dy  Dy12  1  0.339751  0.339751  0.339751  1
  Dy  Dy13  1  0.339751  0.339751  0.980745  1
  Dy  Dy14  1  0.339751  0.980745  0.339751  1
  Dy  Dy15  1  0.980745  0.339751  0.339751  1
  Cd  Cd16  1  0.577862  0.577862  0.577862  1
  Cd  Cd17  1  0.577862  0.577862  0.266415  1
  Cd  Cd18  1  0.577862  0.266415  0.577862  1
  Cd  Cd19  1  0.266415  0.577862  0.577862  1
  Ir  Ir20  1  0.143422  0.143422  0.143422  1
  Ir  Ir21  1  0.143422  0.143422  0.569735  1
  Ir  Ir22  1  0.143422  0.569735  0.143422  1
  Ir  Ir23  1  0.569735  0.143422  0.143422  1
