# generated using pymatgen
data_LiNb12Ga8Co3N4
_symmetry_space_group_name_H-M   'P 1'
_cell_length_a   8.18273493
_cell_length_b   8.23607158
_cell_length_c   8.23607300
_cell_angle_alpha   59.99999830
_cell_angle_beta   59.78414293
_cell_angle_gamma   59.78414256
_symmetry_Int_Tables_number   1
_chemical_formula_structural   LiNb12Ga8Co3N4
_chemical_formula_sum   'Li1 Nb12 Ga8 Co3 N4'
_cell_volume   391.20021308
_cell_formula_units_Z   1
loop_
 _symmetry_equiv_pos_site_id
 _symmetry_equiv_pos_as_xyz
  1  'x, y, z'
loop_
 _atom_site_type_symbol
 _atom_site_label
 _atom_site_symmetry_multiplicity
 _atom_site_fract_x
 _atom_site_fract_y
 _atom_site_fract_z
 _atom_site_occupancy
  Li  Li0  1  0.125000  0.625000  0.625000  1
  Nb  Nb1  1  0.810246  0.810333  0.189710  1
  Nb  Nb2  1  0.189946  0.192278  0.808888  1
  Nb  Nb3  1  0.810246  0.189710  0.810333  1
  Nb  Nb4  1  0.189946  0.808888  0.192278  1
  Nb  Nb5  1  0.189946  0.808888  0.808888  1
  Nb  Nb6  1  0.810246  0.189710  0.189710  1
  Nb  Nb7  1  0.439754  0.439667  0.060290  1
  Nb  Nb8  1  0.060054  0.057722  0.441112  1
  Nb  Nb9  1  0.439754  0.060290  0.439667  1
  Nb  Nb10  1  0.060054  0.441112  0.057722  1
  Nb  Nb11  1  0.060054  0.441112  0.441112  1
  Nb  Nb12  1  0.439754  0.060290  0.060290  1
  Ga  Ga13  1  0.749467  0.416845  0.416845  1
  Ga  Ga14  1  0.417354  0.752304  0.415172  1
  Ga  Ga15  1  0.417354  0.415172  0.752304  1
  Ga  Ga16  1  0.417354  0.415172  0.415172  1
  Ga  Ga17  1  0.500533  0.833155  0.833155  1
  Ga  Ga18  1  0.832646  0.497696  0.834828  1
  Ga  Ga19  1  0.832646  0.834828  0.497696  1
  Ga  Ga20  1  0.832646  0.834828  0.834828  1
  Co  Co21  1  0.625000  0.125000  0.625000  1
  Co  Co22  1  0.625000  0.625000  0.125000  1
  Co  Co23  1  0.625000  0.625000  0.625000  1
  N  N24  1  0.625000  0.125000  0.125000  1
  N  N25  1  0.125000  0.625000  0.125000  1
  N  N26  1  0.125000  0.125000  0.625000  1
  N  N27  1  0.125000  0.125000  0.125000  1
