# generated using pymatgen
data_Tm5Hf2P12Ir17
_symmetry_space_group_name_H-M   'P 1'
_cell_length_a   12.63038900
_cell_length_b   12.86395975
_cell_length_c   3.96317400
_cell_angle_alpha   90.00000000
_cell_angle_beta   90.00000000
_cell_angle_gamma   119.40116497
_symmetry_Int_Tables_number   1
_chemical_formula_structural   Tm5Hf2P12Ir17
_chemical_formula_sum   'Tm5 Hf2 P12 Ir17'
_cell_volume   560.98896050
_cell_formula_units_Z   1
loop_
 _symmetry_equiv_pos_site_id
 _symmetry_equiv_pos_as_xyz
  1  'x, y, z'
loop_
 _atom_site_type_symbol
 _atom_site_label
 _atom_site_symmetry_multiplicity
 _atom_site_fract_x
 _atom_site_fract_y
 _atom_site_fract_z
 _atom_site_occupancy
  Tm  Tm0  1  0.330366  0.661510  0.500000  1
  Tm  Tm1  1  0.668857  0.338490  0.500000  1
  Tm  Tm2  1  0.999777  0.815404  0.000000  1
  Tm  Tm3  1  0.184373  0.184596  0.000000  1
  Tm  Tm4  1  0.812962  0.000000  0.000000  1
  Hf  Hf5  1  0.997632  0.447252  0.500000  1
  Hf  Hf6  1  0.550380  0.552748  0.500000  1
  P  P7  1  0.005424  0.651601  0.500000  1
  P  P8  1  0.353823  0.348399  0.500000  1
  P  P9  1  0.645969  0.000000  0.500000  1
  P  P10  1  0.514431  0.685853  0.000000  1
  P  P11  1  0.309955  0.824864  0.000000  1
  P  P12  1  0.165064  0.481583  0.000000  1
  P  P13  1  0.485091  0.175136  0.000000  1
  P  P14  1  0.683481  0.518417  0.000000  1
  P  P15  1  0.828578  0.314147  0.000000  1
  P  P16  1  0.999422  0.173479  0.500000  1
  P  P17  1  0.825943  0.826521  0.500000  1
  P  P18  1  0.181025  0.000000  0.500000  1
  Ir  Ir19  1  0.504604  0.863934  0.000000  1
  Ir  Ir20  1  0.128051  0.642760  0.000000  1
  Ir  Ir21  1  0.355868  0.496330  0.000000  1
  Ir  Ir22  1  0.485292  0.357240  0.000000  1
  Ir  Ir23  1  0.859539  0.503670  0.000000  1
  Ir  Ir24  1  0.640672  0.136066  0.000000  1
  Ir  Ir25  1  0.464949  0.000000  0.500000  1
  Ir  Ir26  1  0.997017  0.279121  0.000000  1
  Ir  Ir27  1  0.717895  0.720879  0.000000  1
  Ir  Ir28  1  0.289331  0.000000  0.000000  1
  Ir  Ir29  1  0.624307  0.807976  0.500000  1
  Ir  Ir30  1  0.203185  0.825113  0.500000  1
  Ir  Ir31  1  0.177637  0.366521  0.500000  1
  Ir  Ir32  1  0.378072  0.174887  0.500000  1
  Ir  Ir33  1  0.811117  0.633479  0.500000  1
  Ir  Ir34  1  0.816331  0.192024  0.500000  1
  Ir  Ir35  1  0.003581  0.000000  0.500000  1
