# generated using pymatgen
data_PtF17
_symmetry_space_group_name_H-M   'P 1'
_cell_length_a   8.84588924
_cell_length_b   8.54139165
_cell_length_c   10.16070142
_cell_angle_alpha   83.10227635
_cell_angle_beta   87.73596647
_cell_angle_gamma   68.70025887
_symmetry_Int_Tables_number   1
_chemical_formula_structural   PtF17
_chemical_formula_sum   'Pt2 F34'
_cell_volume   710.08032551
_cell_formula_units_Z   2
loop_
 _symmetry_equiv_pos_site_id
 _symmetry_equiv_pos_as_xyz
  1  'x, y, z'
loop_
 _atom_site_type_symbol
 _atom_site_label
 _atom_site_symmetry_multiplicity
 _atom_site_fract_x
 _atom_site_fract_y
 _atom_site_fract_z
 _atom_site_occupancy
  Pt  Pt0  1  0.861066  0.249616  0.763023  1
  Pt  Pt1  1  0.138934  0.750384  0.236977  1
  F  F2  1  0.596323  0.200539  0.493754  1
  F  F3  1  0.403677  0.799461  0.506246  1
  F  F4  1  0.820585  0.692623  0.717577  1
  F  F5  1  0.179415  0.307377  0.282423  1
  F  F6  1  0.077241  0.785592  0.856235  1
  F  F7  1  0.922759  0.214408  0.143765  1
  F  F8  1  0.552490  0.141386  0.380491  1
  F  F9  1  0.447510  0.858614  0.619509  1
  F  F10  1  0.644116  0.312430  0.701383  1
  F  F11  1  0.355884  0.687570  0.298617  1
  F  F12  1  0.930680  0.068271  0.657191  1
  F  F13  1  0.069320  0.931729  0.342809  1
  F  F14  1  0.903152  0.389792  0.618211  1
  F  F15  1  0.096848  0.610208  0.381789  1
  F  F16  1  0.852577  0.804920  0.614782  1
  F  F17  1  0.147423  0.195080  0.385218  1
  F  F18  1  0.794860  0.434093  0.866387  1
  F  F19  1  0.205140  0.565907  0.133613  1
  F  F20  1  0.207971  0.688933  0.778931  1
  F  F21  1  0.792029  0.311067  0.221069  1
  F  F22  1  0.924280  0.812853  0.171237  1
  F  F23  1  0.075720  0.187147  0.828763  1
  F  F24  1  0.817251  0.107291  0.905973  1
  F  F25  1  0.182749  0.892709  0.094027  1
  F  F26  1  0.476917  0.588085  0.978896  1
  F  F27  1  0.523083  0.411915  0.021104  1
  F  F28  1  0.466937  0.075490  0.867457  1
  F  F29  1  0.533063  0.924510  0.132543  1
  F  F30  1  0.287866  0.225433  0.620850  1
  F  F31  1  0.712134  0.774567  0.379150  1
  F  F32  1  0.257621  0.382318  0.671753  1
  F  F33  1  0.742379  0.617682  0.328247  1
  F  F34  1  0.560569  0.907414  0.841125  1
  F  F35  1  0.439431  0.092586  0.158875  1
