# generated using pymatgen
data_Y8Tm2RuRh3
_symmetry_space_group_name_H-M   'P 1'
_cell_length_a   6.45411918
_cell_length_b   7.19220163
_cell_length_c   8.57818416
_cell_angle_alpha   96.71610539
_cell_angle_beta   111.74484162
_cell_angle_gamma   90.04512105
_symmetry_Int_Tables_number   1
_chemical_formula_structural   Y8Tm2RuRh3
_chemical_formula_sum   'Y8 Tm2 Ru1 Rh3'
_cell_volume   366.90093225
_cell_formula_units_Z   1
loop_
 _symmetry_equiv_pos_site_id
 _symmetry_equiv_pos_as_xyz
  1  'x, y, z'
loop_
 _atom_site_type_symbol
 _atom_site_label
 _atom_site_symmetry_multiplicity
 _atom_site_fract_x
 _atom_site_fract_y
 _atom_site_fract_z
 _atom_site_occupancy
  Y  Y0  1  0.791034  0.082415  0.813228  1
  Y  Y1  1  0.976587  0.417736  0.186069  1
  Y  Y2  1  0.208865  0.917595  0.181516  1
  Y  Y3  1  0.025029  0.583313  0.812772  1
  Y  Y4  1  0.211073  0.183796  0.564337  1
  Y  Y5  1  0.647358  0.314181  0.436407  1
  Y  Y6  1  0.791045  0.813842  0.439705  1
  Y  Y7  1  0.349046  0.687918  0.564391  1
  Tm  Tm8  1  0.425813  0.248807  0.998892  1
  Tm  Tm9  1  0.573545  0.750339  0.999665  1
  Ru  Ru10  1  0.181389  0.927695  0.785958  1
  Rh  Rh11  1  0.601306  0.428357  0.782438  1
  Rh  Rh12  1  0.817430  0.072510  0.216966  1
  Rh  Rh13  1  0.400477  0.571497  0.217655  1
