# generated using pymatgen
data_Pa4CoGe4Pd3
_symmetry_space_group_name_H-M   'P 1'
_cell_length_a   4.37449000
_cell_length_b   6.97047993
_cell_length_c   7.57836454
_cell_angle_alpha   88.67215640
_cell_angle_beta   90.00000000
_cell_angle_gamma   90.00000000
_symmetry_Int_Tables_number   1
_chemical_formula_structural   Pa4CoGe4Pd3
_chemical_formula_sum   'Pa4 Co1 Ge4 Pd3'
_cell_volume   231.01967188
_cell_formula_units_Z   1
loop_
 _symmetry_equiv_pos_site_id
 _symmetry_equiv_pos_as_xyz
  1  'x, y, z'
loop_
 _atom_site_type_symbol
 _atom_site_label
 _atom_site_symmetry_multiplicity
 _atom_site_fract_x
 _atom_site_fract_y
 _atom_site_fract_z
 _atom_site_occupancy
  Pa  Pa0  1  0.000000  0.497804  0.713769  1
  Pa  Pa1  1  0.000000  0.988512  0.805192  1
  Pa  Pa2  1  0.500000  0.508005  0.282145  1
  Pa  Pa3  1  0.500000  0.994740  0.203846  1
  Co  Co4  1  0.000000  0.722888  0.069133  1
  Ge  Ge5  1  0.000000  0.302340  0.095988  1
  Ge  Ge6  1  0.000000  0.774627  0.398658  1
  Ge  Ge7  1  0.500000  0.701211  0.916663  1
  Ge  Ge8  1  0.500000  0.217445  0.589876  1
  Pd  Pd9  1  0.000000  0.181969  0.420904  1
  Pd  Pd10  1  0.500000  0.297910  0.920470  1
  Pd  Pd11  1  0.500000  0.812549  0.583354  1
