# generated using pymatgen
data_Er4UCo5
_symmetry_space_group_name_H-M   'P 1'
_cell_length_a   5.58599009
_cell_length_b   5.58599032
_cell_length_c   6.98278279
_cell_angle_alpha   87.34242983
_cell_angle_beta   92.65756926
_cell_angle_gamma   121.77246999
_symmetry_Int_Tables_number   1
_chemical_formula_structural   Er4UCo5
_chemical_formula_sum   'Er4 U1 Co5'
_cell_volume   184.97361826
_cell_formula_units_Z   1
loop_
 _symmetry_equiv_pos_site_id
 _symmetry_equiv_pos_as_xyz
  1  'x, y, z'
loop_
 _atom_site_type_symbol
 _atom_site_label
 _atom_site_symmetry_multiplicity
 _atom_site_fract_x
 _atom_site_fract_y
 _atom_site_fract_z
 _atom_site_occupancy
  Er  Er0  1  0.833271  0.166728  0.114799  1
  Er  Er1  1  0.334759  0.665240  0.413188  1
  Er  Er2  1  0.665240  0.334759  0.586811  1
  Er  Er3  1  0.166728  0.833271  0.885201  1
  U  U4  1  0.499999  0.499999  0.000000  1
  Co  Co5  1  0.335158  0.162579  0.244176  1
  Co  Co6  1  0.837420  0.664841  0.244176  1
  Co  Co7  1  0.000000  0.000000  0.499999  1
  Co  Co8  1  0.162579  0.335158  0.755824  1
  Co  Co9  1  0.664841  0.837420  0.755824  1
