# generated using pymatgen
data_Tb2Fe2Te
_symmetry_space_group_name_H-M   'P 1'
_cell_length_a   3.97679500
_cell_length_b   3.97679469
_cell_length_c   16.35773100
_cell_angle_alpha   90.00000000
_cell_angle_beta   90.00000000
_cell_angle_gamma   119.99997765
_symmetry_Int_Tables_number   1
_chemical_formula_structural   Tb2Fe2Te
_chemical_formula_sum   'Tb4 Fe4 Te2'
_cell_volume   224.03721509
_cell_formula_units_Z   2
loop_
 _symmetry_equiv_pos_site_id
 _symmetry_equiv_pos_as_xyz
  1  'x, y, z'
loop_
 _atom_site_type_symbol
 _atom_site_label
 _atom_site_symmetry_multiplicity
 _atom_site_fract_x
 _atom_site_fract_y
 _atom_site_fract_z
 _atom_site_occupancy
  Tb  Tb0  1  0.000000  0.000000  0.117290  1
  Tb  Tb1  1  0.000000  0.000000  0.617290  1
  Tb  Tb2  1  0.000000  0.000000  0.382710  1
  Tb  Tb3  1  0.000000  0.000000  0.882710  1
  Fe  Fe4  1  0.666667  0.333333  0.998514  1
  Fe  Fe5  1  0.333333  0.666667  0.001486  1
  Fe  Fe6  1  0.666667  0.333333  0.501486  1
  Fe  Fe7  1  0.333333  0.666667  0.498514  1
  Te  Te8  1  0.666667  0.333333  0.250000  1
  Te  Te9  1  0.333333  0.666667  0.750000  1
