# generated using pymatgen
data_ScCr3Tc3P4
_symmetry_space_group_name_H-M   'P 1'
_cell_length_a   7.30879900
_cell_length_b   7.30879959
_cell_length_c   3.25622500
_cell_angle_alpha   90.00000000
_cell_angle_beta   90.00000000
_cell_angle_gamma   120.00000185
_symmetry_Int_Tables_number   1
_chemical_formula_structural   ScCr3Tc3P4
_chemical_formula_sum   'Sc1 Cr3 Tc3 P4'
_cell_volume   150.63888833
_cell_formula_units_Z   1
loop_
 _symmetry_equiv_pos_site_id
 _symmetry_equiv_pos_as_xyz
  1  'x, y, z'
loop_
 _atom_site_type_symbol
 _atom_site_label
 _atom_site_symmetry_multiplicity
 _atom_site_fract_x
 _atom_site_fract_y
 _atom_site_fract_z
 _atom_site_occupancy
  Sc  Sc0  1  0.000000  0.000000  0.000000  1
  Cr  Cr1  1  0.456236  0.912471  0.000000  1
  Cr  Cr2  1  0.087529  0.543764  0.000000  1
  Cr  Cr3  1  0.456236  0.543764  0.000000  1
  Tc  Tc4  1  0.802507  0.605014  0.500000  1
  Tc  Tc5  1  0.394986  0.197493  0.500000  1
  Tc  Tc6  1  0.802507  0.197493  0.500000  1
  P  P7  1  0.181884  0.363767  0.500000  1
  P  P8  1  0.636233  0.818116  0.500000  1
  P  P9  1  0.181884  0.818116  0.500000  1
  P  P10  1  0.666667  0.333333  0.000000  1
