# generated using pymatgen
data_Y6MgCo16TcP12
_symmetry_space_group_name_H-M   'P 1'
_cell_length_a   3.70851100
_cell_length_b   10.55628600
_cell_length_c   12.24422800
_cell_angle_alpha   90.00000000
_cell_angle_beta   90.00000000
_cell_angle_gamma   90.00000000
_symmetry_Int_Tables_number   1
_chemical_formula_structural   Y6MgCo16TcP12
_chemical_formula_sum   'Y6 Mg1 Co16 Tc1 P12'
_cell_volume   479.33829584
_cell_formula_units_Z   1
loop_
 _symmetry_equiv_pos_site_id
 _symmetry_equiv_pos_as_xyz
  1  'x, y, z'
loop_
 _atom_site_type_symbol
 _atom_site_label
 _atom_site_symmetry_multiplicity
 _atom_site_fract_x
 _atom_site_fract_y
 _atom_site_fract_z
 _atom_site_occupancy
  Y  Y0  1  0.000000  0.500000  0.523912  1
  Y  Y1  1  0.500000  0.000000  0.475558  1
  Y  Y2  1  0.500000  0.817747  0.205603  1
  Y  Y3  1  0.500000  0.182253  0.205603  1
  Y  Y4  1  0.000000  0.679350  0.793866  1
  Y  Y5  1  0.000000  0.320650  0.793866  1
  Mg  Mg6  1  0.000000  0.000000  0.846400  1
  Co  Co7  1  0.500000  0.500000  0.702894  1
  Co  Co8  1  0.000000  0.000000  0.296559  1
  Co  Co9  1  0.000000  0.500000  0.989096  1
  Co  Co10  1  0.500000  0.000000  0.014741  1
  Co  Co11  1  0.500000  0.335404  0.994069  1
  Co  Co12  1  0.500000  0.664596  0.994069  1
  Co  Co13  1  0.000000  0.170497  0.006989  1
  Co  Co14  1  0.000000  0.829503  0.006989  1
  Co  Co15  1  0.500000  0.297333  0.429577  1
  Co  Co16  1  0.500000  0.702667  0.429577  1
  Co  Co17  1  0.000000  0.204918  0.567014  1
  Co  Co18  1  0.000000  0.795082  0.567014  1
  Co  Co19  1  0.500000  0.877092  0.706588  1
  Co  Co20  1  0.500000  0.122908  0.706588  1
  Co  Co21  1  0.000000  0.620168  0.292431  1
  Co  Co22  1  0.000000  0.379832  0.292431  1
  Tc  Tc23  1  0.500000  0.500000  0.157935  1
  P  P24  1  0.500000  0.500000  0.881996  1
  P  P25  1  0.000000  0.000000  0.117046  1
  P  P26  1  0.500000  0.500000  0.349401  1
  P  P27  1  0.000000  0.000000  0.646599  1
  P  P28  1  0.500000  0.310618  0.614830  1
  P  P29  1  0.500000  0.689382  0.614830  1
  P  P30  1  0.000000  0.189657  0.383419  1
  P  P31  1  0.000000  0.810343  0.383419  1
  P  P32  1  0.500000  0.839721  0.895591  1
  P  P33  1  0.500000  0.160279  0.895591  1
  P  P34  1  0.000000  0.653765  0.108952  1
  P  P35  1  0.000000  0.346235  0.108952  1
