# generated using pymatgen
data_V2AgF12
_symmetry_space_group_name_H-M   'P 1'
_cell_length_a   5.28745952
_cell_length_b   5.49376165
_cell_length_c   9.10448032
_cell_angle_alpha   103.67254567
_cell_angle_beta   87.72010441
_cell_angle_gamma   116.67761555
_symmetry_Int_Tables_number   1
_chemical_formula_structural   V2AgF12
_chemical_formula_sum   'V2 Ag1 F12'
_cell_volume   228.94607639
_cell_formula_units_Z   1
loop_
 _symmetry_equiv_pos_site_id
 _symmetry_equiv_pos_as_xyz
  1  'x, y, z'
loop_
 _atom_site_type_symbol
 _atom_site_label
 _atom_site_symmetry_multiplicity
 _atom_site_fract_x
 _atom_site_fract_y
 _atom_site_fract_z
 _atom_site_occupancy
  V  V0  1  0.775146  0.508583  0.269053  1
  V  V1  1  0.224854  0.491417  0.730947  1
  Ag  Ag2  1  0.000000  0.000000  0.000000  1
  F  F3  1  0.853443  0.282400  0.723786  1
  F  F4  1  0.146557  0.717600  0.276214  1
  F  F5  1  0.190096  0.729208  0.918186  1
  F  F6  1  0.727123  0.730431  0.428515  1
  F  F7  1  0.272877  0.269569  0.571485  1
  F  F8  1  0.797814  0.279414  0.367416  1
  F  F9  1  0.202186  0.720586  0.632584  1
  F  F10  1  0.397380  0.301652  0.220602  1
  F  F11  1  0.602620  0.698348  0.779398  1
  F  F12  1  0.745505  0.726396  0.137404  1
  F  F13  1  0.254495  0.273604  0.862596  1
  F  F14  1  0.809904  0.270792  0.081814  1
