# generated using pymatgen
data_Sc7(PaIr2)3
_symmetry_space_group_name_H-M   'P 1'
_cell_length_a   5.76898400
_cell_length_b   7.98713804
_cell_length_c   8.02395557
_cell_angle_alpha   118.54959963
_cell_angle_beta   90.00000000
_cell_angle_gamma   90.00000000
_symmetry_Int_Tables_number   1
_chemical_formula_structural   Sc7(PaIr2)3
_chemical_formula_sum   'Sc7 Pa3 Ir6'
_cell_volume   324.76798091
_cell_formula_units_Z   1
loop_
 _symmetry_equiv_pos_site_id
 _symmetry_equiv_pos_as_xyz
  1  'x, y, z'
loop_
 _atom_site_type_symbol
 _atom_site_label
 _atom_site_symmetry_multiplicity
 _atom_site_fract_x
 _atom_site_fract_y
 _atom_site_fract_z
 _atom_site_occupancy
  Sc  Sc0  1  0.001744  0.664713  0.329000  1
  Sc  Sc1  1  0.001468  0.333679  0.679939  1
  Sc  Sc2  1  0.498532  0.333679  0.679939  1
  Sc  Sc3  1  0.498256  0.664713  0.329000  1
  Sc  Sc4  1  0.250000  0.998177  0.744234  1
  Sc  Sc5  1  0.750000  0.253406  0.995906  1
  Sc  Sc6  1  0.250000  0.744483  0.997386  1
  Pa  Pa7  1  0.750000  0.750346  0.745725  1
  Pa  Pa8  1  0.250000  0.249658  0.245508  1
  Pa  Pa9  1  0.750000  0.004177  0.256343  1
  Ir  Ir10  1  0.750000  0.385090  0.395568  1
  Ir  Ir11  1  0.250000  0.603753  0.602850  1
  Ir  Ir12  1  0.750000  0.986853  0.598128  1
  Ir  Ir13  1  0.250000  0.011038  0.389695  1
  Ir  Ir14  1  0.750000  0.620201  0.000770  1
  Ir  Ir15  1  0.250000  0.396033  0.010011  1
