# generated using pymatgen
data_Dy3Ho5(CdIr)2
_symmetry_space_group_name_H-M   'P 1'
_cell_length_a   9.61616236
_cell_length_b   9.61616253
_cell_length_c   9.61616200
_cell_angle_alpha   60.00000184
_cell_angle_beta   60.00000125
_cell_angle_gamma   60.00000142
_symmetry_Int_Tables_number   1
_chemical_formula_structural   Dy3Ho5(CdIr)2
_chemical_formula_sum   'Dy6 Ho10 Cd4 Ir4'
_cell_volume   628.76791315
_cell_formula_units_Z   2
loop_
 _symmetry_equiv_pos_site_id
 _symmetry_equiv_pos_as_xyz
  1  'x, y, z'
loop_
 _atom_site_type_symbol
 _atom_site_label
 _atom_site_symmetry_multiplicity
 _atom_site_fract_x
 _atom_site_fract_y
 _atom_site_fract_z
 _atom_site_occupancy
  Dy  Dy0  1  0.187649  0.812351  0.812351  1
  Dy  Dy1  1  0.812351  0.187649  0.187649  1
  Dy  Dy2  1  0.812351  0.187649  0.812351  1
  Dy  Dy3  1  0.187649  0.812351  0.187649  1
  Dy  Dy4  1  0.812351  0.812351  0.187649  1
  Dy  Dy5  1  0.187649  0.187649  0.812351  1
  Ho  Ho6  1  0.599279  0.599279  0.599279  1
  Ho  Ho7  1  0.599279  0.599279  0.202162  1
  Ho  Ho8  1  0.599279  0.202162  0.599279  1
  Ho  Ho9  1  0.202162  0.599279  0.599279  1
  Ho  Ho10  1  0.060756  0.439244  0.439244  1
  Ho  Ho11  1  0.439244  0.060756  0.060756  1
  Ho  Ho12  1  0.439244  0.060756  0.439244  1
  Ho  Ho13  1  0.060756  0.439244  0.060756  1
  Ho  Ho14  1  0.439244  0.439244  0.060756  1
  Ho  Ho15  1  0.060756  0.060756  0.439244  1
  Cd  Cd16  1  0.831073  0.831073  0.831073  1
  Cd  Cd17  1  0.831073  0.831073  0.506781  1
  Cd  Cd18  1  0.831073  0.506781  0.831073  1
  Cd  Cd19  1  0.506781  0.831073  0.831073  1
  Ir  Ir20  1  0.391876  0.391876  0.391876  1
  Ir  Ir21  1  0.391876  0.391876  0.824372  1
  Ir  Ir22  1  0.391876  0.824372  0.391876  1
  Ir  Ir23  1  0.824372  0.391876  0.391876  1
