# generated using pymatgen
data_Tm10Th2Tc3Pt
_symmetry_space_group_name_H-M   'P 1'
_cell_length_a   6.28445109
_cell_length_b   7.31450800
_cell_length_c   9.24910000
_cell_angle_alpha   90.00000000
_cell_angle_beta   90.00000000
_cell_angle_gamma   89.99180636
_symmetry_Int_Tables_number   1
_chemical_formula_structural   Tm10Th2Tc3Pt
_chemical_formula_sum   'Tm10 Th2 Tc3 Pt1'
_cell_volume   425.15955202
_cell_formula_units_Z   1
loop_
 _symmetry_equiv_pos_site_id
 _symmetry_equiv_pos_as_xyz
  1  'x, y, z'
loop_
 _atom_site_type_symbol
 _atom_site_label
 _atom_site_symmetry_multiplicity
 _atom_site_fract_x
 _atom_site_fract_y
 _atom_site_fract_z
 _atom_site_occupancy
  Tm  Tm0  1  0.331177  0.677180  0.063942  1
  Tm  Tm1  1  0.162490  0.177712  0.440154  1
  Tm  Tm2  1  0.669832  0.318779  0.565056  1
  Tm  Tm3  1  0.836827  0.826884  0.934351  1
  Tm  Tm4  1  0.669832  0.318779  0.934944  1
  Tm  Tm5  1  0.836827  0.826884  0.565649  1
  Tm  Tm6  1  0.331177  0.677180  0.436058  1
  Tm  Tm7  1  0.162490  0.177712  0.059846  1
  Tm  Tm8  1  0.129073  0.459112  0.750000  1
  Tm  Tm9  1  0.373634  0.966698  0.750000  1
  Th  Th10  1  0.863868  0.548634  0.250000  1
  Th  Th11  1  0.631408  0.047954  0.250000  1
  Tc  Tc12  1  0.020999  0.870945  0.250000  1
  Tc  Tc13  1  0.477070  0.373248  0.250000  1
  Tc  Tc14  1  0.960012  0.116469  0.750000  1
  Pt  Pt15  1  0.543280  0.615831  0.750000  1
