# generated using pymatgen
data_La2Pr2NdIr3
_symmetry_space_group_name_H-M   'P 1'
_cell_length_a   11.36075500
_cell_length_b   11.36075500
_cell_length_c   6.65488100
_cell_angle_alpha   90.00000000
_cell_angle_beta   90.00000000
_cell_angle_gamma   90.00000000
_symmetry_Int_Tables_number   1
_chemical_formula_structural   La2Pr2NdIr3
_chemical_formula_sum   'La8 Pr8 Nd4 Ir12'
_cell_volume   858.92389006
_cell_formula_units_Z   4
loop_
 _symmetry_equiv_pos_site_id
 _symmetry_equiv_pos_as_xyz
  1  'x, y, z'
loop_
 _atom_site_type_symbol
 _atom_site_label
 _atom_site_symmetry_multiplicity
 _atom_site_fract_x
 _atom_site_fract_y
 _atom_site_fract_z
 _atom_site_occupancy
  La  La0  1  0.090413  0.291074  0.115624  1
  La  La1  1  0.791074  0.409587  0.115624  1
  La  La2  1  0.208926  0.590413  0.115624  1
  La  La3  1  0.909587  0.708926  0.115624  1
  La  La4  1  0.409587  0.791074  0.384376  1
  La  La5  1  0.590413  0.208926  0.384376  1
  La  La6  1  0.291074  0.090413  0.384376  1
  La  La7  1  0.708926  0.909587  0.384376  1
  Pr  Pr8  1  0.409999  0.208773  0.883335  1
  Pr  Pr9  1  0.708773  0.090001  0.883335  1
  Pr  Pr10  1  0.291227  0.909999  0.883335  1
  Pr  Pr11  1  0.590001  0.791227  0.883335  1
  Pr  Pr12  1  0.090001  0.708773  0.616665  1
  Pr  Pr13  1  0.909999  0.291227  0.616665  1
  Pr  Pr14  1  0.208773  0.409999  0.616665  1
  Pr  Pr15  1  0.791227  0.590001  0.616665  1
  Nd  Nd16  1  0.000000  0.000000  0.999118  1
  Nd  Nd17  1  0.500000  0.500000  0.999118  1
  Nd  Nd18  1  0.500000  0.500000  0.500882  1
  Nd  Nd19  1  0.000000  0.000000  0.500882  1
  Ir  Ir20  1  0.152740  0.847260  0.250000  1
  Ir  Ir21  1  0.347260  0.347260  0.250000  1
  Ir  Ir22  1  0.652740  0.652740  0.250000  1
  Ir  Ir23  1  0.847260  0.152740  0.250000  1
  Ir  Ir24  1  0.347354  0.652646  0.750000  1
  Ir  Ir25  1  0.152646  0.152646  0.750000  1
  Ir  Ir26  1  0.847354  0.847354  0.750000  1
  Ir  Ir27  1  0.652646  0.347354  0.750000  1
  Ir  Ir28  1  0.000000  0.500000  0.378983  1
  Ir  Ir29  1  0.500000  0.000000  0.121017  1
  Ir  Ir30  1  0.500000  0.000000  0.618710  1
  Ir  Ir31  1  0.000000  0.500000  0.881290  1
