# generated using pymatgen
data_Nd4TlPb11
_symmetry_space_group_name_H-M   'P 1'
_cell_length_a   10.02853400
_cell_length_b   6.92834441
_cell_length_c   6.92838063
_cell_angle_alpha   90.00481288
_cell_angle_beta   90.00000000
_cell_angle_gamma   90.00000000
_symmetry_Int_Tables_number   1
_chemical_formula_structural   Nd4TlPb11
_chemical_formula_sum   'Nd4 Tl1 Pb11'
_cell_volume   481.39176566
_cell_formula_units_Z   1
loop_
 _symmetry_equiv_pos_site_id
 _symmetry_equiv_pos_as_xyz
  1  'x, y, z'
loop_
 _atom_site_type_symbol
 _atom_site_label
 _atom_site_symmetry_multiplicity
 _atom_site_fract_x
 _atom_site_fract_y
 _atom_site_fract_z
 _atom_site_occupancy
  Nd  Nd0  1  0.250000  0.003276  0.001306  1
  Nd  Nd1  1  0.250000  0.498324  0.502192  1
  Nd  Nd2  1  0.750000  0.997366  0.998860  1
  Nd  Nd3  1  0.750000  0.501923  0.498477  1
  Tl  Tl4  1  0.750000  0.497727  0.998214  1
  Pb  Pb5  1  0.999184  0.246879  0.747087  1
  Pb  Pb6  1  0.501048  0.251371  0.248796  1
  Pb  Pb7  1  0.500456  0.752383  0.252440  1
  Pb  Pb8  1  0.999588  0.748709  0.751233  1
  Pb  Pb9  1  0.999544  0.752383  0.252440  1
  Pb  Pb10  1  0.500412  0.748709  0.751233  1
  Pb  Pb11  1  0.500816  0.246879  0.747087  1
  Pb  Pb12  1  0.998952  0.251371  0.248796  1
  Pb  Pb13  1  0.250000  0.998858  0.500682  1
  Pb  Pb14  1  0.250000  0.502591  0.002001  1
  Pb  Pb15  1  0.750000  0.001247  0.499157  1
