# generated using pymatgen
data_NpPa2O8
_symmetry_space_group_name_H-M   'P 1'
_cell_length_a   6.78891810
_cell_length_b   6.78891961
_cell_length_c   4.19050000
_cell_angle_alpha   90.00000000
_cell_angle_beta   90.00000000
_cell_angle_gamma   115.39776248
_symmetry_Int_Tables_number   1
_chemical_formula_structural   NpPa2O8
_chemical_formula_sum   'Np1 Pa2 O8'
_cell_volume   174.47134597
_cell_formula_units_Z   1
loop_
 _symmetry_equiv_pos_site_id
 _symmetry_equiv_pos_as_xyz
  1  'x, y, z'
loop_
 _atom_site_type_symbol
 _atom_site_label
 _atom_site_symmetry_multiplicity
 _atom_site_fract_x
 _atom_site_fract_y
 _atom_site_fract_z
 _atom_site_occupancy
  Np  Np0  1  0.000000  0.000000  0.000000  1
  Pa  Pa1  1  0.317013  0.682987  0.000000  1
  Pa  Pa2  1  0.682987  0.317013  0.000000  1
  O  O3  1  0.037798  0.320979  0.000000  1
  O  O4  1  0.962202  0.679021  0.000000  1
  O  O5  1  0.320979  0.037798  0.000000  1
  O  O6  1  0.500000  0.500000  0.000000  1
  O  O7  1  0.000000  0.000000  0.500000  1
  O  O8  1  0.687312  0.312688  0.500000  1
  O  O9  1  0.312688  0.687312  0.500000  1
  O  O10  1  0.679021  0.962202  0.000000  1
