# generated using pymatgen
data_LiY3CoP6Rh7
_symmetry_space_group_name_H-M   'P 1'
_cell_length_a   3.87312400
_cell_length_b   11.18741200
_cell_length_c   12.78592700
_cell_angle_alpha   90.00000000
_cell_angle_beta   90.00000000
_cell_angle_gamma   90.00000000
_symmetry_Int_Tables_number   1
_chemical_formula_structural   LiY3CoP6Rh7
_chemical_formula_sum   'Li2 Y6 Co2 P12 Rh14'
_cell_volume   554.01720773
_cell_formula_units_Z   2
loop_
 _symmetry_equiv_pos_site_id
 _symmetry_equiv_pos_as_xyz
  1  'x, y, z'
loop_
 _atom_site_type_symbol
 _atom_site_label
 _atom_site_symmetry_multiplicity
 _atom_site_fract_x
 _atom_site_fract_y
 _atom_site_fract_z
 _atom_site_occupancy
  Li  Li0  1  0.500000  0.500000  0.156827  1
  Li  Li1  1  0.000000  0.000000  0.843173  1
  Y  Y2  1  0.000000  0.500000  0.517889  1
  Y  Y3  1  0.500000  0.000000  0.482111  1
  Y  Y4  1  0.500000  0.819845  0.201115  1
  Y  Y5  1  0.500000  0.180155  0.201115  1
  Y  Y6  1  0.000000  0.680155  0.798885  1
  Y  Y7  1  0.000000  0.319845  0.798885  1
  Co  Co8  1  0.000000  0.500000  0.985616  1
  Co  Co9  1  0.500000  0.000000  0.014384  1
  P  P10  1  0.500000  0.500000  0.885087  1
  P  P11  1  0.000000  0.000000  0.114913  1
  P  P12  1  0.500000  0.500000  0.345984  1
  P  P13  1  0.000000  0.000000  0.654016  1
  P  P14  1  0.500000  0.313528  0.619460  1
  P  P15  1  0.500000  0.686472  0.619460  1
  P  P16  1  0.000000  0.186472  0.380540  1
  P  P17  1  0.000000  0.813528  0.380540  1
  P  P18  1  0.500000  0.848198  0.894840  1
  P  P19  1  0.500000  0.151802  0.894840  1
  P  P20  1  0.000000  0.651802  0.105160  1
  P  P21  1  0.000000  0.348198  0.105160  1
  Rh  Rh22  1  0.500000  0.500000  0.703506  1
  Rh  Rh23  1  0.000000  0.000000  0.296494  1
  Rh  Rh24  1  0.500000  0.335756  0.997691  1
  Rh  Rh25  1  0.500000  0.664244  0.997691  1
  Rh  Rh26  1  0.000000  0.164244  0.002309  1
  Rh  Rh27  1  0.000000  0.835756  0.002309  1
  Rh  Rh28  1  0.500000  0.292440  0.430253  1
  Rh  Rh29  1  0.500000  0.707560  0.430253  1
  Rh  Rh30  1  0.000000  0.207560  0.569747  1
  Rh  Rh31  1  0.000000  0.792440  0.569747  1
  Rh  Rh32  1  0.500000  0.875196  0.711592  1
  Rh  Rh33  1  0.500000  0.124804  0.711592  1
  Rh  Rh34  1  0.000000  0.624804  0.288408  1
  Rh  Rh35  1  0.000000  0.375196  0.288408  1
