# generated using pymatgen
data_CeThMnC4
_symmetry_space_group_name_H-M   'P 1'
_cell_length_a   6.83031493
_cell_length_b   6.80279475
_cell_length_c   6.80279580
_cell_angle_alpha   135.16354036
_cell_angle_beta   113.19500919
_cell_angle_gamma   84.02146179
_symmetry_Int_Tables_number   1
_chemical_formula_structural   CeThMnC4
_chemical_formula_sum   'Ce2 Th2 Mn2 C8'
_cell_volume   197.23594379
_cell_formula_units_Z   2
loop_
 _symmetry_equiv_pos_site_id
 _symmetry_equiv_pos_as_xyz
  1  'x, y, z'
loop_
 _atom_site_type_symbol
 _atom_site_label
 _atom_site_symmetry_multiplicity
 _atom_site_fract_x
 _atom_site_fract_y
 _atom_site_fract_z
 _atom_site_occupancy
  Ce  Ce0  1  0.523276  0.355771  0.167505  1
  Ce  Ce1  1  0.476724  0.644229  0.832495  1
  Th  Th2  1  0.189680  0.856849  0.332831  1
  Th  Th3  1  0.810320  0.143151  0.667169  1
  Mn  Mn4  1  0.000000  0.250996  0.250996  1
  Mn  Mn5  1  0.000000  0.749004  0.749004  1
  C  C6  1  0.243166  0.081234  0.161933  1
  C  C7  1  0.756834  0.918766  0.838067  1
  C  C8  1  0.912095  0.578540  0.333556  1
  C  C9  1  0.087905  0.421460  0.666444  1
  C  C10  1  0.464740  0.125463  0.339276  1
  C  C11  1  0.535260  0.874537  0.660724  1
  C  C12  1  0.778466  0.623316  0.155150  1
  C  C13  1  0.221534  0.376684  0.844850  1
