# generated using pymatgen
data_Ca20(ZnCu3)3
_symmetry_space_group_name_H-M   'P 1'
_cell_length_a   7.82097000
_cell_length_b   7.82097000
_cell_length_c   14.59525800
_cell_angle_alpha   90.00000000
_cell_angle_beta   90.00000000
_cell_angle_gamma   90.00000000
_symmetry_Int_Tables_number   1
_chemical_formula_structural   Ca20(ZnCu3)3
_chemical_formula_sum   'Ca20 Zn3 Cu9'
_cell_volume   892.75649079
_cell_formula_units_Z   1
loop_
 _symmetry_equiv_pos_site_id
 _symmetry_equiv_pos_as_xyz
  1  'x, y, z'
loop_
 _atom_site_type_symbol
 _atom_site_label
 _atom_site_symmetry_multiplicity
 _atom_site_fract_x
 _atom_site_fract_y
 _atom_site_fract_z
 _atom_site_occupancy
  Ca  Ca0  1  0.674881  0.166417  0.106520  1
  Ca  Ca1  1  0.171393  0.670201  0.609390  1
  Ca  Ca2  1  0.325119  0.833583  0.106520  1
  Ca  Ca3  1  0.828607  0.329799  0.609390  1
  Ca  Ca4  1  0.833583  0.674881  0.106520  1
  Ca  Ca5  1  0.329799  0.171393  0.609390  1
  Ca  Ca6  1  0.166417  0.325119  0.106520  1
  Ca  Ca7  1  0.670201  0.828607  0.609390  1
  Ca  Ca8  1  0.833583  0.325119  0.893480  1
  Ca  Ca9  1  0.329799  0.828607  0.390610  1
  Ca  Ca10  1  0.166417  0.674881  0.893480  1
  Ca  Ca11  1  0.670201  0.171393  0.390610  1
  Ca  Ca12  1  0.674881  0.833583  0.893480  1
  Ca  Ca13  1  0.171393  0.329799  0.390610  1
  Ca  Ca14  1  0.325119  0.166417  0.893480  1
  Ca  Ca15  1  0.828607  0.670201  0.390610  1
  Ca  Ca16  1  0.500000  0.500000  0.755185  1
  Ca  Ca17  1  0.000000  0.000000  0.250910  1
  Ca  Ca18  1  0.000000  0.000000  0.749090  1
  Ca  Ca19  1  0.500000  0.500000  0.244815  1
  Zn  Zn20  1  0.500000  0.500000  0.500000  1
  Zn  Zn21  1  0.500000  0.500000  0.000000  1
  Zn  Zn22  1  0.000000  0.000000  0.500000  1
  Cu  Cu23  1  0.614098  0.114926  0.751629  1
  Cu  Cu24  1  0.114926  0.614098  0.248371  1
  Cu  Cu25  1  0.885074  0.385902  0.248371  1
  Cu  Cu26  1  0.385902  0.885074  0.751629  1
  Cu  Cu27  1  0.885074  0.614098  0.751629  1
  Cu  Cu28  1  0.385902  0.114926  0.248371  1
  Cu  Cu29  1  0.114926  0.385902  0.751629  1
  Cu  Cu30  1  0.614098  0.885074  0.248371  1
  Cu  Cu31  1  0.000000  0.000000  0.000000  1
