# generated using pymatgen
data_LiEu4Cd3Pt4
_symmetry_space_group_name_H-M   'P 1'
_cell_length_a   4.32445300
_cell_length_b   7.41772077
_cell_length_c   8.76436861
_cell_angle_alpha   89.71044770
_cell_angle_beta   90.00000000
_cell_angle_gamma   90.00000000
_symmetry_Int_Tables_number   1
_chemical_formula_structural   LiEu4Cd3Pt4
_chemical_formula_sum   'Li1 Eu4 Cd3 Pt4'
_cell_volume   281.13618775
_cell_formula_units_Z   1
loop_
 _symmetry_equiv_pos_site_id
 _symmetry_equiv_pos_as_xyz
  1  'x, y, z'
loop_
 _atom_site_type_symbol
 _atom_site_label
 _atom_site_symmetry_multiplicity
 _atom_site_fract_x
 _atom_site_fract_y
 _atom_site_fract_z
 _atom_site_occupancy
  Li  Li0  1  0.250000  0.130163  0.941184  1
  Eu  Eu1  1  0.250000  0.038449  0.320404  1
  Eu  Eu2  1  0.250000  0.539945  0.176782  1
  Eu  Eu3  1  0.750000  0.962839  0.682187  1
  Eu  Eu4  1  0.750000  0.457237  0.821261  1
  Cd  Cd5  1  0.250000  0.639760  0.562980  1
  Cd  Cd6  1  0.750000  0.869412  0.059639  1
  Cd  Cd7  1  0.750000  0.360706  0.437787  1
  Pt  Pt8  1  0.250000  0.252650  0.632877  1
  Pt  Pt9  1  0.250000  0.757502  0.871721  1
  Pt  Pt10  1  0.750000  0.746128  0.369714  1
  Pt  Pt11  1  0.750000  0.245211  0.123463  1
