# generated using pymatgen
data_Pr2InGa7Ni2
_symmetry_space_group_name_H-M   'P 1'
_cell_length_a   8.24081059
_cell_length_b   8.24081112
_cell_length_c   6.69276927
_cell_angle_alpha   89.57734862
_cell_angle_beta   90.42265319
_cell_angle_gamma   150.21583504
_symmetry_Int_Tables_number   1
_chemical_formula_structural   Pr2InGa7Ni2
_chemical_formula_sum   'Pr2 In1 Ga7 Ni2'
_cell_volume   225.76524261
_cell_formula_units_Z   1
loop_
 _symmetry_equiv_pos_site_id
 _symmetry_equiv_pos_as_xyz
  1  'x, y, z'
loop_
 _atom_site_type_symbol
 _atom_site_label
 _atom_site_symmetry_multiplicity
 _atom_site_fract_x
 _atom_site_fract_y
 _atom_site_fract_z
 _atom_site_occupancy
  Pr  Pr0  1  0.883759  0.116241  0.760476  1
  Pr  Pr1  1  0.116241  0.883759  0.239524  1
  In  In2  1  0.500000  0.500000  0.500000  1
  Ga  Ga3  1  0.500000  0.500000  0.000000  1
  Ga  Ga4  1  0.076101  0.923899  0.759559  1
  Ga  Ga5  1  0.923899  0.076101  0.240441  1
  Ga  Ga6  1  0.689385  0.310615  0.943001  1
  Ga  Ga7  1  0.310615  0.689385  0.056999  1
  Ga  Ga8  1  0.691642  0.308358  0.550176  1
  Ga  Ga9  1  0.308358  0.691642  0.449824  1
  Ni  Ni10  1  0.223816  0.776184  0.753202  1
  Ni  Ni11  1  0.776184  0.223816  0.246798  1
