# generated using pymatgen
data_Gd3In3Ni2Pd
_symmetry_space_group_name_H-M   'P 1'
_cell_length_a   7.60212100
_cell_length_b   7.60211996
_cell_length_c   3.81790300
_cell_angle_alpha   90.00000000
_cell_angle_beta   90.00000000
_cell_angle_gamma   120.00000016
_symmetry_Int_Tables_number   1
_chemical_formula_structural   Gd3In3Ni2Pd
_chemical_formula_sum   'Gd3 In3 Ni2 Pd1'
_cell_volume   191.08430524
_cell_formula_units_Z   1
loop_
 _symmetry_equiv_pos_site_id
 _symmetry_equiv_pos_as_xyz
  1  'x, y, z'
loop_
 _atom_site_type_symbol
 _atom_site_label
 _atom_site_symmetry_multiplicity
 _atom_site_fract_x
 _atom_site_fract_y
 _atom_site_fract_z
 _atom_site_occupancy
  Gd  Gd0  1  0.008063  0.596045  0.500000  1
  Gd  Gd1  1  0.403955  0.412018  0.500000  1
  Gd  Gd2  1  0.587982  0.991937  0.500000  1
  In  In3  1  0.746117  0.749121  0.000000  1
  In  In4  1  0.003004  0.253883  0.000000  1
  In  In5  1  0.250879  0.996996  0.000000  1
  Ni  Ni6  1  0.333333  0.666667  0.000000  1
  Ni  Ni7  1  0.000000  0.000000  0.500000  1
  Pd  Pd8  1  0.666667  0.333333  0.000000  1
