# generated using pymatgen
data_Dy6Ho4Si16Sn
_symmetry_space_group_name_H-M   'P 1'
_cell_length_a   11.11249920
_cell_length_b   11.05485686
_cell_length_c   11.11402409
_cell_angle_alpha   144.70271733
_cell_angle_beta   136.03157144
_cell_angle_gamma   57.69726075
_symmetry_Int_Tables_number   1
_chemical_formula_structural   Dy6Ho4Si16Sn
_chemical_formula_sum   'Dy6 Ho4 Si16 Sn1'
_cell_volume   542.90601049
_cell_formula_units_Z   1
loop_
 _symmetry_equiv_pos_site_id
 _symmetry_equiv_pos_as_xyz
  1  'x, y, z'
loop_
 _atom_site_type_symbol
 _atom_site_label
 _atom_site_symmetry_multiplicity
 _atom_site_fract_x
 _atom_site_fract_y
 _atom_site_fract_z
 _atom_site_occupancy
  Dy  Dy0  1  0.150349  0.164080  0.515968  1
  Dy  Dy1  1  0.350010  0.368827  0.520516  1
  Dy  Dy2  1  0.242239  0.759846  0.003285  1
  Dy  Dy3  1  0.545218  0.558388  0.497264  1
  Dy  Dy4  1  0.061098  0.558405  0.013159  1
  Dy  Dy5  1  0.648137  0.164088  0.013736  1
  Ho  Ho6  1  0.756470  0.759887  0.517571  1
  Ho  Ho7  1  0.440697  0.971725  0.015483  1
  Ho  Ho8  1  0.848448  0.368817  0.018971  1
  Ho  Ho9  1  0.956311  0.971783  0.531128  1
  Si  Si10  1  0.198767  0.579455  0.380168  1
  Si  Si11  1  0.999859  0.083678  0.083125  1
  Si  Si12  1  0.697729  0.279649  0.582184  1
  Si  Si13  1  0.799666  0.177298  0.377595  1
  Si  Si14  1  0.895315  0.501590  0.605902  1
  Si  Si15  1  0.418255  0.871360  0.453495  1
  Si  Si16  1  0.103715  0.713208  0.608988  1
  Si  Si17  1  0.301206  0.894571  0.593322  1
  Si  Si18  1  0.578711  0.039184  0.461336  1
  Si  Si19  1  0.999211  0.431202  0.431493  1
  Si  Si20  1  0.882586  0.838887  0.956152  1
  Si  Si21  1  0.401516  0.500043  0.098798  1
  Si  Si22  1  0.117840  0.083737  0.965360  1
  Si  Si23  1  0.287920  0.238009  0.950112  1
  Si  Si24  1  0.499737  0.385195  0.886025  1
  Si  Si25  1  0.596054  0.705146  0.109707  1
  Sn  Sn26  1  0.722935  0.693442  0.970655  1
