# generated using pymatgen
data_Y4Pd11Pt4Pb
_symmetry_space_group_name_H-M   'P 1'
_cell_length_a   4.13869400
_cell_length_b   4.13869400
_cell_length_c   20.57470200
_cell_angle_alpha   90.00000000
_cell_angle_beta   90.00000000
_cell_angle_gamma   90.00000000
_symmetry_Int_Tables_number   1
_chemical_formula_structural   Y4Pd11Pt4Pb
_chemical_formula_sum   'Y4 Pd11 Pt4 Pb1'
_cell_volume   352.41970925
_cell_formula_units_Z   1
loop_
 _symmetry_equiv_pos_site_id
 _symmetry_equiv_pos_as_xyz
  1  'x, y, z'
loop_
 _atom_site_type_symbol
 _atom_site_label
 _atom_site_symmetry_multiplicity
 _atom_site_fract_x
 _atom_site_fract_y
 _atom_site_fract_z
 _atom_site_occupancy
  Y  Y0  1  0.000000  0.000000  0.200593  1
  Y  Y1  1  0.000000  0.000000  0.400294  1
  Y  Y2  1  0.000000  0.000000  0.599706  1
  Y  Y3  1  0.000000  0.000000  0.799407  1
  Pd  Pd4  1  0.500000  0.500000  0.000000  1
  Pd  Pd5  1  0.500000  0.000000  0.098544  1
  Pd  Pd6  1  0.500000  0.000000  0.299694  1
  Pd  Pd7  1  0.500000  0.000000  0.500000  1
  Pd  Pd8  1  0.500000  0.000000  0.700306  1
  Pd  Pd9  1  0.500000  0.000000  0.901456  1
  Pd  Pd10  1  0.000000  0.500000  0.098544  1
  Pd  Pd11  1  0.000000  0.500000  0.299694  1
  Pd  Pd12  1  0.000000  0.500000  0.500000  1
  Pd  Pd13  1  0.000000  0.500000  0.700306  1
  Pd  Pd14  1  0.000000  0.500000  0.901456  1
  Pt  Pt15  1  0.500000  0.500000  0.198277  1
  Pt  Pt16  1  0.500000  0.500000  0.399371  1
  Pt  Pt17  1  0.500000  0.500000  0.600629  1
  Pt  Pt18  1  0.500000  0.500000  0.801723  1
  Pb  Pb19  1  0.000000  0.000000  0.000000  1
