# generated using pymatgen
data_HoSc3Al14Ga3SiIr6
_symmetry_space_group_name_H-M   'P 1'
_cell_length_a   7.49104700
_cell_length_b   7.48763746
_cell_length_c   9.30658900
_cell_angle_alpha   90.00000000
_cell_angle_beta   90.00000000
_cell_angle_gamma   119.74871954
_symmetry_Int_Tables_number   1
_chemical_formula_structural   HoSc3Al14Ga3SiIr6
_chemical_formula_sum   'Ho1 Sc3 Al14 Ga3 Si1 Ir6'
_cell_volume   453.21325269
_cell_formula_units_Z   1
loop_
 _symmetry_equiv_pos_site_id
 _symmetry_equiv_pos_as_xyz
  1  'x, y, z'
loop_
 _atom_site_type_symbol
 _atom_site_label
 _atom_site_symmetry_multiplicity
 _atom_site_fract_x
 _atom_site_fract_y
 _atom_site_fract_z
 _atom_site_occupancy
  Ho  Ho0  1  0.330864  0.003403  0.750000  1
  Sc  Sc1  1  0.995877  0.678031  0.250000  1
  Sc  Sc2  1  0.003020  0.330281  0.750000  1
  Sc  Sc3  1  0.678426  0.996635  0.250000  1
  Al  Al4  1  0.997128  0.336990  0.080867  1
  Al  Al5  1  0.996821  0.662579  0.926300  1
  Al  Al6  1  0.996821  0.662579  0.573700  1
  Al  Al7  1  0.337397  0.997431  0.416021  1
  Al  Al8  1  0.997128  0.336990  0.419133  1
  Al  Al9  1  0.669205  0.999802  0.573516  1
  Al  Al10  1  0.669205  0.999802  0.926484  1
  Al  Al11  1  0.337397  0.997431  0.083979  1
  Al  Al12  1  0.329911  0.332599  0.555138  1
  Al  Al13  1  0.665368  0.665423  0.434316  1
  Al  Al14  1  0.665368  0.665423  0.065684  1
  Al  Al15  1  0.329911  0.332599  0.944862  1
  Al  Al16  1  0.335496  0.554261  0.250000  1
  Al  Al17  1  0.555157  0.337048  0.250000  1
  Ga  Ga18  1  0.878976  0.880602  0.750000  1
  Ga  Ga19  1  0.661756  0.453424  0.750000  1
  Ga  Ga20  1  0.449610  0.657557  0.750000  1
  Si  Si21  1  0.128250  0.129377  0.250000  1
  Ir  Ir22  1  0.669621  0.325507  0.002015  1
  Ir  Ir23  1  0.326201  0.670664  0.002201  1
  Ir  Ir24  1  0.326201  0.670664  0.497799  1
  Ir  Ir25  1  0.669621  0.325507  0.497985  1
  Ir  Ir26  1  0.999633  0.998693  0.011224  1
  Ir  Ir27  1  0.999633  0.998693  0.488776  1
