# generated using pymatgen
data_Al11(CrRu)2
_symmetry_space_group_name_H-M   'P 1'
_cell_length_a   5.11636529
_cell_length_b   5.14265382
_cell_length_c   8.88726900
_cell_angle_alpha   104.88793708
_cell_angle_beta   90.08017460
_cell_angle_gamma   100.05513717
_symmetry_Int_Tables_number   1
_chemical_formula_structural   Al11(CrRu)2
_chemical_formula_sum   'Al11 Cr2 Ru2'
_cell_volume   222.25496126
_cell_formula_units_Z   1
loop_
 _symmetry_equiv_pos_site_id
 _symmetry_equiv_pos_as_xyz
  1  'x, y, z'
loop_
 _atom_site_type_symbol
 _atom_site_label
 _atom_site_symmetry_multiplicity
 _atom_site_fract_x
 _atom_site_fract_y
 _atom_site_fract_z
 _atom_site_occupancy
  Al  Al0  1  0.000000  0.000000  0.000000  1
  Al  Al1  1  0.946768  0.808770  0.665584  1
  Al  Al2  1  0.053232  0.191230  0.334416  1
  Al  Al3  1  0.802051  0.259471  0.631274  1
  Al  Al4  1  0.848846  0.533944  0.132280  1
  Al  Al5  1  0.151154  0.466056  0.867720  1
  Al  Al6  1  0.501953  0.899375  0.130821  1
  Al  Al7  1  0.498047  0.100625  0.869179  1
  Al  Al8  1  0.569997  0.325839  0.378865  1
  Al  Al9  1  0.430003  0.674161  0.621135  1
  Al  Al10  1  0.197949  0.740529  0.368726  1
  Cr  Cr11  1  0.284915  0.152982  0.601656  1
  Cr  Cr12  1  0.715085  0.847018  0.398344  1
  Ru  Ru13  1  0.664033  0.612235  0.868792  1
  Ru  Ru14  1  0.335967  0.387765  0.131208  1
