# generated using pymatgen
data_Nd(GaCu)6
_symmetry_space_group_name_H-M   'P 1'
_cell_length_a   6.66500929
_cell_length_b   6.66500871
_cell_length_c   6.66500908
_cell_angle_alpha   134.16186236
_cell_angle_beta   99.72359267
_cell_angle_gamma   97.72490638
_symmetry_Int_Tables_number   1
_chemical_formula_structural   Nd(GaCu)6
_chemical_formula_sum   'Nd1 Ga6 Cu6'
_cell_volume   195.58901134
_cell_formula_units_Z   1
loop_
 _symmetry_equiv_pos_site_id
 _symmetry_equiv_pos_as_xyz
  1  'x, y, z'
loop_
 _atom_site_type_symbol
 _atom_site_label
 _atom_site_symmetry_multiplicity
 _atom_site_fract_x
 _atom_site_fract_y
 _atom_site_fract_z
 _atom_site_occupancy
  Nd  Nd0  1  0.000000  0.000000  0.000000  1
  Ga  Ga1  1  0.651055  0.000000  0.651055  1
  Ga  Ga2  1  0.348945  0.000000  0.348945  1
  Ga  Ga3  1  0.650333  0.650333  0.000000  1
  Ga  Ga4  1  0.349667  0.349667  0.000000  1
  Ga  Ga5  1  0.199474  0.699474  0.500000  1
  Ga  Ga6  1  0.800526  0.300526  0.500000  1
  Cu  Cu7  1  0.000000  0.000000  0.500000  1
  Cu  Cu8  1  0.000000  0.500000  0.000000  1
  Cu  Cu9  1  0.500000  0.500000  0.500000  1
  Cu  Cu10  1  0.500000  0.000000  0.000000  1
  Cu  Cu11  1  0.236283  0.500000  0.736283  1
  Cu  Cu12  1  0.763717  0.500000  0.263717  1
