# generated using pymatgen
data_Tb8Si11
_symmetry_space_group_name_H-M   'P 1'
_cell_length_a   12.77027213
_cell_length_b   12.77027173
_cell_length_c   12.77027195
_cell_angle_alpha   160.76413205
_cell_angle_beta   144.95682473
_cell_angle_gamma   40.28036736
_symmetry_Int_Tables_number   1
_chemical_formula_structural   Tb8Si11
_chemical_formula_sum   'Tb8 Si11'
_cell_volume   393.40155482
_cell_formula_units_Z   1
loop_
 _symmetry_equiv_pos_site_id
 _symmetry_equiv_pos_as_xyz
  1  'x, y, z'
loop_
 _atom_site_type_symbol
 _atom_site_label
 _atom_site_symmetry_multiplicity
 _atom_site_fract_x
 _atom_site_fract_y
 _atom_site_fract_z
 _atom_site_occupancy
  Tb  Tb0  1  0.300355  0.300355  0.000000  1
  Tb  Tb1  1  0.572853  0.572853  0.000000  1
  Tb  Tb2  1  0.951495  0.701285  0.250211  1
  Tb  Tb3  1  0.686481  0.429211  0.257270  1
  Tb  Tb4  1  0.797577  0.297577  0.500000  1
  Tb  Tb5  1  0.068449  0.568449  0.500001  1
  Tb  Tb6  1  0.171941  0.429212  0.742730  1
  Tb  Tb7  1  0.451073  0.701285  0.749789  1
  Si  Si8  1  0.176337  0.176337  0.000000  1
  Si  Si9  1  0.884408  0.884408  0.000000  1
  Si  Si10  1  0.983206  0.983206  0.000000  1
  Si  Si11  1  0.359035  0.112189  0.246845  1
  Si  Si12  1  0.082011  0.826101  0.255912  1
  Si  Si13  1  0.320665  0.012141  0.308524  1
  Si  Si14  1  0.673706  0.173706  0.500000  1
  Si  Si15  1  0.394451  0.894452  0.500001  1
  Si  Si16  1  0.703616  0.012141  0.691475  1
  Si  Si17  1  0.570190  0.826101  0.744090  1
  Si  Si18  1  0.865343  0.112189  0.753154  1
