# generated using pymatgen
data_Ce2Al9ReRh2
_symmetry_space_group_name_H-M   'P 1'
_cell_length_a   7.59983200
_cell_length_b   7.59983284
_cell_length_c   9.29876500
_cell_angle_alpha   90.00000000
_cell_angle_beta   90.00000000
_cell_angle_gamma   117.92444843
_symmetry_Int_Tables_number   1
_chemical_formula_structural   Ce2Al9ReRh2
_chemical_formula_sum   'Ce4 Al18 Re2 Rh4'
_cell_volume   474.53936144
_cell_formula_units_Z   2
loop_
 _symmetry_equiv_pos_site_id
 _symmetry_equiv_pos_as_xyz
  1  'x, y, z'
loop_
 _atom_site_type_symbol
 _atom_site_label
 _atom_site_symmetry_multiplicity
 _atom_site_fract_x
 _atom_site_fract_y
 _atom_site_fract_z
 _atom_site_occupancy
  Ce  Ce0  1  0.995446  0.695484  0.750000  1
  Ce  Ce1  1  0.004554  0.304516  0.250000  1
  Ce  Ce2  1  0.695484  0.995446  0.750000  1
  Ce  Ce3  1  0.304516  0.004554  0.250000  1
  Al  Al4  1  0.147855  0.147855  0.750000  1
  Al  Al5  1  0.852145  0.852145  0.250000  1
  Al  Al6  1  0.006070  0.347034  0.580907  1
  Al  Al7  1  0.993930  0.652966  0.419093  1
  Al  Al8  1  0.993930  0.652966  0.080907  1
  Al  Al9  1  0.347034  0.006070  0.919093  1
  Al  Al10  1  0.006070  0.347034  0.919093  1
  Al  Al11  1  0.652966  0.993930  0.080907  1
  Al  Al12  1  0.652966  0.993930  0.419093  1
  Al  Al13  1  0.347034  0.006070  0.580907  1
  Al  Al14  1  0.333688  0.333688  0.035658  1
  Al  Al15  1  0.666312  0.666312  0.964342  1
  Al  Al16  1  0.666312  0.666312  0.535658  1
  Al  Al17  1  0.333688  0.333688  0.464342  1
  Al  Al18  1  0.348946  0.562459  0.750000  1
  Al  Al19  1  0.651054  0.437541  0.250000  1
  Al  Al20  1  0.562459  0.348946  0.750000  1
  Al  Al21  1  0.437541  0.651054  0.250000  1
  Re  Re22  1  0.000000  0.000000  0.500000  1
  Re  Re23  1  0.000000  0.000000  0.000000  1
  Rh  Rh24  1  0.672177  0.327823  0.500000  1
  Rh  Rh25  1  0.327823  0.672177  0.500000  1
  Rh  Rh26  1  0.327823  0.672177  0.000000  1
  Rh  Rh27  1  0.672177  0.327823  0.000000  1
