# generated using pymatgen
data_Dy8Y8Cd4Co3Ni
_symmetry_space_group_name_H-M   'P 1'
_cell_length_a   9.54758698
_cell_length_b   9.55220675
_cell_length_c   9.56151400
_cell_angle_alpha   59.96776334
_cell_angle_beta   59.95173502
_cell_angle_gamma   60.06946198
_symmetry_Int_Tables_number   1
_chemical_formula_structural   Dy8Y8Cd4Co3Ni
_chemical_formula_sum   'Dy8 Y8 Cd4 Co3 Ni1'
_cell_volume   616.55480854
_cell_formula_units_Z   1
loop_
 _symmetry_equiv_pos_site_id
 _symmetry_equiv_pos_as_xyz
  1  'x, y, z'
loop_
 _atom_site_type_symbol
 _atom_site_label
 _atom_site_symmetry_multiplicity
 _atom_site_fract_x
 _atom_site_fract_y
 _atom_site_fract_z
 _atom_site_occupancy
  Dy  Dy0  1  0.594605  0.598176  0.597344  1
  Dy  Dy1  1  0.594605  0.598176  0.209873  1
  Dy  Dy2  1  0.595777  0.208446  0.597888  1
  Dy  Dy3  1  0.211687  0.596703  0.595805  1
  Dy  Dy4  1  0.065144  0.437728  0.439048  1
  Dy  Dy5  1  0.437207  0.061767  0.061825  1
  Dy  Dy6  1  0.437207  0.061767  0.439201  1
  Dy  Dy7  1  0.065144  0.437728  0.058079  1
  Y  Y8  1  0.438194  0.438592  0.061607  1
  Y  Y9  1  0.064565  0.057861  0.438787  1
  Y  Y10  1  0.187469  0.811950  0.812895  1
  Y  Y11  1  0.810175  0.188569  0.187641  1
  Y  Y12  1  0.810175  0.188569  0.813615  1
  Y  Y13  1  0.187469  0.811950  0.187686  1
  Y  Y14  1  0.810409  0.813135  0.188228  1
  Y  Y15  1  0.188011  0.188932  0.811528  1
  Cd  Cd16  1  0.830067  0.830050  0.830297  1
  Cd  Cd17  1  0.830067  0.830050  0.509584  1
  Cd  Cd18  1  0.830074  0.507990  0.830967  1
  Cd  Cd19  1  0.507039  0.830306  0.831328  1
  Co  Co20  1  0.392076  0.390858  0.392492  1
  Co  Co21  1  0.392076  0.390858  0.824574  1
  Co  Co22  1  0.394974  0.825987  0.389519  1
  Ni  Ni23  1  0.825781  0.393848  0.390186  1
