# generated using pymatgen
data_Nd2Zn(PIr2)6
_symmetry_space_group_name_H-M   'P 1'
_cell_length_a   9.71622000
_cell_length_b   9.71622033
_cell_length_c   3.97575300
_cell_angle_alpha   90.00000000
_cell_angle_beta   90.00000000
_cell_angle_gamma   120.00001340
_symmetry_Int_Tables_number   1
_chemical_formula_structural   Nd2Zn(PIr2)6
_chemical_formula_sum   'Nd2 Zn1 P6 Ir12'
_cell_volume   325.04587783
_cell_formula_units_Z   1
loop_
 _symmetry_equiv_pos_site_id
 _symmetry_equiv_pos_as_xyz
  1  'x, y, z'
loop_
 _atom_site_type_symbol
 _atom_site_label
 _atom_site_symmetry_multiplicity
 _atom_site_fract_x
 _atom_site_fract_y
 _atom_site_fract_z
 _atom_site_occupancy
  Nd  Nd0  1  0.333333  0.666667  0.753143  1
  Nd  Nd1  1  0.666667  0.333333  0.246857  1
  Zn  Zn2  1  0.000000  0.000000  0.500000  1
  P  P3  1  0.881269  0.598886  0.746403  1
  P  P4  1  0.401114  0.282383  0.746403  1
  P  P5  1  0.717617  0.118731  0.746403  1
  P  P6  1  0.118731  0.401114  0.253597  1
  P  P7  1  0.598886  0.717617  0.253597  1
  P  P8  1  0.282383  0.881269  0.253597  1
  Ir  Ir9  1  0.611817  0.545839  0.748523  1
  Ir  Ir10  1  0.454161  0.065980  0.748523  1
  Ir  Ir11  1  0.934020  0.388183  0.748523  1
  Ir  Ir12  1  0.388183  0.454161  0.251477  1
  Ir  Ir13  1  0.545839  0.934020  0.251477  1
  Ir  Ir14  1  0.065980  0.611817  0.251477  1
  Ir  Ir15  1  0.124285  0.839544  0.757911  1
  Ir  Ir16  1  0.160456  0.284741  0.757911  1
  Ir  Ir17  1  0.715259  0.875715  0.757911  1
  Ir  Ir18  1  0.875715  0.160456  0.242089  1
  Ir  Ir19  1  0.839544  0.715259  0.242089  1
  Ir  Ir20  1  0.284741  0.124285  0.242089  1
