# generated using pymatgen
data_Dy16Lu4Si15Ir
_symmetry_space_group_name_H-M   'P 1'
_cell_length_a   7.39211956
_cell_length_b   7.64163932
_cell_length_c   14.58853400
_cell_angle_alpha   89.66881112
_cell_angle_beta   89.67006446
_cell_angle_gamma   90.18499623
_symmetry_Int_Tables_number   1
_chemical_formula_structural   Dy16Lu4Si15Ir
_chemical_formula_sum   'Dy16 Lu4 Si15 Ir1'
_cell_volume   824.04400294
_cell_formula_units_Z   1
loop_
 _symmetry_equiv_pos_site_id
 _symmetry_equiv_pos_as_xyz
  1  'x, y, z'
loop_
 _atom_site_type_symbol
 _atom_site_label
 _atom_site_symmetry_multiplicity
 _atom_site_fract_x
 _atom_site_fract_y
 _atom_site_fract_z
 _atom_site_occupancy
  Dy  Dy0  1  0.974193  0.815412  0.097986  1
  Dy  Dy1  1  0.471900  0.682477  0.401212  1
  Dy  Dy2  1  0.529910  0.323823  0.900592  1
  Dy  Dy3  1  0.029169  0.184263  0.599454  1
  Dy  Dy4  1  0.027540  0.186254  0.901812  1
  Dy  Dy5  1  0.529526  0.318365  0.598841  1
  Dy  Dy6  1  0.474582  0.681940  0.099840  1
  Dy  Dy7  1  0.970038  0.817230  0.400263  1
  Dy  Dy8  1  0.684430  0.810672  0.882418  1
  Dy  Dy9  1  0.178877  0.681030  0.621999  1
  Dy  Dy10  1  0.817166  0.334802  0.118620  1
  Dy  Dy11  1  0.315284  0.177284  0.375721  1
  Dy  Dy12  1  0.320364  0.178895  0.123885  1
  Dy  Dy13  1  0.818701  0.320074  0.376953  1
  Dy  Dy14  1  0.175899  0.674422  0.878294  1
  Dy  Dy15  1  0.683344  0.819353  0.622682  1
  Lu  Lu16  1  0.648283  0.993193  0.248715  1
  Lu  Lu17  1  0.148255  0.510298  0.247996  1
  Lu  Lu18  1  0.848140  0.487103  0.758175  1
  Lu  Lu19  1  0.353067  0.009916  0.752190  1
  Si  Si20  1  0.766610  0.631982  0.251966  1
  Si  Si21  1  0.267677  0.869793  0.250755  1
  Si  Si22  1  0.731538  0.124605  0.748685  1
  Si  Si23  1  0.235028  0.370713  0.746584  1
  Si  Si24  1  0.016674  0.104946  0.248557  1
  Si  Si25  1  0.520550  0.397846  0.251420  1
  Si  Si26  1  0.473629  0.605246  0.746558  1
  Si  Si27  1  0.979593  0.899482  0.748614  1
  Si  Si28  1  0.354159  0.972564  0.540126  1
  Si  Si29  1  0.646355  0.027452  0.042400  1
  Si  Si30  1  0.147563  0.470720  0.459835  1
  Si  Si31  1  0.155040  0.473693  0.042236  1
  Si  Si32  1  0.643322  0.028056  0.459022  1
  Si  Si33  1  0.353665  0.969935  0.961298  1
  Si  Si34  1  0.853546  0.528193  0.539311  1
  Ir  Ir35  1  0.856379  0.517970  0.954993  1
