# generated using pymatgen
data_BaMnP3N5O2
_symmetry_space_group_name_H-M   'P 1'
_cell_length_a   6.87448200
_cell_length_b   7.20976002
_cell_length_c   14.50228046
_cell_angle_alpha   60.30303360
_cell_angle_beta   90.00000000
_cell_angle_gamma   90.00000000
_symmetry_Int_Tables_number   1
_chemical_formula_structural   BaMnP3N5O2
_chemical_formula_sum   'Ba4 Mn4 P12 N20 O8'
_cell_volume   624.37540155
_cell_formula_units_Z   4
loop_
 _symmetry_equiv_pos_site_id
 _symmetry_equiv_pos_as_xyz
  1  'x, y, z'
loop_
 _atom_site_type_symbol
 _atom_site_label
 _atom_site_symmetry_multiplicity
 _atom_site_fract_x
 _atom_site_fract_y
 _atom_site_fract_z
 _atom_site_occupancy
  Ba  Ba0  1  0.747704  0.507478  0.614528  1
  Ba  Ba1  1  0.247704  0.492522  0.885472  1
  Ba  Ba2  1  0.252296  0.492522  0.385472  1
  Ba  Ba3  1  0.752296  0.507478  0.114528  1
  Mn  Mn4  1  0.508540  0.989109  0.880540  1
  Mn  Mn5  1  0.008540  0.010891  0.619460  1
  Mn  Mn6  1  0.491460  0.010891  0.119460  1
  Mn  Mn7  1  0.991460  0.989109  0.380540  1
  P  P8  1  0.014453  0.956210  0.875027  1
  P  P9  1  0.514453  0.043790  0.624973  1
  P  P10  1  0.985547  0.043790  0.124973  1
  P  P11  1  0.485547  0.956210  0.375027  1
  P  P12  1  0.286210  0.740204  0.584986  1
  P  P13  1  0.786210  0.259796  0.915014  1
  P  P14  1  0.713790  0.259796  0.415014  1
  P  P15  1  0.213790  0.740204  0.084986  1
  P  P16  1  0.765333  0.726916  0.796666  1
  P  P17  1  0.265333  0.273084  0.703334  1
  P  P18  1  0.234667  0.273084  0.203334  1
  P  P19  1  0.734667  0.726916  0.296666  1
  N  N20  1  0.315595  0.921827  0.620870  1
  N  N21  1  0.815595  0.078173  0.879130  1
  N  N22  1  0.684405  0.078173  0.379130  1
  N  N23  1  0.184405  0.921827  0.120870  1
  N  N24  1  0.700076  0.878528  0.671025  1
  N  N25  1  0.200076  0.121472  0.828975  1
  N  N26  1  0.299924  0.121472  0.328975  1
  N  N27  1  0.799924  0.878528  0.171025  1
  N  N28  1  0.968400  0.844679  0.802157  1
  N  N29  1  0.468400  0.155321  0.697843  1
  N  N30  1  0.031600  0.155321  0.197843  1
  N  N31  1  0.531600  0.844679  0.302157  1
  N  N32  1  0.820006  0.494124  0.810599  1
  N  N33  1  0.320006  0.505876  0.689401  1
  N  N34  1  0.179994  0.505876  0.189401  1
  N  N35  1  0.679994  0.494124  0.310599  1
  N  N36  1  0.572885  0.244031  0.508431  1
  N  N37  1  0.072885  0.755969  0.991569  1
  N  N38  1  0.427115  0.755969  0.491569  1
  N  N39  1  0.927115  0.244031  0.008431  1
  O  O40  1  0.066167  0.776301  0.549037  1
  O  O41  1  0.566167  0.223699  0.950963  1
  O  O42  1  0.933833  0.223699  0.450963  1
  O  O43  1  0.433833  0.776301  0.049037  1
  O  O44  1  0.607415  0.706810  0.878371  1
  O  O45  1  0.107415  0.293190  0.621629  1
  O  O46  1  0.392585  0.293190  0.121629  1
  O  O47  1  0.892585  0.706810  0.378371  1
