# generated using pymatgen
data_Pr2Er3Si3Ir
_symmetry_space_group_name_H-M   'P 1'
_cell_length_a   7.28743200
_cell_length_b   8.07216000
_cell_length_c   14.91588400
_cell_angle_alpha   90.00000000
_cell_angle_beta   90.00000000
_cell_angle_gamma   90.00000000
_symmetry_Int_Tables_number   1
_chemical_formula_structural   Pr2Er3Si3Ir
_chemical_formula_sum   'Pr8 Er12 Si12 Ir4'
_cell_volume   877.43160602
_cell_formula_units_Z   4
loop_
 _symmetry_equiv_pos_site_id
 _symmetry_equiv_pos_as_xyz
  1  'x, y, z'
loop_
 _atom_site_type_symbol
 _atom_site_label
 _atom_site_symmetry_multiplicity
 _atom_site_fract_x
 _atom_site_fract_y
 _atom_site_fract_z
 _atom_site_occupancy
  Pr  Pr0  1  0.007984  0.181871  0.093945  1
  Pr  Pr1  1  0.992016  0.818129  0.906055  1
  Pr  Pr2  1  0.492016  0.681871  0.906055  1
  Pr  Pr3  1  0.992016  0.818129  0.593945  1
  Pr  Pr4  1  0.507984  0.318129  0.093945  1
  Pr  Pr5  1  0.007984  0.181871  0.406055  1
  Pr  Pr6  1  0.507984  0.318129  0.406055  1
  Pr  Pr7  1  0.492016  0.681871  0.593945  1
  Er  Er8  1  0.173738  0.507889  0.750000  1
  Er  Er9  1  0.826262  0.492111  0.250000  1
  Er  Er10  1  0.326262  0.007889  0.250000  1
  Er  Er11  1  0.673738  0.992111  0.750000  1
  Er  Er12  1  0.317062  0.171529  0.629914  1
  Er  Er13  1  0.682938  0.828471  0.370086  1
  Er  Er14  1  0.182938  0.671529  0.370086  1
  Er  Er15  1  0.682938  0.828471  0.129914  1
  Er  Er16  1  0.817062  0.328471  0.629914  1
  Er  Er17  1  0.317062  0.171529  0.870086  1
  Er  Er18  1  0.817062  0.328471  0.870086  1
  Er  Er19  1  0.182938  0.671529  0.129914  1
  Si  Si20  1  0.272882  0.871013  0.750000  1
  Si  Si21  1  0.727118  0.128987  0.250000  1
  Si  Si22  1  0.227118  0.371013  0.250000  1
  Si  Si23  1  0.772882  0.628987  0.750000  1
  Si  Si24  1  0.150837  0.469476  0.537443  1
  Si  Si25  1  0.849163  0.530524  0.462557  1
  Si  Si26  1  0.349163  0.969476  0.462557  1
  Si  Si27  1  0.849163  0.530524  0.037443  1
  Si  Si28  1  0.650837  0.030524  0.537443  1
  Si  Si29  1  0.150837  0.469476  0.962557  1
  Si  Si30  1  0.650837  0.030524  0.962557  1
  Si  Si31  1  0.349163  0.969476  0.037443  1
  Ir  Ir32  1  0.025244  0.104157  0.750000  1
  Ir  Ir33  1  0.974756  0.895843  0.250000  1
  Ir  Ir34  1  0.474756  0.604157  0.250000  1
  Ir  Ir35  1  0.525244  0.395843  0.750000  1
