# generated using pymatgen
data_Ho16Cd4OsPd3
_symmetry_space_group_name_H-M   'P 1'
_cell_length_a   9.67000162
_cell_length_b   9.67000132
_cell_length_c   9.67000282
_cell_angle_alpha   59.38907807
_cell_angle_beta   59.38907968
_cell_angle_gamma   59.38907532
_symmetry_Int_Tables_number   1
_chemical_formula_structural   Ho16Cd4OsPd3
_chemical_formula_sum   'Ho16 Cd4 Os1 Pd3'
_cell_volume   630.49867293
_cell_formula_units_Z   1
loop_
 _symmetry_equiv_pos_site_id
 _symmetry_equiv_pos_as_xyz
  1  'x, y, z'
loop_
 _atom_site_type_symbol
 _atom_site_label
 _atom_site_symmetry_multiplicity
 _atom_site_fract_x
 _atom_site_fract_y
 _atom_site_fract_z
 _atom_site_occupancy
  Ho  Ho0  1  0.352870  0.352870  0.352870  1
  Ho  Ho1  1  0.350708  0.350708  0.944384  1
  Ho  Ho2  1  0.350708  0.944384  0.350708  1
  Ho  Ho3  1  0.944384  0.350708  0.350708  1
  Ho  Ho4  1  0.815679  0.188575  0.188575  1
  Ho  Ho5  1  0.188187  0.810470  0.810470  1
  Ho  Ho6  1  0.188575  0.815679  0.188575  1
  Ho  Ho7  1  0.810470  0.188187  0.810470  1
  Ho  Ho8  1  0.188575  0.188575  0.815679  1
  Ho  Ho9  1  0.810470  0.810470  0.188187  1
  Ho  Ho10  1  0.934346  0.566567  0.566567  1
  Ho  Ho11  1  0.558754  0.937007  0.937007  1
  Ho  Ho12  1  0.566567  0.934346  0.566567  1
  Ho  Ho13  1  0.937007  0.558754  0.937007  1
  Ho  Ho14  1  0.566567  0.566567  0.934346  1
  Ho  Ho15  1  0.937007  0.937007  0.558754  1
  Cd  Cd16  1  0.580866  0.580866  0.580866  1
  Cd  Cd17  1  0.581360  0.581360  0.253836  1
  Cd  Cd18  1  0.581360  0.253836  0.581360  1
  Cd  Cd19  1  0.253836  0.581360  0.581360  1
  Os  Os20  1  0.143842  0.143842  0.143842  1
  Pd  Pd21  1  0.144430  0.144430  0.569002  1
  Pd  Pd22  1  0.144430  0.569002  0.144430  1
  Pd  Pd23  1  0.569002  0.144430  0.144430  1
