# generated using pymatgen
data_La2Ho3Tm3(WO6)4
_symmetry_space_group_name_H-M   'P 1'
_cell_length_a   5.44716193
_cell_length_b   7.77035038
_cell_length_c   11.52368472
_cell_angle_alpha   75.66393343
_cell_angle_beta   90.01245534
_cell_angle_gamma   90.06663186
_symmetry_Int_Tables_number   1
_chemical_formula_structural   La2Ho3Tm3(WO6)4
_chemical_formula_sum   'La2 Ho3 Tm3 W4 O24'
_cell_volume   472.56658916
_cell_formula_units_Z   1
loop_
 _symmetry_equiv_pos_site_id
 _symmetry_equiv_pos_as_xyz
  1  'x, y, z'
loop_
 _atom_site_type_symbol
 _atom_site_label
 _atom_site_symmetry_multiplicity
 _atom_site_fract_x
 _atom_site_fract_y
 _atom_site_fract_z
 _atom_site_occupancy
  La  La0  1  0.686237  0.500226  0.750039  1
  La  La1  1  0.313597  0.500208  0.249410  1
  Ho  Ho2  1  0.742932  0.999950  0.750830  1
  Ho  Ho3  1  0.256778  0.999565  0.249037  1
  Ho  Ho4  1  0.814446  0.201370  0.423775  1
  Tm  Tm5  1  0.185465  0.797563  0.576932  1
  Tm  Tm6  1  0.815280  0.797578  0.076822  1
  Tm  Tm7  1  0.184191  0.202503  0.923215  1
  W  W8  1  0.252876  0.730213  0.883630  1
  W  W9  1  0.747348  0.730223  0.383691  1
  W  W10  1  0.252559  0.270097  0.617161  1
  W  W11  1  0.746642  0.270069  0.115682  1
  O  O12  1  0.044149  0.943528  0.896872  1
  O  O13  1  0.538528  0.841685  0.931424  1
  O  O14  1  0.959916  0.941952  0.396627  1
  O  O15  1  0.451586  0.798825  0.725613  1
  O  O16  1  0.463881  0.843296  0.431493  1
  O  O17  1  0.985471  0.724720  0.767856  1
  O  O18  1  0.548577  0.798948  0.225429  1
  O  O19  1  0.859629  0.644063  0.544520  1
  O  O20  1  0.341109  0.494285  0.886887  1
  O  O21  1  0.013915  0.723856  0.267383  1
  O  O22  1  0.341391  0.506135  0.614019  1
  O  O23  1  0.859167  0.356158  0.955114  1
  O  O24  1  0.140436  0.644468  0.044444  1
  O  O25  1  0.656495  0.495043  0.386892  1
  O  O26  1  0.984635  0.275438  0.732409  1
  O  O27  1  0.658368  0.505910  0.112936  1
  O  O28  1  0.143163  0.356412  0.455878  1
  O  O29  1  0.451016  0.201659  0.775147  1
  O  O30  1  0.014922  0.275735  0.230795  1
  O  O31  1  0.536567  0.156964  0.570454  1
  O  O32  1  0.546933  0.201490  0.273049  1
  O  O33  1  0.044065  0.055909  0.604170  1
  O  O34  1  0.461941  0.157552  0.067594  1
  O  O35  1  0.955787  0.056406  0.102772  1
