# generated using pymatgen
data_La2HfTiF14
_symmetry_space_group_name_H-M   'P 1'
_cell_length_a   5.83726300
_cell_length_b   9.31483472
_cell_length_c   12.44777100
_cell_angle_alpha   62.11383481
_cell_angle_beta   90.00000000
_cell_angle_gamma   90.00000000
_symmetry_Int_Tables_number   1
_chemical_formula_structural   La2HfTiF14
_chemical_formula_sum   'La4 Hf2 Ti2 F28'
_cell_volume   598.23059442
_cell_formula_units_Z   2
loop_
 _symmetry_equiv_pos_site_id
 _symmetry_equiv_pos_as_xyz
  1  'x, y, z'
loop_
 _atom_site_type_symbol
 _atom_site_label
 _atom_site_symmetry_multiplicity
 _atom_site_fract_x
 _atom_site_fract_y
 _atom_site_fract_z
 _atom_site_occupancy
  La  La0  1  0.758875  0.807561  0.262543  1
  La  La1  1  0.258875  0.192439  0.237457  1
  La  La2  1  0.241151  0.188277  0.731768  1
  La  La3  1  0.741151  0.811723  0.768232  1
  Hf  Hf4  1  0.245608  0.726288  0.542658  1
  Hf  Hf5  1  0.745608  0.273712  0.957342  1
  Ti  Ti6  1  0.755572  0.275076  0.456161  1
  Ti  Ti7  1  0.255572  0.724924  0.043839  1
  F  F8  1  0.961430  0.714107  0.455572  1
  F  F9  1  0.461430  0.285893  0.044428  1
  F  F10  1  0.022843  0.284507  0.541078  1
  F  F11  1  0.522843  0.715493  0.958922  1
  F  F12  1  0.060852  0.709948  0.928620  1
  F  F13  1  0.560852  0.290052  0.571380  1
  F  F14  1  0.949749  0.290428  0.079923  1
  F  F15  1  0.449749  0.709572  0.420077  1
  F  F16  1  0.735214  0.516472  0.860775  1
  F  F17  1  0.235214  0.483528  0.639225  1
  F  F18  1  0.264928  0.495730  0.136435  1
  F  F19  1  0.764928  0.504270  0.363565  1
  F  F20  1  0.738546  0.031422  0.052208  1
  F  F21  1  0.238546  0.968578  0.447792  1
  F  F22  1  0.259200  0.952833  0.951042  1
  F  F23  1  0.759200  0.047167  0.548958  1
  F  F24  1  0.046645  0.744471  0.668553  1
  F  F25  1  0.546645  0.255529  0.831447  1
  F  F26  1  0.947178  0.258059  0.338356  1
  F  F27  1  0.447178  0.741941  0.161644  1
  F  F28  1  0.019482  0.267485  0.862232  1
  F  F29  1  0.519482  0.732515  0.637768  1
  F  F30  1  0.997637  0.731045  0.133863  1
  F  F31  1  0.497637  0.268955  0.366137  1
  F  F32  1  0.085083  0.970972  0.232595  1
  F  F33  1  0.585083  0.029028  0.267405  1
  F  F34  1  0.910004  0.031817  0.771908  1
  F  F35  1  0.410004  0.968183  0.728092  1
