# generated using pymatgen
data_KPaCuTe3
_symmetry_space_group_name_H-M   'P 1'
_cell_length_a   8.37737900
_cell_length_b   8.37737816
_cell_length_c   11.09645900
_cell_angle_alpha   90.00000000
_cell_angle_beta   90.00000000
_cell_angle_gamma   151.41968867
_symmetry_Int_Tables_number   1
_chemical_formula_structural   KPaCuTe3
_chemical_formula_sum   'K2 Pa2 Cu2 Te6'
_cell_volume   372.54857341
_cell_formula_units_Z   2
loop_
 _symmetry_equiv_pos_site_id
 _symmetry_equiv_pos_as_xyz
  1  'x, y, z'
loop_
 _atom_site_type_symbol
 _atom_site_label
 _atom_site_symmetry_multiplicity
 _atom_site_fract_x
 _atom_site_fract_y
 _atom_site_fract_z
 _atom_site_occupancy
  K  K0  1  0.252765  0.747235  0.250000  1
  K  K1  1  0.747235  0.252765  0.750000  1
  Pa  Pa2  1  0.000000  0.000000  0.000000  1
  Pa  Pa3  1  0.000000  0.000000  0.500000  1
  Cu  Cu4  1  0.530054  0.469946  0.250000  1
  Cu  Cu5  1  0.469946  0.530054  0.750000  1
  Te  Te6  1  0.631585  0.368415  0.065886  1
  Te  Te7  1  0.927996  0.072005  0.250000  1
  Te  Te8  1  0.631585  0.368415  0.434114  1
  Te  Te9  1  0.368415  0.631585  0.565886  1
  Te  Te10  1  0.072005  0.927996  0.750000  1
  Te  Te11  1  0.368415  0.631585  0.934114  1
