# generated using pymatgen
data_Yb(ZnAg)6
_symmetry_space_group_name_H-M   'P 1'
_cell_length_a   7.07536594
_cell_length_b   7.07536637
_cell_length_c   7.07536605
_cell_angle_alpha   99.13743596
_cell_angle_beta   96.80714043
_cell_angle_gamma   136.27528903
_symmetry_Int_Tables_number   1
_chemical_formula_structural   Yb(ZnAg)6
_chemical_formula_sum   'Yb1 Zn6 Ag6'
_cell_volume   227.15066523
_cell_formula_units_Z   1
loop_
 _symmetry_equiv_pos_site_id
 _symmetry_equiv_pos_as_xyz
  1  'x, y, z'
loop_
 _atom_site_type_symbol
 _atom_site_label
 _atom_site_symmetry_multiplicity
 _atom_site_fract_x
 _atom_site_fract_y
 _atom_site_fract_z
 _atom_site_occupancy
  Yb  Yb0  1  0.000000  0.000000  0.000000  1
  Zn  Zn1  1  0.000000  0.000000  0.500000  1
  Zn  Zn2  1  0.500000  0.500000  0.500000  1
  Zn  Zn3  1  0.500000  0.000000  0.000000  1
  Zn  Zn4  1  0.000000  0.500000  0.000000  1
  Zn  Zn5  1  0.726407  0.500000  0.226407  1
  Zn  Zn6  1  0.273593  0.500000  0.773593  1
  Ag  Ag7  1  0.000000  0.344825  0.344825  1
  Ag  Ag8  1  0.000000  0.655175  0.655175  1
  Ag  Ag9  1  0.653862  0.000000  0.653862  1
  Ag  Ag10  1  0.346138  0.000000  0.346138  1
  Ag  Ag11  1  0.500000  0.302707  0.802707  1
  Ag  Ag12  1  0.500000  0.697293  0.197293  1
