# generated using pymatgen
data_Tb5Dy11MgCd3OsPt3
_symmetry_space_group_name_H-M   'P 1'
_cell_length_a   9.73430380
_cell_length_b   9.73199562
_cell_length_c   9.73199528
_cell_angle_alpha   59.47447198
_cell_angle_beta   59.47321873
_cell_angle_gamma   59.47322174
_symmetry_Int_Tables_number   1
_chemical_formula_structural   Tb5Dy11MgCd3OsPt3
_chemical_formula_sum   'Tb5 Dy11 Mg1 Cd3 Os1 Pt3'
_cell_volume   644.11377864
_cell_formula_units_Z   1
loop_
 _symmetry_equiv_pos_site_id
 _symmetry_equiv_pos_as_xyz
  1  'x, y, z'
loop_
 _atom_site_type_symbol
 _atom_site_label
 _atom_site_symmetry_multiplicity
 _atom_site_fract_x
 _atom_site_fract_y
 _atom_site_fract_z
 _atom_site_occupancy
  Tb  Tb0  1  0.558285  0.938237  0.938237  1
  Tb  Tb1  1  0.566036  0.936392  0.565544  1
  Tb  Tb2  1  0.938228  0.558307  0.937880  1
  Tb  Tb3  1  0.566036  0.565544  0.936392  1
  Tb  Tb4  1  0.938228  0.937880  0.558307  1
  Dy  Dy5  1  0.352091  0.352016  0.352016  1
  Dy  Dy6  1  0.348573  0.348894  0.950806  1
  Dy  Dy7  1  0.348573  0.950806  0.348894  1
  Dy  Dy8  1  0.950489  0.348859  0.348859  1
  Dy  Dy9  1  0.814162  0.189304  0.189304  1
  Dy  Dy10  1  0.186644  0.810897  0.810897  1
  Dy  Dy11  1  0.189130  0.814143  0.189465  1
  Dy  Dy12  1  0.811041  0.186723  0.810839  1
  Dy  Dy13  1  0.189130  0.189465  0.814143  1
  Dy  Dy14  1  0.811041  0.810839  0.186723  1
  Dy  Dy15  1  0.937079  0.565325  0.565325  1
  Mg  Mg16  1  0.576097  0.575876  0.575876  1
  Cd  Cd17  1  0.580921  0.581069  0.254410  1
  Cd  Cd18  1  0.580921  0.254410  0.581069  1
  Cd  Cd19  1  0.253905  0.581113  0.581113  1
  Os  Os20  1  0.142936  0.143098  0.143098  1
  Pt  Pt21  1  0.143949  0.144359  0.572452  1
  Pt  Pt22  1  0.143949  0.572452  0.144359  1
  Pt  Pt23  1  0.572557  0.143995  0.143995  1
