# generated using pymatgen
data_PrEu3(PPt3)8
_symmetry_space_group_name_H-M   'P 1'
_cell_length_a   8.60101812
_cell_length_b   8.60101812
_cell_length_c   8.60101812
_cell_angle_alpha   90.04132056
_cell_angle_beta   90.04132056
_cell_angle_gamma   90.04132056
_symmetry_Int_Tables_number   1
_chemical_formula_structural   PrEu3(PPt3)8
_chemical_formula_sum   'Pr1 Eu3 P8 Pt24'
_cell_volume   636.28143030
_cell_formula_units_Z   1
loop_
 _symmetry_equiv_pos_site_id
 _symmetry_equiv_pos_as_xyz
  1  'x, y, z'
loop_
 _atom_site_type_symbol
 _atom_site_label
 _atom_site_symmetry_multiplicity
 _atom_site_fract_x
 _atom_site_fract_y
 _atom_site_fract_z
 _atom_site_occupancy
  Pr  Pr0  1  0.000000  0.000000  0.000000  1
  Eu  Eu1  1  0.500000  0.500000  0.000000  1
  Eu  Eu2  1  0.500000  0.000000  0.500000  1
  Eu  Eu3  1  0.000000  0.500000  0.500000  1
  P  P4  1  0.805319  0.306215  0.195778  1
  P  P5  1  0.195778  0.805319  0.306215  1
  P  P6  1  0.694611  0.694611  0.694611  1
  P  P7  1  0.306215  0.195778  0.805319  1
  P  P8  1  0.194681  0.693785  0.804222  1
  P  P9  1  0.804222  0.194681  0.693785  1
  P  P10  1  0.305389  0.305389  0.305389  1
  P  P11  1  0.693785  0.804222  0.194681  1
  Pt  Pt12  1  0.423279  0.842346  0.157675  1
  Pt  Pt13  1  0.576818  0.341615  0.342679  1
  Pt  Pt14  1  0.077044  0.156667  0.659669  1
  Pt  Pt15  1  0.922618  0.658643  0.843430  1
  Pt  Pt16  1  0.157675  0.423279  0.842346  1
  Pt  Pt17  1  0.342679  0.576818  0.341615  1
  Pt  Pt18  1  0.659669  0.077044  0.156667  1
  Pt  Pt19  1  0.843430  0.922618  0.658643  1
  Pt  Pt20  1  0.842346  0.157675  0.423279  1
  Pt  Pt21  1  0.341615  0.342679  0.576818  1
  Pt  Pt22  1  0.156667  0.659669  0.077044  1
  Pt  Pt23  1  0.658643  0.843430  0.922618  1
  Pt  Pt24  1  0.576721  0.157654  0.842325  1
  Pt  Pt25  1  0.423182  0.658385  0.657321  1
  Pt  Pt26  1  0.922956  0.843333  0.340331  1
  Pt  Pt27  1  0.077382  0.341357  0.156570  1
  Pt  Pt28  1  0.842325  0.576721  0.157654  1
  Pt  Pt29  1  0.657321  0.423182  0.658385  1
  Pt  Pt30  1  0.340331  0.922956  0.843333  1
  Pt  Pt31  1  0.156570  0.077382  0.341357  1
  Pt  Pt32  1  0.157654  0.842325  0.576721  1
  Pt  Pt33  1  0.658385  0.657321  0.423182  1
  Pt  Pt34  1  0.843333  0.340331  0.922956  1
  Pt  Pt35  1  0.341357  0.156570  0.077382  1
