# generated using pymatgen
data_Sc5BSe4
_symmetry_space_group_name_H-M   'P 1'
_cell_length_a   6.62842116
_cell_length_b   6.62842125
_cell_length_c   6.62842078
_cell_angle_alpha   99.44021548
_cell_angle_beta   99.44020856
_cell_angle_gamma   132.21877990
_symmetry_Int_Tables_number   1
_chemical_formula_structural   Sc5BSe4
_chemical_formula_sum   'Sc5 B1 Se4'
_cell_volume   197.19831131
_cell_formula_units_Z   1
loop_
 _symmetry_equiv_pos_site_id
 _symmetry_equiv_pos_as_xyz
  1  'x, y, z'
loop_
 _atom_site_type_symbol
 _atom_site_label
 _atom_site_symmetry_multiplicity
 _atom_site_fract_x
 _atom_site_fract_y
 _atom_site_fract_z
 _atom_site_occupancy
  Sc  Sc0  1  0.411314  0.762488  0.173802  1
  Sc  Sc1  1  0.000000  0.000000  0.000000  1
  Sc  Sc2  1  0.588686  0.237512  0.826198  1
  Sc  Sc3  1  0.237512  0.411314  0.648825  1
  Sc  Sc4  1  0.762488  0.588686  0.351175  1
  B  B5  1  0.500000  0.500000  0.000000  1
  Se  Se6  1  0.093996  0.696050  0.790045  1
  Se  Se7  1  0.696050  0.906004  0.602054  1
  Se  Se8  1  0.303950  0.093996  0.397946  1
  Se  Se9  1  0.906004  0.303950  0.209955  1
