# generated using pymatgen
data_LuPuB6Ir
_symmetry_space_group_name_H-M   'P 1'
_cell_length_a   3.59987200
_cell_length_b   9.13564600
_cell_length_c   11.52407200
_cell_angle_alpha   90.00000000
_cell_angle_beta   90.00000000
_cell_angle_gamma   90.00000000
_symmetry_Int_Tables_number   1
_chemical_formula_structural   LuPuB6Ir
_chemical_formula_sum   'Lu4 Pu4 B24 Ir4'
_cell_volume   378.99395635
_cell_formula_units_Z   4
loop_
 _symmetry_equiv_pos_site_id
 _symmetry_equiv_pos_as_xyz
  1  'x, y, z'
loop_
 _atom_site_type_symbol
 _atom_site_label
 _atom_site_symmetry_multiplicity
 _atom_site_fract_x
 _atom_site_fract_y
 _atom_site_fract_z
 _atom_site_occupancy
  Lu  Lu0  1  0.000000  0.945646  0.374156  1
  Lu  Lu1  1  0.000000  0.054354  0.625844  1
  Lu  Lu2  1  0.000000  0.445646  0.125844  1
  Lu  Lu3  1  0.000000  0.554354  0.874156  1
  Pu  Pu4  1  0.000000  0.324672  0.413871  1
  Pu  Pu5  1  0.000000  0.675328  0.586129  1
  Pu  Pu6  1  0.000000  0.824672  0.086129  1
  Pu  Pu7  1  0.000000  0.175328  0.913871  1
  B  B8  1  0.500000  0.554272  0.433446  1
  B  B9  1  0.500000  0.445728  0.566554  1
  B  B10  1  0.500000  0.054272  0.066554  1
  B  B11  1  0.500000  0.945728  0.933446  1
  B  B12  1  0.500000  0.751503  0.420713  1
  B  B13  1  0.500000  0.248497  0.579287  1
  B  B14  1  0.500000  0.251503  0.079287  1
  B  B15  1  0.500000  0.748497  0.920713  1
  B  B16  1  0.500000  0.795691  0.264736  1
  B  B17  1  0.500000  0.204309  0.735264  1
  B  B18  1  0.500000  0.295691  0.235264  1
  B  B19  1  0.500000  0.704309  0.764736  1
  B  B20  1  0.500000  0.634002  0.181613  1
  B  B21  1  0.500000  0.365998  0.818387  1
  B  B22  1  0.500000  0.134002  0.318387  1
  B  B23  1  0.500000  0.865998  0.681613  1
  B  B24  1  0.500000  0.983529  0.214317  1
  B  B25  1  0.500000  0.016471  0.785683  1
  B  B26  1  0.500000  0.483529  0.285683  1
  B  B27  1  0.500000  0.516471  0.714317  1
  B  B28  1  0.500000  0.606171  0.028381  1
  B  B29  1  0.500000  0.393829  0.971619  1
  B  B30  1  0.500000  0.106171  0.471619  1
  B  B31  1  0.500000  0.893829  0.528381  1
  Ir  Ir32  1  0.000000  0.641425  0.318440  1
  Ir  Ir33  1  0.000000  0.358575  0.681560  1
  Ir  Ir34  1  0.000000  0.141425  0.181560  1
  Ir  Ir35  1  0.000000  0.858575  0.818440  1
