# generated using pymatgen
data_AcGaSe2O
_symmetry_space_group_name_H-M   'P 1'
_cell_length_a   6.14969000
_cell_length_b   6.19555500
_cell_length_c   12.47284500
_cell_angle_alpha   90.00000000
_cell_angle_beta   90.00000000
_cell_angle_gamma   90.00000000
_symmetry_Int_Tables_number   1
_chemical_formula_structural   AcGaSe2O
_chemical_formula_sum   'Ac4 Ga4 Se8 O4'
_cell_volume   475.22465718
_cell_formula_units_Z   4
loop_
 _symmetry_equiv_pos_site_id
 _symmetry_equiv_pos_as_xyz
  1  'x, y, z'
loop_
 _atom_site_type_symbol
 _atom_site_label
 _atom_site_symmetry_multiplicity
 _atom_site_fract_x
 _atom_site_fract_y
 _atom_site_fract_z
 _atom_site_occupancy
  Ac  Ac0  1  0.254903  0.002496  0.099453  1
  Ac  Ac1  1  0.754904  0.497505  0.099453  1
  Ac  Ac2  1  0.254903  0.502496  0.900547  1
  Ac  Ac3  1  0.754904  0.997503  0.900547  1
  Ga  Ga4  1  0.654250  0.083191  0.400179  1
  Ga  Ga5  1  0.154250  0.416809  0.400179  1
  Ga  Ga6  1  0.654250  0.583191  0.599821  1
  Ga  Ga7  1  0.154250  0.916810  0.599821  1
  Se  Se8  1  0.253283  0.505572  0.224274  1
  Se  Se9  1  0.753284  0.994429  0.224274  1
  Se  Se10  1  0.254741  0.031575  0.415954  1
  Se  Se11  1  0.754742  0.468425  0.415954  1
  Se  Se12  1  0.254741  0.531576  0.584046  1
  Se  Se13  1  0.754742  0.968424  0.584046  1
  Se  Se14  1  0.253283  0.005571  0.775726  1
  Se  Se15  1  0.753284  0.494429  0.775726  1
  O  O16  1  0.502123  0.749544  0.001600  1
  O  O17  1  0.002123  0.750457  0.001600  1
  O  O18  1  0.502123  0.249543  0.998400  1
  O  O19  1  0.002123  0.250457  0.998400  1
