# generated using pymatgen
data_Tm3Si6NiRh8
_symmetry_space_group_name_H-M   'P 1'
_cell_length_a   3.90991400
_cell_length_b   11.14071200
_cell_length_c   12.98212300
_cell_angle_alpha   90.00000000
_cell_angle_beta   90.00000000
_cell_angle_gamma   90.00000000
_symmetry_Int_Tables_number   1
_chemical_formula_structural   Tm3Si6NiRh8
_chemical_formula_sum   'Tm6 Si12 Ni2 Rh16'
_cell_volume   565.49122736
_cell_formula_units_Z   2
loop_
 _symmetry_equiv_pos_site_id
 _symmetry_equiv_pos_as_xyz
  1  'x, y, z'
loop_
 _atom_site_type_symbol
 _atom_site_label
 _atom_site_symmetry_multiplicity
 _atom_site_fract_x
 _atom_site_fract_y
 _atom_site_fract_z
 _atom_site_occupancy
  Tm  Tm0  1  0.000000  0.500000  0.525965  1
  Tm  Tm1  1  0.500000  0.000000  0.474035  1
  Tm  Tm2  1  0.500000  0.813307  0.206255  1
  Tm  Tm3  1  0.500000  0.186693  0.206255  1
  Tm  Tm4  1  0.000000  0.686693  0.793745  1
  Tm  Tm5  1  0.000000  0.313307  0.793745  1
  Si  Si6  1  0.500000  0.500000  0.877613  1
  Si  Si7  1  0.000000  0.000000  0.122387  1
  Si  Si8  1  0.500000  0.500000  0.342530  1
  Si  Si9  1  0.000000  0.000000  0.657470  1
  Si  Si10  1  0.500000  0.307130  0.616345  1
  Si  Si11  1  0.500000  0.692870  0.616345  1
  Si  Si12  1  0.000000  0.192870  0.383655  1
  Si  Si13  1  0.000000  0.807130  0.383655  1
  Si  Si14  1  0.500000  0.856210  0.896743  1
  Si  Si15  1  0.500000  0.143790  0.896743  1
  Si  Si16  1  0.000000  0.643790  0.103257  1
  Si  Si17  1  0.000000  0.356210  0.103257  1
  Ni  Ni18  1  0.000000  0.500000  0.975346  1
  Ni  Ni19  1  0.500000  0.000000  0.024654  1
  Rh  Rh20  1  0.500000  0.500000  0.157224  1
  Rh  Rh21  1  0.000000  0.000000  0.842776  1
  Rh  Rh22  1  0.500000  0.500000  0.696967  1
  Rh  Rh23  1  0.000000  0.000000  0.303033  1
  Rh  Rh24  1  0.500000  0.335152  0.988291  1
  Rh  Rh25  1  0.500000  0.664848  0.988291  1
  Rh  Rh26  1  0.000000  0.164848  0.011709  1
  Rh  Rh27  1  0.000000  0.835152  0.011709  1
  Rh  Rh28  1  0.500000  0.302045  0.431465  1
  Rh  Rh29  1  0.500000  0.697955  0.431465  1
  Rh  Rh30  1  0.000000  0.197955  0.568535  1
  Rh  Rh31  1  0.000000  0.802045  0.568535  1
  Rh  Rh32  1  0.500000  0.876083  0.713006  1
  Rh  Rh33  1  0.500000  0.123917  0.713006  1
  Rh  Rh34  1  0.000000  0.623917  0.286994  1
  Rh  Rh35  1  0.000000  0.376083  0.286994  1
