# generated using pymatgen
data_Sc2PaBe2Ir5
_symmetry_space_group_name_H-M   'P 1'
_cell_length_a   9.45857400
_cell_length_b   9.45857400
_cell_length_c   3.49194900
_cell_angle_alpha   90.00000000
_cell_angle_beta   90.00000000
_cell_angle_gamma   90.00000000
_symmetry_Int_Tables_number   1
_chemical_formula_structural   Sc2PaBe2Ir5
_chemical_formula_sum   'Sc4 Pa2 Be4 Ir10'
_cell_volume   312.40589772
_cell_formula_units_Z   2
loop_
 _symmetry_equiv_pos_site_id
 _symmetry_equiv_pos_as_xyz
  1  'x, y, z'
loop_
 _atom_site_type_symbol
 _atom_site_label
 _atom_site_symmetry_multiplicity
 _atom_site_fract_x
 _atom_site_fract_y
 _atom_site_fract_z
 _atom_site_occupancy
  Sc  Sc0  1  0.671156  0.171156  0.000000  1
  Sc  Sc1  1  0.328844  0.828844  0.000000  1
  Sc  Sc2  1  0.171156  0.328844  0.000000  1
  Sc  Sc3  1  0.828844  0.671156  0.000000  1
  Pa  Pa4  1  0.000000  0.000000  0.000000  1
  Pa  Pa5  1  0.500000  0.500000  0.000000  1
  Be  Be6  1  0.120642  0.620642  0.000000  1
  Be  Be7  1  0.879358  0.379358  0.000000  1
  Be  Be8  1  0.620642  0.879358  0.000000  1
  Be  Be9  1  0.379358  0.120642  0.000000  1
  Ir  Ir10  1  0.217249  0.072438  0.500000  1
  Ir  Ir11  1  0.782751  0.927562  0.500000  1
  Ir  Ir12  1  0.072438  0.782751  0.500000  1
  Ir  Ir13  1  0.717249  0.427562  0.500000  1
  Ir  Ir14  1  0.927562  0.217249  0.500000  1
  Ir  Ir15  1  0.282751  0.572438  0.500000  1
  Ir  Ir16  1  0.572438  0.717249  0.500000  1
  Ir  Ir17  1  0.427562  0.282751  0.500000  1
  Ir  Ir18  1  0.500000  0.000000  0.500000  1
  Ir  Ir19  1  0.000000  0.500000  0.500000  1
