# generated using pymatgen
data_Na3LiPb2F12
_symmetry_space_group_name_H-M   'P 1'
_cell_length_a   5.37405400
_cell_length_b   5.37405400
_cell_length_c   19.21113200
_cell_angle_alpha   90.00000000
_cell_angle_beta   90.00000000
_cell_angle_gamma   90.00000000
_symmetry_Int_Tables_number   1
_chemical_formula_structural   Na3LiPb2F12
_chemical_formula_sum   'Na6 Li2 Pb4 F24'
_cell_volume   554.82626002
_cell_formula_units_Z   2
loop_
 _symmetry_equiv_pos_site_id
 _symmetry_equiv_pos_as_xyz
  1  'x, y, z'
loop_
 _atom_site_type_symbol
 _atom_site_label
 _atom_site_symmetry_multiplicity
 _atom_site_fract_x
 _atom_site_fract_y
 _atom_site_fract_z
 _atom_site_occupancy
  Na  Na0  1  0.000000  0.500000  0.308670  1
  Na  Na1  1  0.500000  0.000000  0.691330  1
  Na  Na2  1  0.500000  0.000000  0.191330  1
  Na  Na3  1  0.000000  0.500000  0.808670  1
  Na  Na4  1  0.000000  0.000000  0.500000  1
  Na  Na5  1  0.500000  0.500000  0.000000  1
  Li  Li6  1  0.000000  0.000000  0.000000  1
  Li  Li7  1  0.500000  0.500000  0.500000  1
  Pb  Pb8  1  0.000000  0.500000  0.124802  1
  Pb  Pb9  1  0.500000  0.000000  0.875198  1
  Pb  Pb10  1  0.500000  0.000000  0.375198  1
  Pb  Pb11  1  0.000000  0.500000  0.624802  1
  F  F12  1  0.184239  0.225518  0.385371  1
  F  F13  1  0.815761  0.774482  0.385371  1
  F  F14  1  0.225518  0.815761  0.614629  1
  F  F15  1  0.315761  0.725518  0.114629  1
  F  F16  1  0.774482  0.184239  0.614629  1
  F  F17  1  0.684239  0.274482  0.114629  1
  F  F18  1  0.274482  0.315761  0.885371  1
  F  F19  1  0.725518  0.684239  0.885371  1
  F  F20  1  0.160689  0.284454  0.204104  1
  F  F21  1  0.839311  0.715546  0.204104  1
  F  F22  1  0.284454  0.839311  0.795896  1
  F  F23  1  0.339311  0.784454  0.295896  1
  F  F24  1  0.715546  0.160689  0.795896  1
  F  F25  1  0.660689  0.215546  0.295896  1
  F  F26  1  0.215546  0.339311  0.704104  1
  F  F27  1  0.784454  0.660689  0.704104  1
  F  F28  1  0.159525  0.274796  0.045130  1
  F  F29  1  0.840475  0.725204  0.045130  1
  F  F30  1  0.274796  0.840475  0.954870  1
  F  F31  1  0.340475  0.774796  0.454870  1
  F  F32  1  0.725204  0.159525  0.954870  1
  F  F33  1  0.659525  0.225204  0.454870  1
  F  F34  1  0.225204  0.340475  0.545130  1
  F  F35  1  0.774796  0.659525  0.545130  1
