# generated using pymatgen
data_Dy9ErPt18
_symmetry_space_group_name_H-M   'P 1'
_cell_length_a   9.77918200
_cell_length_b   9.77918254
_cell_length_c   5.77657600
_cell_angle_alpha   90.00000000
_cell_angle_beta   90.00000000
_cell_angle_gamma   89.98088809
_symmetry_Int_Tables_number   1
_chemical_formula_structural   Dy9ErPt18
_chemical_formula_sum   'Dy9 Er1 Pt18'
_cell_volume   552.42783007
_cell_formula_units_Z   1
loop_
 _symmetry_equiv_pos_site_id
 _symmetry_equiv_pos_as_xyz
  1  'x, y, z'
loop_
 _atom_site_type_symbol
 _atom_site_label
 _atom_site_symmetry_multiplicity
 _atom_site_fract_x
 _atom_site_fract_y
 _atom_site_fract_z
 _atom_site_occupancy
  Dy  Dy0  1  0.453098  0.808951  0.000000  1
  Dy  Dy1  1  0.546902  0.191049  0.000000  1
  Dy  Dy2  1  0.191049  0.546902  0.000000  1
  Dy  Dy3  1  0.808951  0.453098  0.000000  1
  Dy  Dy4  1  0.500000  0.500000  0.500000  1
  Dy  Dy5  1  0.308854  0.047049  0.500000  1
  Dy  Dy6  1  0.691146  0.952951  0.500000  1
  Dy  Dy7  1  0.952951  0.691146  0.500000  1
  Dy  Dy8  1  0.047049  0.308854  0.500000  1
  Er  Er9  1  0.000000  0.000000  0.000000  1
  Pt  Pt10  1  0.191547  0.808453  0.250265  1
  Pt  Pt11  1  0.808453  0.191547  0.749735  1
  Pt  Pt12  1  0.808453  0.191547  0.250265  1
  Pt  Pt13  1  0.191547  0.808453  0.749735  1
  Pt  Pt14  1  0.440689  0.781711  0.500000  1
  Pt  Pt15  1  0.559311  0.218289  0.500000  1
  Pt  Pt16  1  0.218289  0.559311  0.500000  1
  Pt  Pt17  1  0.781711  0.440689  0.500000  1
  Pt  Pt18  1  0.307855  0.307855  0.249130  1
  Pt  Pt19  1  0.692145  0.692145  0.750870  1
  Pt  Pt20  1  0.692145  0.692145  0.249130  1
  Pt  Pt21  1  0.307855  0.307855  0.750870  1
  Pt  Pt22  1  0.280430  0.059116  0.000000  1
  Pt  Pt23  1  0.719570  0.940884  0.000000  1
  Pt  Pt24  1  0.940884  0.719570  0.000000  1
  Pt  Pt25  1  0.059116  0.280430  0.000000  1
  Pt  Pt26  1  0.000000  0.000000  0.500000  1
  Pt  Pt27  1  0.500000  0.500000  0.000000  1
