# generated using pymatgen
data_Li2HoTm2AgPb3
_symmetry_space_group_name_H-M   'P 1'
_cell_length_a   7.34826300
_cell_length_b   7.34179412
_cell_length_c   4.62687400
_cell_angle_alpha   90.00000000
_cell_angle_beta   90.00000000
_cell_angle_gamma   120.02914646
_symmetry_Int_Tables_number   1
_chemical_formula_structural   Li2HoTm2AgPb3
_chemical_formula_sum   'Li2 Ho1 Tm2 Ag1 Pb3'
_cell_volume   216.11134734
_cell_formula_units_Z   1
loop_
 _symmetry_equiv_pos_site_id
 _symmetry_equiv_pos_as_xyz
  1  'x, y, z'
loop_
 _atom_site_type_symbol
 _atom_site_label
 _atom_site_symmetry_multiplicity
 _atom_site_fract_x
 _atom_site_fract_y
 _atom_site_fract_z
 _atom_site_occupancy
  Li  Li0  1  0.771309  0.767306  0.000000  1
  Li  Li1  1  0.004003  0.232694  0.000000  1
  Ho  Ho2  1  0.551039  0.000000  0.500000  1
  Tm  Tm3  1  0.433230  0.429162  0.500000  1
  Tm  Tm4  1  0.004067  0.570838  0.500000  1
  Ag  Ag5  1  0.236440  0.000000  0.000000  1
  Pb  Pb6  1  0.985019  0.000000  0.500000  1
  Pb  Pb7  1  0.336073  0.657255  0.000000  1
  Pb  Pb8  1  0.678820  0.342745  0.000000  1
