# generated using pymatgen
data_CeEr4Pb3C
_symmetry_space_group_name_H-M   'P 1'
_cell_length_a   8.98876800
_cell_length_b   9.05078298
_cell_length_c   6.57386400
_cell_angle_alpha   90.00000000
_cell_angle_beta   90.00000000
_cell_angle_gamma   119.77360624
_symmetry_Int_Tables_number   1
_chemical_formula_structural   CeEr4Pb3C
_chemical_formula_sum   'Ce2 Er8 Pb6 C2'
_cell_volume   464.22006630
_cell_formula_units_Z   2
loop_
 _symmetry_equiv_pos_site_id
 _symmetry_equiv_pos_as_xyz
  1  'x, y, z'
loop_
 _atom_site_type_symbol
 _atom_site_label
 _atom_site_symmetry_multiplicity
 _atom_site_fract_x
 _atom_site_fract_y
 _atom_site_fract_z
 _atom_site_occupancy
  Ce  Ce0  1  0.212499  0.000000  0.250000  1
  Ce  Ce1  1  0.787501  0.000000  0.750000  1
  Er  Er2  1  0.999742  0.212078  0.250000  1
  Er  Er3  1  0.000258  0.787922  0.750000  1
  Er  Er4  1  0.787664  0.787922  0.250000  1
  Er  Er5  1  0.212336  0.212078  0.750000  1
  Er  Er6  1  0.333022  0.666046  0.000000  1
  Er  Er7  1  0.666978  0.333954  0.000000  1
  Er  Er8  1  0.666978  0.333954  0.500000  1
  Er  Er9  1  0.333022  0.666046  0.500000  1
  Pb  Pb10  1  0.595019  0.000000  0.250000  1
  Pb  Pb11  1  0.404981  0.000000  0.750000  1
  Pb  Pb12  1  0.998061  0.592314  0.250000  1
  Pb  Pb13  1  0.001939  0.407686  0.750000  1
  Pb  Pb14  1  0.405747  0.407686  0.250000  1
  Pb  Pb15  1  0.594253  0.592314  0.750000  1
  C  C16  1  0.000000  0.000000  0.000000  1
  C  C17  1  0.000000  0.000000  0.500000  1
