# generated using pymatgen
data_Y3Tm2Bi2As
_symmetry_space_group_name_H-M   'P 1'
_cell_length_a   12.06782600
_cell_length_b   9.09296900
_cell_length_c   8.04896400
_cell_angle_alpha   90.00000000
_cell_angle_beta   90.00000000
_cell_angle_gamma   90.00000000
_symmetry_Int_Tables_number   1
_chemical_formula_structural   Y3Tm2Bi2As
_chemical_formula_sum   'Y12 Tm8 Bi8 As4'
_cell_volume   883.23187738
_cell_formula_units_Z   4
loop_
 _symmetry_equiv_pos_site_id
 _symmetry_equiv_pos_as_xyz
  1  'x, y, z'
loop_
 _atom_site_type_symbol
 _atom_site_label
 _atom_site_symmetry_multiplicity
 _atom_site_fract_x
 _atom_site_fract_y
 _atom_site_fract_z
 _atom_site_occupancy
  Y  Y0  1  0.711125  0.250000  0.656631  1
  Y  Y1  1  0.211125  0.250000  0.843369  1
  Y  Y2  1  0.288875  0.750000  0.343369  1
  Y  Y3  1  0.788875  0.750000  0.156631  1
  Y  Y4  1  0.500068  0.250000  0.965135  1
  Y  Y5  1  0.000068  0.250000  0.534865  1
  Y  Y6  1  0.499932  0.750000  0.034865  1
  Y  Y7  1  0.999932  0.750000  0.465135  1
  Y  Y8  1  0.794002  0.250000  0.136404  1
  Y  Y9  1  0.294002  0.250000  0.363596  1
  Y  Y10  1  0.205998  0.750000  0.863596  1
  Y  Y11  1  0.705998  0.750000  0.636404  1
  Tm  Tm12  1  0.563255  0.056961  0.318621  1
  Tm  Tm13  1  0.063255  0.443039  0.181379  1
  Tm  Tm14  1  0.436745  0.556961  0.681379  1
  Tm  Tm15  1  0.936745  0.943039  0.818621  1
  Tm  Tm16  1  0.436745  0.943039  0.681379  1
  Tm  Tm17  1  0.936745  0.556961  0.818621  1
  Tm  Tm18  1  0.563255  0.443039  0.318621  1
  Tm  Tm19  1  0.063255  0.056961  0.181379  1
  Bi  Bi20  1  0.826494  0.009253  0.426446  1
  Bi  Bi21  1  0.326494  0.490747  0.073554  1
  Bi  Bi22  1  0.173506  0.509253  0.573554  1
  Bi  Bi23  1  0.673506  0.990747  0.926446  1
  Bi  Bi24  1  0.173506  0.990747  0.573554  1
  Bi  Bi25  1  0.673506  0.509253  0.926446  1
  Bi  Bi26  1  0.826494  0.490747  0.426446  1
  Bi  Bi27  1  0.326494  0.009253  0.073554  1
  As  As28  1  0.979318  0.250000  0.913365  1
  As  As29  1  0.479318  0.250000  0.586635  1
  As  As30  1  0.020682  0.750000  0.086635  1
  As  As31  1  0.520682  0.750000  0.413365  1
