# generated using pymatgen
data_TiCr(BiO4)2
_symmetry_space_group_name_H-M   'P 1'
_cell_length_a   6.11984130
_cell_length_b   10.99128865
_cell_length_c   6.11297548
_cell_angle_alpha   90.00127450
_cell_angle_beta   114.60691413
_cell_angle_gamma   89.99460870
_symmetry_Int_Tables_number   1
_chemical_formula_structural   TiCr(BiO4)2
_chemical_formula_sum   'Ti2 Cr2 Bi4 O16'
_cell_volume   373.84717345
_cell_formula_units_Z   2
loop_
 _symmetry_equiv_pos_site_id
 _symmetry_equiv_pos_as_xyz
  1  'x, y, z'
loop_
 _atom_site_type_symbol
 _atom_site_label
 _atom_site_symmetry_multiplicity
 _atom_site_fract_x
 _atom_site_fract_y
 _atom_site_fract_z
 _atom_site_occupancy
  Ti  Ti0  1  0.249823  0.376054  0.999942  1
  Ti  Ti1  1  0.249869  0.123914  0.499945  1
  Cr  Cr2  1  0.750123  0.872296  0.500060  1
  Cr  Cr3  1  0.750143  0.627762  0.000000  1
  Bi  Bi4  1  0.749885  0.147522  0.999909  1
  Bi  Bi5  1  0.249987  0.593774  0.500054  1
  Bi  Bi6  1  0.749811  0.352432  0.499893  1
  Bi  Bi7  1  0.250091  0.906207  0.000028  1
  O  O8  1  0.169887  0.461065  0.720431  1
  O  O9  1  0.660554  0.959794  0.248627  1
  O  O10  1  0.525883  0.286033  0.090515  1
  O  O11  1  0.988055  0.789114  0.539965  1
  O  O12  1  0.973779  0.286052  0.909292  1
  O  O13  1  0.512396  0.789033  0.460264  1
  O  O14  1  0.329949  0.461032  0.279567  1
  O  O15  1  0.839581  0.959784  0.751519  1
  O  O16  1  0.169906  0.038915  0.220423  1
  O  O17  1  0.660572  0.540211  0.748612  1
  O  O18  1  0.525890  0.213937  0.590499  1
  O  O19  1  0.988049  0.710908  0.039902  1
  O  O20  1  0.973795  0.213921  0.409322  1
  O  O21  1  0.512377  0.711022  0.960156  1
  O  O22  1  0.330040  0.038938  0.779568  1
  O  O23  1  0.839555  0.540281  0.251508  1
