# generated using pymatgen
data_Er2Tm6Sc12Si15Ge
_symmetry_space_group_name_H-M   'P 1'
_cell_length_a   7.06463891
_cell_length_b   7.35560285
_cell_length_c   13.92578019
_cell_angle_alpha   90.02623813
_cell_angle_beta   89.88757157
_cell_angle_gamma   90.03870355
_symmetry_Int_Tables_number   1
_chemical_formula_structural   Er2Tm6Sc12Si15Ge
_chemical_formula_sum   'Er2 Tm6 Sc12 Si15 Ge1'
_cell_volume   723.64705069
_cell_formula_units_Z   1
loop_
 _symmetry_equiv_pos_site_id
 _symmetry_equiv_pos_as_xyz
  1  'x, y, z'
loop_
 _atom_site_type_symbol
 _atom_site_label
 _atom_site_symmetry_multiplicity
 _atom_site_fract_x
 _atom_site_fract_y
 _atom_site_fract_z
 _atom_site_occupancy
  Er  Er0  1  0.012290  0.176366  0.096397  1
  Er  Er1  1  0.987916  0.823720  0.903635  1
  Tm  Tm2  1  0.488283  0.676508  0.903568  1
  Tm  Tm3  1  0.987409  0.824487  0.596643  1
  Tm  Tm4  1  0.512004  0.323593  0.096601  1
  Tm  Tm5  1  0.010861  0.175864  0.402855  1
  Tm  Tm6  1  0.512623  0.322131  0.402642  1
  Tm  Tm7  1  0.490906  0.678132  0.596905  1
  Sc  Sc8  1  0.161079  0.503422  0.751121  1
  Sc  Sc9  1  0.838833  0.496614  0.250076  1
  Sc  Sc10  1  0.339075  0.003355  0.249968  1
  Sc  Sc11  1  0.660994  0.996492  0.750036  1
  Sc  Sc12  1  0.332797  0.174562  0.626044  1
  Sc  Sc13  1  0.668334  0.823620  0.374415  1
  Sc  Sc14  1  0.167964  0.677650  0.374241  1
  Sc  Sc15  1  0.668802  0.822819  0.125201  1
  Sc  Sc16  1  0.829821  0.323052  0.625378  1
  Sc  Sc17  1  0.331202  0.176867  0.874754  1
  Sc  Sc18  1  0.830952  0.323095  0.874761  1
  Sc  Sc19  1  0.168946  0.676979  0.125282  1
  Si  Si20  1  0.033012  0.114373  0.750124  1
  Si  Si21  1  0.967044  0.886376  0.249600  1
  Si  Si22  1  0.466844  0.614020  0.249722  1
  Si  Si23  1  0.532572  0.386431  0.750254  1
  Si  Si24  1  0.285138  0.870405  0.750179  1
  Si  Si25  1  0.714858  0.128969  0.249689  1
  Si  Si26  1  0.214815  0.370958  0.250024  1
  Si  Si27  1  0.785554  0.629069  0.750015  1
  Si  Si28  1  0.835174  0.535747  0.459824  1
  Si  Si29  1  0.339908  0.965327  0.460465  1
  Si  Si30  1  0.840515  0.534548  0.039445  1
  Si  Si31  1  0.659877  0.035016  0.539370  1
  Si  Si32  1  0.159422  0.465449  0.960734  1
  Si  Si33  1  0.658952  0.034726  0.960575  1
  Si  Si34  1  0.341042  0.965257  0.039491  1
  Ge  Ge35  1  0.164185  0.464002  0.539967  1
