# generated using pymatgen
data_Dy3Ho5(B6Os)4
_symmetry_space_group_name_H-M   'P 1'
_cell_length_a   3.64767300
_cell_length_b   9.14276193
_cell_length_c   11.52149398
_cell_angle_alpha   90.00401850
_cell_angle_beta   90.00000000
_cell_angle_gamma   90.00000000
_symmetry_Int_Tables_number   1
_chemical_formula_structural   Dy3Ho5(B6Os)4
_chemical_formula_sum   'Dy3 Ho5 B24 Os4'
_cell_volume   384.23958628
_cell_formula_units_Z   1
loop_
 _symmetry_equiv_pos_site_id
 _symmetry_equiv_pos_as_xyz
  1  'x, y, z'
loop_
 _atom_site_type_symbol
 _atom_site_label
 _atom_site_symmetry_multiplicity
 _atom_site_fract_x
 _atom_site_fract_y
 _atom_site_fract_z
 _atom_site_occupancy
  Dy  Dy0  1  0.000000  0.321756  0.413814  1
  Dy  Dy1  1  0.000000  0.678212  0.586272  1
  Dy  Dy2  1  0.000000  0.821857  0.086131  1
  Ho  Ho3  1  0.000000  0.178437  0.913804  1
  Ho  Ho4  1  0.000000  0.943700  0.372942  1
  Ho  Ho5  1  0.000000  0.056312  0.627054  1
  Ho  Ho6  1  0.000000  0.443648  0.126922  1
  Ho  Ho7  1  0.000000  0.556274  0.873050  1
  B  B8  1  0.500000  0.553583  0.433065  1
  B  B9  1  0.500000  0.446303  0.567085  1
  B  B10  1  0.500000  0.053763  0.066704  1
  B  B11  1  0.500000  0.946631  0.933022  1
  B  B12  1  0.500000  0.747704  0.419820  1
  B  B13  1  0.500000  0.252275  0.580302  1
  B  B14  1  0.500000  0.247685  0.079890  1
  B  B15  1  0.500000  0.752404  0.919813  1
  B  B16  1  0.500000  0.790682  0.266513  1
  B  B17  1  0.500000  0.209149  0.733681  1
  B  B18  1  0.500000  0.290670  0.233313  1
  B  B19  1  0.500000  0.709315  0.766612  1
  B  B20  1  0.500000  0.631273  0.185353  1
  B  B21  1  0.500000  0.368478  0.814796  1
  B  B22  1  0.500000  0.131313  0.314537  1
  B  B23  1  0.500000  0.868745  0.685465  1
  B  B24  1  0.500000  0.982846  0.212971  1
  B  B25  1  0.500000  0.017475  0.786999  1
  B  B26  1  0.500000  0.482723  0.286867  1
  B  B27  1  0.500000  0.517107  0.713221  1
  B  B28  1  0.500000  0.607940  0.029943  1
  B  B29  1  0.500000  0.391742  0.969971  1
  B  B30  1  0.500000  0.107855  0.470078  1
  B  B31  1  0.500000  0.892140  0.529940  1
  Os  Os32  1  0.000000  0.637254  0.321255  1
  Os  Os33  1  0.000000  0.362538  0.678930  1
  Os  Os34  1  0.000000  0.137268  0.178534  1
  Os  Os35  1  0.000000  0.862944  0.821333  1
