# generated using pymatgen
data_Y4MnTc3B8
_symmetry_space_group_name_H-M   'P 1'
_cell_length_a   5.93714021
_cell_length_b   5.27401700
_cell_length_c   6.39779372
_cell_angle_alpha   90.00000000
_cell_angle_beta   90.55945037
_cell_angle_gamma   90.00000000
_symmetry_Int_Tables_number   1
_chemical_formula_structural   Y4MnTc3B8
_chemical_formula_sum   'Y4 Mn1 Tc3 B8'
_cell_volume   200.32186785
_cell_formula_units_Z   1
loop_
 _symmetry_equiv_pos_site_id
 _symmetry_equiv_pos_as_xyz
  1  'x, y, z'
loop_
 _atom_site_type_symbol
 _atom_site_label
 _atom_site_symmetry_multiplicity
 _atom_site_fract_x
 _atom_site_fract_y
 _atom_site_fract_z
 _atom_site_occupancy
  Y  Y0  1  0.013806  0.250000  0.339852  1
  Y  Y1  1  0.512616  0.250000  0.160675  1
  Y  Y2  1  0.987267  0.750000  0.659143  1
  Y  Y3  1  0.487906  0.750000  0.840885  1
  Mn  Mn4  1  0.322561  0.750000  0.316238  1
  Tc  Tc5  1  0.182482  0.250000  0.815201  1
  Tc  Tc6  1  0.679643  0.250000  0.683265  1
  Tc  Tc7  1  0.819636  0.750000  0.186333  1
  B  B8  1  0.368303  0.074865  0.533386  1
  B  B9  1  0.873592  0.422261  0.963874  1
  B  B10  1  0.621134  0.580439  0.459000  1
  B  B11  1  0.134012  0.919346  0.042944  1
  B  B12  1  0.621134  0.919561  0.459000  1
  B  B13  1  0.134012  0.580654  0.042944  1
  B  B14  1  0.368303  0.425135  0.533386  1
  B  B15  1  0.873592  0.077739  0.963874  1
