# generated using pymatgen
data_Sr3FeRhO6
_symmetry_space_group_name_H-M   'P 1'
_cell_length_a   6.72508746
_cell_length_b   6.72508591
_cell_length_c   6.72508616
_cell_angle_alpha   92.42647969
_cell_angle_beta   92.42648366
_cell_angle_gamma   92.42647730
_symmetry_Int_Tables_number   1
_chemical_formula_structural   Sr3FeRhO6
_chemical_formula_sum   'Sr6 Fe2 Rh2 O12'
_cell_volume   303.31204434
_cell_formula_units_Z   2
loop_
 _symmetry_equiv_pos_site_id
 _symmetry_equiv_pos_as_xyz
  1  'x, y, z'
loop_
 _atom_site_type_symbol
 _atom_site_label
 _atom_site_symmetry_multiplicity
 _atom_site_fract_x
 _atom_site_fract_y
 _atom_site_fract_z
 _atom_site_occupancy
  Sr  Sr0  1  0.881163  0.250000  0.618837  1
  Sr  Sr1  1  0.250000  0.618837  0.881163  1
  Sr  Sr2  1  0.381163  0.118837  0.750000  1
  Sr  Sr3  1  0.750000  0.381163  0.118837  1
  Sr  Sr4  1  0.118837  0.750000  0.381163  1
  Sr  Sr5  1  0.618837  0.881163  0.250000  1
  Fe  Fe6  1  0.250000  0.250000  0.250000  1
  Fe  Fe7  1  0.750000  0.750000  0.750000  1
  Rh  Rh8  1  0.500000  0.500000  0.500000  1
  Rh  Rh9  1  0.000000  0.000000  0.000000  1
  O  O10  1  0.707679  0.029292  0.898274  1
  O  O11  1  0.970708  0.101726  0.292321  1
  O  O12  1  0.792321  0.601726  0.470708  1
  O  O13  1  0.601726  0.470708  0.792321  1
  O  O14  1  0.470708  0.792321  0.601726  1
  O  O15  1  0.029292  0.898274  0.707679  1
  O  O16  1  0.398274  0.529292  0.207679  1
  O  O17  1  0.292321  0.970708  0.101726  1
  O  O18  1  0.207679  0.398274  0.529292  1
  O  O19  1  0.529292  0.207679  0.398274  1
  O  O20  1  0.898274  0.707679  0.029292  1
  O  O21  1  0.101726  0.292321  0.970708  1
