# generated using pymatgen
data_Ce3DyOsRu7
_symmetry_space_group_name_H-M   'P 1'
_cell_length_a   5.40173031
_cell_length_b   5.23379228
_cell_length_c   8.97105221
_cell_angle_alpha   90.59014450
_cell_angle_beta   89.95215837
_cell_angle_gamma   120.85966911
_symmetry_Int_Tables_number   1
_chemical_formula_structural   Ce3DyOsRu7
_chemical_formula_sum   'Ce3 Dy1 Os1 Ru7'
_cell_volume   217.70422032
_cell_formula_units_Z   1
loop_
 _symmetry_equiv_pos_site_id
 _symmetry_equiv_pos_as_xyz
  1  'x, y, z'
loop_
 _atom_site_type_symbol
 _atom_site_label
 _atom_site_symmetry_multiplicity
 _atom_site_fract_x
 _atom_site_fract_y
 _atom_site_fract_z
 _atom_site_occupancy
  Ce  Ce0  1  0.666218  0.331960  0.567163  1
  Ce  Ce1  1  0.335414  0.671167  0.427711  1
  Ce  Ce2  1  0.333915  0.667923  0.076507  1
  Dy  Dy3  1  0.667124  0.333116  0.932401  1
  Os  Os4  1  0.167654  0.334493  0.753124  1
  Ru  Ru5  1  0.004110  0.008970  0.499021  1
  Ru  Ru6  1  0.003747  0.006904  0.998531  1
  Ru  Ru7  1  0.165645  0.821628  0.750378  1
  Ru  Ru8  1  0.656019  0.821366  0.750764  1
  Ru  Ru9  1  0.829538  0.659360  0.247745  1
  Ru  Ru10  1  0.830859  0.171603  0.248403  1
  Ru  Ru11  1  0.339756  0.171510  0.248252  1
