# generated using pymatgen
data_K3Ba(Si2Au5)4
_symmetry_space_group_name_H-M   'P 1'
_cell_length_a   7.05846400
_cell_length_b   9.10942456
_cell_length_c   10.23659525
_cell_angle_alpha   90.45096067
_cell_angle_beta   90.00000000
_cell_angle_gamma   90.00000000
_symmetry_Int_Tables_number   1
_chemical_formula_structural   K3Ba(Si2Au5)4
_chemical_formula_sum   'K3 Ba1 Si8 Au20'
_cell_volume   658.17779610
_cell_formula_units_Z   1
loop_
 _symmetry_equiv_pos_site_id
 _symmetry_equiv_pos_as_xyz
  1  'x, y, z'
loop_
 _atom_site_type_symbol
 _atom_site_label
 _atom_site_symmetry_multiplicity
 _atom_site_fract_x
 _atom_site_fract_y
 _atom_site_fract_z
 _atom_site_occupancy
  K  K0  1  0.250000  0.748794  0.380319  1
  K  K1  1  0.750000  0.752622  0.879394  1
  K  K2  1  0.750000  0.250704  0.619045  1
  Ba  Ba3  1  0.250000  0.250946  0.119726  1
  Si  Si4  1  0.250000  0.036936  0.640909  1
  Si  Si5  1  0.250000  0.541090  0.855768  1
  Si  Si6  1  0.750000  0.960313  0.362792  1
  Si  Si7  1  0.750000  0.459088  0.142803  1
  Si  Si8  1  0.250000  0.324065  0.458540  1
  Si  Si9  1  0.250000  0.820781  0.043433  1
  Si  Si10  1  0.750000  0.673371  0.543210  1
  Si  Si11  1  0.750000  0.181595  0.955305  1
  Au  Au12  1  0.047255  0.098343  0.394530  1
  Au  Au13  1  0.453846  0.598613  0.107418  1
  Au  Au14  1  0.547241  0.900322  0.603878  1
  Au  Au15  1  0.951683  0.405757  0.890969  1
  Au  Au16  1  0.952759  0.900322  0.603878  1
  Au  Au17  1  0.548317  0.405757  0.890969  1
  Au  Au18  1  0.452745  0.098343  0.394530  1
  Au  Au19  1  0.046154  0.598613  0.107418  1
  Au  Au20  1  0.032715  0.068718  0.862220  1
  Au  Au21  1  0.464226  0.567206  0.634289  1
  Au  Au22  1  0.534214  0.928838  0.138498  1
  Au  Au23  1  0.965121  0.433692  0.367246  1
  Au  Au24  1  0.965786  0.928838  0.138498  1
  Au  Au25  1  0.534879  0.433692  0.367246  1
  Au  Au26  1  0.467285  0.068718  0.862220  1
  Au  Au27  1  0.035774  0.567206  0.634289  1
  Au  Au28  1  0.250000  0.299541  0.695903  1
  Au  Au29  1  0.250000  0.802458  0.804440  1
  Au  Au30  1  0.750000  0.698603  0.304294  1
  Au  Au31  1  0.750000  0.196118  0.196022  1
