# generated using pymatgen
data_Nd3Y3RhBr10
_symmetry_space_group_name_H-M   'P 1'
_cell_length_a   7.47746161
_cell_length_b   9.46504562
_cell_length_c   9.45158452
_cell_angle_alpha   107.65170452
_cell_angle_beta   94.76897755
_cell_angle_gamma   105.68967147
_symmetry_Int_Tables_number   1
_chemical_formula_structural   Nd3Y3RhBr10
_chemical_formula_sum   'Nd3 Y3 Rh1 Br10'
_cell_volume   603.66149074
_cell_formula_units_Z   1
loop_
 _symmetry_equiv_pos_site_id
 _symmetry_equiv_pos_as_xyz
  1  'x, y, z'
loop_
 _atom_site_type_symbol
 _atom_site_label
 _atom_site_symmetry_multiplicity
 _atom_site_fract_x
 _atom_site_fract_y
 _atom_site_fract_z
 _atom_site_occupancy
  Nd  Nd0  1  0.869847  0.950948  0.243913  1
  Nd  Nd1  1  0.132363  0.048457  0.756724  1
  Nd  Nd2  1  0.027560  0.693376  0.900704  1
  Y  Y3  1  0.970643  0.297676  0.095118  1
  Y  Y4  1  0.642079  0.870103  0.826820  1
  Y  Y5  1  0.357863  0.134987  0.174461  1
  Rh  Rh6  1  0.000666  0.999346  0.000182  1
  Br  Br7  1  0.641078  0.557294  0.733020  1
  Br  Br8  1  0.340797  0.443571  0.264860  1
  Br  Br9  1  0.751787  0.922487  0.555576  1
  Br  Br10  1  0.251525  0.079942  0.444956  1
  Br  Br11  1  0.913204  0.622121  0.172788  1
  Br  Br12  1  0.086593  0.367710  0.832993  1
  Br  Br13  1  0.555017  0.178975  0.919817  1
  Br  Br14  1  0.450578  0.827962  0.084172  1
  Br  Br15  1  0.240410  0.750608  0.657610  1
  Br  Br16  1  0.767990  0.254440  0.336288  1
