# generated using pymatgen
data_TiNb2Ga2Re3Si
_symmetry_space_group_name_H-M   'P 1'
_cell_length_a   6.98911800
_cell_length_b   7.00710967
_cell_length_c   3.26199900
_cell_angle_alpha   90.00000000
_cell_angle_beta   90.00000000
_cell_angle_gamma   119.91508087
_symmetry_Int_Tables_number   1
_chemical_formula_structural   TiNb2Ga2Re3Si
_chemical_formula_sum   'Ti1 Nb2 Ga2 Re3 Si1'
_cell_volume   138.46714378
_cell_formula_units_Z   1
loop_
 _symmetry_equiv_pos_site_id
 _symmetry_equiv_pos_as_xyz
  1  'x, y, z'
loop_
 _atom_site_type_symbol
 _atom_site_label
 _atom_site_symmetry_multiplicity
 _atom_site_fract_x
 _atom_site_fract_y
 _atom_site_fract_z
 _atom_site_occupancy
  Ti  Ti0  1  0.396343  0.000000  0.500000  1
  Nb  Nb1  1  0.001787  0.400008  0.500000  1
  Nb  Nb2  1  0.601780  0.599992  0.500000  1
  Ga  Ga3  1  0.336298  0.674919  0.000000  1
  Ga  Ga4  1  0.661380  0.325081  0.000000  1
  Re  Re5  1  0.745743  0.000000  0.000000  1
  Re  Re6  1  0.998130  0.741847  0.000000  1
  Re  Re7  1  0.256283  0.258153  0.000000  1
  Si  Si8  1  0.002257  0.000000  0.500000  1
