# generated using pymatgen
data_Tb5GaBi2Cl
_symmetry_space_group_name_H-M   'P 1'
_cell_length_a   9.16053823
_cell_length_b   9.06508001
_cell_length_c   6.56266600
_cell_angle_alpha   90.00000000
_cell_angle_beta   90.00000000
_cell_angle_gamma   119.65588170
_symmetry_Int_Tables_number   1
_chemical_formula_structural   Tb5GaBi2Cl
_chemical_formula_sum   'Tb10 Ga2 Bi4 Cl2'
_cell_volume   473.58625637
_cell_formula_units_Z   2
loop_
 _symmetry_equiv_pos_site_id
 _symmetry_equiv_pos_as_xyz
  1  'x, y, z'
loop_
 _atom_site_type_symbol
 _atom_site_label
 _atom_site_symmetry_multiplicity
 _atom_site_fract_x
 _atom_site_fract_y
 _atom_site_fract_z
 _atom_site_occupancy
  Tb  Tb0  1  0.657325  0.326371  0.494224  1
  Tb  Tb1  1  0.342675  0.669047  0.494224  1
  Tb  Tb2  1  0.342675  0.669047  0.005776  1
  Tb  Tb3  1  0.657325  0.326371  0.005776  1
  Tb  Tb4  1  0.723376  0.738577  0.250000  1
  Tb  Tb5  1  0.276624  0.015201  0.250000  1
  Tb  Tb6  1  0.000000  0.255286  0.250000  1
  Tb  Tb7  1  0.263257  0.263356  0.750000  1
  Tb  Tb8  1  0.736743  0.000100  0.750000  1
  Tb  Tb9  1  0.000000  0.739054  0.750000  1
  Ga  Ga10  1  0.388194  0.389999  0.250000  1
  Ga  Ga11  1  0.611806  0.001805  0.250000  1
  Bi  Bi12  1  0.000000  0.614368  0.250000  1
  Bi  Bi13  1  0.611657  0.609518  0.750000  1
  Bi  Bi14  1  0.388343  0.997861  0.750000  1
  Bi  Bi15  1  0.000000  0.389419  0.750000  1
  Cl  Cl16  1  0.000000  0.997310  0.501442  1
  Cl  Cl17  1  0.000000  0.997310  0.998558  1
