# generated using pymatgen
data_Tb8Dy2Os3Ru
_symmetry_space_group_name_H-M   'P 1'
_cell_length_a   8.49958068
_cell_length_b   8.49968044
_cell_length_c   7.32294426
_cell_angle_alpha   83.28873034
_cell_angle_beta   83.32242561
_cell_angle_gamma   44.30941233
_symmetry_Int_Tables_number   1
_chemical_formula_structural   Tb8Dy2Os3Ru
_chemical_formula_sum   'Tb8 Dy2 Os3 Ru1'
_cell_volume   366.61044567
_cell_formula_units_Z   1
loop_
 _symmetry_equiv_pos_site_id
 _symmetry_equiv_pos_as_xyz
  1  'x, y, z'
loop_
 _atom_site_type_symbol
 _atom_site_label
 _atom_site_symmetry_multiplicity
 _atom_site_fract_x
 _atom_site_fract_y
 _atom_site_fract_z
 _atom_site_occupancy
  Tb  Tb0  1  0.207291  0.975838  0.583979  1
  Tb  Tb1  1  0.023058  0.794159  0.915824  1
  Tb  Tb2  1  0.203815  0.360371  0.316335  1
  Tb  Tb3  1  0.640266  0.793669  0.185593  1
  Tb  Tb4  1  0.794434  0.641046  0.684464  1
  Tb  Tb5  1  0.360583  0.204770  0.815027  1
  Tb  Tb6  1  0.977692  0.207731  0.083493  1
  Tb  Tb7  1  0.793101  0.024227  0.414895  1
  Dy  Dy8  1  0.575878  0.424505  0.749451  1
  Dy  Dy9  1  0.423662  0.576451  0.250557  1
  Os  Os10  1  0.177139  0.603781  0.575746  1
  Os  Os11  1  0.397153  0.821829  0.924986  1
  Os  Os12  1  0.822205  0.396297  0.424269  1
  Ru  Ru13  1  0.603726  0.175324  0.075380  1
