# generated using pymatgen
data_Er4ReTcOs6
_symmetry_space_group_name_H-M   'P 1'
_cell_length_a   5.25450420
_cell_length_b   5.25450439
_cell_length_c   8.84586200
_cell_angle_alpha   90.00000000
_cell_angle_beta   90.00000000
_cell_angle_gamma   117.81798355
_symmetry_Int_Tables_number   1
_chemical_formula_structural   Er4ReTcOs6
_chemical_formula_sum   'Er4 Re1 Tc1 Os6'
_cell_volume   216.00776356
_cell_formula_units_Z   1
loop_
 _symmetry_equiv_pos_site_id
 _symmetry_equiv_pos_as_xyz
  1  'x, y, z'
loop_
 _atom_site_type_symbol
 _atom_site_label
 _atom_site_symmetry_multiplicity
 _atom_site_fract_x
 _atom_site_fract_y
 _atom_site_fract_z
 _atom_site_occupancy
  Er  Er0  1  0.330504  0.669496  0.435365  1
  Er  Er1  1  0.666491  0.333509  0.563976  1
  Er  Er2  1  0.666491  0.333509  0.936024  1
  Er  Er3  1  0.330504  0.669496  0.064635  1
  Re  Re4  1  0.831539  0.168461  0.250000  1
  Tc  Tc5  1  0.176971  0.823029  0.750000  1
  Os  Os6  1  0.994664  0.005336  0.500011  1
  Os  Os7  1  0.994664  0.005336  0.999989  1
  Os  Os8  1  0.829049  0.652246  0.250000  1
  Os  Os9  1  0.347754  0.170951  0.250000  1
  Os  Os10  1  0.171197  0.339828  0.750000  1
  Os  Os11  1  0.660172  0.828803  0.750000  1
