# generated using pymatgen
data_Er10In8PdRuPt2
_symmetry_space_group_name_H-M   'P 1'
_cell_length_a   3.60403200
_cell_length_b   8.07376608
_cell_length_c   18.17729753
_cell_angle_alpha   89.96848631
_cell_angle_beta   90.00000000
_cell_angle_gamma   90.00000000
_symmetry_Int_Tables_number   1
_chemical_formula_structural   Er10In8PdRuPt2
_chemical_formula_sum   'Er10 In8 Pd1 Ru1 Pt2'
_cell_volume   528.92494680
_cell_formula_units_Z   1
loop_
 _symmetry_equiv_pos_site_id
 _symmetry_equiv_pos_as_xyz
  1  'x, y, z'
loop_
 _atom_site_type_symbol
 _atom_site_label
 _atom_site_symmetry_multiplicity
 _atom_site_fract_x
 _atom_site_fract_y
 _atom_site_fract_z
 _atom_site_occupancy
  Er  Er0  1  0.000000  0.500700  0.499664  1
  Er  Er1  1  0.000000  0.999995  0.000751  1
  Er  Er2  1  0.000000  0.726528  0.277238  1
  Er  Er3  1  0.000000  0.258759  0.721661  1
  Er  Er4  1  0.000000  0.758590  0.778462  1
  Er  Er5  1  0.000000  0.253553  0.220238  1
  Er  Er6  1  0.000000  0.615093  0.087433  1
  Er  Er7  1  0.000000  0.385290  0.914540  1
  Er  Er8  1  0.000000  0.885046  0.585538  1
  Er  Er9  1  0.000000  0.118109  0.414141  1
  In  In10  1  0.500000  0.710306  0.933322  1
  In  In11  1  0.500000  0.292600  0.068408  1
  In  In12  1  0.500000  0.792291  0.432562  1
  In  In13  1  0.500000  0.209998  0.566334  1
  In  In14  1  0.500000  0.576648  0.647517  1
  In  In15  1  0.500000  0.425965  0.350262  1
  In  In16  1  0.500000  0.922418  0.150407  1
  In  In17  1  0.500000  0.075675  0.852770  1
  Pd  Pd18  1  0.500000  0.016685  0.303721  1
  Ru  Ru19  1  0.500000  0.518370  0.195043  1
  Pt  Pt20  1  0.500000  0.478409  0.803969  1
  Pt  Pt21  1  0.500000  0.978973  0.696018  1
