# generated using pymatgen
data_MnBiF7
_symmetry_space_group_name_H-M   'P 1'
_cell_length_a   5.58161400
_cell_length_b   9.02085090
_cell_length_c   11.95439363
_cell_angle_alpha   61.57777795
_cell_angle_beta   90.00000000
_cell_angle_gamma   90.00000000
_symmetry_Int_Tables_number   1
_chemical_formula_structural   MnBiF7
_chemical_formula_sum   'Mn4 Bi4 F28'
_cell_volume   529.36221765
_cell_formula_units_Z   4
loop_
 _symmetry_equiv_pos_site_id
 _symmetry_equiv_pos_as_xyz
  1  'x, y, z'
loop_
 _atom_site_type_symbol
 _atom_site_label
 _atom_site_symmetry_multiplicity
 _atom_site_fract_x
 _atom_site_fract_y
 _atom_site_fract_z
 _atom_site_occupancy
  Mn  Mn0  1  0.742169  0.273731  0.456927  1
  Mn  Mn1  1  0.242169  0.726269  0.043073  1
  Mn  Mn2  1  0.257831  0.726269  0.543073  1
  Mn  Mn3  1  0.757831  0.273731  0.956927  1
  Bi  Bi4  1  0.737479  0.812119  0.262658  1
  Bi  Bi5  1  0.237479  0.187881  0.237342  1
  Bi  Bi6  1  0.262521  0.187881  0.737342  1
  Bi  Bi7  1  0.762521  0.812119  0.762658  1
  F  F8  1  0.432311  0.708567  0.924394  1
  F  F9  1  0.932311  0.291433  0.575606  1
  F  F10  1  0.567689  0.291433  0.075606  1
  F  F11  1  0.067689  0.708567  0.424394  1
  F  F12  1  0.464400  0.282663  0.539911  1
  F  F13  1  0.964400  0.717337  0.960089  1
  F  F14  1  0.535600  0.717337  0.460089  1
  F  F15  1  0.035600  0.282663  0.039911  1
  F  F16  1  0.767279  0.504309  0.862984  1
  F  F17  1  0.267279  0.495691  0.637016  1
  F  F18  1  0.232721  0.495691  0.137016  1
  F  F19  1  0.732721  0.504309  0.362984  1
  F  F20  1  0.759073  0.039417  0.048234  1
  F  F21  1  0.259073  0.960583  0.451766  1
  F  F22  1  0.240927  0.960583  0.951766  1
  F  F23  1  0.740927  0.039417  0.548234  1
  F  F24  1  0.988109  0.730211  0.631855  1
  F  F25  1  0.488109  0.269789  0.868145  1
  F  F26  1  0.011891  0.269789  0.368145  1
  F  F27  1  0.511891  0.730211  0.131855  1
  F  F28  1  0.054971  0.741992  0.165951  1
  F  F29  1  0.554971  0.258008  0.334049  1
  F  F30  1  0.945029  0.258008  0.834049  1
  F  F31  1  0.445029  0.741992  0.665951  1
  F  F32  1  0.402571  0.968960  0.227145  1
  F  F33  1  0.902571  0.031040  0.272855  1
  F  F34  1  0.597429  0.031040  0.772855  1
  F  F35  1  0.097429  0.968960  0.727145  1
