# generated using pymatgen
data_Gd3HoU4(ReB6)4
_symmetry_space_group_name_H-M   'P 1'
_cell_length_a   3.64646500
_cell_length_b   9.32025400
_cell_length_c   11.43816900
_cell_angle_alpha   90.00212044
_cell_angle_beta   90.00000000
_cell_angle_gamma   90.00000000
_symmetry_Int_Tables_number   1
_chemical_formula_structural   Gd3HoU4(ReB6)4
_chemical_formula_sum   'Gd3 Ho1 U4 Re4 B24'
_cell_volume   388.73738276
_cell_formula_units_Z   1
loop_
 _symmetry_equiv_pos_site_id
 _symmetry_equiv_pos_as_xyz
  1  'x, y, z'
loop_
 _atom_site_type_symbol
 _atom_site_label
 _atom_site_symmetry_multiplicity
 _atom_site_fract_x
 _atom_site_fract_y
 _atom_site_fract_z
 _atom_site_occupancy
  Gd  Gd0  1  0.000000  0.663404  0.592039  1
  Gd  Gd1  1  0.000000  0.836535  0.092140  1
  Gd  Gd2  1  0.000000  0.163482  0.907861  1
  Ho  Ho3  1  0.000000  0.336500  0.407894  1
  U  U4  1  0.000000  0.956853  0.396606  1
  U  U5  1  0.000000  0.043682  0.603215  1
  U  U6  1  0.000000  0.456366  0.103790  1
  U  U7  1  0.000000  0.543393  0.896686  1
  Re  Re8  1  0.000000  0.645398  0.318306  1
  Re  Re9  1  0.000000  0.354008  0.681474  1
  Re  Re10  1  0.000000  0.146192  0.182229  1
  Re  Re11  1  0.000000  0.854129  0.818024  1
  B  B12  1  0.500000  0.551842  0.430535  1
  B  B13  1  0.500000  0.447488  0.569190  1
  B  B14  1  0.500000  0.052519  0.069644  1
  B  B15  1  0.500000  0.947529  0.930403  1
  B  B16  1  0.500000  0.743163  0.422596  1
  B  B17  1  0.500000  0.256841  0.577007  1
  B  B18  1  0.500000  0.243310  0.077451  1
  B  B19  1  0.500000  0.756816  0.922628  1
  B  B20  1  0.500000  0.801555  0.275230  1
  B  B21  1  0.500000  0.198424  0.724695  1
  B  B22  1  0.500000  0.301788  0.225072  1
  B  B23  1  0.500000  0.698493  0.775141  1
  B  B24  1  0.500000  0.643766  0.188600  1
  B  B25  1  0.500000  0.356026  0.811377  1
  B  B26  1  0.500000  0.144214  0.311677  1
  B  B27  1  0.500000  0.856158  0.688503  1
  B  B28  1  0.500000  0.989696  0.219828  1
  B  B29  1  0.500000  0.010375  0.780178  1
  B  B30  1  0.500000  0.489111  0.280409  1
  B  B31  1  0.500000  0.510304  0.719650  1
  B  B32  1  0.500000  0.638878  0.038442  1
  B  B33  1  0.500000  0.361042  0.961728  1
  B  B34  1  0.500000  0.139535  0.461444  1
  B  B35  1  0.500000  0.861184  0.538305  1
