# generated using pymatgen
data_Zr6Zn20Pd3Se
_symmetry_space_group_name_H-M   'P 1'
_cell_length_a   8.80565411
_cell_length_b   8.80565323
_cell_length_c   8.82823800
_cell_angle_alpha   59.91512819
_cell_angle_beta   59.91513151
_cell_angle_gamma   60.16974539
_symmetry_Int_Tables_number   1
_chemical_formula_structural   Zr6Zn20Pd3Se
_chemical_formula_sum   'Zr6 Zn20 Pd3 Se1'
_cell_volume   484.03473190
_cell_formula_units_Z   1
loop_
 _symmetry_equiv_pos_site_id
 _symmetry_equiv_pos_as_xyz
  1  'x, y, z'
loop_
 _atom_site_type_symbol
 _atom_site_label
 _atom_site_symmetry_multiplicity
 _atom_site_fract_x
 _atom_site_fract_y
 _atom_site_fract_z
 _atom_site_occupancy
  Zr  Zr0  1  0.709895  0.290105  0.290105  1
  Zr  Zr1  1  0.290105  0.709895  0.709895  1
  Zr  Zr2  1  0.290105  0.709895  0.290105  1
  Zr  Zr3  1  0.709895  0.290105  0.709895  1
  Zr  Zr4  1  0.285526  0.285526  0.714474  1
  Zr  Zr5  1  0.714474  0.714474  0.285526  1
  Zn  Zn6  1  0.119891  0.119891  0.126860  1
  Zn  Zn7  1  0.880109  0.880109  0.873140  1
  Zn  Zn8  1  0.119891  0.119891  0.633359  1
  Zn  Zn9  1  0.126860  0.633359  0.119891  1
  Zn  Zn10  1  0.880109  0.880109  0.366641  1
  Zn  Zn11  1  0.873140  0.366641  0.880109  1
  Zn  Zn12  1  0.633359  0.126860  0.119891  1
  Zn  Zn13  1  0.366641  0.873140  0.880109  1
  Zn  Zn14  1  0.500000  0.000000  0.000000  1
  Zn  Zn15  1  0.000000  0.500000  0.500000  1
  Zn  Zn16  1  0.000000  0.500000  0.000000  1
  Zn  Zn17  1  0.500000  0.000000  0.500000  1
  Zn  Zn18  1  0.334270  0.334270  0.337545  1
  Zn  Zn19  1  0.665730  0.665730  0.662455  1
  Zn  Zn20  1  0.334270  0.334270  0.993917  1
  Zn  Zn21  1  0.337545  0.993917  0.334270  1
  Zn  Zn22  1  0.665730  0.665730  0.006083  1
  Zn  Zn23  1  0.662455  0.006083  0.665730  1
  Zn  Zn24  1  0.993917  0.337545  0.334270  1
  Zn  Zn25  1  0.006083  0.662455  0.665730  1
  Pd  Pd26  1  0.000000  0.000000  0.500000  1
  Pd  Pd27  1  0.500000  0.500000  0.000000  1
  Pd  Pd28  1  0.000000  0.000000  0.000000  1
  Se  Se29  1  0.500000  0.500000  0.500000  1
