# generated using pymatgen
data_Nd2FeCo5P4
_symmetry_space_group_name_H-M   'P 1'
_cell_length_a   3.77439700
_cell_length_b   10.68051800
_cell_length_c   12.35255800
_cell_angle_alpha   90.00000000
_cell_angle_beta   90.00000000
_cell_angle_gamma   90.00000000
_symmetry_Int_Tables_number   1
_chemical_formula_structural   Nd2FeCo5P4
_chemical_formula_sum   'Nd6 Fe3 Co15 P12'
_cell_volume   497.96268087
_cell_formula_units_Z   3
loop_
 _symmetry_equiv_pos_site_id
 _symmetry_equiv_pos_as_xyz
  1  'x, y, z'
loop_
 _atom_site_type_symbol
 _atom_site_label
 _atom_site_symmetry_multiplicity
 _atom_site_fract_x
 _atom_site_fract_y
 _atom_site_fract_z
 _atom_site_occupancy
  Nd  Nd0  1  0.000000  0.500000  0.520806  1
  Nd  Nd1  1  0.500000  0.000000  0.479215  1
  Nd  Nd2  1  0.500000  0.817847  0.205341  1
  Nd  Nd3  1  0.500000  0.182153  0.205341  1
  Nd  Nd4  1  0.000000  0.680833  0.795086  1
  Nd  Nd5  1  0.000000  0.319167  0.795086  1
  Fe  Fe6  1  0.500000  0.500000  0.153238  1
  Fe  Fe7  1  0.000000  0.000000  0.845165  1
  Fe  Fe8  1  0.000000  0.500000  0.989725  1
  Co  Co9  1  0.500000  0.500000  0.702512  1
  Co  Co10  1  0.000000  0.000000  0.297176  1
  Co  Co11  1  0.500000  0.000000  0.012573  1
  Co  Co12  1  0.500000  0.331317  0.995709  1
  Co  Co13  1  0.500000  0.668683  0.995709  1
  Co  Co14  1  0.000000  0.165881  0.003974  1
  Co  Co15  1  0.000000  0.834119  0.003974  1
  Co  Co16  1  0.500000  0.297034  0.430282  1
  Co  Co17  1  0.500000  0.702966  0.430282  1
  Co  Co18  1  0.000000  0.203142  0.569985  1
  Co  Co19  1  0.000000  0.796858  0.569985  1
  Co  Co20  1  0.500000  0.881037  0.710605  1
  Co  Co21  1  0.500000  0.118963  0.710605  1
  Co  Co22  1  0.000000  0.619164  0.289142  1
  Co  Co23  1  0.000000  0.380836  0.289142  1
  P  P24  1  0.500000  0.500000  0.888549  1
  P  P25  1  0.000000  0.000000  0.113688  1
  P  P26  1  0.500000  0.500000  0.336569  1
  P  P27  1  0.000000  0.000000  0.662282  1
  P  P28  1  0.500000  0.305473  0.614450  1
  P  P29  1  0.500000  0.694527  0.614450  1
  P  P30  1  0.000000  0.194648  0.385764  1
  P  P31  1  0.000000  0.805352  0.385764  1
  P  P32  1  0.500000  0.848666  0.894936  1
  P  P33  1  0.500000  0.151334  0.894936  1
  P  P34  1  0.000000  0.651721  0.103977  1
  P  P35  1  0.000000  0.348279  0.103977  1
