# generated using pymatgen
data_Yb5Dy11(ZrIr3)4
_symmetry_space_group_name_H-M   'P 1'
_cell_length_a   10.80048500
_cell_length_b   10.75111440
_cell_length_c   6.25684100
_cell_angle_alpha   90.06960051
_cell_angle_beta   90.00125727
_cell_angle_gamma   89.94220234
_symmetry_Int_Tables_number   1
_chemical_formula_structural   Yb5Dy11(ZrIr3)4
_chemical_formula_sum   'Yb5 Dy11 Zr4 Ir12'
_cell_volume   726.52626389
_cell_formula_units_Z   1
loop_
 _symmetry_equiv_pos_site_id
 _symmetry_equiv_pos_as_xyz
  1  'x, y, z'
loop_
 _atom_site_type_symbol
 _atom_site_label
 _atom_site_symmetry_multiplicity
 _atom_site_fract_x
 _atom_site_fract_y
 _atom_site_fract_z
 _atom_site_occupancy
  Yb  Yb0  1  0.288161  0.085721  0.370173  1
  Yb  Yb1  1  0.289756  0.913947  0.870443  1
  Yb  Yb2  1  0.712171  0.082741  0.870466  1
  Yb  Yb3  1  0.711627  0.915656  0.370379  1
  Yb  Yb4  1  0.586465  0.791784  0.868315  1
  Dy  Dy5  1  0.582806  0.205559  0.371042  1
  Dy  Dy6  1  0.415669  0.795792  0.372078  1
  Dy  Dy7  1  0.414378  0.206181  0.871734  1
  Dy  Dy8  1  0.211346  0.414255  0.629649  1
  Dy  Dy9  1  0.211900  0.585974  0.130440  1
  Dy  Dy10  1  0.787357  0.414238  0.130534  1
  Dy  Dy11  1  0.788047  0.585132  0.629846  1
  Dy  Dy12  1  0.914624  0.711503  0.133003  1
  Dy  Dy13  1  0.913395  0.288219  0.631173  1
  Dy  Dy14  1  0.086224  0.711341  0.631140  1
  Dy  Dy15  1  0.085683  0.288810  0.131158  1
  Zr  Zr16  1  0.000840  0.000163  0.497118  1
  Zr  Zr17  1  0.001119  0.999977  0.997823  1
  Zr  Zr18  1  0.499661  0.501646  0.996512  1
  Zr  Zr19  1  0.499790  0.499292  0.496097  1
  Ir  Ir20  1  0.860828  0.149783  0.251605  1
  Ir  Ir21  1  0.865049  0.849960  0.749194  1
  Ir  Ir22  1  0.139583  0.150512  0.752348  1
  Ir  Ir23  1  0.140548  0.849089  0.251207  1
  Ir  Ir24  1  0.644016  0.358150  0.747603  1
  Ir  Ir25  1  0.644199  0.641502  0.252344  1
  Ir  Ir26  1  0.355525  0.358386  0.244721  1
  Ir  Ir27  1  0.351397  0.639414  0.741911  1
  Ir  Ir28  1  0.499365  0.002817  0.120071  1
  Ir  Ir29  1  0.499518  0.002542  0.622554  1
  Ir  Ir30  1  0.999505  0.500046  0.883938  1
  Ir  Ir31  1  0.999449  0.499868  0.383380  1
