# generated using pymatgen
data_Er5Tm7Mn2In3
_symmetry_space_group_name_H-M   'P 1'
_cell_length_a   8.37422393
_cell_length_b   8.37274991
_cell_length_c   8.37471789
_cell_angle_alpha   110.10534139
_cell_angle_beta   110.17892561
_cell_angle_gamma   108.11899904
_symmetry_Int_Tables_number   1
_chemical_formula_structural   Er5Tm7Mn2In3
_chemical_formula_sum   'Er5 Tm7 Mn2 In3'
_cell_volume   451.94116996
_cell_formula_units_Z   1
loop_
 _symmetry_equiv_pos_site_id
 _symmetry_equiv_pos_as_xyz
  1  'x, y, z'
loop_
 _atom_site_type_symbol
 _atom_site_label
 _atom_site_symmetry_multiplicity
 _atom_site_fract_x
 _atom_site_fract_y
 _atom_site_fract_z
 _atom_site_occupancy
  Er  Er0  1  0.210665  0.963996  0.753375  1
  Er  Er1  1  0.036075  0.789463  0.246717  1
  Er  Er2  1  0.789319  0.036164  0.246802  1
  Er  Er3  1  0.210809  0.457292  0.246805  1
  Er  Er4  1  0.789207  0.542511  0.753018  1
  Tm  Tm5  1  0.303667  0.303734  0.607350  1
  Tm  Tm6  1  0.696253  0.696370  0.392854  1
  Tm  Tm7  1  0.303715  0.696272  0.999932  1
  Tm  Tm8  1  0.696194  0.303453  0.999887  1
  Tm  Tm9  1  0.457349  0.210752  0.246708  1
  Tm  Tm10  1  0.542783  0.789331  0.753348  1
  Tm  Tm11  1  0.964061  0.210619  0.753319  1
  Mn  Mn12  1  0.393333  0.393346  0.000002  1
  Mn  Mn13  1  0.606449  0.606507  0.999938  1
  In  In14  1  0.999916  0.000095  0.999825  1
  In  In15  1  0.500199  0.000088  0.500119  1
  In  In16  1  0.000009  0.500009  0.500001  1
