# generated using pymatgen
data_Ta3ReTcB3Ru
_symmetry_space_group_name_H-M   'P 1'
_cell_length_a   3.15905100
_cell_length_b   9.07175800
_cell_length_c   15.71731800
_cell_angle_alpha   90.00000000
_cell_angle_beta   90.00000000
_cell_angle_gamma   90.00000000
_symmetry_Int_Tables_number   1
_chemical_formula_structural   Ta3ReTcB3Ru
_chemical_formula_sum   'Ta12 Re4 Tc4 B12 Ru4'
_cell_volume   450.42919683
_cell_formula_units_Z   4
loop_
 _symmetry_equiv_pos_site_id
 _symmetry_equiv_pos_as_xyz
  1  'x, y, z'
loop_
 _atom_site_type_symbol
 _atom_site_label
 _atom_site_symmetry_multiplicity
 _atom_site_fract_x
 _atom_site_fract_y
 _atom_site_fract_z
 _atom_site_occupancy
  Ta  Ta0  1  0.000000  0.803111  0.493101  1
  Ta  Ta1  1  0.000000  0.196889  0.506899  1
  Ta  Ta2  1  0.000000  0.303111  0.006899  1
  Ta  Ta3  1  0.000000  0.696889  0.993101  1
  Ta  Ta4  1  0.000000  0.515990  0.595296  1
  Ta  Ta5  1  0.000000  0.484010  0.404704  1
  Ta  Ta6  1  0.000000  0.015990  0.904704  1
  Ta  Ta7  1  0.000000  0.984010  0.095296  1
  Ta  Ta8  1  0.000000  0.683006  0.205560  1
  Ta  Ta9  1  0.000000  0.316994  0.794440  1
  Ta  Ta10  1  0.000000  0.183006  0.294440  1
  Ta  Ta11  1  0.000000  0.816994  0.705560  1
  Re  Re12  1  0.500000  0.518900  0.095948  1
  Re  Re13  1  0.500000  0.481100  0.904052  1
  Re  Re14  1  0.500000  0.018900  0.404052  1
  Re  Re15  1  0.500000  0.981100  0.595948  1
  Tc  Tc16  1  0.500000  0.716918  0.356668  1
  Tc  Tc17  1  0.500000  0.283082  0.643332  1
  Tc  Tc18  1  0.500000  0.216918  0.143332  1
  Tc  Tc19  1  0.500000  0.783082  0.856668  1
  B  B20  1  0.500000  0.604002  0.494976  1
  B  B21  1  0.500000  0.395998  0.505024  1
  B  B22  1  0.500000  0.104002  0.005024  1
  B  B23  1  0.500000  0.895998  0.994976  1
  B  B24  1  0.000000  0.610706  0.834126  1
  B  B25  1  0.000000  0.389294  0.165874  1
  B  B26  1  0.000000  0.110706  0.665874  1
  B  B27  1  0.000000  0.889294  0.334126  1
  B  B28  1  0.500000  0.716978  0.600924  1
  B  B29  1  0.500000  0.283022  0.399076  1
  B  B30  1  0.500000  0.216978  0.899076  1
  B  B31  1  0.500000  0.783022  0.100924  1
  Ru  Ru32  1  0.500000  0.568214  0.732443  1
  Ru  Ru33  1  0.500000  0.431786  0.267557  1
  Ru  Ru34  1  0.500000  0.068214  0.767557  1
  Ru  Ru35  1  0.500000  0.931786  0.232443  1
