# generated using pymatgen
data_SrAsIrF
_symmetry_space_group_name_H-M   'P 1'
_cell_length_a   4.12200100
_cell_length_b   4.12200100
_cell_length_c   8.79421600
_cell_angle_alpha   90.00000000
_cell_angle_beta   90.00000000
_cell_angle_gamma   90.00000000
_symmetry_Int_Tables_number   1
_chemical_formula_structural   SrAsIrF
_chemical_formula_sum   'Sr2 As2 Ir2 F2'
_cell_volume   149.42157643
_cell_formula_units_Z   2
loop_
 _symmetry_equiv_pos_site_id
 _symmetry_equiv_pos_as_xyz
  1  'x, y, z'
loop_
 _atom_site_type_symbol
 _atom_site_label
 _atom_site_symmetry_multiplicity
 _atom_site_fract_x
 _atom_site_fract_y
 _atom_site_fract_z
 _atom_site_occupancy
  Sr  Sr0  1  0.250002  0.250002  0.162370  1
  Sr  Sr1  1  0.750002  0.750002  0.837631  1
  As  As2  1  0.750002  0.750002  0.340410  1
  As  As3  1  0.250002  0.250002  0.659589  1
  Ir  Ir4  1  0.750002  0.250002  0.500000  1
  Ir  Ir5  1  0.250002  0.750002  0.500000  1
  F  F6  1  0.750002  0.250002  0.000000  1
  F  F7  1  0.250002  0.750002  0.000000  1
