# generated using pymatgen
data_Th3InGa2Ni2Os
_symmetry_space_group_name_H-M   'P 1'
_cell_length_a   7.32008719
_cell_length_b   7.31306768
_cell_length_c   4.02717400
_cell_angle_alpha   90.00000000
_cell_angle_beta   90.00000000
_cell_angle_gamma   120.53423666
_symmetry_Int_Tables_number   1
_chemical_formula_structural   Th3InGa2Ni2Os
_chemical_formula_sum   'Th3 In1 Ga2 Ni2 Os1'
_cell_volume   185.68792467
_cell_formula_units_Z   1
loop_
 _symmetry_equiv_pos_site_id
 _symmetry_equiv_pos_as_xyz
  1  'x, y, z'
loop_
 _atom_site_type_symbol
 _atom_site_label
 _atom_site_symmetry_multiplicity
 _atom_site_fract_x
 _atom_site_fract_y
 _atom_site_fract_z
 _atom_site_occupancy
  Th  Th0  1  0.002099  0.407562  0.500000  1
  Th  Th1  1  0.574463  0.578988  0.500000  1
  Th  Th2  1  0.425677  0.003829  0.500000  1
  In  In3  1  0.997675  0.763227  0.000000  1
  Ga  Ga4  1  0.236935  0.236273  0.000000  1
  Ga  Ga5  1  0.762029  0.999276  0.000000  1
  Ni  Ni6  1  0.660858  0.327687  0.000000  1
  Ni  Ni7  1  0.000371  0.017552  0.500000  1
  Os  Os8  1  0.339892  0.665606  0.000000  1
