# generated using pymatgen
data_Nd2Sm2GeI5
_symmetry_space_group_name_H-M   'P 1'
_cell_length_a   10.01298073
_cell_length_b   10.01298030
_cell_length_c   9.05334106
_cell_angle_alpha   77.79974544
_cell_angle_beta   77.79974461
_cell_angle_gamma   25.04366624
_symmetry_Int_Tables_number   1
_chemical_formula_structural   Nd2Sm2GeI5
_chemical_formula_sum   'Nd2 Sm2 Ge1 I5'
_cell_volume   375.12038235
_cell_formula_units_Z   1
loop_
 _symmetry_equiv_pos_site_id
 _symmetry_equiv_pos_as_xyz
  1  'x, y, z'
loop_
 _atom_site_type_symbol
 _atom_site_label
 _atom_site_symmetry_multiplicity
 _atom_site_fract_x
 _atom_site_fract_y
 _atom_site_fract_z
 _atom_site_occupancy
  Nd  Nd0  1  0.500900  0.500900  0.216020  1
  Nd  Nd1  1  0.499100  0.499100  0.783980  1
  Sm  Sm2  1  0.853548  0.853548  0.075080  1
  Sm  Sm3  1  0.146452  0.146452  0.924920  1
  Ge  Ge4  1  0.000000  0.000000  0.000000  1
  I  I5  1  0.673640  0.673640  0.164380  1
  I  I6  1  0.326360  0.326360  0.835620  1
  I  I7  1  0.667375  0.667375  0.667172  1
  I  I8  1  0.332625  0.332625  0.332828  1
  I  I9  1  0.000000  0.000000  0.500000  1
