# generated using pymatgen
data_K2Rb2USe5
_symmetry_space_group_name_H-M   'P 1'
_cell_length_a   8.18721669
_cell_length_b   12.04252268
_cell_length_c   8.14095476
_cell_angle_alpha   101.27484407
_cell_angle_beta   102.56173430
_cell_angle_gamma   109.20707486
_symmetry_Int_Tables_number   1
_chemical_formula_structural   K2Rb2USe5
_chemical_formula_sum   'K4 Rb4 U2 Se10'
_cell_volume   708.09600636
_cell_formula_units_Z   2
loop_
 _symmetry_equiv_pos_site_id
 _symmetry_equiv_pos_as_xyz
  1  'x, y, z'
loop_
 _atom_site_type_symbol
 _atom_site_label
 _atom_site_symmetry_multiplicity
 _atom_site_fract_x
 _atom_site_fract_y
 _atom_site_fract_z
 _atom_site_occupancy
  K  K0  1  0.998797  0.498880  0.000031  1
  K  K1  1  0.001213  0.001274  0.500725  1
  K  K2  1  0.398363  0.400371  0.701886  1
  K  K3  1  0.584314  0.095597  0.799077  1
  Rb  Rb4  1  0.426465  0.905940  0.210289  1
  Rb  Rb5  1  0.599684  0.597357  0.296709  1
  Rb  Rb6  1  0.797713  0.300358  0.420745  1
  Rb  Rb7  1  0.200378  0.699536  0.579211  1
  U  U8  1  0.186907  0.194675  0.098297  1
  U  U9  1  0.812492  0.805657  0.900634  1
  Se  Se10  1  0.508255  0.304442  0.052086  1
  Se  Se11  1  0.849526  0.036460  0.109104  1
  Se  Se12  1  0.979979  0.762375  0.189497  1
  Se  Se13  1  0.180176  0.397856  0.301065  1
  Se  Se14  1  0.356255  0.156754  0.391902  1
  Se  Se15  1  0.644065  0.850831  0.614023  1
  Se  Se16  1  0.818617  0.601893  0.701415  1
  Se  Se17  1  0.017937  0.238472  0.809795  1
  Se  Se18  1  0.150062  0.963519  0.889614  1
  Se  Se19  1  0.488807  0.687753  0.933894  1
