# generated using pymatgen
data_BaSmF5
_symmetry_space_group_name_H-M   'P 1'
_cell_length_a   8.60620785
_cell_length_b   8.60620791
_cell_length_c   6.07584967
_cell_angle_alpha   89.21319153
_cell_angle_beta   89.21319700
_cell_angle_gamma   149.62753209
_symmetry_Int_Tables_number   1
_chemical_formula_structural   BaSmF5
_chemical_formula_sum   'Ba2 Sm2 F10'
_cell_volume   227.22533886
_cell_formula_units_Z   2
loop_
 _symmetry_equiv_pos_site_id
 _symmetry_equiv_pos_as_xyz
  1  'x, y, z'
loop_
 _atom_site_type_symbol
 _atom_site_label
 _atom_site_symmetry_multiplicity
 _atom_site_fract_x
 _atom_site_fract_y
 _atom_site_fract_z
 _atom_site_occupancy
  Ba  Ba0  1  0.326143  0.673857  0.750000  1
  Ba  Ba1  1  0.673857  0.326143  0.250000  1
  Sm  Sm2  1  0.073931  0.926069  0.750000  1
  Sm  Sm3  1  0.926069  0.073931  0.250000  1
  F  F4  1  0.735631  0.808159  0.594814  1
  F  F5  1  0.808159  0.735631  0.094814  1
  F  F6  1  0.803513  0.173830  0.008580  1
  F  F7  1  0.618518  0.381482  0.750000  1
  F  F8  1  0.826170  0.196487  0.491420  1
  F  F9  1  0.173830  0.803513  0.508580  1
  F  F10  1  0.381482  0.618518  0.250000  1
  F  F11  1  0.196487  0.826170  0.991420  1
  F  F12  1  0.191841  0.264369  0.905186  1
  F  F13  1  0.264369  0.191841  0.405186  1
