# generated using pymatgen
data_Sc4Al6OsPd
_symmetry_space_group_name_H-M   'P 1'
_cell_length_a   5.30095800
_cell_length_b   5.30095911
_cell_length_c   8.52103700
_cell_angle_alpha   90.00000000
_cell_angle_beta   90.00000000
_cell_angle_gamma   120.00000554
_symmetry_Int_Tables_number   1
_chemical_formula_structural   Sc4Al6OsPd
_chemical_formula_sum   'Sc4 Al6 Os1 Pd1'
_cell_volume   207.36329076
_cell_formula_units_Z   1
loop_
 _symmetry_equiv_pos_site_id
 _symmetry_equiv_pos_as_xyz
  1  'x, y, z'
loop_
 _atom_site_type_symbol
 _atom_site_label
 _atom_site_symmetry_multiplicity
 _atom_site_fract_x
 _atom_site_fract_y
 _atom_site_fract_z
 _atom_site_occupancy
  Sc  Sc0  1  0.333333  0.666667  0.059290  1
  Sc  Sc1  1  0.666667  0.333333  0.552430  1
  Sc  Sc2  1  0.333333  0.666667  0.447570  1
  Sc  Sc3  1  0.666667  0.333333  0.940710  1
  Al  Al4  1  0.832968  0.665935  0.249028  1
  Al  Al5  1  0.167032  0.832968  0.750972  1
  Al  Al6  1  0.665935  0.832968  0.750972  1
  Al  Al7  1  0.334065  0.167032  0.249028  1
  Al  Al8  1  0.832968  0.167032  0.249028  1
  Al  Al9  1  0.167032  0.334065  0.750972  1
  Os  Os10  1  0.000000  0.000000  0.000000  1
  Pd  Pd11  1  0.000000  0.000000  0.500000  1
