# generated using pymatgen
data_Fe4Si8Mo9W3C2
_symmetry_space_group_name_H-M   'P 1'
_cell_length_a   7.77430166
_cell_length_b   7.78603514
_cell_length_c   7.78407935
_cell_angle_alpha   60.01624304
_cell_angle_beta   60.08761782
_cell_angle_gamma   60.04884535
_symmetry_Int_Tables_number   1
_chemical_formula_structural   Fe4Si8Mo9W3C2
_chemical_formula_sum   'Fe4 Si8 Mo9 W3 C2'
_cell_volume   333.55728182
_cell_formula_units_Z   1
loop_
 _symmetry_equiv_pos_site_id
 _symmetry_equiv_pos_as_xyz
  1  'x, y, z'
loop_
 _atom_site_type_symbol
 _atom_site_label
 _atom_site_symmetry_multiplicity
 _atom_site_fract_x
 _atom_site_fract_y
 _atom_site_fract_z
 _atom_site_occupancy
  Fe  Fe0  1  0.121593  0.125819  0.625113  1
  Fe  Fe1  1  0.124777  0.625297  0.126170  1
  Fe  Fe2  1  0.125415  0.123173  0.126762  1
  Fe  Fe3  1  0.625433  0.125239  0.122891  1
  Si  Si4  1  0.915433  0.255747  0.915550  1
  Si  Si5  1  0.334395  0.996112  0.334869  1
  Si  Si6  1  0.335556  0.334859  0.335766  1
  Si  Si7  1  0.997926  0.334761  0.332155  1
  Si  Si8  1  0.914830  0.915213  0.253987  1
  Si  Si9  1  0.256077  0.914900  0.914274  1
  Si  Si10  1  0.332663  0.335613  0.995753  1
  Si  Si11  1  0.915979  0.913743  0.916836  1
  Mo  Mo12  1  0.306772  0.692153  0.692050  1
  Mo  Mo13  1  0.308782  0.309076  0.691769  1
  Mo  Mo14  1  0.557899  0.941656  0.556671  1
  Mo  Mo15  1  0.940178  0.558213  0.557386  1
  Mo  Mo16  1  0.558740  0.942001  0.941929  1
  Mo  Mo17  1  0.693516  0.306791  0.308850  1
  Mo  Mo18  1  0.940110  0.559535  0.942056  1
  Mo  Mo19  1  0.308209  0.691471  0.310302  1
  Mo  Mo20  1  0.558920  0.558488  0.940245  1
  W  W21  1  0.693296  0.306111  0.692438  1
  W  W22  1  0.692179  0.691357  0.308070  1
  W  W23  1  0.940913  0.942710  0.558401  1
  C  C24  1  0.749607  0.750465  0.749093  1
  C  C25  1  0.500802  0.499498  0.500614  1
