# generated using pymatgen
data_LuNb8SbSe16
_symmetry_space_group_name_H-M   'P 1'
_cell_length_a   7.03826100
_cell_length_b   7.03826227
_cell_length_c   14.26709800
_cell_angle_alpha   90.00000000
_cell_angle_beta   90.00000000
_cell_angle_gamma   119.99999874
_symmetry_Int_Tables_number   1
_chemical_formula_structural   LuNb8SbSe16
_chemical_formula_sum   'Lu1 Nb8 Sb1 Se16'
_cell_volume   612.06436525
_cell_formula_units_Z   1
loop_
 _symmetry_equiv_pos_site_id
 _symmetry_equiv_pos_as_xyz
  1  'x, y, z'
loop_
 _atom_site_type_symbol
 _atom_site_label
 _atom_site_symmetry_multiplicity
 _atom_site_fract_x
 _atom_site_fract_y
 _atom_site_fract_z
 _atom_site_occupancy
  Lu  Lu0  1  0.000000  0.000000  0.500000  1
  Nb  Nb1  1  0.984488  0.492244  0.255370  1
  Nb  Nb2  1  0.015512  0.507756  0.744630  1
  Nb  Nb3  1  0.492244  0.507756  0.744630  1
  Nb  Nb4  1  0.507756  0.015512  0.255370  1
  Nb  Nb5  1  0.000000  0.000000  0.743769  1
  Nb  Nb6  1  0.000000  0.000000  0.256231  1
  Nb  Nb7  1  0.507756  0.492244  0.255370  1
  Nb  Nb8  1  0.492244  0.984488  0.744630  1
  Sb  Sb9  1  0.000000  0.000000  0.000000  1
  Se  Se10  1  0.333333  0.666667  0.623085  1
  Se  Se11  1  0.666667  0.333333  0.134189  1
  Se  Se12  1  0.666667  0.333333  0.376915  1
  Se  Se13  1  0.333333  0.666667  0.865811  1
  Se  Se14  1  0.169780  0.339561  0.371437  1
  Se  Se15  1  0.830340  0.169660  0.859929  1
  Se  Se16  1  0.339319  0.169660  0.859929  1
  Se  Se17  1  0.660439  0.830220  0.371437  1
  Se  Se18  1  0.169780  0.830220  0.371437  1
  Se  Se19  1  0.830340  0.660681  0.859929  1
  Se  Se20  1  0.169660  0.339319  0.140071  1
  Se  Se21  1  0.830220  0.169780  0.628563  1
  Se  Se22  1  0.339561  0.169780  0.628563  1
  Se  Se23  1  0.660681  0.830340  0.140071  1
  Se  Se24  1  0.169660  0.830340  0.140071  1
  Se  Se25  1  0.830220  0.660439  0.628563  1
