# generated using pymatgen
data_Te(S8Cl)3
_symmetry_space_group_name_H-M   'P 1'
_cell_length_a   15.24140836
_cell_length_b   15.24140776
_cell_length_c   15.24140801
_cell_angle_alpha   118.72121540
_cell_angle_beta   118.72120986
_cell_angle_gamma   118.72120958
_symmetry_Int_Tables_number   1
_chemical_formula_structural   Te(S8Cl)3
_chemical_formula_sum   'Te1 S24 Cl3'
_cell_volume   1033.93389089
_cell_formula_units_Z   1
loop_
 _symmetry_equiv_pos_site_id
 _symmetry_equiv_pos_as_xyz
  1  'x, y, z'
loop_
 _atom_site_type_symbol
 _atom_site_label
 _atom_site_symmetry_multiplicity
 _atom_site_fract_x
 _atom_site_fract_y
 _atom_site_fract_z
 _atom_site_occupancy
  Te  Te0  1  0.137289  0.137289  0.137289  1
  S  S1  1  0.021857  0.617539  0.617539  1
  S  S2  1  0.617539  0.617539  0.021857  1
  S  S3  1  0.617539  0.021857  0.617539  1
  S  S4  1  0.233617  0.843685  0.715722  1
  S  S5  1  0.843685  0.715722  0.233617  1
  S  S6  1  0.715722  0.233617  0.843685  1
  S  S7  1  0.843685  0.233617  0.715722  1
  S  S8  1  0.233617  0.715722  0.843685  1
  S  S9  1  0.715722  0.843685  0.233617  1
  S  S10  1  0.103153  0.631641  0.451109  1
  S  S11  1  0.631641  0.451109  0.103153  1
  S  S12  1  0.451109  0.103153  0.631641  1
  S  S13  1  0.631641  0.103153  0.451109  1
  S  S14  1  0.103153  0.451109  0.631641  1
  S  S15  1  0.451109  0.631641  0.103153  1
  S  S16  1  0.352983  0.741812  0.613488  1
  S  S17  1  0.741812  0.613488  0.352983  1
  S  S18  1  0.613488  0.352983  0.741812  1
  S  S19  1  0.741812  0.352983  0.613488  1
  S  S20  1  0.352983  0.613488  0.741812  1
  S  S21  1  0.613488  0.741812  0.352983  1
  S  S22  1  0.190864  0.472049  0.472049  1
  S  S23  1  0.472049  0.472049  0.190864  1
  S  S24  1  0.472049  0.190864  0.472049  1
  Cl  Cl25  1  0.153247  0.995124  0.995124  1
  Cl  Cl26  1  0.995124  0.995124  0.153247  1
  Cl  Cl27  1  0.995124  0.153247  0.995124  1
