# generated using pymatgen
data_Hf7ScNb2(Si3N)2
_symmetry_space_group_name_H-M   'P 1'
_cell_length_a   7.79784586
_cell_length_b   7.78558625
_cell_length_c   5.47526160
_cell_angle_alpha   90.02692591
_cell_angle_beta   89.94623283
_cell_angle_gamma   120.05209860
_symmetry_Int_Tables_number   1
_chemical_formula_structural   Hf7ScNb2(Si3N)2
_chemical_formula_sum   'Hf7 Sc1 Nb2 Si6 N2'
_cell_volume   287.72198342
_cell_formula_units_Z   1
loop_
 _symmetry_equiv_pos_site_id
 _symmetry_equiv_pos_as_xyz
  1  'x, y, z'
loop_
 _atom_site_type_symbol
 _atom_site_label
 _atom_site_symmetry_multiplicity
 _atom_site_fract_x
 _atom_site_fract_y
 _atom_site_fract_z
 _atom_site_occupancy
  Hf  Hf0  1  0.763068  0.000000  0.750587  1
  Hf  Hf1  1  0.000285  0.233672  0.249941  1
  Hf  Hf2  1  0.000052  0.765564  0.750458  1
  Hf  Hf3  1  0.766613  0.766328  0.249941  1
  Hf  Hf4  1  0.234489  0.234436  0.750458  1
  Hf  Hf5  1  0.333526  0.666040  0.000085  1
  Hf  Hf6  1  0.667487  0.333960  0.000085  1
  Sc  Sc7  1  0.235324  0.000000  0.249847  1
  Nb  Nb8  1  0.667704  0.334116  0.500121  1
  Nb  Nb9  1  0.333587  0.665884  0.500121  1
  Si  Si10  1  0.593433  0.000000  0.259651  1
  Si  Si11  1  0.406699  0.000000  0.739708  1
  Si  Si12  1  0.000892  0.592920  0.259792  1
  Si  Si13  1  0.999819  0.406712  0.740382  1
  Si  Si14  1  0.407971  0.407080  0.259792  1
  Si  Si15  1  0.593107  0.593288  0.740382  1
  N  N16  1  0.997548  0.000000  0.997335  1
  N  N17  1  0.998397  0.000000  0.501314  1
