# generated using pymatgen
data_LiSnMoO4
_symmetry_space_group_name_H-M   'P 1'
_cell_length_a   6.45958977
_cell_length_b   6.37878360
_cell_length_c   6.37879644
_cell_angle_alpha   90.17673600
_cell_angle_beta   59.58006563
_cell_angle_gamma   120.41990747
_symmetry_Int_Tables_number   1
_chemical_formula_structural   LiSnMoO4
_chemical_formula_sum   'Li2 Sn2 Mo2 O8'
_cell_volume   183.76301192
_cell_formula_units_Z   2
loop_
 _symmetry_equiv_pos_site_id
 _symmetry_equiv_pos_as_xyz
  1  'x, y, z'
loop_
 _atom_site_type_symbol
 _atom_site_label
 _atom_site_symmetry_multiplicity
 _atom_site_fract_x
 _atom_site_fract_y
 _atom_site_fract_z
 _atom_site_occupancy
  Li  Li0  1  0.249999  0.115462  0.115464  1
  Li  Li1  1  0.750001  0.884538  0.884536  1
  Sn  Sn2  1  0.500000  0.000000  0.500000  1
  Sn  Sn3  1  0.000000  0.500000  0.000000  1
  Mo  Mo4  1  0.000000  0.500000  0.500000  1
  Mo  Mo5  1  0.500000  0.500000  0.500000  1
  O  O6  1  0.527722  0.257802  0.257800  1
  O  O7  1  0.972279  0.257802  0.257800  1
  O  O8  1  0.027721  0.742198  0.742200  1
  O  O9  1  0.472278  0.742198  0.742200  1
  O  O10  1  0.520013  0.252521  0.712495  1
  O  O11  1  0.979988  0.712498  0.252522  1
  O  O12  1  0.479987  0.747479  0.287505  1
  O  O13  1  0.020012  0.287502  0.747478  1
