# generated using pymatgen
data_TbReF7
_symmetry_space_group_name_H-M   'P 1'
_cell_length_a   5.66584100
_cell_length_b   8.99870262
_cell_length_c   12.10933335
_cell_angle_alpha   62.47323626
_cell_angle_beta   90.00000000
_cell_angle_gamma   90.00000000
_symmetry_Int_Tables_number   1
_chemical_formula_structural   TbReF7
_chemical_formula_sum   'Tb4 Re4 F28'
_cell_volume   547.50460480
_cell_formula_units_Z   4
loop_
 _symmetry_equiv_pos_site_id
 _symmetry_equiv_pos_as_xyz
  1  'x, y, z'
loop_
 _atom_site_type_symbol
 _atom_site_label
 _atom_site_symmetry_multiplicity
 _atom_site_fract_x
 _atom_site_fract_y
 _atom_site_fract_z
 _atom_site_occupancy
  Tb  Tb0  1  0.257809  0.813673  0.265205  1
  Tb  Tb1  1  0.742191  0.186327  0.734795  1
  Tb  Tb2  1  0.757809  0.186327  0.234795  1
  Tb  Tb3  1  0.242191  0.813673  0.765205  1
  Re  Re4  1  0.755699  0.726539  0.043638  1
  Re  Re5  1  0.244301  0.273461  0.956362  1
  Re  Re6  1  0.255699  0.273461  0.456362  1
  Re  Re7  1  0.744301  0.726539  0.543638  1
  F  F8  1  0.952992  0.707166  0.419984  1
  F  F9  1  0.047008  0.292834  0.580016  1
  F  F10  1  0.452992  0.292834  0.080016  1
  F  F11  1  0.547008  0.707166  0.919984  1
  F  F12  1  0.478665  0.731146  0.141829  1
  F  F13  1  0.521335  0.268854  0.858171  1
  F  F14  1  0.978665  0.268854  0.358171  1
  F  F15  1  0.021335  0.731146  0.641829  1
  F  F16  1  0.958900  0.745507  0.170625  1
  F  F17  1  0.041100  0.254493  0.829375  1
  F  F18  1  0.458900  0.254493  0.329375  1
  F  F19  1  0.541100  0.745507  0.670625  1
  F  F20  1  0.765435  0.479540  0.142476  1
  F  F21  1  0.234565  0.520460  0.857524  1
  F  F22  1  0.265435  0.520460  0.357524  1
  F  F23  1  0.734565  0.479540  0.642476  1
  F  F24  1  0.956601  0.282530  0.047463  1
  F  F25  1  0.043399  0.717470  0.952537  1
  F  F26  1  0.456601  0.717470  0.452537  1
  F  F27  1  0.543399  0.282530  0.547463  1
  F  F28  1  0.741727  0.973768  0.446120  1
  F  F29  1  0.258273  0.026232  0.553880  1
  F  F30  1  0.241727  0.026232  0.053880  1
  F  F31  1  0.758273  0.973768  0.946120  1
  F  F32  1  0.577050  0.972048  0.232913  1
  F  F33  1  0.422950  0.027952  0.767087  1
  F  F34  1  0.077050  0.027952  0.267087  1
  F  F35  1  0.922950  0.972048  0.732913  1
