# generated using pymatgen
data_Ho2Er4TcIr
_symmetry_space_group_name_H-M   'P 1'
_cell_length_a   6.29083946
_cell_length_b   7.29613118
_cell_length_c   9.09609821
_cell_angle_alpha   89.97481784
_cell_angle_beta   90.12004574
_cell_angle_gamma   90.00469159
_symmetry_Int_Tables_number   1
_chemical_formula_structural   Ho2Er4TcIr
_chemical_formula_sum   'Ho4 Er8 Tc2 Ir2'
_cell_volume   417.49894286
_cell_formula_units_Z   2
loop_
 _symmetry_equiv_pos_site_id
 _symmetry_equiv_pos_as_xyz
  1  'x, y, z'
loop_
 _atom_site_type_symbol
 _atom_site_label
 _atom_site_symmetry_multiplicity
 _atom_site_fract_x
 _atom_site_fract_y
 _atom_site_fract_z
 _atom_site_occupancy
  Ho  Ho0  1  0.329354  0.676792  0.065190  1
  Ho  Ho1  1  0.873700  0.537867  0.250188  1
  Ho  Ho2  1  0.132749  0.459894  0.749918  1
  Ho  Ho3  1  0.367180  0.960107  0.749694  1
  Er  Er4  1  0.170800  0.176576  0.434680  1
  Er  Er5  1  0.668662  0.323603  0.560780  1
  Er  Er6  1  0.831266  0.824223  0.939274  1
  Er  Er7  1  0.668339  0.323525  0.938879  1
  Er  Er8  1  0.831859  0.824193  0.560853  1
  Er  Er9  1  0.329892  0.676497  0.434945  1
  Er  Er10  1  0.170324  0.176209  0.065498  1
  Er  Er11  1  0.626359  0.038240  0.250162  1
  Tc  Tc12  1  0.035250  0.886910  0.250188  1
  Tc  Tc13  1  0.464013  0.386113  0.250027  1
  Ir  Ir14  1  0.955673  0.114640  0.750309  1
  Ir  Ir15  1  0.544579  0.614609  0.749415  1
