# generated using pymatgen
data_La2Ce2As3O4
_symmetry_space_group_name_H-M   'P 1'
_cell_length_a   6.94564330
_cell_length_b   6.94564149
_cell_length_c   8.04079274
_cell_angle_alpha   91.04793675
_cell_angle_beta   88.95206523
_cell_angle_gamma   145.70478576
_symmetry_Int_Tables_number   1
_chemical_formula_structural   La2Ce2As3O4
_chemical_formula_sum   'La2 Ce2 As3 O4'
_cell_volume   218.52692681
_cell_formula_units_Z   1
loop_
 _symmetry_equiv_pos_site_id
 _symmetry_equiv_pos_as_xyz
  1  'x, y, z'
loop_
 _atom_site_type_symbol
 _atom_site_label
 _atom_site_symmetry_multiplicity
 _atom_site_fract_x
 _atom_site_fract_y
 _atom_site_fract_z
 _atom_site_occupancy
  La  La0  1  0.311268  0.688732  0.244464  1
  La  La1  1  0.004406  0.995594  0.998526  1
  Ce  Ce2  1  0.989867  0.010133  0.498165  1
  Ce  Ce3  1  0.315289  0.684711  0.763144  1
  As  As4  1  0.640618  0.359382  0.675269  1
  As  As5  1  0.631988  0.368012  0.318264  1
  As  As6  1  0.687255  0.312745  0.996215  1
  O  O7  1  0.410287  0.589713  0.992960  1
  O  O8  1  0.904464  0.095536  0.746872  1
  O  O9  1  0.909620  0.090380  0.256787  1
  O  O10  1  0.392831  0.607169  0.509332  1
