# generated using pymatgen
data_Lu12Ru7
_symmetry_space_group_name_H-M   'P 1'
_cell_length_a   11.03654500
_cell_length_b   8.19895818
_cell_length_c   11.03547963
_cell_angle_alpha   56.73165268
_cell_angle_beta   90.00000000
_cell_angle_gamma   90.00000000
_symmetry_Int_Tables_number   1
_chemical_formula_structural   Lu12Ru7
_chemical_formula_sum   'Lu24 Ru14'
_cell_volume   834.92356790
_cell_formula_units_Z   2
loop_
 _symmetry_equiv_pos_site_id
 _symmetry_equiv_pos_as_xyz
  1  'x, y, z'
loop_
 _atom_site_type_symbol
 _atom_site_label
 _atom_site_symmetry_multiplicity
 _atom_site_fract_x
 _atom_site_fract_y
 _atom_site_fract_z
 _atom_site_occupancy
  Lu  Lu0  1  0.705254  0.244397  0.530317  1
  Lu  Lu1  1  0.205254  0.755603  0.969683  1
  Lu  Lu2  1  0.843889  0.509423  0.655321  1
  Lu  Lu3  1  0.343889  0.490577  0.844679  1
  Lu  Lu4  1  0.156111  0.490577  0.344679  1
  Lu  Lu5  1  0.656111  0.509423  0.155321  1
  Lu  Lu6  1  0.007316  0.850342  0.363977  1
  Lu  Lu7  1  0.507316  0.149658  0.136023  1
  Lu  Lu8  1  0.992684  0.149658  0.636023  1
  Lu  Lu9  1  0.492684  0.850342  0.863977  1
  Lu  Lu10  1  0.794746  0.244397  0.030317  1
  Lu  Lu11  1  0.294746  0.755603  0.469683  1
  Lu  Lu12  1  0.931099  0.777832  0.091732  1
  Lu  Lu13  1  0.431099  0.222168  0.408268  1
  Lu  Lu14  1  0.068901  0.222168  0.908268  1
  Lu  Lu15  1  0.568901  0.777832  0.591732  1
  Lu  Lu16  1  0.301847  0.239220  0.674242  1
  Lu  Lu17  1  0.801847  0.760780  0.825758  1
  Lu  Lu18  1  0.698153  0.760780  0.325758  1
  Lu  Lu19  1  0.198153  0.239220  0.174242  1
  Lu  Lu20  1  0.925138  0.280060  0.292734  1
  Lu  Lu21  1  0.425138  0.719940  0.207266  1
  Lu  Lu22  1  0.074862  0.719940  0.707266  1
  Lu  Lu23  1  0.574862  0.280060  0.792734  1
  Ru  Ru24  1  0.500000  0.500000  0.500000  1
  Ru  Ru25  1  0.000000  0.500000  0.000000  1
  Ru  Ru26  1  0.647351  0.924347  0.034751  1
  Ru  Ru27  1  0.147351  0.075653  0.465249  1
  Ru  Ru28  1  0.352649  0.075653  0.965249  1
  Ru  Ru29  1  0.852649  0.924347  0.534751  1
  Ru  Ru30  1  0.398079  0.483146  0.104656  1
  Ru  Ru31  1  0.898079  0.516854  0.395344  1
  Ru  Ru32  1  0.601921  0.516854  0.895344  1
  Ru  Ru33  1  0.101921  0.483146  0.604656  1
  Ru  Ru34  1  0.821926  0.102539  0.846819  1
  Ru  Ru35  1  0.321926  0.897461  0.653181  1
  Ru  Ru36  1  0.178074  0.897461  0.153181  1
  Ru  Ru37  1  0.678074  0.102539  0.346819  1
