# generated using pymatgen
data_Sr2Cu17Si8Ni
_symmetry_space_group_name_H-M   'P 1'
_cell_length_a   8.20409812
_cell_length_b   8.20409869
_cell_length_c   8.16840915
_cell_angle_alpha   120.51877946
_cell_angle_beta   120.51878491
_cell_angle_gamma   89.35693835
_symmetry_Int_Tables_number   1
_chemical_formula_structural   Sr2Cu17Si8Ni
_chemical_formula_sum   'Sr2 Cu17 Si8 Ni1'
_cell_volume   384.81531961
_cell_formula_units_Z   1
loop_
 _symmetry_equiv_pos_site_id
 _symmetry_equiv_pos_as_xyz
  1  'x, y, z'
loop_
 _atom_site_type_symbol
 _atom_site_label
 _atom_site_symmetry_multiplicity
 _atom_site_fract_x
 _atom_site_fract_y
 _atom_site_fract_z
 _atom_site_occupancy
  Sr  Sr0  1  0.250000  0.250000  0.000000  1
  Sr  Sr1  1  0.750000  0.750000  0.000000  1
  Cu  Cu2  1  0.934381  0.203622  0.138003  1
  Cu  Cu3  1  0.203057  0.066848  0.269905  1
  Cu  Cu4  1  0.796943  0.933152  0.730095  1
  Cu  Cu5  1  0.433152  0.296943  0.730095  1
  Cu  Cu6  1  0.065619  0.796378  0.861997  1
  Cu  Cu7  1  0.806730  0.058916  0.500000  1
  Cu  Cu8  1  0.558916  0.306730  0.500000  1
  Cu  Cu9  1  0.193270  0.941084  0.500000  1
  Cu  Cu10  1  0.441084  0.693270  0.500000  1
  Cu  Cu11  1  0.942284  0.442284  0.750917  1
  Cu  Cu12  1  0.691366  0.191366  0.249083  1
  Cu  Cu13  1  0.057716  0.557716  0.249083  1
  Cu  Cu14  1  0.703622  0.434381  0.138003  1
  Cu  Cu15  1  0.566848  0.703057  0.269905  1
  Cu  Cu16  1  0.000000  0.500000  0.500000  1
  Cu  Cu17  1  0.308634  0.808634  0.750917  1
  Cu  Cu18  1  0.296378  0.565619  0.861997  1
  Si  Si19  1  0.785144  0.285144  0.842442  1
  Si  Si20  1  0.557298  0.057298  0.842442  1
  Si  Si21  1  0.057436  0.208182  0.500000  1
  Si  Si22  1  0.291818  0.442564  0.500000  1
  Si  Si23  1  0.942564  0.791818  0.500000  1
  Si  Si24  1  0.442702  0.942702  0.157558  1
  Si  Si25  1  0.214856  0.714856  0.157558  1
  Si  Si26  1  0.708182  0.557436  0.500000  1
  Ni  Ni27  1  0.500000  0.000000  0.500000  1
