# generated using pymatgen
data_TbY3(Ho3Sn4)2
_symmetry_space_group_name_H-M   'P 1'
_cell_length_a   8.02804900
_cell_length_b   8.16553600
_cell_length_c   15.43674400
_cell_angle_alpha   90.00075080
_cell_angle_beta   90.00000000
_cell_angle_gamma   90.00000000
_symmetry_Int_Tables_number   1
_chemical_formula_structural   TbY3(Ho3Sn4)2
_chemical_formula_sum   'Tb2 Y6 Ho12 Sn16'
_cell_volume   1011.92986734
_cell_formula_units_Z   2
loop_
 _symmetry_equiv_pos_site_id
 _symmetry_equiv_pos_as_xyz
  1  'x, y, z'
loop_
 _atom_site_type_symbol
 _atom_site_label
 _atom_site_symmetry_multiplicity
 _atom_site_fract_x
 _atom_site_fract_y
 _atom_site_fract_z
 _atom_site_occupancy
  Tb  Tb0  1  0.521038  0.320484  0.597499  1
  Tb  Tb1  1  0.021048  0.179524  0.902517  1
  Y  Y2  1  0.521317  0.320134  0.902287  1
  Y  Y3  1  0.021406  0.179815  0.597686  1
  Y  Y4  1  0.478727  0.679772  0.402495  1
  Y  Y5  1  0.978634  0.820259  0.097538  1
  Y  Y6  1  0.478763  0.679783  0.097541  1
  Y  Y7  1  0.978667  0.820233  0.402466  1
  Ho  Ho8  1  0.367665  0.836402  0.877790  1
  Ho  Ho9  1  0.867686  0.663630  0.622197  1
  Ho  Ho10  1  0.632324  0.163591  0.377731  1
  Ho  Ho11  1  0.132290  0.336384  0.122296  1
  Ho  Ho12  1  0.632352  0.163544  0.122325  1
  Ho  Ho13  1  0.132326  0.336421  0.377683  1
  Ho  Ho14  1  0.367621  0.836461  0.622211  1
  Ho  Ho15  1  0.867647  0.663550  0.877762  1
  Ho  Ho16  1  0.198499  0.503347  0.750022  1
  Ho  Ho17  1  0.698476  0.996655  0.749966  1
  Ho  Ho18  1  0.801599  0.496655  0.250015  1
  Ho  Ho19  1  0.301613  0.003348  0.249992  1
  Sn  Sn20  1  0.293526  0.036566  0.041782  1
  Sn  Sn21  1  0.793522  0.463417  0.458204  1
  Sn  Sn22  1  0.706790  0.963384  0.541604  1
  Sn  Sn23  1  0.206791  0.536623  0.958396  1
  Sn  Sn24  1  0.706680  0.963367  0.958423  1
  Sn  Sn25  1  0.206706  0.536658  0.541546  1
  Sn  Sn26  1  0.293294  0.036697  0.458285  1
  Sn  Sn27  1  0.793308  0.463294  0.041709  1
  Sn  Sn28  1  0.565280  0.619173  0.749951  1
  Sn  Sn29  1  0.065149  0.880927  0.750062  1
  Sn  Sn30  1  0.434838  0.380791  0.249981  1
  Sn  Sn31  1  0.934942  0.119096  0.250027  1
  Sn  Sn32  1  0.329762  0.147205  0.750170  1
  Sn  Sn33  1  0.829889  0.352717  0.749829  1
  Sn  Sn34  1  0.669920  0.852498  0.250050  1
  Sn  Sn35  1  0.169907  0.647596  0.249964  1
