# generated using pymatgen
data_TbDy3Lu4(B6Os)4
_symmetry_space_group_name_H-M   'P 1'
_cell_length_a   3.62133100
_cell_length_b   9.07911400
_cell_length_c   11.46943600
_cell_angle_alpha   90.00061895
_cell_angle_beta   90.00000000
_cell_angle_gamma   90.00000000
_symmetry_Int_Tables_number   1
_chemical_formula_structural   TbDy3Lu4(B6Os)4
_chemical_formula_sum   'Tb1 Dy3 Lu4 B24 Os4'
_cell_volume   377.09758750
_cell_formula_units_Z   1
loop_
 _symmetry_equiv_pos_site_id
 _symmetry_equiv_pos_as_xyz
  1  'x, y, z'
loop_
 _atom_site_type_symbol
 _atom_site_label
 _atom_site_symmetry_multiplicity
 _atom_site_fract_x
 _atom_site_fract_y
 _atom_site_fract_z
 _atom_site_occupancy
  Tb  Tb0  1  0.000000  0.321533  0.414014  1
  Dy  Dy1  1  0.000000  0.678567  0.585972  1
  Dy  Dy2  1  0.000000  0.821463  0.085931  1
  Dy  Dy3  1  0.000000  0.178533  0.914057  1
  Lu  Lu4  1  0.000000  0.944251  0.373039  1
  Lu  Lu5  1  0.000000  0.055596  0.627011  1
  Lu  Lu6  1  0.000000  0.444348  0.126908  1
  Lu  Lu7  1  0.000000  0.555689  0.873064  1
  B  B8  1  0.500000  0.554734  0.432798  1
  B  B9  1  0.500000  0.445566  0.567372  1
  B  B10  1  0.500000  0.054493  0.067137  1
  B  B11  1  0.500000  0.945479  0.932830  1
  B  B12  1  0.500000  0.749881  0.419492  1
  B  B13  1  0.500000  0.250108  0.580764  1
  B  B14  1  0.500000  0.249813  0.080473  1
  B  B15  1  0.500000  0.750187  0.919477  1
  B  B16  1  0.500000  0.792237  0.266073  1
  B  B17  1  0.500000  0.207775  0.733981  1
  B  B18  1  0.500000  0.292105  0.233708  1
  B  B19  1  0.500000  0.707805  0.766106  1
  B  B20  1  0.500000  0.630944  0.184375  1
  B  B21  1  0.500000  0.369116  0.815617  1
  B  B22  1  0.500000  0.130706  0.315450  1
  B  B23  1  0.500000  0.869090  0.684434  1
  B  B24  1  0.500000  0.982662  0.213705  1
  B  B25  1  0.500000  0.017257  0.786270  1
  B  B26  1  0.500000  0.482957  0.286125  1
  B  B27  1  0.500000  0.517312  0.713806  1
  B  B28  1  0.500000  0.604061  0.028596  1
  B  B29  1  0.500000  0.395956  0.971391  1
  B  B30  1  0.500000  0.103690  0.471496  1
  B  B31  1  0.500000  0.895964  0.528599  1
  Os  Os32  1  0.000000  0.638405  0.320182  1
  Os  Os33  1  0.000000  0.361851  0.679894  1
  Os  Os34  1  0.000000  0.138014  0.179539  1
  Os  Os35  1  0.000000  0.861854  0.820315  1
