# generated using pymatgen
data_Cu6Sn5SbRh12
_symmetry_space_group_name_H-M   'P 1'
_cell_length_a   4.40101407
_cell_length_b   6.18860710
_cell_length_c   13.24548500
_cell_angle_alpha   89.99894450
_cell_angle_beta   89.99953198
_cell_angle_gamma   89.97907483
_symmetry_Int_Tables_number   1
_chemical_formula_structural   Cu6Sn5SbRh12
_chemical_formula_sum   'Cu6 Sn5 Sb1 Rh12'
_cell_volume   360.75595186
_cell_formula_units_Z   1
loop_
 _symmetry_equiv_pos_site_id
 _symmetry_equiv_pos_as_xyz
  1  'x, y, z'
loop_
 _atom_site_type_symbol
 _atom_site_label
 _atom_site_symmetry_multiplicity
 _atom_site_fract_x
 _atom_site_fract_y
 _atom_site_fract_z
 _atom_site_occupancy
  Cu  Cu0  1  0.000024  0.500015  0.999997  1
  Cu  Cu1  1  0.499787  0.999951  0.169412  1
  Cu  Cu2  1  0.999792  0.500073  0.332540  1
  Cu  Cu3  1  0.500034  0.999969  0.499999  1
  Cu  Cu4  1  0.000063  0.500033  0.667449  1
  Cu  Cu5  1  0.500093  0.999921  0.830604  1
  Sn  Sn6  1  0.499869  0.500029  0.167084  1
  Sn  Sn7  1  0.999819  0.999961  0.333566  1
  Sn  Sn8  1  0.500010  0.500028  0.499994  1
  Sn  Sn9  1  0.000192  0.999967  0.666426  1
  Sn  Sn10  1  0.500148  0.500030  0.832934  1
  Sb  Sb11  1  0.000020  0.000022  0.999998  1
  Rh  Rh12  1  0.500028  0.244776  0.000003  1
  Rh  Rh13  1  0.499989  0.755158  0.000002  1
  Rh  Rh14  1  0.999944  0.248204  0.164263  1
  Rh  Rh15  1  0.999834  0.751821  0.164269  1
  Rh  Rh16  1  0.499762  0.249611  0.333296  1
  Rh  Rh17  1  0.499987  0.750374  0.333319  1
  Rh  Rh18  1  0.000127  0.250625  0.499999  1
  Rh  Rh19  1  0.999899  0.749416  0.500000  1
  Rh  Rh20  1  0.500043  0.249613  0.666704  1
  Rh  Rh21  1  0.500265  0.750365  0.666684  1
  Rh  Rh22  1  0.000182  0.248216  0.835732  1
  Rh  Rh23  1  0.000076  0.751812  0.835725  1
