# generated using pymatgen
data_Tb2Sc3Ga4
_symmetry_space_group_name_H-M   'P 1'
_cell_length_a   7.32600900
_cell_length_b   7.57568700
_cell_length_c   14.57935100
_cell_angle_alpha   90.00000000
_cell_angle_beta   90.00000000
_cell_angle_gamma   90.00000000
_symmetry_Int_Tables_number   1
_chemical_formula_structural   Tb2Sc3Ga4
_chemical_formula_sum   'Tb8 Sc12 Ga16'
_cell_volume   809.14743646
_cell_formula_units_Z   4
loop_
 _symmetry_equiv_pos_site_id
 _symmetry_equiv_pos_as_xyz
  1  'x, y, z'
loop_
 _atom_site_type_symbol
 _atom_site_label
 _atom_site_symmetry_multiplicity
 _atom_site_fract_x
 _atom_site_fract_y
 _atom_site_fract_z
 _atom_site_occupancy
  Tb  Tb0  1  0.011861  0.176800  0.095935  1
  Tb  Tb1  1  0.988139  0.823200  0.904065  1
  Tb  Tb2  1  0.488139  0.676800  0.904065  1
  Tb  Tb3  1  0.988139  0.823200  0.595935  1
  Tb  Tb4  1  0.511861  0.323200  0.095935  1
  Tb  Tb5  1  0.011861  0.176800  0.404065  1
  Tb  Tb6  1  0.511861  0.323200  0.404065  1
  Tb  Tb7  1  0.488139  0.676800  0.595935  1
  Sc  Sc8  1  0.161808  0.502624  0.750000  1
  Sc  Sc9  1  0.838192  0.497376  0.250000  1
  Sc  Sc10  1  0.338192  0.002624  0.250000  1
  Sc  Sc11  1  0.661808  0.997376  0.750000  1
  Sc  Sc12  1  0.330075  0.174922  0.624318  1
  Sc  Sc13  1  0.669925  0.825078  0.375682  1
  Sc  Sc14  1  0.169925  0.674922  0.375682  1
  Sc  Sc15  1  0.669925  0.825078  0.124318  1
  Sc  Sc16  1  0.830075  0.325078  0.624318  1
  Sc  Sc17  1  0.330075  0.174922  0.875682  1
  Sc  Sc18  1  0.830075  0.325078  0.875682  1
  Sc  Sc19  1  0.169925  0.674922  0.124318  1
  Ga  Ga20  1  0.031935  0.118849  0.750000  1
  Ga  Ga21  1  0.968065  0.881151  0.250000  1
  Ga  Ga22  1  0.468065  0.618849  0.250000  1
  Ga  Ga23  1  0.531935  0.381151  0.750000  1
  Ga  Ga24  1  0.284994  0.874161  0.750000  1
  Ga  Ga25  1  0.715006  0.125839  0.250000  1
  Ga  Ga26  1  0.215006  0.374161  0.250000  1
  Ga  Ga27  1  0.784994  0.625839  0.750000  1
  Ga  Ga28  1  0.159203  0.464754  0.539977  1
  Ga  Ga29  1  0.840797  0.535246  0.460023  1
  Ga  Ga30  1  0.340797  0.964754  0.460023  1
  Ga  Ga31  1  0.840797  0.535246  0.039977  1
  Ga  Ga32  1  0.659203  0.035246  0.539977  1
  Ga  Ga33  1  0.159203  0.464754  0.960023  1
  Ga  Ga34  1  0.659203  0.035246  0.960023  1
  Ga  Ga35  1  0.340797  0.964754  0.039977  1
