# generated using pymatgen
data_TbDy3Si4(NiOs)2
_symmetry_space_group_name_H-M   'P 1'
_cell_length_a   4.26020300
_cell_length_b   6.92915550
_cell_length_c   7.14960304
_cell_angle_alpha   91.67612584
_cell_angle_beta   90.00000000
_cell_angle_gamma   90.00000000
_symmetry_Int_Tables_number   1
_chemical_formula_structural   TbDy3Si4(NiOs)2
_chemical_formula_sum   'Tb1 Dy3 Si4 Ni2 Os2'
_cell_volume   210.96318404
_cell_formula_units_Z   1
loop_
 _symmetry_equiv_pos_site_id
 _symmetry_equiv_pos_as_xyz
  1  'x, y, z'
loop_
 _atom_site_type_symbol
 _atom_site_label
 _atom_site_symmetry_multiplicity
 _atom_site_fract_x
 _atom_site_fract_y
 _atom_site_fract_z
 _atom_site_occupancy
  Tb  Tb0  1  0.250000  0.987439  0.299913  1
  Dy  Dy1  1  0.250000  0.487339  0.179202  1
  Dy  Dy2  1  0.750000  0.512740  0.820772  1
  Dy  Dy3  1  0.750000  0.012849  0.700640  1
  Si  Si4  1  0.250000  0.805118  0.893577  1
  Si  Si5  1  0.750000  0.195549  0.105667  1
  Si  Si6  1  0.750000  0.697902  0.402591  1
  Si  Si7  1  0.250000  0.301563  0.598448  1
  Ni  Ni8  1  0.750000  0.839019  0.072744  1
  Ni  Ni9  1  0.250000  0.161252  0.925561  1
  Os  Os10  1  0.250000  0.655459  0.571444  1
  Os  Os11  1  0.750000  0.343770  0.429441  1
