# generated using pymatgen
data_Zr3TaNb4(Co4P3)4
_symmetry_space_group_name_H-M   'P 1'
_cell_length_a   11.96369300
_cell_length_b   11.97724299
_cell_length_c   3.65895600
_cell_angle_alpha   90.00000000
_cell_angle_beta   90.00000000
_cell_angle_gamma   119.96258635
_symmetry_Int_Tables_number   1
_chemical_formula_structural   Zr3TaNb4(Co4P3)4
_chemical_formula_sum   'Zr3 Ta1 Nb4 Co16 P12'
_cell_volume   454.22762851
_cell_formula_units_Z   1
loop_
 _symmetry_equiv_pos_site_id
 _symmetry_equiv_pos_as_xyz
  1  'x, y, z'
loop_
 _atom_site_type_symbol
 _atom_site_label
 _atom_site_symmetry_multiplicity
 _atom_site_fract_x
 _atom_site_fract_y
 _atom_site_fract_z
 _atom_site_occupancy
  Zr  Zr0  1  0.823127  0.000000  0.500000  1
  Zr  Zr1  1  0.333668  0.666882  0.000000  1
  Zr  Zr2  1  0.666786  0.333118  0.000000  1
  Ta  Ta3  1  0.444698  0.000000  0.000000  1
  Nb  Nb4  1  0.999861  0.820972  0.500000  1
  Nb  Nb5  1  0.178888  0.179028  0.500000  1
  Nb  Nb6  1  0.000147  0.447224  0.000000  1
  Nb  Nb7  1  0.552922  0.552776  0.000000  1
  Co  Co8  1  0.273919  0.000000  0.500000  1
  Co  Co9  1  0.002049  0.276194  0.500000  1
  Co  Co10  1  0.725856  0.723806  0.500000  1
  Co  Co11  1  0.628008  0.806815  0.000000  1
  Co  Co12  1  0.191546  0.821870  0.000000  1
  Co  Co13  1  0.179753  0.370583  0.000000  1
  Co  Co14  1  0.369676  0.178130  0.000000  1
  Co  Co15  1  0.809169  0.629417  0.000000  1
  Co  Co16  1  0.821192  0.193185  0.000000  1
  Co  Co17  1  0.514874  0.872208  0.500000  1
  Co  Co18  1  0.128305  0.645611  0.500000  1
  Co  Co19  1  0.355209  0.484102  0.500000  1
  Co  Co20  1  0.482694  0.354389  0.500000  1
  Co  Co21  1  0.871107  0.515898  0.500000  1
  Co  Co22  1  0.642666  0.127792  0.500000  1
  Co  Co23  1  0.001602  0.000000  0.000000  1
  P  P24  1  0.174688  0.000000  0.000000  1
  P  P25  1  0.001974  0.175698  0.000000  1
  P  P26  1  0.826276  0.824302  0.000000  1
  P  P27  1  0.520965  0.690291  0.500000  1
  P  P28  1  0.309698  0.830518  0.500000  1
  P  P29  1  0.169851  0.480590  0.500000  1
  P  P30  1  0.479180  0.169482  0.500000  1
  P  P31  1  0.689262  0.519410  0.500000  1
  P  P32  1  0.830673  0.309709  0.500000  1
  P  P33  1  0.647880  0.000000  0.000000  1
  P  P34  1  0.000159  0.648487  0.000000  1
  P  P35  1  0.351672  0.351513  0.000000  1
