# generated using pymatgen
data_Y4Cu2PdPt
_symmetry_space_group_name_H-M   'P 1'
_cell_length_a   4.50293900
_cell_length_b   5.52812865
_cell_length_c   7.16169247
_cell_angle_alpha   90.02498884
_cell_angle_beta   90.00000000
_cell_angle_gamma   90.00000000
_symmetry_Int_Tables_number   1
_chemical_formula_structural   Y4Cu2PdPt
_chemical_formula_sum   'Y4 Cu2 Pd1 Pt1'
_cell_volume   178.27474851
_cell_formula_units_Z   1
loop_
 _symmetry_equiv_pos_site_id
 _symmetry_equiv_pos_as_xyz
  1  'x, y, z'
loop_
 _atom_site_type_symbol
 _atom_site_label
 _atom_site_symmetry_multiplicity
 _atom_site_fract_x
 _atom_site_fract_y
 _atom_site_fract_z
 _atom_site_occupancy
  Y  Y0  1  0.000000  0.114946  0.684848  1
  Y  Y1  1  0.000000  0.886055  0.181112  1
  Y  Y2  1  0.500000  0.392067  0.312467  1
  Y  Y3  1  0.500000  0.607014  0.820662  1
  Cu  Cu4  1  0.500000  0.888679  0.465428  1
  Cu  Cu5  1  0.500000  0.109313  0.963247  1
  Pd  Pd6  1  0.000000  0.616687  0.536655  1
  Pt  Pt7  1  0.000000  0.385237  0.035582  1
