# generated using pymatgen
data_CeDy7(HfIr3)2
_symmetry_space_group_name_H-M   'P 1'
_cell_length_a   10.84791972
_cell_length_b   10.91746100
_cell_length_c   6.24583662
_cell_angle_alpha   90.00000000
_cell_angle_beta   89.41420329
_cell_angle_gamma   90.00000000
_symmetry_Int_Tables_number   1
_chemical_formula_structural   CeDy7(HfIr3)2
_chemical_formula_sum   'Ce2 Dy14 Hf4 Ir12'
_cell_volume   739.66664113
_cell_formula_units_Z   2
loop_
 _symmetry_equiv_pos_site_id
 _symmetry_equiv_pos_as_xyz
  1  'x, y, z'
loop_
 _atom_site_type_symbol
 _atom_site_label
 _atom_site_symmetry_multiplicity
 _atom_site_fract_x
 _atom_site_fract_y
 _atom_site_fract_z
 _atom_site_occupancy
  Ce  Ce0  1  0.290043  0.087948  0.377827  1
  Ce  Ce1  1  0.290043  0.912052  0.877827  1
  Dy  Dy2  1  0.709158  0.085935  0.873532  1
  Dy  Dy3  1  0.709158  0.914065  0.373532  1
  Dy  Dy4  1  0.588307  0.787213  0.873685  1
  Dy  Dy5  1  0.588307  0.212787  0.373685  1
  Dy  Dy6  1  0.416277  0.784702  0.375884  1
  Dy  Dy7  1  0.416277  0.215298  0.875884  1
  Dy  Dy8  1  0.210776  0.415058  0.625316  1
  Dy  Dy9  1  0.210776  0.584942  0.125316  1
  Dy  Dy10  1  0.789039  0.414742  0.124286  1
  Dy  Dy11  1  0.789039  0.585258  0.624286  1
  Dy  Dy12  1  0.914293  0.711064  0.124100  1
  Dy  Dy13  1  0.914293  0.288936  0.624100  1
  Dy  Dy14  1  0.085066  0.710997  0.623810  1
  Dy  Dy15  1  0.085066  0.289003  0.123810  1
  Hf  Hf16  1  0.997376  0.999042  0.500475  1
  Hf  Hf17  1  0.997376  0.000958  0.000475  1
  Hf  Hf18  1  0.501459  0.500003  0.002133  1
  Hf  Hf19  1  0.501459  0.499997  0.502133  1
  Ir  Ir20  1  0.856031  0.142362  0.250391  1
  Ir  Ir21  1  0.856031  0.857638  0.750391  1
  Ir  Ir22  1  0.144629  0.141533  0.745562  1
  Ir  Ir23  1  0.144629  0.858467  0.245562  1
  Ir  Ir24  1  0.643574  0.357129  0.750000  1
  Ir  Ir25  1  0.643574  0.642871  0.250000  1
  Ir  Ir26  1  0.357868  0.358390  0.253141  1
  Ir  Ir27  1  0.357868  0.641610  0.753141  1
  Ir  Ir28  1  0.496308  0.000622  0.119117  1
  Ir  Ir29  1  0.496308  0.999378  0.619117  1
  Ir  Ir30  1  0.999796  0.499216  0.880742  1
  Ir  Ir31  1  0.999796  0.500784  0.380742  1
