# generated using pymatgen
data_Nb4FeCu3Pt8
_symmetry_space_group_name_H-M   'P 1'
_cell_length_a   4.53048800
_cell_length_b   4.85064000
_cell_length_c   11.00818200
_cell_angle_alpha   90.00000000
_cell_angle_beta   90.00000000
_cell_angle_gamma   90.00000000
_symmetry_Int_Tables_number   1
_chemical_formula_structural   Nb4FeCu3Pt8
_chemical_formula_sum   'Nb4 Fe1 Cu3 Pt8'
_cell_volume   241.91323516
_cell_formula_units_Z   1
loop_
 _symmetry_equiv_pos_site_id
 _symmetry_equiv_pos_as_xyz
  1  'x, y, z'
loop_
 _atom_site_type_symbol
 _atom_site_label
 _atom_site_symmetry_multiplicity
 _atom_site_fract_x
 _atom_site_fract_y
 _atom_site_fract_z
 _atom_site_occupancy
  Nb  Nb0  1  0.500000  0.658113  0.256736  1
  Nb  Nb1  1  0.500000  0.658113  0.743264  1
  Nb  Nb2  1  0.000000  0.341664  0.000000  1
  Nb  Nb3  1  0.000000  0.349647  0.500000  1
  Fe  Fe4  1  0.500000  0.671774  0.500000  1
  Cu  Cu5  1  0.000000  0.322957  0.249330  1
  Cu  Cu6  1  0.000000  0.322957  0.750670  1
  Cu  Cu7  1  0.500000  0.674658  0.000000  1
  Pt  Pt8  1  0.500000  0.174813  0.375242  1
  Pt  Pt9  1  0.500000  0.178525  0.875229  1
  Pt  Pt10  1  0.500000  0.178525  0.124771  1
  Pt  Pt11  1  0.500000  0.174813  0.624758  1
  Pt  Pt12  1  0.000000  0.828103  0.376990  1
  Pt  Pt13  1  0.000000  0.818618  0.874343  1
  Pt  Pt14  1  0.000000  0.818618  0.125657  1
  Pt  Pt15  1  0.000000  0.828103  0.623010  1
