# generated using pymatgen
data_Yb3Mg3HgIr2
_symmetry_space_group_name_H-M   'P 1'
_cell_length_a   7.41646000
_cell_length_b   7.41646020
_cell_length_c   4.23205800
_cell_angle_alpha   90.00000000
_cell_angle_beta   90.00000000
_cell_angle_gamma   119.99999910
_symmetry_Int_Tables_number   1
_chemical_formula_structural   Yb3Mg3HgIr2
_chemical_formula_sum   'Yb3 Mg3 Hg1 Ir2'
_cell_volume   201.59305950
_cell_formula_units_Z   1
loop_
 _symmetry_equiv_pos_site_id
 _symmetry_equiv_pos_as_xyz
  1  'x, y, z'
loop_
 _atom_site_type_symbol
 _atom_site_label
 _atom_site_symmetry_multiplicity
 _atom_site_fract_x
 _atom_site_fract_y
 _atom_site_fract_z
 _atom_site_occupancy
  Yb  Yb0  1  0.421374  0.031386  0.000000  1
  Yb  Yb1  1  0.968614  0.389989  0.000000  1
  Yb  Yb2  1  0.610011  0.578626  0.000000  1
  Mg  Mg3  1  0.769822  0.012409  0.500000  1
  Mg  Mg4  1  0.242588  0.230178  0.500000  1
  Mg  Mg5  1  0.987591  0.757412  0.500000  1
  Hg  Hg6  1  0.333333  0.666666  0.500000  1
  Ir  Ir7  1  0.000000  0.000000  0.000000  1
  Ir  Ir8  1  0.666667  0.333333  0.500000  1
