# generated using pymatgen
data_Pr6Fe3Co14P12Ru
_symmetry_space_group_name_H-M   'P 1'
_cell_length_a   3.78180200
_cell_length_b   10.70447800
_cell_length_c   12.37753500
_cell_angle_alpha   90.00000000
_cell_angle_beta   90.00000000
_cell_angle_gamma   90.00000000
_symmetry_Int_Tables_number   1
_chemical_formula_structural   Pr6Fe3Co14P12Ru
_chemical_formula_sum   'Pr6 Fe3 Co14 P12 Ru1'
_cell_volume   501.07004925
_cell_formula_units_Z   1
loop_
 _symmetry_equiv_pos_site_id
 _symmetry_equiv_pos_as_xyz
  1  'x, y, z'
loop_
 _atom_site_type_symbol
 _atom_site_label
 _atom_site_symmetry_multiplicity
 _atom_site_fract_x
 _atom_site_fract_y
 _atom_site_fract_z
 _atom_site_occupancy
  Pr  Pr0  1  0.000000  0.500000  0.524134  1
  Pr  Pr1  1  0.500000  0.000000  0.479430  1
  Pr  Pr2  1  0.500000  0.818635  0.205064  1
  Pr  Pr3  1  0.500000  0.181365  0.205064  1
  Pr  Pr4  1  0.000000  0.681545  0.795002  1
  Pr  Pr5  1  0.000000  0.318455  0.795002  1
  Fe  Fe6  1  0.000000  0.000000  0.846279  1
  Fe  Fe7  1  0.000000  0.500000  0.989608  1
  Fe  Fe8  1  0.500000  0.000000  0.010941  1
  Co  Co9  1  0.500000  0.500000  0.703139  1
  Co  Co10  1  0.000000  0.000000  0.297091  1
  Co  Co11  1  0.500000  0.331765  0.993373  1
  Co  Co12  1  0.500000  0.668235  0.993373  1
  Co  Co13  1  0.000000  0.167857  0.003867  1
  Co  Co14  1  0.000000  0.832143  0.003867  1
  Co  Co15  1  0.500000  0.297586  0.429211  1
  Co  Co16  1  0.500000  0.702414  0.429211  1
  Co  Co17  1  0.000000  0.203974  0.569064  1
  Co  Co18  1  0.000000  0.796026  0.569064  1
  Co  Co19  1  0.500000  0.880966  0.711027  1
  Co  Co20  1  0.500000  0.119034  0.711027  1
  Co  Co21  1  0.000000  0.617975  0.289836  1
  Co  Co22  1  0.000000  0.382025  0.289836  1
  P  P23  1  0.500000  0.500000  0.887802  1
  P  P24  1  0.000000  0.000000  0.110638  1
  P  P25  1  0.500000  0.500000  0.343322  1
  P  P26  1  0.000000  0.000000  0.663862  1
  P  P27  1  0.500000  0.304607  0.614199  1
  P  P28  1  0.500000  0.695393  0.614199  1
  P  P29  1  0.000000  0.194081  0.385772  1
  P  P30  1  0.000000  0.805919  0.385772  1
  P  P31  1  0.500000  0.849800  0.895902  1
  P  P32  1  0.500000  0.150200  0.895902  1
  P  P33  1  0.000000  0.653099  0.101833  1
  P  P34  1  0.000000  0.346901  0.101833  1
  Ru  Ru35  1  0.500000  0.500000  0.155450  1
