# generated using pymatgen
data_BaCdCuSn2
_symmetry_space_group_name_H-M   'P 1'
_cell_length_a   4.81955700
_cell_length_b   4.81955700
_cell_length_c   11.52258400
_cell_angle_alpha   90.00000000
_cell_angle_beta   90.00000000
_cell_angle_gamma   90.00000000
_symmetry_Int_Tables_number   1
_chemical_formula_structural   BaCdCuSn2
_chemical_formula_sum   'Ba2 Cd2 Cu2 Sn4'
_cell_volume   267.64807536
_cell_formula_units_Z   2
loop_
 _symmetry_equiv_pos_site_id
 _symmetry_equiv_pos_as_xyz
  1  'x, y, z'
loop_
 _atom_site_type_symbol
 _atom_site_label
 _atom_site_symmetry_multiplicity
 _atom_site_fract_x
 _atom_site_fract_y
 _atom_site_fract_z
 _atom_site_occupancy
  Ba  Ba0  1  0.500000  0.000000  0.740719  1
  Ba  Ba1  1  0.000000  0.500000  0.259281  1
  Cd  Cd2  1  0.500000  0.500000  0.000000  1
  Cd  Cd3  1  0.000000  0.000000  0.000000  1
  Cu  Cu4  1  0.000000  0.500000  0.615855  1
  Cu  Cu5  1  0.500000  0.000000  0.384145  1
  Sn  Sn6  1  0.500000  0.500000  0.500000  1
  Sn  Sn7  1  0.000000  0.500000  0.846796  1
  Sn  Sn8  1  0.500000  0.000000  0.153204  1
  Sn  Sn9  1  0.000000  0.000000  0.500000  1
