# generated using pymatgen
data_SrLi2CaN2
_symmetry_space_group_name_H-M   'P 1'
_cell_length_a   3.85965300
_cell_length_b   3.85965300
_cell_length_c   6.78792700
_cell_angle_alpha   90.00000000
_cell_angle_beta   90.00000000
_cell_angle_gamma   90.00000000
_symmetry_Int_Tables_number   1
_chemical_formula_structural   SrLi2CaN2
_chemical_formula_sum   'Sr1 Li2 Ca1 N2'
_cell_volume   101.11921418
_cell_formula_units_Z   1
loop_
 _symmetry_equiv_pos_site_id
 _symmetry_equiv_pos_as_xyz
  1  'x, y, z'
loop_
 _atom_site_type_symbol
 _atom_site_label
 _atom_site_symmetry_multiplicity
 _atom_site_fract_x
 _atom_site_fract_y
 _atom_site_fract_z
 _atom_site_occupancy
  Sr  Sr0  1  0.000000  0.000000  0.250000  1
  Li  Li1  1  0.500000  0.500000  0.529988  1
  Li  Li2  1  0.500000  0.500000  0.970012  1
  Ca  Ca3  1  0.000000  0.000000  0.750000  1
  N  N4  1  0.000000  0.500000  0.981129  1
  N  N5  1  0.500000  0.000000  0.518871  1
