# generated using pymatgen
data_Nd2Ho18Si15Os
_symmetry_space_group_name_H-M   'P 1'
_cell_length_a   7.38893222
_cell_length_b   7.74420334
_cell_length_c   14.56638495
_cell_angle_alpha   89.71984430
_cell_angle_beta   90.01365790
_cell_angle_gamma   89.97015347
_symmetry_Int_Tables_number   1
_chemical_formula_structural   Nd2Ho18Si15Os
_chemical_formula_sum   'Nd2 Ho18 Si15 Os1'
_cell_volume   833.49874473
_cell_formula_units_Z   1
loop_
 _symmetry_equiv_pos_site_id
 _symmetry_equiv_pos_as_xyz
  1  'x, y, z'
loop_
 _atom_site_type_symbol
 _atom_site_label
 _atom_site_symmetry_multiplicity
 _atom_site_fract_x
 _atom_site_fract_y
 _atom_site_fract_z
 _atom_site_occupancy
  Nd  Nd0  1  0.522848  0.568866  0.343026  1
  Nd  Nd1  1  0.024241  0.429016  0.657199  1
  Ho  Ho2  1  0.806335  0.576987  0.877618  1
  Ho  Ho3  1  0.325410  0.432316  0.123185  1
  Ho  Ho4  1  0.183135  0.928030  0.373107  1
  Ho  Ho5  1  0.682342  0.069530  0.626564  1
  Ho  Ho6  1  0.183356  0.927272  0.628241  1
  Ho  Ho7  1  0.681830  0.070283  0.372209  1
  Ho  Ho8  1  0.809037  0.574241  0.123352  1
  Ho  Ho9  1  0.327937  0.436962  0.875488  1
  Ho  Ho10  1  0.643755  0.238962  0.999657  1
  Ho  Ho11  1  0.158728  0.761509  0.000442  1
  Ho  Ho12  1  0.350532  0.263391  0.499681  1
  Ho  Ho13  1  0.849322  0.734426  0.500109  1
  Ho  Ho14  1  0.477657  0.923629  0.849054  1
  Ho  Ho15  1  0.973446  0.066310  0.151580  1
  Ho  Ho16  1  0.476399  0.924199  0.150662  1
  Ho  Ho17  1  0.972088  0.067073  0.848989  1
  Ho  Ho18  1  0.529181  0.564661  0.652008  1
  Ho  Ho19  1  0.027551  0.433677  0.347486  1
  Si  Si20  1  0.018412  0.351014  0.999438  1
  Si  Si21  1  0.476544  0.858224  0.500659  1
  Si  Si22  1  0.979623  0.140235  0.499570  1
  Si  Si23  1  0.653688  0.276029  0.789358  1
  Si  Si24  1  0.147138  0.720537  0.210418  1
  Si  Si25  1  0.351654  0.217072  0.287471  1
  Si  Si26  1  0.849305  0.782698  0.712308  1
  Si  Si27  1  0.360189  0.219245  0.711132  1
  Si  Si28  1  0.856718  0.780435  0.288892  1
  Si  Si29  1  0.649772  0.269737  0.207780  1
  Si  Si30  1  0.141255  0.726809  0.792333  1
  Si  Si31  1  0.769043  0.884415  0.000615  1
  Si  Si32  1  0.258477  0.125876  0.999452  1
  Si  Si33  1  0.231703  0.624422  0.501304  1
  Si  Si34  1  0.733398  0.375038  0.499187  1
  Os  Os35  1  0.517952  0.656873  0.000419  1
