# generated using pymatgen
data_Dy5Ho3Re2(B12Rh)2
_symmetry_space_group_name_H-M   'P 1'
_cell_length_a   3.68017500
_cell_length_b   9.15117033
_cell_length_c   11.54317106
_cell_angle_alpha   90.45128993
_cell_angle_beta   90.00000000
_cell_angle_gamma   90.00000000
_symmetry_Int_Tables_number   1
_chemical_formula_structural   Dy5Ho3Re2(B12Rh)2
_chemical_formula_sum   'Dy5 Ho3 Re2 B24 Rh2'
_cell_volume   388.73779760
_cell_formula_units_Z   1
loop_
 _symmetry_equiv_pos_site_id
 _symmetry_equiv_pos_as_xyz
  1  'x, y, z'
loop_
 _atom_site_type_symbol
 _atom_site_label
 _atom_site_symmetry_multiplicity
 _atom_site_fract_x
 _atom_site_fract_y
 _atom_site_fract_z
 _atom_site_occupancy
  Dy  Dy0  1  0.000000  0.318874  0.410817  1
  Dy  Dy1  1  0.000000  0.681195  0.589314  1
  Dy  Dy2  1  0.000000  0.826295  0.082821  1
  Dy  Dy3  1  0.000000  0.173761  0.917035  1
  Dy  Dy4  1  0.000000  0.945162  0.371863  1
  Ho  Ho5  1  0.000000  0.054809  0.628375  1
  Ho  Ho6  1  0.000000  0.442393  0.126580  1
  Ho  Ho7  1  0.000000  0.557639  0.873340  1
  Re  Re8  1  0.000000  0.139097  0.179527  1
  Re  Re9  1  0.000000  0.861126  0.820345  1
  B  B10  1  0.500000  0.554236  0.433997  1
  B  B11  1  0.500000  0.445608  0.566079  1
  B  B12  1  0.500000  0.053045  0.067499  1
  B  B13  1  0.500000  0.947027  0.932363  1
  B  B14  1  0.500000  0.748474  0.421319  1
  B  B15  1  0.500000  0.251204  0.578814  1
  B  B16  1  0.500000  0.248399  0.081414  1
  B  B17  1  0.500000  0.751674  0.918526  1
  B  B18  1  0.500000  0.790817  0.265413  1
  B  B19  1  0.500000  0.208876  0.734498  1
  B  B20  1  0.500000  0.292846  0.234479  1
  B  B21  1  0.500000  0.707312  0.765482  1
  B  B22  1  0.500000  0.632266  0.183602  1
  B  B23  1  0.500000  0.367655  0.816331  1
  B  B24  1  0.500000  0.132254  0.314542  1
  B  B25  1  0.500000  0.868028  0.685371  1
  B  B26  1  0.500000  0.983428  0.212908  1
  B  B27  1  0.500000  0.016800  0.786835  1
  B  B28  1  0.500000  0.483554  0.287570  1
  B  B29  1  0.500000  0.516379  0.712395  1
  B  B30  1  0.500000  0.606243  0.029509  1
  B  B31  1  0.500000  0.393759  0.970426  1
  B  B32  1  0.500000  0.108347  0.471029  1
  B  B33  1  0.500000  0.891850  0.529515  1
  Rh  Rh34  1  0.000000  0.637477  0.321205  1
  Rh  Rh35  1  0.000000  0.362088  0.678860  1
