# generated using pymatgen
data_LiV3Tc3P4
_symmetry_space_group_name_H-M   'P 1'
_cell_length_a   7.42524200
_cell_length_b   7.42524219
_cell_length_c   3.13176900
_cell_angle_alpha   90.00000000
_cell_angle_beta   90.00000000
_cell_angle_gamma   119.99999024
_symmetry_Int_Tables_number   1
_chemical_formula_structural   LiV3Tc3P4
_chemical_formula_sum   'Li1 V3 Tc3 P4'
_cell_volume   149.53457876
_cell_formula_units_Z   1
loop_
 _symmetry_equiv_pos_site_id
 _symmetry_equiv_pos_as_xyz
  1  'x, y, z'
loop_
 _atom_site_type_symbol
 _atom_site_label
 _atom_site_symmetry_multiplicity
 _atom_site_fract_x
 _atom_site_fract_y
 _atom_site_fract_z
 _atom_site_occupancy
  Li  Li0  1  0.000000  0.000000  0.000000  1
  V  V1  1  0.547591  0.095183  0.000000  1
  V  V2  1  0.904817  0.452409  0.000000  1
  V  V3  1  0.547591  0.452409  0.000000  1
  Tc  Tc4  1  0.198479  0.801521  0.500000  1
  Tc  Tc5  1  0.198479  0.396958  0.500000  1
  Tc  Tc6  1  0.603042  0.801521  0.500000  1
  P  P7  1  0.831505  0.168495  0.500000  1
  P  P8  1  0.336990  0.168495  0.500000  1
  P  P9  1  0.333333  0.666667  0.000000  1
  P  P10  1  0.831505  0.663010  0.500000  1
