# generated using pymatgen
data_U2ReTcB8
_symmetry_space_group_name_H-M   'P 1'
_cell_length_a   5.92748029
_cell_length_b   5.92747898
_cell_length_c   3.60604800
_cell_angle_alpha   90.00000000
_cell_angle_beta   90.00000000
_cell_angle_gamma   104.03485159
_symmetry_Int_Tables_number   1
_chemical_formula_structural   U2ReTcB8
_chemical_formula_sum   'U2 Re1 Tc1 B8'
_cell_volume   122.91639455
_cell_formula_units_Z   1
loop_
 _symmetry_equiv_pos_site_id
 _symmetry_equiv_pos_as_xyz
  1  'x, y, z'
loop_
 _atom_site_type_symbol
 _atom_site_label
 _atom_site_symmetry_multiplicity
 _atom_site_fract_x
 _atom_site_fract_y
 _atom_site_fract_z
 _atom_site_occupancy
  U  U0  1  0.300121  0.699186  0.000000  1
  U  U1  1  0.699186  0.300121  0.000000  1
  Re  Re2  1  0.812996  0.812996  0.000000  1
  Tc  Tc3  1  0.187302  0.187302  0.000000  1
  B  B4  1  0.383787  0.064811  0.500000  1
  B  B5  1  0.616473  0.935778  0.500000  1
  B  B6  1  0.064811  0.383787  0.500000  1
  B  B7  1  0.935778  0.616473  0.500000  1
  B  B8  1  0.379786  0.379786  0.500000  1
  B  B9  1  0.619480  0.619480  0.500000  1
  B  B10  1  0.092984  0.907296  0.500000  1
  B  B11  1  0.907296  0.092984  0.500000  1
