# generated using pymatgen
data_TbEr3Al16(ZnPd3)2
_symmetry_space_group_name_H-M   'P 1'
_cell_length_a   7.58978747
_cell_length_b   7.59064484
_cell_length_c   9.48276000
_cell_angle_alpha   90.00000000
_cell_angle_beta   90.00000000
_cell_angle_gamma   119.13391333
_symmetry_Int_Tables_number   1
_chemical_formula_structural   TbEr3Al16(ZnPd3)2
_chemical_formula_sum   'Tb1 Er3 Al16 Zn2 Pd6'
_cell_volume   477.19743840
_cell_formula_units_Z   1
loop_
 _symmetry_equiv_pos_site_id
 _symmetry_equiv_pos_as_xyz
  1  'x, y, z'
loop_
 _atom_site_type_symbol
 _atom_site_label
 _atom_site_symmetry_multiplicity
 _atom_site_fract_x
 _atom_site_fract_y
 _atom_site_fract_z
 _atom_site_occupancy
  Tb  Tb0  1  0.993826  0.670681  0.250000  1
  Er  Er1  1  0.006179  0.328535  0.750000  1
  Er  Er2  1  0.671220  0.993954  0.250000  1
  Er  Er3  1  0.328640  0.006351  0.750000  1
  Al  Al4  1  0.001190  0.332049  0.077607  1
  Al  Al5  1  0.998871  0.667288  0.920902  1
  Al  Al6  1  0.998871  0.667288  0.579098  1
  Al  Al7  1  0.333366  0.001785  0.422455  1
  Al  Al8  1  0.001190  0.332049  0.422393  1
  Al  Al9  1  0.667288  0.998972  0.578557  1
  Al  Al10  1  0.667288  0.998972  0.921443  1
  Al  Al11  1  0.333366  0.001785  0.077545  1
  Al  Al12  1  0.332556  0.332579  0.557509  1
  Al  Al13  1  0.666925  0.667493  0.443446  1
  Al  Al14  1  0.666925  0.667493  0.056554  1
  Al  Al15  1  0.332556  0.332579  0.942491  1
  Al  Al16  1  0.338655  0.545990  0.250000  1
  Al  Al17  1  0.661454  0.453494  0.750000  1
  Al  Al18  1  0.545446  0.338014  0.250000  1
  Al  Al19  1  0.453673  0.661706  0.750000  1
  Zn  Zn20  1  0.138348  0.138549  0.250000  1
  Zn  Zn21  1  0.861943  0.862146  0.750000  1
  Pd  Pd22  1  0.672447  0.327457  0.999928  1
  Pd  Pd23  1  0.327636  0.672535  0.999905  1
  Pd  Pd24  1  0.327636  0.672535  0.500095  1
  Pd  Pd25  1  0.672447  0.327457  0.500072  1
  Pd  Pd26  1  0.000030  0.000131  0.999918  1
  Pd  Pd27  1  0.000030  0.000131  0.500082  1
