# generated using pymatgen
data_Hf4BeNi4P3
_symmetry_space_group_name_H-M   'P 1'
_cell_length_a   3.65437300
_cell_length_b   6.27744002
_cell_length_c   7.19480001
_cell_angle_alpha   89.99361830
_cell_angle_beta   90.00000000
_cell_angle_gamma   90.00000000
_symmetry_Int_Tables_number   1
_chemical_formula_structural   Hf4BeNi4P3
_chemical_formula_sum   'Hf4 Be1 Ni4 P3'
_cell_volume   165.04948315
_cell_formula_units_Z   1
loop_
 _symmetry_equiv_pos_site_id
 _symmetry_equiv_pos_as_xyz
  1  'x, y, z'
loop_
 _atom_site_type_symbol
 _atom_site_label
 _atom_site_symmetry_multiplicity
 _atom_site_fract_x
 _atom_site_fract_y
 _atom_site_fract_z
 _atom_site_occupancy
  Hf  Hf0  1  0.250000  0.022071  0.817252  1
  Hf  Hf1  1  0.250000  0.527786  0.678660  1
  Hf  Hf2  1  0.750000  0.973589  0.187708  1
  Hf  Hf3  1  0.750000  0.483387  0.319410  1
  Be  Be4  1  0.250000  0.770390  0.386892  1
  Ni  Ni5  1  0.250000  0.140020  0.438270  1
  Ni  Ni6  1  0.250000  0.650012  0.067369  1
  Ni  Ni7  1  0.750000  0.857082  0.551642  1
  Ni  Ni8  1  0.750000  0.352885  0.936179  1
  P  P9  1  0.250000  0.270327  0.119111  1
  P  P10  1  0.750000  0.224389  0.614830  1
  P  P11  1  0.750000  0.728062  0.882677  1
