# generated using pymatgen
data_Er7Fe2Co4Sn23
_symmetry_space_group_name_H-M   'P 1'
_cell_length_a   9.69395093
_cell_length_b   9.69395110
_cell_length_c   9.95102036
_cell_angle_alpha   90.11324185
_cell_angle_beta   89.88675153
_cell_angle_gamma   119.93447031
_symmetry_Int_Tables_number   1
_chemical_formula_structural   Er7Fe2Co4Sn23
_chemical_formula_sum   'Er7 Fe2 Co4 Sn23'
_cell_volume   810.37335287
_cell_formula_units_Z   1
loop_
 _symmetry_equiv_pos_site_id
 _symmetry_equiv_pos_as_xyz
  1  'x, y, z'
loop_
 _atom_site_type_symbol
 _atom_site_label
 _atom_site_symmetry_multiplicity
 _atom_site_fract_x
 _atom_site_fract_y
 _atom_site_fract_z
 _atom_site_occupancy
  Er  Er0  1  0.479591  0.520409  0.306920  1
  Er  Er1  1  0.520409  0.479591  0.693080  1
  Er  Er2  1  0.481657  0.959906  0.305482  1
  Er  Er3  1  0.518343  0.040094  0.694518  1
  Er  Er4  1  0.040094  0.518343  0.305482  1
  Er  Er5  1  0.959906  0.481657  0.694518  1
  Er  Er6  1  0.000000  0.000000  0.000000  1
  Fe  Fe7  1  0.832897  0.167103  0.198137  1
  Fe  Fe8  1  0.167103  0.832897  0.801863  1
  Co  Co9  1  0.830679  0.663077  0.197899  1
  Co  Co10  1  0.169321  0.336923  0.802101  1
  Co  Co11  1  0.336923  0.169321  0.197899  1
  Co  Co12  1  0.663077  0.830679  0.802101  1
  Sn  Sn13  1  0.117988  0.882012  0.274006  1
  Sn  Sn14  1  0.882012  0.117988  0.725994  1
  Sn  Sn15  1  0.119301  0.236807  0.274401  1
  Sn  Sn16  1  0.880699  0.763193  0.725599  1
  Sn  Sn17  1  0.763193  0.880699  0.274401  1
  Sn  Sn18  1  0.236807  0.119301  0.725599  1
  Sn  Sn19  1  0.780582  0.219418  0.453728  1
  Sn  Sn20  1  0.219418  0.780582  0.546272  1
  Sn  Sn21  1  0.781156  0.562028  0.451665  1
  Sn  Sn22  1  0.218844  0.437972  0.548335  1
  Sn  Sn23  1  0.437972  0.218844  0.451665  1
  Sn  Sn24  1  0.562028  0.781156  0.548335  1
  Sn  Sn25  1  0.345879  0.000087  0.000500  1
  Sn  Sn26  1  0.654121  0.999913  0.999500  1
  Sn  Sn27  1  0.000087  0.345879  0.999500  1
  Sn  Sn28  1  0.999913  0.654121  0.000500  1
  Sn  Sn29  1  0.653383  0.653383  0.000000  1
  Sn  Sn30  1  0.346617  0.346617  0.000000  1
  Sn  Sn31  1  0.333337  0.666663  0.120321  1
  Sn  Sn32  1  0.666663  0.333337  0.879679  1
  Sn  Sn33  1  0.333653  0.666347  0.818145  1
  Sn  Sn34  1  0.666347  0.333653  0.181855  1
  Sn  Sn35  1  0.000000  0.000000  0.500000  1
