# generated using pymatgen
data_Cs3Ho(IO3)6
_symmetry_space_group_name_H-M   'P 1'
_cell_length_a   7.42793032
_cell_length_b   7.42128679
_cell_length_c   11.24476903
_cell_angle_alpha   87.65175443
_cell_angle_beta   107.60569215
_cell_angle_gamma   107.55381160
_symmetry_Int_Tables_number   1
_chemical_formula_structural   Cs3Ho(IO3)6
_chemical_formula_sum   'Cs3 Ho1 I6 O18'
_cell_volume   562.45710226
_cell_formula_units_Z   1
loop_
 _symmetry_equiv_pos_site_id
 _symmetry_equiv_pos_as_xyz
  1  'x, y, z'
loop_
 _atom_site_type_symbol
 _atom_site_label
 _atom_site_symmetry_multiplicity
 _atom_site_fract_x
 _atom_site_fract_y
 _atom_site_fract_z
 _atom_site_occupancy
  Cs  Cs0  1  0.000000  0.000000  0.000000  1
  Cs  Cs1  1  0.835595  0.026434  0.600813  1
  Cs  Cs2  1  0.164405  0.973566  0.399187  1
  Ho  Ho3  1  0.500000  0.500000  0.000000  1
  I  I4  1  0.021381  0.472549  0.190495  1
  I  I5  1  0.978619  0.527451  0.809505  1
  I  I6  1  0.556687  0.952323  0.190167  1
  I  I7  1  0.443313  0.047677  0.809833  1
  I  I8  1  0.420782  0.554749  0.640771  1
  I  I9  1  0.579218  0.445251  0.359229  1
  O  O10  1  0.832293  0.535946  0.056592  1
  O  O11  1  0.167707  0.464054  0.943408  1
  O  O12  1  0.954184  0.547726  0.318538  1
  O  O13  1  0.045816  0.452274  0.681462  1
  O  O14  1  0.916415  0.215339  0.185104  1
  O  O15  1  0.083585  0.784661  0.814896  1
  O  O16  1  0.568701  0.812631  0.059545  1
  O  O17  1  0.431299  0.187369  0.940455  1
  O  O18  1  0.299322  0.844213  0.186707  1
  O  O19  1  0.700678  0.155787  0.813293  1
  O  O20  1  0.687582  0.842209  0.322030  1
  O  O21  1  0.312418  0.157791  0.677970  1
  O  O22  1  0.520098  0.595140  0.813424  1
  O  O23  1  0.479902  0.404860  0.186576  1
  O  O24  1  0.659445  0.569140  0.617381  1
  O  O25  1  0.340555  0.430860  0.382619  1
  O  O26  1  0.409718  0.793855  0.606433  1
  O  O27  1  0.590282  0.206145  0.393567  1
