# generated using pymatgen
data_Ho2Th3Sn3N
_symmetry_space_group_name_H-M   'P 1'
_cell_length_a   9.18003200
_cell_length_b   9.18003207
_cell_length_c   6.40348000
_cell_angle_alpha   90.00000000
_cell_angle_beta   90.00000000
_cell_angle_gamma   119.99999975
_symmetry_Int_Tables_number   1
_chemical_formula_structural   Ho2Th3Sn3N
_chemical_formula_sum   'Ho4 Th6 Sn6 N2'
_cell_volume   467.34229149
_cell_formula_units_Z   2
loop_
 _symmetry_equiv_pos_site_id
 _symmetry_equiv_pos_as_xyz
  1  'x, y, z'
loop_
 _atom_site_type_symbol
 _atom_site_label
 _atom_site_symmetry_multiplicity
 _atom_site_fract_x
 _atom_site_fract_y
 _atom_site_fract_z
 _atom_site_occupancy
  Ho  Ho0  1  0.666667  0.333333  0.000000  1
  Ho  Ho1  1  0.333333  0.666667  0.000000  1
  Ho  Ho2  1  0.333333  0.666667  0.500000  1
  Ho  Ho3  1  0.666667  0.333333  0.500000  1
  Th  Th4  1  0.775772  0.775772  0.750000  1
  Th  Th5  1  0.224228  0.000000  0.750000  1
  Th  Th6  1  0.000000  0.224228  0.750000  1
  Th  Th7  1  0.224228  0.224228  0.250000  1
  Th  Th8  1  0.775772  0.000000  0.250000  1
  Th  Th9  1  0.000000  0.775772  0.250000  1
  Sn  Sn10  1  0.407061  0.407061  0.750000  1
  Sn  Sn11  1  0.592939  0.000000  0.750000  1
  Sn  Sn12  1  0.000000  0.592939  0.750000  1
  Sn  Sn13  1  0.592939  0.592939  0.250000  1
  Sn  Sn14  1  0.407061  0.000000  0.250000  1
  Sn  Sn15  1  0.000000  0.407061  0.250000  1
  N  N16  1  0.000000  0.000000  0.000000  1
  N  N17  1  0.000000  0.000000  0.500000  1
