# generated using pymatgen
data_Tb4Sc4IrPt3
_symmetry_space_group_name_H-M   'P 1'
_cell_length_a   4.55431400
_cell_length_b   7.02431117
_cell_length_c   8.51867190
_cell_angle_alpha   89.44471612
_cell_angle_beta   90.00000000
_cell_angle_gamma   90.00000000
_symmetry_Int_Tables_number   1
_chemical_formula_structural   Tb4Sc4IrPt3
_chemical_formula_sum   'Tb4 Sc4 Ir1 Pt3'
_cell_volume   272.50734205
_cell_formula_units_Z   1
loop_
 _symmetry_equiv_pos_site_id
 _symmetry_equiv_pos_as_xyz
  1  'x, y, z'
loop_
 _atom_site_type_symbol
 _atom_site_label
 _atom_site_symmetry_multiplicity
 _atom_site_fract_x
 _atom_site_fract_y
 _atom_site_fract_z
 _atom_site_occupancy
  Tb  Tb0  1  0.250000  0.018166  0.673475  1
  Tb  Tb1  1  0.250000  0.519610  0.822523  1
  Tb  Tb2  1  0.750000  0.986589  0.326092  1
  Tb  Tb3  1  0.750000  0.478207  0.178845  1
  Sc  Sc4  1  0.250000  0.139858  0.072425  1
  Sc  Sc5  1  0.250000  0.638292  0.426123  1
  Sc  Sc6  1  0.750000  0.861265  0.929465  1
  Sc  Sc7  1  0.750000  0.357571  0.568621  1
  Ir  Ir8  1  0.250000  0.256560  0.401237  1
  Pt  Pt9  1  0.250000  0.754970  0.098706  1
  Pt  Pt10  1  0.750000  0.742718  0.602085  1
  Pt  Pt11  1  0.750000  0.246193  0.900404  1
