# generated using pymatgen
data_Zr5Si10P2Ir19
_symmetry_space_group_name_H-M   'P 1'
_cell_length_a   12.74147640
_cell_length_b   12.72036513
_cell_length_c   3.90334600
_cell_angle_alpha   90.00000000
_cell_angle_beta   90.00000000
_cell_angle_gamma   119.94520817
_symmetry_Int_Tables_number   1
_chemical_formula_structural   Zr5Si10P2Ir19
_chemical_formula_sum   'Zr5 Si10 P2 Ir19'
_cell_volume   548.18422127
_cell_formula_units_Z   1
loop_
 _symmetry_equiv_pos_site_id
 _symmetry_equiv_pos_as_xyz
  1  'x, y, z'
loop_
 _atom_site_type_symbol
 _atom_site_label
 _atom_site_symmetry_multiplicity
 _atom_site_fract_x
 _atom_site_fract_y
 _atom_site_fract_z
 _atom_site_occupancy
  Zr  Zr0  1  0.334033  0.667037  0.500000  1
  Zr  Zr1  1  0.665967  0.333003  0.500000  1
  Zr  Zr2  1  0.000000  0.813245  0.000000  1
  Zr  Zr3  1  0.182815  0.185206  0.000000  1
  Zr  Zr4  1  0.817185  0.002392  0.000000  1
  Si  Si5  1  0.000000  0.637255  0.500000  1
  Si  Si6  1  0.362183  0.362805  0.500000  1
  Si  Si7  1  0.637817  0.000623  0.500000  1
  Si  Si8  1  0.518613  0.686500  0.000000  1
  Si  Si9  1  0.313872  0.831865  0.000000  1
  Si  Si10  1  0.169345  0.482158  0.000000  1
  Si  Si11  1  0.481387  0.167886  0.000000  1
  Si  Si12  1  0.686128  0.517992  0.000000  1
  Si  Si13  1  0.830655  0.312813  0.000000  1
  Si  Si14  1  0.000000  0.174633  0.500000  1
  P  P15  1  0.822959  0.823339  0.500000  1
  P  P16  1  0.177041  0.000380  0.500000  1
  Ir  Ir17  1  0.511483  0.870903  0.000000  1
  Ir  Ir18  1  0.129052  0.640304  0.000000  1
  Ir  Ir19  1  0.360754  0.488759  0.000000  1
  Ir  Ir20  1  0.488517  0.359419  0.000000  1
  Ir  Ir21  1  0.870948  0.511251  0.000000  1
  Ir  Ir22  1  0.639246  0.128004  0.000000  1
  Ir  Ir23  1  0.000000  0.449590  0.500000  1
  Ir  Ir24  1  0.550645  0.549411  0.500000  1
  Ir  Ir25  1  0.449355  0.998768  0.500000  1
  Ir  Ir26  1  0.000000  0.280277  0.000000  1
  Ir  Ir27  1  0.723984  0.724066  0.000000  1
  Ir  Ir28  1  0.276016  0.000082  0.000000  1
  Ir  Ir29  1  0.629591  0.809355  0.500000  1
  Ir  Ir30  1  0.191198  0.820452  0.500000  1
  Ir  Ir31  1  0.180728  0.373307  0.500000  1
  Ir  Ir32  1  0.370409  0.179764  0.500000  1
  Ir  Ir33  1  0.808802  0.629254  0.500000  1
  Ir  Ir34  1  0.819272  0.192579  0.500000  1
  Ir  Ir35  1  0.000000  0.995323  0.500000  1
