# generated using pymatgen
data_HfTa(Be4Re)2
_symmetry_space_group_name_H-M   'P 1'
_cell_length_a   4.51762200
_cell_length_b   4.51762077
_cell_length_c   7.42844700
_cell_angle_alpha   90.00000000
_cell_angle_beta   90.00000000
_cell_angle_gamma   120.00000898
_symmetry_Int_Tables_number   1
_chemical_formula_structural   HfTa(Be4Re)2
_chemical_formula_sum   'Hf1 Ta1 Be8 Re2'
_cell_volume   131.29502883
_cell_formula_units_Z   1
loop_
 _symmetry_equiv_pos_site_id
 _symmetry_equiv_pos_as_xyz
  1  'x, y, z'
loop_
 _atom_site_type_symbol
 _atom_site_label
 _atom_site_symmetry_multiplicity
 _atom_site_fract_x
 _atom_site_fract_y
 _atom_site_fract_z
 _atom_site_occupancy
  Hf  Hf0  1  0.333333  0.666667  0.064799  1
  Ta  Ta1  1  0.666667  0.333333  0.564352  1
  Be  Be2  1  0.000000  0.000000  0.995632  1
  Be  Be3  1  0.000000  0.000000  0.497458  1
  Be  Be4  1  0.830160  0.660319  0.254212  1
  Be  Be5  1  0.169453  0.830547  0.748217  1
  Be  Be6  1  0.661092  0.830547  0.748217  1
  Be  Be7  1  0.339681  0.169840  0.254212  1
  Be  Be8  1  0.830160  0.169840  0.254212  1
  Be  Be9  1  0.169453  0.338908  0.748217  1
  Re  Re10  1  0.666667  0.333333  0.929053  1
  Re  Re11  1  0.333333  0.666667  0.441421  1
