# generated using pymatgen
data_Mn3Be8V
_symmetry_space_group_name_H-M   'P 1'
_cell_length_a   4.20242800
_cell_length_b   4.20242901
_cell_length_c   6.87344800
_cell_angle_alpha   90.00000000
_cell_angle_beta   90.00000000
_cell_angle_gamma   120.00000776
_symmetry_Int_Tables_number   1
_chemical_formula_structural   Mn3Be8V
_chemical_formula_sum   'Mn3 Be8 V1'
_cell_volume   105.12497776
_cell_formula_units_Z   1
loop_
 _symmetry_equiv_pos_site_id
 _symmetry_equiv_pos_as_xyz
  1  'x, y, z'
loop_
 _atom_site_type_symbol
 _atom_site_label
 _atom_site_symmetry_multiplicity
 _atom_site_fract_x
 _atom_site_fract_y
 _atom_site_fract_z
 _atom_site_occupancy
  Mn  Mn0  1  0.333333  0.666667  0.438830  1
  Mn  Mn1  1  0.666667  0.333333  0.935164  1
  Mn  Mn2  1  0.333333  0.666667  0.063386  1
  Be  Be3  1  0.170220  0.340438  0.753954  1
  Be  Be4  1  0.170220  0.829780  0.753954  1
  Be  Be5  1  0.339284  0.169642  0.246805  1
  Be  Be6  1  0.830358  0.660716  0.246805  1
  Be  Be7  1  0.000000  0.000000  0.000134  1
  Be  Be8  1  0.659562  0.829780  0.753954  1
  Be  Be9  1  0.830358  0.169642  0.246805  1
  Be  Be10  1  0.000000  0.000000  0.497701  1
  V  V11  1  0.666667  0.333333  0.562508  1
