# generated using pymatgen
data_Nb3AlGaTc3
_symmetry_space_group_name_H-M   'P 1'
_cell_length_a   5.02113931
_cell_length_b   5.02113931
_cell_length_c   5.02113931
_cell_angle_alpha   90.20027626
_cell_angle_beta   89.79972374
_cell_angle_gamma   90.20027626
_symmetry_Int_Tables_number   1
_chemical_formula_structural   Nb3AlGaTc3
_chemical_formula_sum   'Nb3 Al1 Ga1 Tc3'
_cell_volume   126.58984609
_cell_formula_units_Z   1
loop_
 _symmetry_equiv_pos_site_id
 _symmetry_equiv_pos_as_xyz
  1  'x, y, z'
loop_
 _atom_site_type_symbol
 _atom_site_label
 _atom_site_symmetry_multiplicity
 _atom_site_fract_x
 _atom_site_fract_y
 _atom_site_fract_z
 _atom_site_occupancy
  Nb  Nb0  1  0.000314  0.498770  0.248843  1
  Nb  Nb1  1  0.501230  0.751157  0.000314  1
  Nb  Nb2  1  0.248843  0.999686  0.501230  1
  Al  Al3  1  0.505688  0.494312  0.505688  1
  Ga  Ga4  1  0.995657  0.004343  0.995657  1
  Tc  Tc5  1  0.001090  0.500125  0.747303  1
  Tc  Tc6  1  0.499875  0.252697  0.001090  1
  Tc  Tc7  1  0.747303  0.998910  0.499875  1
