# generated using pymatgen
data_Ho6Al24Os7Pd
_symmetry_space_group_name_H-M   'P 1'
_cell_length_a   8.82431375
_cell_length_b   8.82431446
_cell_length_c   9.56251342
_cell_angle_alpha   89.61555708
_cell_angle_beta   90.38444643
_cell_angle_gamma   119.82986048
_symmetry_Int_Tables_number   1
_chemical_formula_structural   Ho6Al24Os7Pd
_chemical_formula_sum   'Ho6 Al24 Os7 Pd1'
_cell_volume   645.94206803
_cell_formula_units_Z   1
loop_
 _symmetry_equiv_pos_site_id
 _symmetry_equiv_pos_as_xyz
  1  'x, y, z'
loop_
 _atom_site_type_symbol
 _atom_site_label
 _atom_site_symmetry_multiplicity
 _atom_site_fract_x
 _atom_site_fract_y
 _atom_site_fract_z
 _atom_site_occupancy
  Ho  Ho0  1  0.189890  0.386739  0.251747  1
  Ho  Ho1  1  0.810110  0.613261  0.748253  1
  Ho  Ho2  1  0.613261  0.810110  0.251747  1
  Ho  Ho3  1  0.386739  0.189890  0.748253  1
  Ho  Ho4  1  0.194556  0.805444  0.252118  1
  Ho  Ho5  1  0.805444  0.194556  0.747882  1
  Al  Al6  1  0.331048  0.668952  0.019540  1
  Al  Al7  1  0.668952  0.331048  0.980460  1
  Al  Al8  1  0.666386  0.333614  0.516541  1
  Al  Al9  1  0.333614  0.666386  0.483459  1
  Al  Al10  1  0.163427  0.325661  0.576585  1
  Al  Al11  1  0.836573  0.674339  0.423415  1
  Al  Al12  1  0.674339  0.836573  0.576585  1
  Al  Al13  1  0.843213  0.676365  0.078657  1
  Al  Al14  1  0.325661  0.163427  0.423415  1
  Al  Al15  1  0.156787  0.323635  0.921343  1
  Al  Al16  1  0.163226  0.836774  0.575439  1
  Al  Al17  1  0.323635  0.156787  0.078657  1
  Al  Al18  1  0.836774  0.163226  0.424561  1
  Al  Al19  1  0.676365  0.843213  0.921343  1
  Al  Al20  1  0.836701  0.163299  0.075335  1
  Al  Al21  1  0.163299  0.836701  0.924665  1
  Al  Al22  1  0.560506  0.121801  0.249227  1
  Al  Al23  1  0.439494  0.878199  0.750773  1
  Al  Al24  1  0.878199  0.439494  0.249227  1
  Al  Al25  1  0.121801  0.560506  0.750773  1
  Al  Al26  1  0.561399  0.438601  0.252178  1
  Al  Al27  1  0.438601  0.561399  0.747822  1
  Al  Al28  1  0.999427  0.000573  0.250213  1
  Al  Al29  1  0.000573  0.999427  0.749787  1
  Os  Os30  1  0.500000  0.000000  0.000000  1
  Os  Os31  1  0.000000  0.500000  0.000000  1
  Os  Os32  1  0.500000  0.000000  0.500000  1
  Os  Os33  1  0.000000  0.500000  0.500000  1
  Os  Os34  1  0.500000  0.500000  0.500000  1
  Os  Os35  1  0.000000  0.000000  0.000000  1
  Os  Os36  1  0.000000  0.000000  0.500000  1
  Pd  Pd37  1  0.500000  0.500000  0.000000  1
