# generated using pymatgen
data_Li6Dy4Co9P12Ir5
_symmetry_space_group_name_H-M   'P 1'
_cell_length_a   3.73554500
_cell_length_b   10.45961998
_cell_length_c   12.46240631
_cell_angle_alpha   90.06945056
_cell_angle_beta   90.00000000
_cell_angle_gamma   90.00000000
_symmetry_Int_Tables_number   1
_chemical_formula_structural   Li6Dy4Co9P12Ir5
_chemical_formula_sum   'Li6 Dy4 Co9 P12 Ir5'
_cell_volume   486.93553137
_cell_formula_units_Z   1
loop_
 _symmetry_equiv_pos_site_id
 _symmetry_equiv_pos_as_xyz
  1  'x, y, z'
loop_
 _atom_site_type_symbol
 _atom_site_label
 _atom_site_symmetry_multiplicity
 _atom_site_fract_x
 _atom_site_fract_y
 _atom_site_fract_z
 _atom_site_occupancy
  Li  Li0  1  0.250000  0.702875  0.987416  1
  Li  Li1  1  0.250000  0.796975  0.486468  1
  Li  Li2  1  0.750000  0.295473  0.013007  1
  Li  Li3  1  0.750000  0.204312  0.511718  1
  Li  Li4  1  0.750000  0.594377  0.504621  1
  Li  Li5  1  0.750000  0.907335  0.010304  1
  Dy  Dy6  1  0.250000  0.581200  0.709294  1
  Dy  Dy7  1  0.250000  0.916375  0.210807  1
  Dy  Dy8  1  0.750000  0.420752  0.288695  1
  Dy  Dy9  1  0.750000  0.082197  0.785633  1
  Co  Co10  1  0.750000  0.713341  0.324976  1
  Co  Co11  1  0.250000  0.882251  0.691291  1
  Co  Co12  1  0.250000  0.619596  0.195039  1
  Co  Co13  1  0.750000  0.116432  0.309153  1
  Co  Co14  1  0.750000  0.382758  0.809241  1
  Co  Co15  1  0.250000  0.468152  0.935220  1
  Co  Co16  1  0.250000  0.029011  0.431718  1
  Co  Co17  1  0.750000  0.537036  0.065451  1
  Co  Co18  1  0.750000  0.962238  0.560792  1
  P  P19  1  0.250000  0.430114  0.110453  1
  P  P20  1  0.250000  0.069690  0.606895  1
  P  P21  1  0.750000  0.575557  0.889568  1
  P  P22  1  0.750000  0.917780  0.384846  1
  P  P23  1  0.250000  0.274326  0.868546  1
  P  P24  1  0.250000  0.225372  0.369123  1
  P  P25  1  0.750000  0.723140  0.148449  1
  P  P26  1  0.750000  0.775830  0.639526  1
  P  P27  1  0.250000  0.604259  0.374853  1
  P  P28  1  0.250000  0.903592  0.877846  1
  P  P29  1  0.750000  0.399328  0.620136  1
  P  P30  1  0.750000  0.101227  0.121619  1
  Ir  Ir31  1  0.250000  0.413835  0.484532  1
  Ir  Ir32  1  0.250000  0.087971  0.984985  1
  Ir  Ir33  1  0.250000  0.224028  0.181236  1
  Ir  Ir34  1  0.250000  0.276217  0.679902  1
  Ir  Ir35  1  0.750000  0.785043  0.826640  1
