# generated using pymatgen
data_Yb2YSbO6
_symmetry_space_group_name_H-M   'P 1'
_cell_length_a   5.81779100
_cell_length_b   5.58879156
_cell_length_c   9.79717873
_cell_angle_alpha   55.53584264
_cell_angle_beta   90.00000000
_cell_angle_gamma   90.00000000
_symmetry_Int_Tables_number   1
_chemical_formula_structural   Yb2YSbO6
_chemical_formula_sum   'Yb4 Y2 Sb2 O12'
_cell_volume   262.63788443
_cell_formula_units_Z   2
loop_
 _symmetry_equiv_pos_site_id
 _symmetry_equiv_pos_as_xyz
  1  'x, y, z'
loop_
 _atom_site_type_symbol
 _atom_site_label
 _atom_site_symmetry_multiplicity
 _atom_site_fract_x
 _atom_site_fract_y
 _atom_site_fract_z
 _atom_site_occupancy
  Yb  Yb0  1  0.556300  0.767696  0.749946  1
  Yb  Yb1  1  0.056300  0.232304  0.750054  1
  Yb  Yb2  1  0.443700  0.232304  0.250054  1
  Yb  Yb3  1  0.943700  0.767696  0.249946  1
  Y  Y4  1  0.000000  0.500000  0.000000  1
  Y  Y5  1  0.500000  0.500000  0.500000  1
  Sb  Sb6  1  0.500000  0.000000  0.000000  1
  Sb  Sb7  1  0.000000  0.000000  0.500000  1
  O  O8  1  0.950046  0.647512  0.733262  1
  O  O9  1  0.450046  0.352488  0.766738  1
  O  O10  1  0.049954  0.352488  0.266738  1
  O  O11  1  0.549954  0.647512  0.233262  1
  O  O12  1  0.316307  0.769743  0.939737  1
  O  O13  1  0.816307  0.230257  0.560263  1
  O  O14  1  0.683693  0.230257  0.060263  1
  O  O15  1  0.183693  0.769743  0.439737  1
  O  O16  1  0.711564  0.889568  0.433680  1
  O  O17  1  0.211564  0.110432  0.066320  1
  O  O18  1  0.288436  0.110432  0.566320  1
  O  O19  1  0.788436  0.889568  0.933680  1
