# generated using pymatgen
data_YbGa2SiPd
_symmetry_space_group_name_H-M   'P 1'
_cell_length_a   5.96752400
_cell_length_b   5.96752287
_cell_length_c   5.85080400
_cell_angle_alpha   90.00000000
_cell_angle_beta   90.00000000
_cell_angle_gamma   116.42511125
_symmetry_Int_Tables_number   1
_chemical_formula_structural   YbGa2SiPd
_chemical_formula_sum   'Yb2 Ga4 Si2 Pd2'
_cell_volume   186.58535577
_cell_formula_units_Z   2
loop_
 _symmetry_equiv_pos_site_id
 _symmetry_equiv_pos_as_xyz
  1  'x, y, z'
loop_
 _atom_site_type_symbol
 _atom_site_label
 _atom_site_symmetry_multiplicity
 _atom_site_fract_x
 _atom_site_fract_y
 _atom_site_fract_z
 _atom_site_occupancy
  Yb  Yb0  1  0.237225  0.762775  0.750000  1
  Yb  Yb1  1  0.762775  0.237225  0.250000  1
  Ga  Ga2  1  0.727204  0.727204  0.000000  1
  Ga  Ga3  1  0.727204  0.727204  0.500000  1
  Ga  Ga4  1  0.272796  0.272796  0.000000  1
  Ga  Ga5  1  0.272796  0.272796  0.500000  1
  Si  Si6  1  0.653264  0.346736  0.750000  1
  Si  Si7  1  0.346736  0.653264  0.250000  1
  Pd  Pd8  1  0.883061  0.116939  0.750000  1
  Pd  Pd9  1  0.116939  0.883061  0.250000  1
