# generated using pymatgen
data_SrNd17(BiO)10
_symmetry_space_group_name_H-M   'P 1'
_cell_length_a   10.39153900
_cell_length_b   10.39153900
_cell_length_c   9.36026100
_cell_angle_alpha   90.00000000
_cell_angle_beta   90.00000000
_cell_angle_gamma   90.00000000
_symmetry_Int_Tables_number   1
_chemical_formula_structural   SrNd17(BiO)10
_chemical_formula_sum   'Sr1 Nd17 Bi10 O10'
_cell_volume   1010.75919875
_cell_formula_units_Z   1
loop_
 _symmetry_equiv_pos_site_id
 _symmetry_equiv_pos_as_xyz
  1  'x, y, z'
loop_
 _atom_site_type_symbol
 _atom_site_label
 _atom_site_symmetry_multiplicity
 _atom_site_fract_x
 _atom_site_fract_y
 _atom_site_fract_z
 _atom_site_occupancy
  Sr  Sr0  1  0.500000  0.000000  0.669628  1
  Nd  Nd1  1  0.000000  0.500000  0.325993  1
  Nd  Nd2  1  0.104478  0.205556  0.661437  1
  Nd  Nd3  1  0.895522  0.794444  0.661437  1
  Nd  Nd4  1  0.294444  0.604478  0.661437  1
  Nd  Nd5  1  0.705556  0.395522  0.661437  1
  Nd  Nd6  1  0.395663  0.295177  0.338543  1
  Nd  Nd7  1  0.604337  0.704823  0.338543  1
  Nd  Nd8  1  0.204823  0.895663  0.338543  1
  Nd  Nd9  1  0.795177  0.104337  0.338543  1
  Nd  Nd10  1  0.724828  0.918519  0.000889  1
  Nd  Nd11  1  0.275172  0.081481  0.000889  1
  Nd  Nd12  1  0.581481  0.224828  0.000889  1
  Nd  Nd13  1  0.418519  0.775172  0.000889  1
  Nd  Nd14  1  0.773856  0.582614  0.997722  1
  Nd  Nd15  1  0.226144  0.417386  0.997722  1
  Nd  Nd16  1  0.917386  0.273856  0.997722  1
  Nd  Nd17  1  0.082614  0.726144  0.997722  1
  Bi  Bi18  1  0.500000  0.000000  0.310102  1
  Bi  Bi19  1  0.000000  0.500000  0.686195  1
  Bi  Bi20  1  0.402723  0.308027  0.699435  1
  Bi  Bi21  1  0.597277  0.691973  0.699435  1
  Bi  Bi22  1  0.191973  0.902723  0.699435  1
  Bi  Bi23  1  0.808027  0.097277  0.699435  1
  Bi  Bi24  1  0.096208  0.195678  0.301417  1
  Bi  Bi25  1  0.903792  0.804322  0.301417  1
  Bi  Bi26  1  0.304322  0.596208  0.301417  1
  Bi  Bi27  1  0.695678  0.403792  0.301417  1
  O  O28  1  0.500000  0.000000  0.940814  1
  O  O29  1  0.000000  0.500000  0.065960  1
  O  O30  1  0.774781  0.120937  0.087202  1
  O  O31  1  0.225219  0.879063  0.087202  1
  O  O32  1  0.379063  0.274781  0.087202  1
  O  O33  1  0.620937  0.725219  0.087202  1
  O  O34  1  0.725878  0.378848  0.913682  1
  O  O35  1  0.274122  0.621152  0.913682  1
  O  O36  1  0.121152  0.225878  0.913682  1
  O  O37  1  0.878848  0.774122  0.913682  1
