# generated using pymatgen
data_Er10Si5Pb
_symmetry_space_group_name_H-M   'P 1'
_cell_length_a   8.44692301
_cell_length_b   8.47883300
_cell_length_c   6.33181200
_cell_angle_alpha   90.00043803
_cell_angle_beta   89.99673651
_cell_angle_gamma   119.87758106
_symmetry_Int_Tables_number   1
_chemical_formula_structural   Er10Si5Pb
_chemical_formula_sum   'Er10 Si5 Pb1'
_cell_volume   393.21282417
_cell_formula_units_Z   1
loop_
 _symmetry_equiv_pos_site_id
 _symmetry_equiv_pos_as_xyz
  1  'x, y, z'
loop_
 _atom_site_type_symbol
 _atom_site_label
 _atom_site_symmetry_multiplicity
 _atom_site_fract_x
 _atom_site_fract_y
 _atom_site_fract_z
 _atom_site_occupancy
  Er  Er0  1  0.668943  0.344214  0.996172  1
  Er  Er1  1  0.324593  0.655717  0.996084  1
  Er  Er2  1  0.760120  0.747933  0.250157  1
  Er  Er3  1  0.232874  0.999965  0.250053  1
  Er  Er4  1  0.012208  0.252198  0.250136  1
  Er  Er5  1  0.669012  0.344327  0.503839  1
  Er  Er6  1  0.324576  0.655713  0.503948  1
  Er  Er7  1  0.243900  0.241997  0.749995  1
  Er  Er8  1  0.759875  0.000090  0.749885  1
  Er  Er9  1  0.001989  0.758053  0.749986  1
  Si  Si10  1  0.001662  0.605593  0.250000  1
  Si  Si11  1  0.396066  0.394378  0.250025  1
  Si  Si12  1  0.394601  0.999995  0.749951  1
  Si  Si13  1  0.998231  0.391647  0.749964  1
  Si  Si14  1  0.606633  0.608412  0.749954  1
  Pb  Pb15  1  0.604718  0.999769  0.249844  1
