# generated using pymatgen
data_Li30Si5As3
_symmetry_space_group_name_H-M   'P 1'
_cell_length_a   9.14584776
_cell_length_b   9.15765926
_cell_length_c   9.13382017
_cell_angle_alpha   109.42032692
_cell_angle_beta   109.46282545
_cell_angle_gamma   109.48043317
_symmetry_Int_Tables_number   1
_chemical_formula_structural   Li30Si5As3
_chemical_formula_sum   'Li30 Si5 As3'
_cell_volume   589.26009037
_cell_formula_units_Z   1
loop_
 _symmetry_equiv_pos_site_id
 _symmetry_equiv_pos_as_xyz
  1  'x, y, z'
loop_
 _atom_site_type_symbol
 _atom_site_label
 _atom_site_symmetry_multiplicity
 _atom_site_fract_x
 _atom_site_fract_y
 _atom_site_fract_z
 _atom_site_occupancy
  Li  Li0  1  0.337959  0.805276  0.721332  1
  Li  Li1  1  0.118204  0.746109  0.871050  1
  Li  Li2  1  0.726830  0.342797  0.807925  1
  Li  Li3  1  0.618696  0.776517  0.586121  1
  Li  Li4  1  0.023998  0.912078  0.688017  1
  Li  Li5  1  0.084951  0.275856  0.116077  1
  Li  Li6  1  0.918278  0.693051  0.031689  1
  Li  Li7  1  0.272806  0.114378  0.086258  1
  Li  Li8  1  0.188681  0.413849  0.525858  1
  Li  Li9  1  0.777172  0.586246  0.615500  1
  Li  Li10  1  0.694000  0.031969  0.916170  1
  Li  Li11  1  0.534405  0.194887  0.417843  1
  Li  Li12  1  0.629531  0.380150  0.257453  1
  Li  Li13  1  0.464341  0.158787  0.881149  1
  Li  Li14  1  0.880601  0.126630  0.754017  1
  Li  Li15  1  0.974507  0.388396  0.661838  1
  Li  Li16  1  0.411400  0.526240  0.189385  1
  Li  Li17  1  0.111475  0.086308  0.274167  1
  Li  Li18  1  0.305545  0.839786  0.223616  1
  Li  Li19  1  0.756569  0.877776  0.127304  1
  Li  Li20  1  0.891519  0.474241  0.163719  1
  Li  Li21  1  0.587913  0.613916  0.774367  1
  Li  Li22  1  0.378851  0.657319  0.965866  1
  Li  Li23  1  0.808821  0.722751  0.341108  1
  Li  Li24  1  0.662895  0.971041  0.387739  1
  Li  Li25  1  0.157545  0.881943  0.468178  1
  Li  Li26  1  0.219936  0.307473  0.839090  1
  Li  Li27  1  0.370528  0.249626  0.621051  1
  Li  Li28  1  0.843159  0.225005  0.309863  1
  Li  Li29  1  0.247265  0.620327  0.373451  1
  Si  Si30  1  0.999458  0.083202  0.499158  1
  Si  Si31  1  0.999807  0.584798  0.499321  1
  Si  Si32  1  0.086649  0.501484  0.000850  1
  Si  Si33  1  0.417163  0.414810  0.415576  1
  Si  Si34  1  0.913449  0.914687  0.915760  1
  As  As35  1  0.500289  0.002427  0.587925  1
  As  As36  1  0.584086  0.497752  0.998535  1
  As  As37  1  0.500718  0.000111  0.085678  1
