# generated using pymatgen
data_V12ZnGa4Ni3N4
_symmetry_space_group_name_H-M   'P 1'
_cell_length_a   6.53956818
_cell_length_b   6.53956818
_cell_length_c   6.53956818
_cell_angle_alpha   90.06614699
_cell_angle_beta   89.93385301
_cell_angle_gamma   89.93385301
_symmetry_Int_Tables_number   1
_chemical_formula_structural   V12ZnGa4Ni3N4
_chemical_formula_sum   'V12 Zn1 Ga4 Ni3 N4'
_cell_volume   279.67029924
_cell_formula_units_Z   1
loop_
 _symmetry_equiv_pos_site_id
 _symmetry_equiv_pos_as_xyz
  1  'x, y, z'
loop_
 _atom_site_type_symbol
 _atom_site_label
 _atom_site_symmetry_multiplicity
 _atom_site_fract_x
 _atom_site_fract_y
 _atom_site_fract_z
 _atom_site_occupancy
  V  V0  1  0.787527  0.961630  0.375513  1
  V  V1  1  0.709158  0.039444  0.874221  1
  V  V2  1  0.209645  0.457618  0.124097  1
  V  V3  1  0.291205  0.536839  0.627188  1
  V  V4  1  0.960556  0.374221  0.790842  1
  V  V5  1  0.038370  0.875513  0.712473  1
  V  V6  1  0.463161  0.127188  0.208795  1
  V  V7  1  0.542382  0.624097  0.290355  1
  V  V8  1  0.375903  0.790355  0.957618  1
  V  V9  1  0.872812  0.708795  0.036839  1
  V  V10  1  0.124487  0.212473  0.461630  1
  V  V11  1  0.625779  0.290842  0.539444  1
  Zn  Zn12  1  0.178899  0.821101  0.321101  1
  Ga  Ga13  1  0.573518  0.426482  0.926482  1
  Ga  Ga14  1  0.431368  0.929128  0.578638  1
  Ga  Ga15  1  0.921362  0.568632  0.429128  1
  Ga  Ga16  1  0.070872  0.078638  0.068632  1
  Ni  Ni17  1  0.322903  0.178767  0.822571  1
  Ni  Ni18  1  0.821233  0.322571  0.177097  1
  Ni  Ni19  1  0.677429  0.677097  0.678767  1
  N  N20  1  0.875537  0.124463  0.624463  1
  N  N21  1  0.624450  0.875420  0.123135  1
  N  N22  1  0.124580  0.623135  0.875550  1
  N  N23  1  0.376865  0.375550  0.375420  1
