# generated using pymatgen
data_Nd20(OsRh3)3
_symmetry_space_group_name_H-M   'P 1'
_cell_length_a   11.26252600
_cell_length_b   11.26252600
_cell_length_c   6.58251800
_cell_angle_alpha   90.00000000
_cell_angle_beta   90.00000000
_cell_angle_gamma   90.00000000
_symmetry_Int_Tables_number   1
_chemical_formula_structural   Nd20(OsRh3)3
_chemical_formula_sum   'Nd20 Os3 Rh9'
_cell_volume   834.95615114
_cell_formula_units_Z   1
loop_
 _symmetry_equiv_pos_site_id
 _symmetry_equiv_pos_as_xyz
  1  'x, y, z'
loop_
 _atom_site_type_symbol
 _atom_site_label
 _atom_site_symmetry_multiplicity
 _atom_site_fract_x
 _atom_site_fract_y
 _atom_site_fract_z
 _atom_site_occupancy
  Nd  Nd0  1  0.089579  0.292854  0.120411  1
  Nd  Nd1  1  0.792854  0.410421  0.120411  1
  Nd  Nd2  1  0.207146  0.589579  0.120411  1
  Nd  Nd3  1  0.910421  0.707146  0.120411  1
  Nd  Nd4  1  0.412272  0.795088  0.382814  1
  Nd  Nd5  1  0.587728  0.204912  0.382814  1
  Nd  Nd6  1  0.295088  0.087728  0.382814  1
  Nd  Nd7  1  0.704912  0.912272  0.382814  1
  Nd  Nd8  1  0.411783  0.205183  0.882666  1
  Nd  Nd9  1  0.705183  0.088217  0.882666  1
  Nd  Nd10  1  0.294817  0.911783  0.882666  1
  Nd  Nd11  1  0.588217  0.794817  0.882666  1
  Nd  Nd12  1  0.089369  0.707013  0.614652  1
  Nd  Nd13  1  0.910631  0.292987  0.614652  1
  Nd  Nd14  1  0.207013  0.410631  0.614652  1
  Nd  Nd15  1  0.792987  0.589369  0.614652  1
  Nd  Nd16  1  0.000000  0.000000  0.998113  1
  Nd  Nd17  1  0.500000  0.500000  0.998113  1
  Nd  Nd18  1  0.500000  0.500000  0.498840  1
  Nd  Nd19  1  0.000000  0.000000  0.498840  1
  Os  Os20  1  0.000000  0.500000  0.375972  1
  Os  Os21  1  0.500000  0.000000  0.123185  1
  Os  Os22  1  0.500000  0.000000  0.624261  1
  Rh  Rh23  1  0.152023  0.846047  0.249979  1
  Rh  Rh24  1  0.346047  0.347977  0.249979  1
  Rh  Rh25  1  0.653953  0.652023  0.249979  1
  Rh  Rh26  1  0.847977  0.153953  0.249979  1
  Rh  Rh27  1  0.346138  0.651431  0.750711  1
  Rh  Rh28  1  0.151431  0.153862  0.750711  1
  Rh  Rh29  1  0.848569  0.846138  0.750711  1
  Rh  Rh30  1  0.653862  0.348569  0.750711  1
  Rh  Rh31  1  0.000000  0.500000  0.877741  1
