# generated using pymatgen
data_Tb4Th(CoO6)2
_symmetry_space_group_name_H-M   'P 1'
_cell_length_a   6.82437337
_cell_length_b   6.82437504
_cell_length_c   7.21664701
_cell_angle_alpha   74.73826320
_cell_angle_beta   74.73825002
_cell_angle_gamma   50.46520092
_symmetry_Int_Tables_number   1
_chemical_formula_structural   Tb4Th(CoO6)2
_chemical_formula_sum   'Tb4 Th1 Co2 O12'
_cell_volume   247.99141181
_cell_formula_units_Z   1
loop_
 _symmetry_equiv_pos_site_id
 _symmetry_equiv_pos_as_xyz
  1  'x, y, z'
loop_
 _atom_site_type_symbol
 _atom_site_label
 _atom_site_symmetry_multiplicity
 _atom_site_fract_x
 _atom_site_fract_y
 _atom_site_fract_z
 _atom_site_occupancy
  Tb  Tb0  1  0.696082  0.696082  0.654827  1
  Tb  Tb1  1  0.691417  0.691417  0.150839  1
  Tb  Tb2  1  0.308583  0.308583  0.849161  1
  Tb  Tb3  1  0.303918  0.303918  0.345173  1
  Th  Th4  1  0.000000  0.000000  0.000000  1
  Co  Co5  1  0.246495  0.753505  0.500000  1
  Co  Co6  1  0.753505  0.246495  0.500000  1
  O  O7  1  0.401926  0.904429  0.923664  1
  O  O8  1  0.582918  0.098993  0.579432  1
  O  O9  1  0.901007  0.417082  0.420568  1
  O  O10  1  0.095571  0.598074  0.076336  1
  O  O11  1  0.000227  0.000227  0.327611  1
  O  O12  1  0.500947  0.500947  0.675236  1
  O  O13  1  0.904429  0.401926  0.923664  1
  O  O14  1  0.098993  0.582918  0.579432  1
  O  O15  1  0.417082  0.901007  0.420568  1
  O  O16  1  0.598074  0.095571  0.076336  1
  O  O17  1  0.499053  0.499053  0.324764  1
  O  O18  1  0.999773  0.999773  0.672389  1
