# generated using pymatgen
data_Mg2SnPd3Pt2
_symmetry_space_group_name_H-M   'P 1'
_cell_length_a   4.18099400
_cell_length_b   5.63013100
_cell_length_c   11.07675000
_cell_angle_alpha   90.00000000
_cell_angle_beta   90.00000000
_cell_angle_gamma   90.00000000
_symmetry_Int_Tables_number   1
_chemical_formula_structural   Mg2SnPd3Pt2
_chemical_formula_sum   'Mg4 Sn2 Pd6 Pt4'
_cell_volume   260.74164323
_cell_formula_units_Z   2
loop_
 _symmetry_equiv_pos_site_id
 _symmetry_equiv_pos_as_xyz
  1  'x, y, z'
loop_
 _atom_site_type_symbol
 _atom_site_label
 _atom_site_symmetry_multiplicity
 _atom_site_fract_x
 _atom_site_fract_y
 _atom_site_fract_z
 _atom_site_occupancy
  Mg  Mg0  1  0.500000  0.178354  0.139957  1
  Mg  Mg1  1  0.500000  0.821646  0.860043  1
  Mg  Mg2  1  0.500000  0.321646  0.639957  1
  Mg  Mg3  1  0.500000  0.678354  0.360043  1
  Sn  Sn4  1  0.000000  0.000000  0.500000  1
  Sn  Sn5  1  0.000000  0.500000  0.000000  1
  Pd  Pd6  1  0.000000  0.430969  0.244587  1
  Pd  Pd7  1  0.000000  0.569031  0.755413  1
  Pd  Pd8  1  0.000000  0.069031  0.744587  1
  Pd  Pd9  1  0.000000  0.930969  0.255413  1
  Pd  Pd10  1  0.000000  0.000000  0.000000  1
  Pd  Pd11  1  0.000000  0.500000  0.500000  1
  Pt  Pt12  1  0.500000  0.201801  0.384483  1
  Pt  Pt13  1  0.500000  0.798199  0.615517  1
  Pt  Pt14  1  0.500000  0.298199  0.884483  1
  Pt  Pt15  1  0.500000  0.701801  0.115517  1
