# generated using pymatgen
data_Dy16MgIn3Rh4
_symmetry_space_group_name_H-M   'P 1'
_cell_length_a   9.67699657
_cell_length_b   9.67080089
_cell_length_c   9.67566164
_cell_angle_alpha   60.02102917
_cell_angle_beta   60.00003859
_cell_angle_gamma   59.98294869
_symmetry_Int_Tables_number   1
_chemical_formula_structural   Dy16MgIn3Rh4
_chemical_formula_sum   'Dy16 Mg1 In3 Rh4'
_cell_volume   640.29747579
_cell_formula_units_Z   1
loop_
 _symmetry_equiv_pos_site_id
 _symmetry_equiv_pos_as_xyz
  1  'x, y, z'
loop_
 _atom_site_type_symbol
 _atom_site_label
 _atom_site_symmetry_multiplicity
 _atom_site_fract_x
 _atom_site_fract_y
 _atom_site_fract_z
 _atom_site_occupancy
  Dy  Dy0  1  0.688339  0.311200  0.312100  1
  Dy  Dy1  1  0.687065  0.688885  0.314189  1
  Dy  Dy2  1  0.310030  0.688820  0.314132  1
  Dy  Dy3  1  0.936821  0.936345  0.562155  1
  Dy  Dy4  1  0.151003  0.148462  0.549659  1
  Dy  Dy5  1  0.564556  0.936503  0.562128  1
  Dy  Dy6  1  0.153935  0.151295  0.151358  1
  Dy  Dy7  1  0.308324  0.310506  0.691840  1
  Dy  Dy8  1  0.938165  0.562525  0.561219  1
  Dy  Dy9  1  0.562860  0.562814  0.936384  1
  Dy  Dy10  1  0.563866  0.937585  0.934759  1
  Dy  Dy11  1  0.937828  0.562837  0.936396  1
  Dy  Dy12  1  0.151589  0.547120  0.149602  1
  Dy  Dy13  1  0.309346  0.690049  0.691370  1
  Dy  Dy14  1  0.689245  0.310625  0.691862  1
  Dy  Dy15  1  0.543500  0.151230  0.151387  1
  Mg  Mg16  1  0.922621  0.923858  0.230926  1
  In  In17  1  0.247519  0.916935  0.918804  1
  In  In18  1  0.916579  0.247085  0.919702  1
  In  In19  1  0.916680  0.917032  0.918805  1
  Rh  Rh20  1  0.357175  0.356920  0.358764  1
  Rh  Rh21  1  0.927059  0.356932  0.358719  1
  Rh  Rh22  1  0.358441  0.357957  0.925247  1
  Rh  Rh23  1  0.357457  0.926482  0.358494  1
