# generated using pymatgen
data_Sr5Si9As3Ir19
_symmetry_space_group_name_H-M   'P 1'
_cell_length_a   13.07977500
_cell_length_b   13.07977625
_cell_length_c   4.04029000
_cell_angle_alpha   90.00000000
_cell_angle_beta   90.00000000
_cell_angle_gamma   120.00000443
_symmetry_Int_Tables_number   1
_chemical_formula_structural   Sr5Si9As3Ir19
_chemical_formula_sum   'Sr5 Si9 As3 Ir19'
_cell_volume   598.60968466
_cell_formula_units_Z   1
loop_
 _symmetry_equiv_pos_site_id
 _symmetry_equiv_pos_as_xyz
  1  'x, y, z'
loop_
 _atom_site_type_symbol
 _atom_site_label
 _atom_site_symmetry_multiplicity
 _atom_site_fract_x
 _atom_site_fract_y
 _atom_site_fract_z
 _atom_site_occupancy
  Sr  Sr0  1  0.000000  0.813753  0.500000  1
  Sr  Sr1  1  0.186247  0.186247  0.500000  1
  Sr  Sr2  1  0.813753  0.000000  0.500000  1
  Sr  Sr3  1  0.333333  0.666667  0.000000  1
  Sr  Sr4  1  0.666667  0.333333  0.000000  1
  Si  Si5  1  0.518958  0.687122  0.500000  1
  Si  Si6  1  0.312878  0.831836  0.500000  1
  Si  Si7  1  0.168164  0.481042  0.500000  1
  Si  Si8  1  0.481042  0.168164  0.500000  1
  Si  Si9  1  0.687122  0.518958  0.500000  1
  Si  Si10  1  0.831836  0.312878  0.500000  1
  Si  Si11  1  0.000000  0.627491  0.000000  1
  Si  Si12  1  0.372509  0.372509  0.000000  1
  Si  Si13  1  0.627491  0.000000  0.000000  1
  As  As14  1  0.000000  0.183752  0.000000  1
  As  As15  1  0.816248  0.816248  0.000000  1
  As  As16  1  0.183752  0.000000  0.000000  1
  Ir  Ir17  1  0.000000  0.290843  0.500000  1
  Ir  Ir18  1  0.709157  0.709157  0.500000  1
  Ir  Ir19  1  0.290843  0.000000  0.500000  1
  Ir  Ir20  1  0.617221  0.802317  0.000000  1
  Ir  Ir21  1  0.197683  0.814904  0.000000  1
  Ir  Ir22  1  0.185096  0.382779  0.000000  1
  Ir  Ir23  1  0.382779  0.185096  0.000000  1
  Ir  Ir24  1  0.802317  0.617221  0.000000  1
  Ir  Ir25  1  0.814904  0.197683  0.000000  1
  Ir  Ir26  1  0.513430  0.875325  0.500000  1
  Ir  Ir27  1  0.124675  0.638105  0.500000  1
  Ir  Ir28  1  0.361895  0.486570  0.500000  1
  Ir  Ir29  1  0.486570  0.361895  0.500000  1
  Ir  Ir30  1  0.875325  0.513430  0.500000  1
  Ir  Ir31  1  0.638105  0.124675  0.500000  1
  Ir  Ir32  1  0.000000  0.000000  0.000000  1
  Ir  Ir33  1  0.000000  0.447538  0.000000  1
  Ir  Ir34  1  0.552462  0.552462  0.000000  1
  Ir  Ir35  1  0.447538  0.000000  0.000000  1
