# generated using pymatgen
data_Sc8CrSi16Ru11
_symmetry_space_group_name_H-M   'P 1'
_cell_length_a   9.90236551
_cell_length_b   9.90415530
_cell_length_c   13.38649531
_cell_angle_alpha   53.92750583
_cell_angle_beta   53.97066404
_cell_angle_gamma   31.10400704
_symmetry_Int_Tables_number   1
_chemical_formula_structural   Sc8CrSi16Ru11
_chemical_formula_sum   'Sc8 Cr1 Si16 Ru11'
_cell_volume   536.96924287
_cell_formula_units_Z   1
loop_
 _symmetry_equiv_pos_site_id
 _symmetry_equiv_pos_as_xyz
  1  'x, y, z'
loop_
 _atom_site_type_symbol
 _atom_site_label
 _atom_site_symmetry_multiplicity
 _atom_site_fract_x
 _atom_site_fract_y
 _atom_site_fract_z
 _atom_site_occupancy
  Sc  Sc0  1  0.038681  0.289056  0.639709  1
  Sc  Sc1  1  0.711994  0.964086  0.856703  1
  Sc  Sc2  1  0.962927  0.707931  0.360602  1
  Sc  Sc3  1  0.290011  0.037805  0.140637  1
  Sc  Sc4  1  0.294587  0.561969  0.644608  1
  Sc  Sc5  1  0.439120  0.704112  0.854405  1
  Sc  Sc6  1  0.703917  0.437089  0.359983  1
  Sc  Sc7  1  0.559756  0.296321  0.143968  1
  Cr  Cr8  1  0.895823  0.144901  0.585966  1
  Si  Si9  1  0.975627  0.252417  0.893711  1
  Si  Si10  1  0.745900  0.032840  0.605469  1
  Si  Si11  1  0.025355  0.747926  0.106091  1
  Si  Si12  1  0.249936  0.975264  0.397266  1
  Si  Si13  1  0.140837  0.385975  0.900276  1
  Si  Si14  1  0.614569  0.858496  0.599445  1
  Si  Si15  1  0.859909  0.611787  0.101223  1
  Si  Si16  1  0.388547  0.138366  0.399534  1
  Si  Si17  1  0.079332  0.575832  0.567770  1
  Si  Si18  1  0.426908  0.917734  0.932581  1
  Si  Si19  1  0.918442  0.422181  0.433318  1
  Si  Si20  1  0.574598  0.081947  0.066388  1
  Si  Si21  1  0.618626  0.380012  0.748308  1
  Si  Si22  1  0.384231  0.616459  0.250367  1
  Si  Si23  1  0.121640  0.878292  0.747422  1
  Si  Si24  1  0.871863  0.127603  0.250601  1
  Ru  Ru25  1  0.855847  0.106137  0.914400  1
  Ru  Ru26  1  0.103928  0.857240  0.414247  1
  Ru  Ru27  1  0.142819  0.895790  0.086609  1
  Ru  Ru28  1  0.831930  0.647169  0.781840  1
  Ru  Ru29  1  0.353389  0.165958  0.718344  1
  Ru  Ru30  1  0.170405  0.353189  0.218078  1
  Ru  Ru31  1  0.647671  0.831579  0.280702  1
  Ru  Ru32  1  0.248342  0.506523  0.933116  1
  Ru  Ru33  1  0.492905  0.750348  0.566645  1
  Ru  Ru34  1  0.752769  0.490886  0.067536  1
  Ru  Ru35  1  0.506862  0.248782  0.432135  1
