# generated using pymatgen
data_Er2SnAsP5Rh12
_symmetry_space_group_name_H-M   'P 1'
_cell_length_a   9.83522578
_cell_length_b   9.86860748
_cell_length_c   3.88991187
_cell_angle_alpha   89.06240029
_cell_angle_beta   90.83313769
_cell_angle_gamma   120.92930264
_symmetry_Int_Tables_number   1
_chemical_formula_structural   Er2SnAsP5Rh12
_chemical_formula_sum   'Er2 Sn1 As1 P5 Rh12'
_cell_volume   323.81566907
_cell_formula_units_Z   1
loop_
 _symmetry_equiv_pos_site_id
 _symmetry_equiv_pos_as_xyz
  1  'x, y, z'
loop_
 _atom_site_type_symbol
 _atom_site_label
 _atom_site_symmetry_multiplicity
 _atom_site_fract_x
 _atom_site_fract_y
 _atom_site_fract_z
 _atom_site_occupancy
  Er  Er0  1  0.336259  0.669503  0.755718  1
  Er  Er1  1  0.666952  0.331086  0.240817  1
  Sn  Sn2  1  0.002623  0.002810  0.530550  1
  As  As3  1  0.404266  0.286014  0.736527  1
  P  P4  1  0.712982  0.119021  0.749429  1
  P  P5  1  0.878322  0.592860  0.742677  1
  P  P6  1  0.598567  0.714044  0.259162  1
  P  P7  1  0.287930  0.876296  0.246310  1
  P  P8  1  0.119623  0.410642  0.258527  1
  Rh  Rh9  1  0.453986  0.058676  0.739210  1
  Rh  Rh10  1  0.926150  0.386379  0.747622  1
  Rh  Rh11  1  0.620693  0.557636  0.743229  1
  Rh  Rh12  1  0.546598  0.928732  0.255246  1
  Rh  Rh13  1  0.067411  0.612042  0.248897  1
  Rh  Rh14  1  0.384373  0.457736  0.251165  1
  Rh  Rh15  1  0.152893  0.294510  0.767873  1
  Rh  Rh16  1  0.713752  0.879655  0.770460  1
  Rh  Rh17  1  0.124595  0.832513  0.745888  1
  Rh  Rh18  1  0.846494  0.716971  0.233834  1
  Rh  Rh19  1  0.279029  0.107899  0.226943  1
  Rh  Rh20  1  0.876501  0.164975  0.249917  1
