# generated using pymatgen
data_HoEr9(SnSb)3
_symmetry_space_group_name_H-M   'P 1'
_cell_length_a   8.89320107
_cell_length_b   8.87756836
_cell_length_c   6.39042900
_cell_angle_alpha   90.00000000
_cell_angle_beta   90.00000000
_cell_angle_gamma   119.85437701
_symmetry_Int_Tables_number   1
_chemical_formula_structural   HoEr9(SnSb)3
_chemical_formula_sum   'Ho1 Er9 Sn3 Sb3'
_cell_volume   437.57066092
_cell_formula_units_Z   1
loop_
 _symmetry_equiv_pos_site_id
 _symmetry_equiv_pos_as_xyz
  1  'x, y, z'
loop_
 _atom_site_type_symbol
 _atom_site_label
 _atom_site_symmetry_multiplicity
 _atom_site_fract_x
 _atom_site_fract_y
 _atom_site_fract_z
 _atom_site_occupancy
  Ho  Ho0  1  0.001245  0.242154  0.250000  1
  Er  Er1  1  0.001535  0.760783  0.750000  1
  Er  Er2  1  0.758284  0.757058  0.250000  1
  Er  Er3  1  0.757391  0.999990  0.750000  1
  Er  Er4  1  0.241940  0.240946  0.750000  1
  Er  Er5  1  0.239686  0.999873  0.250000  1
  Er  Er6  1  0.332449  0.666346  0.500385  1
  Er  Er7  1  0.666701  0.333506  0.999711  1
  Er  Er8  1  0.666701  0.333506  0.500289  1
  Er  Er9  1  0.332449  0.666346  0.999615  1
  Sn  Sn10  1  0.392504  0.999075  0.750000  1
  Sn  Sn11  1  0.392113  0.391736  0.250000  1
  Sn  Sn12  1  0.000237  0.608031  0.250000  1
  Sb  Sb13  1  0.999114  0.391230  0.750000  1
  Sb  Sb14  1  0.609303  0.609342  0.750000  1
  Sb  Sb15  1  0.608348  0.000077  0.250000  1
