# generated using pymatgen
data_Zr3BeSiGeRu3
_symmetry_space_group_name_H-M   'P 1'
_cell_length_a   6.83486500
_cell_length_b   6.83486636
_cell_length_c   3.48971300
_cell_angle_alpha   90.00000000
_cell_angle_beta   90.00000000
_cell_angle_gamma   119.99999827
_symmetry_Int_Tables_number   1
_chemical_formula_structural   Zr3BeSiGeRu3
_chemical_formula_sum   'Zr3 Be1 Si1 Ge1 Ru3'
_cell_volume   141.18232145
_cell_formula_units_Z   1
loop_
 _symmetry_equiv_pos_site_id
 _symmetry_equiv_pos_as_xyz
  1  'x, y, z'
loop_
 _atom_site_type_symbol
 _atom_site_label
 _atom_site_symmetry_multiplicity
 _atom_site_fract_x
 _atom_site_fract_y
 _atom_site_fract_z
 _atom_site_occupancy
  Zr  Zr0  1  0.393493  0.398275  0.500000  1
  Zr  Zr1  1  0.601725  0.995218  0.500000  1
  Zr  Zr2  1  0.004782  0.606507  0.500000  1
  Be  Be3  1  0.000000  0.000000  0.500000  1
  Si  Si4  1  0.333333  0.666667  0.000000  1
  Ge  Ge5  1  0.666667  0.333333  0.000000  1
  Ru  Ru6  1  0.005253  0.243286  0.000000  1
  Ru  Ru7  1  0.238033  0.994747  0.000000  1
  Ru  Ru8  1  0.756714  0.761967  0.000000  1
