# generated using pymatgen
data_Er4TmIrOs
_symmetry_space_group_name_H-M   'P 1'
_cell_length_a   6.36517952
_cell_length_b   7.28931437
_cell_length_c   8.33612119
_cell_angle_alpha   96.68211612
_cell_angle_beta   112.44416458
_cell_angle_gamma   89.99999847
_symmetry_Int_Tables_number   1
_chemical_formula_structural   Er4TmIrOs
_chemical_formula_sum   'Er8 Tm2 Ir2 Os2'
_cell_volume   354.63565192
_cell_formula_units_Z   2
loop_
 _symmetry_equiv_pos_site_id
 _symmetry_equiv_pos_as_xyz
  1  'x, y, z'
loop_
 _atom_site_type_symbol
 _atom_site_label
 _atom_site_symmetry_multiplicity
 _atom_site_fract_x
 _atom_site_fract_y
 _atom_site_fract_z
 _atom_site_occupancy
  Er  Er0  1  0.969294  0.916198  0.178924  1
  Er  Er1  1  0.790369  0.583802  0.821076  1
  Er  Er2  1  0.026408  0.081957  0.816599  1
  Er  Er3  1  0.209811  0.418043  0.183401  1
  Er  Er4  1  0.652749  0.817767  0.440030  1
  Er  Er5  1  0.212720  0.682233  0.559970  1
  Er  Er6  1  0.350288  0.178994  0.561725  1
  Er  Er7  1  0.788563  0.321006  0.438275  1
  Tm  Tm8  1  0.422928  0.750000  0.000000  1
  Tm  Tm9  1  0.578233  0.250000  0.000000  1
  Ir  Ir10  1  0.174045  0.423339  0.780358  1
  Ir  Ir11  1  0.393686  0.076661  0.219642  1
  Os  Os12  1  0.823861  0.574964  0.216816  1
  Os  Os13  1  0.607045  0.925036  0.783184  1
