# generated using pymatgen
data_Hf6Ti4Si5As
_symmetry_space_group_name_H-M   'P 1'
_cell_length_a   7.75464500
_cell_length_b   7.75975227
_cell_length_c   5.27125500
_cell_angle_alpha   90.00000000
_cell_angle_beta   90.00000000
_cell_angle_gamma   119.97823442
_symmetry_Int_Tables_number   1
_chemical_formula_structural   Hf6Ti4Si5As
_chemical_formula_sum   'Hf6 Ti4 Si5 As1'
_cell_volume   274.75755623
_cell_formula_units_Z   1
loop_
 _symmetry_equiv_pos_site_id
 _symmetry_equiv_pos_as_xyz
  1  'x, y, z'
loop_
 _atom_site_type_symbol
 _atom_site_label
 _atom_site_symmetry_multiplicity
 _atom_site_fract_x
 _atom_site_fract_y
 _atom_site_fract_z
 _atom_site_occupancy
  Hf  Hf0  1  0.248802  0.000000  0.250000  1
  Hf  Hf1  1  0.251495  0.252198  0.750000  1
  Hf  Hf2  1  0.999297  0.747802  0.750000  1
  Hf  Hf3  1  0.003894  0.254596  0.250000  1
  Hf  Hf4  1  0.749298  0.745404  0.250000  1
  Hf  Hf5  1  0.748455  0.000000  0.750000  1
  Ti  Ti6  1  0.332552  0.665598  0.998730  1
  Ti  Ti7  1  0.666955  0.334402  0.501270  1
  Ti  Ti8  1  0.666955  0.334402  0.998730  1
  Ti  Ti9  1  0.332552  0.665598  0.501270  1
  Si  Si10  1  0.602701  0.602761  0.750000  1
  Si  Si11  1  0.999940  0.397239  0.750000  1
  Si  Si12  1  0.000211  0.602080  0.250000  1
  Si  Si13  1  0.398131  0.397920  0.250000  1
  Si  Si14  1  0.394235  0.000000  0.750000  1
  As  As15  1  0.604528  0.000000  0.250000  1
