# generated using pymatgen
data_BrCl30
_symmetry_space_group_name_H-M   'P 1'
_cell_length_a   13.79683327
_cell_length_b   13.79683306
_cell_length_c   16.13669492
_cell_angle_alpha   83.65946465
_cell_angle_beta   83.65946310
_cell_angle_gamma   124.50341890
_symmetry_Int_Tables_number   1
_chemical_formula_structural   BrCl30
_chemical_formula_sum   'Br1 Cl30'
_cell_volume   2459.09108333
_cell_formula_units_Z   1
loop_
 _symmetry_equiv_pos_site_id
 _symmetry_equiv_pos_as_xyz
  1  'x, y, z'
loop_
 _atom_site_type_symbol
 _atom_site_label
 _atom_site_symmetry_multiplicity
 _atom_site_fract_x
 _atom_site_fract_y
 _atom_site_fract_z
 _atom_site_occupancy
  Br  Br0  1  0.000000  0.000000  0.000000  1
  Cl  Cl1  1  0.943332  0.943332  0.159405  1
  Cl  Cl2  1  0.056668  0.056668  0.840595  1
  Cl  Cl3  1  0.061002  0.197621  0.005473  1
  Cl  Cl4  1  0.938998  0.802379  0.994527  1
  Cl  Cl5  1  0.197621  0.061002  0.005473  1
  Cl  Cl6  1  0.802379  0.938998  0.994527  1
  Cl  Cl7  1  0.203592  0.743297  0.063418  1
  Cl  Cl8  1  0.796408  0.256703  0.936582  1
  Cl  Cl9  1  0.701609  0.076730  0.262723  1
  Cl  Cl10  1  0.256703  0.796408  0.936582  1
  Cl  Cl11  1  0.298391  0.923270  0.737277  1
  Cl  Cl12  1  0.743297  0.203592  0.063418  1
  Cl  Cl13  1  0.977645  0.198053  0.782198  1
  Cl  Cl14  1  0.923270  0.298391  0.737277  1
  Cl  Cl15  1  0.022355  0.801947  0.217802  1
  Cl  Cl16  1  0.076730  0.701609  0.262723  1
  Cl  Cl17  1  0.801947  0.022355  0.217802  1
  Cl  Cl18  1  0.198053  0.977645  0.782198  1
  Cl  Cl19  1  0.465189  0.546636  0.259434  1
  Cl  Cl20  1  0.534811  0.453364  0.740566  1
  Cl  Cl21  1  0.507524  0.206368  0.451304  1
  Cl  Cl22  1  0.453364  0.534811  0.740566  1
  Cl  Cl23  1  0.492476  0.793632  0.548696  1
  Cl  Cl24  1  0.546636  0.465189  0.259434  1
  Cl  Cl25  1  0.239740  0.429472  0.543849  1
  Cl  Cl26  1  0.793632  0.492476  0.548696  1
  Cl  Cl27  1  0.760260  0.570528  0.456151  1
  Cl  Cl28  1  0.206368  0.507524  0.451304  1
  Cl  Cl29  1  0.570528  0.760260  0.456151  1
  Cl  Cl30  1  0.429472  0.239740  0.543849  1
