# generated using pymatgen
data_Tb5Y3(LuIn5)4
_symmetry_space_group_name_H-M   'P 1'
_cell_length_a   6.54511400
_cell_length_b   10.36002400
_cell_length_c   12.19351900
_cell_angle_alpha   90.00030990
_cell_angle_beta   90.00160887
_cell_angle_gamma   90.00287357
_symmetry_Int_Tables_number   1
_chemical_formula_structural   Tb5Y3(LuIn5)4
_chemical_formula_sum   'Tb5 Y3 Lu4 In20'
_cell_volume   826.81250375
_cell_formula_units_Z   1
loop_
 _symmetry_equiv_pos_site_id
 _symmetry_equiv_pos_as_xyz
  1  'x, y, z'
loop_
 _atom_site_type_symbol
 _atom_site_label
 _atom_site_symmetry_multiplicity
 _atom_site_fract_x
 _atom_site_fract_y
 _atom_site_fract_z
 _atom_site_occupancy
  Tb  Tb0  1  0.887193  0.488893  0.142015  1
  Tb  Tb1  1  0.612803  0.011108  0.642008  1
  Tb  Tb2  1  0.112805  0.988893  0.857990  1
  Tb  Tb3  1  0.387204  0.511105  0.357987  1
  Tb  Tb4  1  0.112801  0.511106  0.857989  1
  Y  Y5  1  0.387203  0.988887  0.357987  1
  Y  Y6  1  0.887194  0.011110  0.142014  1
  Y  Y7  1  0.612800  0.488892  0.642011  1
  Lu  Lu8  1  0.352751  0.749994  0.052402  1
  Lu  Lu9  1  0.147256  0.750011  0.552395  1
  Lu  Lu10  1  0.647247  0.249995  0.947603  1
  Lu  Lu11  1  0.852741  0.250008  0.447601  1
  In  In12  1  0.610010  0.749988  0.505409  1
  In  In13  1  0.889981  0.750021  0.005410  1
  In  In14  1  0.389995  0.249989  0.494590  1
  In  In15  1  0.110010  0.249991  0.994612  1
  In  In16  1  0.650369  0.750014  0.241782  1
  In  In17  1  0.849629  0.749994  0.741777  1
  In  In18  1  0.349646  0.250004  0.758213  1
  In  In19  1  0.150368  0.249984  0.258219  1
  In  In20  1  0.117307  0.750020  0.278017  1
  In  In21  1  0.382706  0.749996  0.778014  1
  In  In22  1  0.882687  0.250018  0.721981  1
  In  In23  1  0.617306  0.249982  0.221981  1
  In  In24  1  0.871727  0.543206  0.401726  1
  In  In25  1  0.628274  0.956799  0.901727  1
  In  In26  1  0.128274  0.043201  0.598276  1
  In  In27  1  0.371735  0.456789  0.098276  1
  In  In28  1  0.128280  0.456797  0.598285  1
  In  In29  1  0.371720  0.043202  0.098297  1
  In  In30  1  0.871720  0.956801  0.401704  1
  In  In31  1  0.628258  0.543204  0.901704  1
