# generated using pymatgen
data_YTl(SeO3)2
_symmetry_space_group_name_H-M   'P 1'
_cell_length_a   5.71313200
_cell_length_b   7.25171400
_cell_length_c   17.77480600
_cell_angle_alpha   90.00000000
_cell_angle_beta   90.00000000
_cell_angle_gamma   90.00000000
_symmetry_Int_Tables_number   1
_chemical_formula_structural   YTl(SeO3)2
_chemical_formula_sum   'Y4 Tl4 Se8 O24'
_cell_volume   736.41020028
_cell_formula_units_Z   4
loop_
 _symmetry_equiv_pos_site_id
 _symmetry_equiv_pos_as_xyz
  1  'x, y, z'
loop_
 _atom_site_type_symbol
 _atom_site_label
 _atom_site_symmetry_multiplicity
 _atom_site_fract_x
 _atom_site_fract_y
 _atom_site_fract_z
 _atom_site_occupancy
  Y  Y0  1  0.750000  0.319669  0.865716  1
  Y  Y1  1  0.750000  0.180331  0.365716  1
  Y  Y2  1  0.250000  0.680331  0.134284  1
  Y  Y3  1  0.250000  0.819669  0.634284  1
  Tl  Tl4  1  0.750000  0.114873  0.086347  1
  Tl  Tl5  1  0.750000  0.385127  0.586347  1
  Tl  Tl6  1  0.250000  0.885127  0.913653  1
  Tl  Tl7  1  0.250000  0.614873  0.413653  1
  Se  Se8  1  0.250000  0.352614  0.732001  1
  Se  Se9  1  0.250000  0.147386  0.232001  1
  Se  Se10  1  0.750000  0.647386  0.267999  1
  Se  Se11  1  0.750000  0.852614  0.767999  1
  Se  Se12  1  0.250000  0.377604  0.974037  1
  Se  Se13  1  0.250000  0.122396  0.474037  1
  Se  Se14  1  0.750000  0.622396  0.025963  1
  Se  Se15  1  0.750000  0.877604  0.525963  1
  O  O16  1  0.250000  0.522397  0.664388  1
  O  O17  1  0.250000  0.977603  0.164388  1
  O  O18  1  0.750000  0.477603  0.335612  1
  O  O19  1  0.750000  0.022397  0.835612  1
  O  O20  1  0.480307  0.419034  0.787763  1
  O  O21  1  0.019693  0.080966  0.287763  1
  O  O22  1  0.980307  0.580966  0.212237  1
  O  O23  1  0.519693  0.919034  0.712237  1
  O  O24  1  0.519693  0.580966  0.212237  1
  O  O25  1  0.980307  0.919034  0.712237  1
  O  O26  1  0.019693  0.419034  0.787763  1
  O  O27  1  0.480307  0.080966  0.287763  1
  O  O28  1  0.250000  0.400623  0.070118  1
  O  O29  1  0.250000  0.099377  0.570118  1
  O  O30  1  0.750000  0.599377  0.929882  1
  O  O31  1  0.750000  0.900623  0.429882  1
  O  O32  1  0.481913  0.228312  0.958448  1
  O  O33  1  0.018087  0.271688  0.458448  1
  O  O34  1  0.981913  0.771688  0.041552  1
  O  O35  1  0.518087  0.728312  0.541552  1
  O  O36  1  0.518087  0.771688  0.041552  1
  O  O37  1  0.981913  0.728312  0.541552  1
  O  O38  1  0.018087  0.228312  0.958448  1
  O  O39  1  0.481913  0.271688  0.458448  1
