# generated using pymatgen
data_La4Co5PtO19
_symmetry_space_group_name_H-M   'P 1'
_cell_length_a   7.59777669
_cell_length_b   7.63388879
_cell_length_c   7.59777714
_cell_angle_alpha   109.45682026
_cell_angle_beta   108.77028434
_cell_angle_gamma   109.99394050
_symmetry_Int_Tables_number   1
_chemical_formula_structural   La4Co5PtO19
_chemical_formula_sum   'La4 Co5 Pt1 O19'
_cell_volume   340.00694105
_cell_formula_units_Z   1
loop_
 _symmetry_equiv_pos_site_id
 _symmetry_equiv_pos_as_xyz
  1  'x, y, z'
loop_
 _atom_site_type_symbol
 _atom_site_label
 _atom_site_symmetry_multiplicity
 _atom_site_fract_x
 _atom_site_fract_y
 _atom_site_fract_z
 _atom_site_occupancy
  La  La0  1  0.994612  0.996475  0.327357  1
  La  La1  1  0.994472  0.326925  0.008727  1
  La  La2  1  0.681802  0.673075  0.667547  1
  La  La3  1  0.330881  0.003525  0.998137  1
  Co  Co4  1  0.837518  0.338484  0.493584  1
  Co  Co5  1  0.501082  0.153486  0.656060  1
  Co  Co6  1  0.155100  0.661516  0.499033  1
  Co  Co7  1  0.502574  0.846514  0.347596  1
  Co  Co8  1  0.661427  0.500000  0.161427  1
  Pt  Pt9  1  0.340702  0.500000  0.840702  1
  O  O10  1  0.361773  0.000000  0.361773  1
  O  O11  1  0.353767  0.348739  0.008952  1
  O  O12  1  0.004090  0.646279  0.645873  1
  O  O13  1  0.660213  0.651261  0.005028  1
  O  O14  1  0.999594  0.353721  0.357811  1
  O  O15  1  0.645340  0.000000  0.645340  1
  O  O16  1  0.999783  0.000000  0.999783  1
  O  O17  1  0.365558  0.314757  0.608720  1
  O  O18  1  0.027183  0.288810  0.673743  1
  O  O19  1  0.740555  0.376080  0.693854  1
  O  O20  1  0.384932  0.711190  0.738372  1
  O  O21  1  0.255771  0.960972  0.636859  1
  O  O22  1  0.622993  0.362897  0.320251  1
  O  O23  1  0.317773  0.623920  0.364476  1
  O  O24  1  0.675887  0.039028  0.294798  1
  O  O25  1  0.957354  0.637103  0.260096  1
  O  O26  1  0.697500  0.741698  0.377499  1
  O  O27  1  0.635802  0.258302  0.955801  1
  O  O28  1  0.293962  0.685243  0.050800  1
