# generated using pymatgen
data_BaSmZn3FeO7
_symmetry_space_group_name_H-M   'P 1'
_cell_length_a   6.47345200
_cell_length_b   6.47344558
_cell_length_c   10.62362700
_cell_angle_alpha   90.00003540
_cell_angle_beta   89.99994689
_cell_angle_gamma   120.00006760
_symmetry_Int_Tables_number   1
_chemical_formula_structural   BaSmZn3FeO7
_chemical_formula_sum   'Ba2 Sm2 Zn6 Fe2 O14'
_cell_volume   385.54456308
_cell_formula_units_Z   2
loop_
 _symmetry_equiv_pos_site_id
 _symmetry_equiv_pos_as_xyz
  1  'x, y, z'
loop_
 _atom_site_type_symbol
 _atom_site_label
 _atom_site_symmetry_multiplicity
 _atom_site_fract_x
 _atom_site_fract_y
 _atom_site_fract_z
 _atom_site_occupancy
  Ba  Ba0  1  0.666682  0.333363  0.484626  1
  Ba  Ba1  1  0.333320  0.666638  0.984628  1
  Sm  Sm2  1  0.333333  0.666667  0.327143  1
  Sm  Sm3  1  0.666667  0.333334  0.827146  1
  Zn  Zn4  1  0.829016  0.170694  0.141252  1
  Zn  Zn5  1  0.341679  0.170977  0.141252  1
  Zn  Zn6  1  0.829300  0.658318  0.141253  1
  Zn  Zn7  1  0.170986  0.829307  0.641252  1
  Zn  Zn8  1  0.658322  0.829024  0.641253  1
  Zn  Zn9  1  0.170699  0.341679  0.641254  1
  Fe  Fe10  1  0.999999  0.999999  0.391167  1
  Fe  Fe11  1  0.000001  0.000001  0.891168  1
  O  O12  1  0.492651  0.985622  0.187554  1
  O  O13  1  0.492976  0.507340  0.187561  1
  O  O14  1  0.014365  0.507018  0.187561  1
  O  O15  1  0.999999  0.999998  0.208358  1
  O  O16  1  0.681856  0.840085  0.451089  1
  O  O17  1  0.159889  0.841744  0.451089  1
  O  O18  1  0.158242  0.318141  0.451092  1
  O  O19  1  0.507351  0.014378  0.687553  1
  O  O20  1  0.985634  0.492981  0.687560  1
  O  O21  1  0.507025  0.492659  0.687561  1
  O  O22  1  0.000001  0.000002  0.708358  1
  O  O23  1  0.840112  0.158255  0.951090  1
  O  O24  1  0.318144  0.159916  0.951090  1
  O  O25  1  0.841759  0.681858  0.951092  1
