# generated using pymatgen
data_NdTh3(CdPd2)2
_symmetry_space_group_name_H-M   'P 1'
_cell_length_a   7.93629509
_cell_length_b   7.93629509
_cell_length_c   3.84889300
_cell_angle_alpha   90.00000000
_cell_angle_beta   90.00000000
_cell_angle_gamma   91.06862579
_symmetry_Int_Tables_number   1
_chemical_formula_structural   NdTh3(CdPd2)2
_chemical_formula_sum   'Nd1 Th3 Cd2 Pd4'
_cell_volume   242.37951450
_cell_formula_units_Z   1
loop_
 _symmetry_equiv_pos_site_id
 _symmetry_equiv_pos_as_xyz
  1  'x, y, z'
loop_
 _atom_site_type_symbol
 _atom_site_label
 _atom_site_symmetry_multiplicity
 _atom_site_fract_x
 _atom_site_fract_y
 _atom_site_fract_z
 _atom_site_occupancy
  Nd  Nd0  1  0.825011  0.674989  0.500000  1
  Th  Th1  1  0.674750  0.173088  0.500000  1
  Th  Th2  1  0.326912  0.825250  0.500000  1
  Th  Th3  1  0.172736  0.327264  0.500000  1
  Cd  Cd4  1  0.999618  0.997151  0.000000  1
  Cd  Cd5  1  0.502849  0.500382  0.000000  1
  Pd  Pd6  1  0.134118  0.624855  0.000000  1
  Pd  Pd7  1  0.875145  0.365882  0.000000  1
  Pd  Pd8  1  0.619923  0.880077  0.000000  1
  Pd  Pd9  1  0.368940  0.131060  0.000000  1
