# generated using pymatgen
data_TbSmU(GaRu)3
_symmetry_space_group_name_H-M   'P 1'
_cell_length_a   6.93480768
_cell_length_b   6.92483425
_cell_length_c   4.01480500
_cell_angle_alpha   90.00000000
_cell_angle_beta   90.00000000
_cell_angle_gamma   116.32332962
_symmetry_Int_Tables_number   1
_chemical_formula_structural   TbSmU(GaRu)3
_chemical_formula_sum   'Tb1 Sm1 U1 Ga3 Ru3'
_cell_volume   172.80827628
_cell_formula_units_Z   1
loop_
 _symmetry_equiv_pos_site_id
 _symmetry_equiv_pos_as_xyz
  1  'x, y, z'
loop_
 _atom_site_type_symbol
 _atom_site_label
 _atom_site_symmetry_multiplicity
 _atom_site_fract_x
 _atom_site_fract_y
 _atom_site_fract_z
 _atom_site_occupancy
  Tb  Tb0  1  0.009695  0.414446  0.500000  1
  Sm  Sm1  1  0.415028  0.008992  0.500000  1
  U  U2  1  0.618263  0.617795  0.500000  1
  Ga  Ga3  1  0.747966  0.031960  0.000000  1
  Ga  Ga4  1  0.030109  0.744054  0.000000  1
  Ga  Ga5  1  0.208447  0.210663  0.000000  1
  Ru  Ru6  1  0.382466  0.633817  0.000000  1
  Ru  Ru7  1  0.634758  0.383859  0.000000  1
  Ru  Ru8  1  0.953267  0.954413  0.500000  1
