# generated using pymatgen
data_TbCe3Pb5
_symmetry_space_group_name_H-M   'P 1'
_cell_length_a   9.66666400
_cell_length_b   9.66666435
_cell_length_c   6.67207200
_cell_angle_alpha   90.00000000
_cell_angle_beta   90.00000000
_cell_angle_gamma   119.99999880
_symmetry_Int_Tables_number   1
_chemical_formula_structural   TbCe3Pb5
_chemical_formula_sum   'Tb2 Ce6 Pb10'
_cell_volume   539.93890786
_cell_formula_units_Z   2
loop_
 _symmetry_equiv_pos_site_id
 _symmetry_equiv_pos_as_xyz
  1  'x, y, z'
loop_
 _atom_site_type_symbol
 _atom_site_label
 _atom_site_symmetry_multiplicity
 _atom_site_fract_x
 _atom_site_fract_y
 _atom_site_fract_z
 _atom_site_occupancy
  Tb  Tb0  1  0.000000  0.000000  0.000000  1
  Tb  Tb1  1  0.000000  0.000000  0.500000  1
  Ce  Ce2  1  0.617849  0.000000  0.250000  1
  Ce  Ce3  1  0.382151  0.000000  0.750000  1
  Ce  Ce4  1  0.382151  0.382151  0.250000  1
  Ce  Ce5  1  0.000000  0.617849  0.250000  1
  Ce  Ce6  1  0.000000  0.382151  0.750000  1
  Ce  Ce7  1  0.617849  0.617849  0.750000  1
  Pb  Pb8  1  0.283135  0.283135  0.750000  1
  Pb  Pb9  1  0.716865  0.716865  0.250000  1
  Pb  Pb10  1  0.333333  0.666667  0.500000  1
  Pb  Pb11  1  0.000000  0.283135  0.250000  1
  Pb  Pb12  1  0.283135  0.000000  0.250000  1
  Pb  Pb13  1  0.716865  0.000000  0.750000  1
  Pb  Pb14  1  0.666667  0.333333  0.000000  1
  Pb  Pb15  1  0.000000  0.716865  0.750000  1
  Pb  Pb16  1  0.333333  0.666667  0.000000  1
  Pb  Pb17  1  0.666667  0.333333  0.500000  1
