# generated using pymatgen
data_Cs4LiTlGa2F12
_symmetry_space_group_name_H-M   'P 1'
_cell_length_a   11.05789295
_cell_length_b   11.05789343
_cell_length_c   11.05789200
_cell_angle_alpha   33.84408384
_cell_angle_beta   33.84408017
_cell_angle_gamma   33.84408586
_symmetry_Int_Tables_number   1
_chemical_formula_structural   Cs4LiTlGa2F12
_chemical_formula_sum   'Cs4 Li1 Tl1 Ga2 F12'
_cell_volume   373.74414040
_cell_formula_units_Z   1
loop_
 _symmetry_equiv_pos_site_id
 _symmetry_equiv_pos_as_xyz
  1  'x, y, z'
loop_
 _atom_site_type_symbol
 _atom_site_label
 _atom_site_symmetry_multiplicity
 _atom_site_fract_x
 _atom_site_fract_y
 _atom_site_fract_z
 _atom_site_occupancy
  Cs  Cs0  1  0.285002  0.285002  0.285002  1
  Cs  Cs1  1  0.714998  0.714998  0.714998  1
  Cs  Cs2  1  0.866631  0.866631  0.866631  1
  Cs  Cs3  1  0.133369  0.133369  0.133369  1
  Li  Li4  1  0.500000  0.500000  0.500000  1
  Tl  Tl5  1  0.000000  0.000000  0.000000  1
  Ga  Ga6  1  0.417612  0.417612  0.417612  1
  Ga  Ga7  1  0.582388  0.582388  0.582388  1
  F  F8  1  0.758030  0.332853  0.758030  1
  F  F9  1  0.667147  0.241970  0.241970  1
  F  F10  1  0.332853  0.758030  0.758030  1
  F  F11  1  0.758030  0.758030  0.332853  1
  F  F12  1  0.241970  0.241970  0.667147  1
  F  F13  1  0.241970  0.667147  0.241970  1
  F  F14  1  0.406437  0.406437  0.816808  1
  F  F15  1  0.593563  0.183192  0.593563  1
  F  F16  1  0.593563  0.593563  0.183192  1
  F  F17  1  0.183192  0.593563  0.593563  1
  F  F18  1  0.816808  0.406437  0.406437  1
  F  F19  1  0.406437  0.816808  0.406437  1
