# generated using pymatgen
data_Tb3HoOsRu7
_symmetry_space_group_name_H-M   'P 1'
_cell_length_a   5.34680003
_cell_length_b   5.22005499
_cell_length_c   8.97548102
_cell_angle_alpha   90.00020542
_cell_angle_beta   89.99321356
_cell_angle_gamma   120.39232271
_symmetry_Int_Tables_number   1
_chemical_formula_structural   Tb3HoOsRu7
_chemical_formula_sum   'Tb3 Ho1 Os1 Ru7'
_cell_volume   216.08612017
_cell_formula_units_Z   1
loop_
 _symmetry_equiv_pos_site_id
 _symmetry_equiv_pos_as_xyz
  1  'x, y, z'
loop_
 _atom_site_type_symbol
 _atom_site_label
 _atom_site_symmetry_multiplicity
 _atom_site_fract_x
 _atom_site_fract_y
 _atom_site_fract_z
 _atom_site_occupancy
  Tb  Tb0  1  0.669205  0.336848  0.566569  1
  Tb  Tb1  1  0.332830  0.667260  0.432871  1
  Tb  Tb2  1  0.332830  0.667277  0.066955  1
  Ho  Ho3  1  0.669438  0.337228  0.933152  1
  Os  Os4  1  0.164399  0.328971  0.750799  1
  Ru  Ru5  1  0.004740  0.008681  0.500017  1
  Ru  Ru6  1  0.004566  0.008441  0.999789  1
  Ru  Ru7  1  0.169086  0.822800  0.750813  1
  Ru  Ru8  1  0.650535  0.821071  0.750672  1
  Ru  Ru9  1  0.830158  0.659950  0.249428  1
  Ru  Ru10  1  0.828700  0.169087  0.249444  1
  Ru  Ru11  1  0.343511  0.172385  0.249490  1
