# generated using pymatgen
data_Lu5In4NiAu
_symmetry_space_group_name_H-M   'P 1'
_cell_length_a   3.57139900
_cell_length_b   8.00840396
_cell_length_c   17.88455331
_cell_angle_alpha   89.82794413
_cell_angle_beta   90.00000000
_cell_angle_gamma   90.00000000
_symmetry_Int_Tables_number   1
_chemical_formula_structural   Lu5In4NiAu
_chemical_formula_sum   'Lu10 In8 Ni2 Au2'
_cell_volume   511.51748520
_cell_formula_units_Z   2
loop_
 _symmetry_equiv_pos_site_id
 _symmetry_equiv_pos_as_xyz
  1  'x, y, z'
loop_
 _atom_site_type_symbol
 _atom_site_label
 _atom_site_symmetry_multiplicity
 _atom_site_fract_x
 _atom_site_fract_y
 _atom_site_fract_z
 _atom_site_occupancy
  Lu  Lu0  1  0.000000  0.878941  0.081174  1
  Lu  Lu1  1  0.000000  0.740273  0.282589  1
  Lu  Lu2  1  0.000000  0.727413  0.776265  1
  Lu  Lu3  1  0.000000  0.385533  0.411485  1
  Lu  Lu4  1  0.000000  0.121059  0.918826  1
  Lu  Lu5  1  0.000000  0.259727  0.717411  1
  Lu  Lu6  1  0.000000  0.500000  0.000000  1
  Lu  Lu7  1  0.000000  0.272587  0.223735  1
  Lu  Lu8  1  0.000000  0.614467  0.588515  1
  Lu  Lu9  1  0.000000  0.000000  0.500000  1
  In  In10  1  0.500000  0.209829  0.066108  1
  In  In11  1  0.500000  0.427123  0.849135  1
  In  In12  1  0.500000  0.572877  0.150865  1
  In  In13  1  0.500000  0.079495  0.352743  1
  In  In14  1  0.500000  0.920505  0.647257  1
  In  In15  1  0.500000  0.790171  0.933892  1
  In  In16  1  0.500000  0.705156  0.433146  1
  In  In17  1  0.500000  0.294844  0.566854  1
  Ni  Ni18  1  0.500000  0.524771  0.696343  1
  Ni  Ni19  1  0.500000  0.475229  0.303657  1
  Au  Au20  1  0.500000  0.973287  0.198028  1
  Au  Au21  1  0.500000  0.026713  0.801972  1
