# generated using pymatgen
data_Tm5AlRuO12
_symmetry_space_group_name_H-M   'P 1'
_cell_length_a   6.72084355
_cell_length_b   6.72084370
_cell_length_c   7.14808943
_cell_angle_alpha   74.54417877
_cell_angle_beta   74.54416652
_cell_angle_gamma   50.70482010
_symmetry_Int_Tables_number   1
_chemical_formula_structural   Tm5AlRuO12
_chemical_formula_sum   'Tm5 Al1 Ru1 O12'
_cell_volume   238.76063094
_cell_formula_units_Z   1
loop_
 _symmetry_equiv_pos_site_id
 _symmetry_equiv_pos_as_xyz
  1  'x, y, z'
loop_
 _atom_site_type_symbol
 _atom_site_label
 _atom_site_symmetry_multiplicity
 _atom_site_fract_x
 _atom_site_fract_y
 _atom_site_fract_z
 _atom_site_occupancy
  Tm  Tm0  1  0.692828  0.690741  0.668720  1
  Tm  Tm1  1  0.686388  0.707699  0.140530  1
  Tm  Tm2  1  0.997633  0.002367  0.000000  1
  Tm  Tm3  1  0.292301  0.313612  0.859470  1
  Tm  Tm4  1  0.309259  0.307172  0.331280  1
  Al  Al5  1  0.253548  0.746452  0.500000  1
  Ru  Ru6  1  0.763556  0.236444  0.500000  1
  O  O7  1  0.399730  0.907797  0.923622  1
  O  O8  1  0.573560  0.097838  0.583398  1
  O  O9  1  0.902162  0.426440  0.416602  1
  O  O10  1  0.092203  0.600270  0.076378  1
  O  O11  1  0.007031  0.993042  0.318381  1
  O  O12  1  0.503177  0.497575  0.684560  1
  O  O13  1  0.898740  0.403810  0.927234  1
  O  O14  1  0.099532  0.577221  0.581966  1
  O  O15  1  0.422779  0.900468  0.418034  1
  O  O16  1  0.596190  0.101260  0.072766  1
  O  O17  1  0.502425  0.496823  0.315440  1
  O  O18  1  0.006958  0.992969  0.681619  1
