# generated using pymatgen
data_Zr8Fe7Si14Tc
_symmetry_space_group_name_H-M   'P 1'
_cell_length_a   9.57405109
_cell_length_b   9.57405151
_cell_length_c   9.58268000
_cell_angle_alpha   94.09707079
_cell_angle_beta   94.09707097
_cell_angle_gamma   148.77229538
_symmetry_Int_Tables_number   1
_chemical_formula_structural   Zr8Fe7Si14Tc
_chemical_formula_sum   'Zr8 Fe7 Si14 Tc1'
_cell_volume   439.04666483
_cell_formula_units_Z   1
loop_
 _symmetry_equiv_pos_site_id
 _symmetry_equiv_pos_as_xyz
  1  'x, y, z'
loop_
 _atom_site_type_symbol
 _atom_site_label
 _atom_site_symmetry_multiplicity
 _atom_site_fract_x
 _atom_site_fract_y
 _atom_site_fract_z
 _atom_site_occupancy
  Zr  Zr0  1  0.698769  0.502227  0.195996  1
  Zr  Zr1  1  0.496972  0.695222  0.196138  1
  Zr  Zr2  1  0.497773  0.301231  0.804004  1
  Zr  Zr3  1  0.304778  0.503028  0.803862  1
  Zr  Zr4  1  0.861021  0.862440  0.723610  1
  Zr  Zr5  1  0.136949  0.863051  0.000000  1
  Zr  Zr6  1  0.861396  0.138604  0.000000  1
  Zr  Zr7  1  0.137560  0.138979  0.276390  1
  Fe  Fe8  1  0.901021  0.398367  0.799688  1
  Fe  Fe9  1  0.601633  0.098979  0.200312  1
  Fe  Fe10  1  0.104189  0.605481  0.208696  1
  Fe  Fe11  1  0.600753  0.399247  0.500000  1
  Fe  Fe12  1  0.394519  0.895811  0.791304  1
  Fe  Fe13  1  0.899441  0.100559  0.500000  1
  Fe  Fe14  1  0.395002  0.604998  0.500000  1
  Si  Si15  1  0.749611  0.750895  0.000728  1
  Si  Si16  1  0.249105  0.250389  0.999272  1
  Si  Si17  1  0.080298  0.487059  0.592169  1
  Si  Si18  1  0.534381  0.118464  0.594628  1
  Si  Si19  1  0.512941  0.919702  0.407831  1
  Si  Si20  1  0.881536  0.465619  0.405372  1
  Si  Si21  1  0.704198  0.004642  0.697330  1
  Si  Si22  1  0.986777  0.685147  0.706313  1
  Si  Si23  1  0.701073  0.707118  0.420062  1
  Si  Si24  1  0.288302  0.711698  0.000000  1
  Si  Si25  1  0.314853  0.013223  0.293687  1
  Si  Si26  1  0.711187  0.288813  0.000000  1
  Si  Si27  1  0.292882  0.298927  0.579938  1
  Si  Si28  1  0.995358  0.295802  0.302670  1
  Tc  Tc29  1  0.105726  0.894274  0.500000  1
