# generated using pymatgen
data_Dy5Lu5In8PtRh3
_symmetry_space_group_name_H-M   'P 1'
_cell_length_a   3.60066500
_cell_length_b   8.03056285
_cell_length_c   18.13705482
_cell_angle_alpha   89.86133641
_cell_angle_beta   90.00000000
_cell_angle_gamma   90.00000000
_symmetry_Int_Tables_number   1
_chemical_formula_structural   Dy5Lu5In8PtRh3
_chemical_formula_sum   'Dy5 Lu5 In8 Pt1 Rh3'
_cell_volume   524.43805326
_cell_formula_units_Z   1
loop_
 _symmetry_equiv_pos_site_id
 _symmetry_equiv_pos_as_xyz
  1  'x, y, z'
loop_
 _atom_site_type_symbol
 _atom_site_label
 _atom_site_symmetry_multiplicity
 _atom_site_fract_x
 _atom_site_fract_y
 _atom_site_fract_z
 _atom_site_occupancy
  Dy  Dy0  1  0.000000  0.754651  0.779191  1
  Dy  Dy1  1  0.000000  0.255163  0.720478  1
  Dy  Dy2  1  0.000000  0.750848  0.280345  1
  Dy  Dy3  1  0.000000  0.998504  0.999503  1
  Dy  Dy4  1  0.000000  0.501088  0.499674  1
  Lu  Lu5  1  0.000000  0.117970  0.411392  1
  Lu  Lu6  1  0.000000  0.883443  0.589387  1
  Lu  Lu7  1  0.000000  0.382182  0.910665  1
  Lu  Lu8  1  0.000000  0.617267  0.087537  1
  Lu  Lu9  1  0.000000  0.238450  0.221943  1
  In  In10  1  0.500000  0.421448  0.350776  1
  In  In11  1  0.500000  0.574502  0.650060  1
  In  In12  1  0.500000  0.074313  0.849729  1
  In  In13  1  0.500000  0.929734  0.149875  1
  In  In14  1  0.500000  0.294067  0.065017  1
  In  In15  1  0.500000  0.701525  0.934038  1
  In  In16  1  0.500000  0.202413  0.565431  1
  In  In17  1  0.500000  0.799915  0.434552  1
  Pt  Pt18  1  0.500000  0.520431  0.195519  1
  Rh  Rh19  1  0.500000  0.029689  0.304852  1
  Rh  Rh20  1  0.500000  0.976904  0.693687  1
  Rh  Rh21  1  0.500000  0.475492  0.806349  1
