# generated using pymatgen
data_Li8Tb7TmSn7Sb
_symmetry_space_group_name_H-M   'P 1'
_cell_length_a   9.41385948
_cell_length_b   9.41386053
_cell_length_c   7.26764406
_cell_angle_alpha   90.05515104
_cell_angle_beta   89.94485290
_cell_angle_gamma   119.98020715
_symmetry_Int_Tables_number   1
_chemical_formula_structural   Li8Tb7TmSn7Sb
_chemical_formula_sum   'Li8 Tb7 Tm1 Sn7 Sb1'
_cell_volume   557.88677634
_cell_formula_units_Z   1
loop_
 _symmetry_equiv_pos_site_id
 _symmetry_equiv_pos_as_xyz
  1  'x, y, z'
loop_
 _atom_site_type_symbol
 _atom_site_label
 _atom_site_symmetry_multiplicity
 _atom_site_fract_x
 _atom_site_fract_y
 _atom_site_fract_z
 _atom_site_occupancy
  Li  Li0  1  0.832212  0.665971  0.712233  1
  Li  Li1  1  0.833267  0.166733  0.712790  1
  Li  Li2  1  0.333780  0.666220  0.821395  1
  Li  Li3  1  0.666591  0.333409  0.321424  1
  Li  Li4  1  0.666404  0.833222  0.212937  1
  Li  Li5  1  0.166778  0.333596  0.212937  1
  Li  Li6  1  0.166765  0.833235  0.213096  1
  Li  Li7  1  0.334029  0.167788  0.712233  1
  Tb  Tb8  1  0.999091  0.000909  0.002570  1
  Tb  Tb9  1  0.999320  0.000680  0.499730  1
  Tb  Tb10  1  0.511157  0.488843  0.006260  1
  Tb  Tb11  1  0.021233  0.509601  0.505022  1
  Tb  Tb12  1  0.490399  0.978767  0.505022  1
  Tb  Tb13  1  0.513168  0.022954  0.008073  1
  Tb  Tb14  1  0.977046  0.486832  0.008073  1
  Tm  Tm15  1  0.488776  0.511224  0.506018  1
  Sn  Sn16  1  0.666500  0.333500  0.739570  1
  Sn  Sn17  1  0.333312  0.666688  0.240827  1
  Sn  Sn18  1  0.833349  0.166651  0.269449  1
  Sn  Sn19  1  0.166992  0.333590  0.769447  1
  Sn  Sn20  1  0.333515  0.166782  0.270370  1
  Sn  Sn21  1  0.833218  0.666485  0.270370  1
  Sn  Sn22  1  0.666410  0.833008  0.769447  1
  Sb  Sb23  1  0.166688  0.833312  0.768708  1
