# generated using pymatgen
data_TbSm2Dy3CoBr10
_symmetry_space_group_name_H-M   'P 1'
_cell_length_a   7.39740829
_cell_length_b   9.17931299
_cell_length_c   9.28442590
_cell_angle_alpha   108.26340490
_cell_angle_beta   97.09921012
_cell_angle_gamma   104.58101266
_symmetry_Int_Tables_number   1
_chemical_formula_structural   TbSm2Dy3CoBr10
_chemical_formula_sum   'Tb1 Sm2 Dy3 Co1 Br10'
_cell_volume   565.16441788
_cell_formula_units_Z   1
loop_
 _symmetry_equiv_pos_site_id
 _symmetry_equiv_pos_as_xyz
  1  'x, y, z'
loop_
 _atom_site_type_symbol
 _atom_site_label
 _atom_site_symmetry_multiplicity
 _atom_site_fract_x
 _atom_site_fract_y
 _atom_site_fract_z
 _atom_site_occupancy
  Tb  Tb0  1  0.643923  0.868356  0.321939  1
  Sm  Sm1  1  0.032386  0.713695  0.411158  1
  Sm  Sm2  1  0.968202  0.286567  0.589380  1
  Dy  Dy3  1  0.879149  0.955189  0.744062  1
  Dy  Dy4  1  0.121845  0.045449  0.256457  1
  Dy  Dy5  1  0.354778  0.130740  0.677118  1
  Co  Co6  1  0.999739  0.999965  0.499826  1
  Br  Br7  1  0.457249  0.823614  0.586105  1
  Br  Br8  1  0.542658  0.178077  0.415755  1
  Br  Br9  1  0.911033  0.633756  0.676695  1
  Br  Br10  1  0.089024  0.366276  0.323425  1
  Br  Br11  1  0.248655  0.084353  0.956482  1
  Br  Br12  1  0.752962  0.916334  0.042715  1
  Br  Br13  1  0.355471  0.450121  0.772709  1
  Br  Br14  1  0.645920  0.548331  0.227481  1
  Br  Br15  1  0.778774  0.250716  0.847664  1
  Br  Br16  1  0.218234  0.748460  0.151028  1
