# generated using pymatgen
data_Cu2Ir2PtRhS8
_symmetry_space_group_name_H-M   'P 1'
_cell_length_a   7.00299845
_cell_length_b   7.06533732
_cell_length_c   7.05294734
_cell_angle_alpha   59.94185256
_cell_angle_beta   59.70557525
_cell_angle_gamma   59.70507590
_symmetry_Int_Tables_number   1
_chemical_formula_structural   Cu2Ir2PtRhS8
_chemical_formula_sum   'Cu2 Ir2 Pt1 Rh1 S8'
_cell_volume   245.54681372
_cell_formula_units_Z   1
loop_
 _symmetry_equiv_pos_site_id
 _symmetry_equiv_pos_as_xyz
  1  'x, y, z'
loop_
 _atom_site_type_symbol
 _atom_site_label
 _atom_site_symmetry_multiplicity
 _atom_site_fract_x
 _atom_site_fract_y
 _atom_site_fract_z
 _atom_site_occupancy
  Cu  Cu0  1  0.996758  0.000926  0.001389  1
  Cu  Cu1  1  0.253242  0.249074  0.248611  1
  Ir  Ir2  1  0.625000  0.625000  0.625000  1
  Ir  Ir3  1  0.625000  0.125000  0.625000  1
  Pt  Pt4  1  0.625000  0.625000  0.125000  1
  Rh  Rh5  1  0.125000  0.625000  0.625000  1
  S  S6  1  0.387645  0.384545  0.843267  1
  S  S7  1  0.383792  0.382321  0.388942  1
  S  S8  1  0.866208  0.867679  0.861058  1
  S  S9  1  0.862355  0.865455  0.406733  1
  S  S10  1  0.383792  0.844946  0.388942  1
  S  S11  1  0.843278  0.383238  0.390246  1
  S  S12  1  0.406722  0.866762  0.859754  1
  S  S13  1  0.866208  0.405054  0.861058  1
