# generated using pymatgen
data_DyEr3Tm(CoB3)2
_symmetry_space_group_name_H-M   'P 1'
_cell_length_a   5.38492183
_cell_length_b   5.38492350
_cell_length_c   8.24767824
_cell_angle_alpha   70.94649201
_cell_angle_beta   70.94648418
_cell_angle_gamma   60.00000558
_symmetry_Int_Tables_number   1
_chemical_formula_structural   DyEr3Tm(CoB3)2
_chemical_formula_sum   'Dy1 Er3 Tm1 Co2 B6'
_cell_volume   191.84090787
_cell_formula_units_Z   1
loop_
 _symmetry_equiv_pos_site_id
 _symmetry_equiv_pos_as_xyz
  1  'x, y, z'
loop_
 _atom_site_type_symbol
 _atom_site_label
 _atom_site_symmetry_multiplicity
 _atom_site_fract_x
 _atom_site_fract_y
 _atom_site_fract_z
 _atom_site_occupancy
  Dy  Dy0  1  0.252483  0.252483  0.242551  1
  Er  Er1  1  0.748200  0.748200  0.755401  1
  Er  Er2  1  0.416020  0.416020  0.751940  1
  Er  Er3  1  0.583981  0.583981  0.248056  1
  Tm  Tm4  1  0.000230  0.000230  0.999309  1
  Co  Co5  1  0.119172  0.119172  0.642485  1
  Co  Co6  1  0.880819  0.880819  0.357544  1
  B  B7  1  0.168606  0.830866  0.500452  1
  B  B8  1  0.830866  0.500076  0.500452  1
  B  B9  1  0.500076  0.168606  0.500452  1
  B  B10  1  0.168606  0.500076  0.500452  1
  B  B11  1  0.500076  0.830866  0.500452  1
  B  B12  1  0.830866  0.168606  0.500452  1
