# generated using pymatgen
data_ErTaP3Rh4
_symmetry_space_group_name_H-M   'P 1'
_cell_length_a   3.92985800
_cell_length_b   11.04259700
_cell_length_c   12.53520300
_cell_angle_alpha   90.00000000
_cell_angle_beta   90.00000000
_cell_angle_gamma   90.00000000
_symmetry_Int_Tables_number   1
_chemical_formula_structural   ErTaP3Rh4
_chemical_formula_sum   'Er4 Ta4 P12 Rh16'
_cell_volume   543.97564071
_cell_formula_units_Z   4
loop_
 _symmetry_equiv_pos_site_id
 _symmetry_equiv_pos_as_xyz
  1  'x, y, z'
loop_
 _atom_site_type_symbol
 _atom_site_label
 _atom_site_symmetry_multiplicity
 _atom_site_fract_x
 _atom_site_fract_y
 _atom_site_fract_z
 _atom_site_occupancy
  Er  Er0  1  0.250000  0.582428  0.705299  1
  Er  Er1  1  0.250000  0.917572  0.205299  1
  Er  Er2  1  0.750000  0.417572  0.294701  1
  Er  Er3  1  0.750000  0.082428  0.794701  1
  Ta  Ta4  1  0.250000  0.710842  0.989503  1
  Ta  Ta5  1  0.250000  0.789158  0.489503  1
  Ta  Ta6  1  0.750000  0.289158  0.010497  1
  Ta  Ta7  1  0.750000  0.210842  0.510497  1
  P  P8  1  0.250000  0.418587  0.117378  1
  P  P9  1  0.250000  0.081413  0.617378  1
  P  P10  1  0.750000  0.581413  0.882622  1
  P  P11  1  0.750000  0.918587  0.382622  1
  P  P12  1  0.250000  0.261011  0.868735  1
  P  P13  1  0.250000  0.238989  0.368735  1
  P  P14  1  0.750000  0.738989  0.131265  1
  P  P15  1  0.750000  0.761011  0.631265  1
  P  P16  1  0.250000  0.594638  0.391746  1
  P  P17  1  0.250000  0.905362  0.891746  1
  P  P18  1  0.750000  0.405362  0.608254  1
  P  P19  1  0.750000  0.094638  0.108254  1
  Rh  Rh20  1  0.250000  0.407371  0.486643  1
  Rh  Rh21  1  0.250000  0.092629  0.986643  1
  Rh  Rh22  1  0.750000  0.592629  0.513357  1
  Rh  Rh23  1  0.750000  0.907371  0.013357  1
  Rh  Rh24  1  0.250000  0.228784  0.181421  1
  Rh  Rh25  1  0.250000  0.271216  0.681421  1
  Rh  Rh26  1  0.750000  0.771216  0.818579  1
  Rh  Rh27  1  0.750000  0.728784  0.318579  1
  Rh  Rh28  1  0.250000  0.895440  0.705630  1
  Rh  Rh29  1  0.250000  0.604560  0.205630  1
  Rh  Rh30  1  0.750000  0.104560  0.294370  1
  Rh  Rh31  1  0.750000  0.395440  0.794370  1
  Rh  Rh32  1  0.250000  0.462197  0.933642  1
  Rh  Rh33  1  0.250000  0.037803  0.433642  1
  Rh  Rh34  1  0.750000  0.537803  0.066358  1
  Rh  Rh35  1  0.750000  0.962197  0.566358  1
