# generated using pymatgen
data_NpU(TaN2)2
_symmetry_space_group_name_H-M   'P 1'
_cell_length_a   3.23594000
_cell_length_b   5.64979312
_cell_length_c   11.02892923
_cell_angle_alpha   89.97622478
_cell_angle_beta   90.00000000
_cell_angle_gamma   90.00000000
_symmetry_Int_Tables_number   1
_chemical_formula_structural   NpU(TaN2)2
_chemical_formula_sum   'Np2 U2 Ta4 N8'
_cell_volume   201.63518538
_cell_formula_units_Z   2
loop_
 _symmetry_equiv_pos_site_id
 _symmetry_equiv_pos_as_xyz
  1  'x, y, z'
loop_
 _atom_site_type_symbol
 _atom_site_label
 _atom_site_symmetry_multiplicity
 _atom_site_fract_x
 _atom_site_fract_y
 _atom_site_fract_z
 _atom_site_occupancy
  Np  Np0  1  0.250000  0.577428  0.858598  1
  Np  Np1  1  0.750000  0.422572  0.141402  1
  U  U2  1  0.750000  0.920344  0.357134  1
  U  U3  1  0.250000  0.079656  0.642866  1
  Ta  Ta4  1  0.250000  0.922759  0.103684  1
  Ta  Ta5  1  0.750000  0.077241  0.896316  1
  Ta  Ta6  1  0.750000  0.577048  0.603183  1
  Ta  Ta7  1  0.250000  0.422952  0.396817  1
  N  N8  1  0.250000  0.665183  0.247120  1
  N  N9  1  0.750000  0.334817  0.752880  1
  N  N10  1  0.750000  0.840479  0.743009  1
  N  N11  1  0.250000  0.159521  0.256991  1
  N  N12  1  0.250000  0.759534  0.505327  1
  N  N13  1  0.750000  0.240466  0.494673  1
  N  N14  1  0.750000  0.744821  0.004467  1
  N  N15  1  0.250000  0.255179  0.995533  1
