# generated using pymatgen
data_Dy4Tm4Re(B8Ir)3
_symmetry_space_group_name_H-M   'P 1'
_cell_length_a   3.64427700
_cell_length_b   9.14487557
_cell_length_c   11.48654116
_cell_angle_alpha   90.12064742
_cell_angle_beta   90.00000000
_cell_angle_gamma   90.00000000
_symmetry_Int_Tables_number   1
_chemical_formula_structural   Dy4Tm4Re(B8Ir)3
_chemical_formula_sum   'Dy4 Tm4 Re1 B24 Ir3'
_cell_volume   382.80490217
_cell_formula_units_Z   1
loop_
 _symmetry_equiv_pos_site_id
 _symmetry_equiv_pos_as_xyz
  1  'x, y, z'
loop_
 _atom_site_type_symbol
 _atom_site_label
 _atom_site_symmetry_multiplicity
 _atom_site_fract_x
 _atom_site_fract_y
 _atom_site_fract_z
 _atom_site_occupancy
  Dy  Dy0  1  0.000000  0.320546  0.413794  1
  Dy  Dy1  1  0.000000  0.683126  0.590314  1
  Dy  Dy2  1  0.000000  0.820410  0.082832  1
  Dy  Dy3  1  0.000000  0.176236  0.912219  1
  Tm  Tm4  1  0.000000  0.943796  0.373248  1
  Tm  Tm5  1  0.000000  0.053542  0.626352  1
  Tm  Tm6  1  0.000000  0.443648  0.126109  1
  Tm  Tm7  1  0.000000  0.557260  0.874835  1
  Re  Re8  1  0.000000  0.862150  0.821007  1
  B  B9  1  0.500000  0.553927  0.433976  1
  B  B10  1  0.500000  0.447288  0.566861  1
  B  B11  1  0.500000  0.053805  0.066597  1
  B  B12  1  0.500000  0.946481  0.933005  1
  B  B13  1  0.500000  0.750964  0.420196  1
  B  B14  1  0.500000  0.249745  0.579469  1
  B  B15  1  0.500000  0.249762  0.079389  1
  B  B16  1  0.500000  0.751166  0.919609  1
  B  B17  1  0.500000  0.792396  0.265063  1
  B  B18  1  0.500000  0.207504  0.733406  1
  B  B19  1  0.500000  0.293218  0.234868  1
  B  B20  1  0.500000  0.707768  0.766131  1
  B  B21  1  0.500000  0.630610  0.184123  1
  B  B22  1  0.500000  0.368833  0.815954  1
  B  B23  1  0.500000  0.131500  0.315771  1
  B  B24  1  0.500000  0.869332  0.685275  1
  B  B25  1  0.500000  0.981800  0.213378  1
  B  B26  1  0.500000  0.017368  0.786174  1
  B  B27  1  0.500000  0.481374  0.286985  1
  B  B28  1  0.500000  0.518008  0.714478  1
  B  B29  1  0.500000  0.606274  0.030463  1
  B  B30  1  0.500000  0.391326  0.970747  1
  B  B31  1  0.500000  0.107657  0.469934  1
  B  B32  1  0.500000  0.893245  0.528171  1
  Ir  Ir33  1  0.000000  0.637709  0.321821  1
  Ir  Ir34  1  0.000000  0.362311  0.678522  1
  Ir  Ir35  1  0.000000  0.137915  0.178920  1
