# generated using pymatgen
data_Cs2Fe5F17
_symmetry_space_group_name_H-M   'P 1'
_cell_length_a   7.56645000
_cell_length_b   13.63594069
_cell_length_c   14.93540100
_cell_angle_alpha   90.00000000
_cell_angle_beta   90.00000000
_cell_angle_gamma   106.10777961
_symmetry_Int_Tables_number   1
_chemical_formula_structural   Cs2Fe5F17
_chemical_formula_sum   'Cs8 Fe20 F68'
_cell_volume   1480.47372703
_cell_formula_units_Z   4
loop_
 _symmetry_equiv_pos_site_id
 _symmetry_equiv_pos_as_xyz
  1  'x, y, z'
loop_
 _atom_site_type_symbol
 _atom_site_label
 _atom_site_symmetry_multiplicity
 _atom_site_fract_x
 _atom_site_fract_y
 _atom_site_fract_z
 _atom_site_occupancy
  Cs  Cs0  1  0.000000  0.000000  0.000000  1
  Cs  Cs1  1  0.248994  0.497988  0.038943  1
  Cs  Cs2  1  0.248994  0.497988  0.461057  1
  Cs  Cs3  1  0.751006  0.502012  0.538943  1
  Cs  Cs4  1  0.751006  0.502012  0.961057  1
  Cs  Cs5  1  0.251945  0.503888  0.750000  1
  Cs  Cs6  1  0.000000  0.000000  0.500000  1
  Cs  Cs7  1  0.748055  0.496112  0.250000  1
  Fe  Fe8  1  0.623014  0.756235  0.876437  1
  Fe  Fe9  1  0.376986  0.243765  0.376437  1
  Fe  Fe10  1  0.874893  0.247610  0.875081  1
  Fe  Fe11  1  0.372717  0.247610  0.624919  1
  Fe  Fe12  1  0.748554  0.001518  0.750000  1
  Fe  Fe13  1  0.874893  0.247610  0.624919  1
  Fe  Fe14  1  0.623014  0.756235  0.623563  1
  Fe  Fe15  1  0.125107  0.752390  0.375081  1
  Fe  Fe16  1  0.252964  0.001518  0.750000  1
  Fe  Fe17  1  0.133222  0.756235  0.623563  1
  Fe  Fe18  1  0.866778  0.243765  0.123563  1
  Fe  Fe19  1  0.627283  0.752390  0.375081  1
  Fe  Fe20  1  0.376986  0.243765  0.123563  1
  Fe  Fe21  1  0.372717  0.247610  0.875081  1
  Fe  Fe22  1  0.866778  0.243765  0.376437  1
  Fe  Fe23  1  0.747036  0.998482  0.250000  1
  Fe  Fe24  1  0.251446  0.998482  0.250000  1
  Fe  Fe25  1  0.133222  0.756235  0.876437  1
  Fe  Fe26  1  0.125107  0.752390  0.124919  1
  Fe  Fe27  1  0.627283  0.752390  0.124919  1
  F  F28  1  0.558989  0.719882  0.250000  1
  F  F29  1  0.437494  0.271571  0.250000  1
  F  F30  1  0.747877  0.901175  0.656510  1
  F  F31  1  0.898084  0.202726  0.500914  1
  F  F32  1  0.887399  0.379588  0.098312  1
  F  F33  1  0.982508  0.965017  0.250000  1
  F  F34  1  0.108969  0.217939  0.651813  1
  F  F35  1  0.481196  0.962392  0.750000  1
  F  F36  1  0.153297  0.901175  0.843490  1
  F  F37  1  0.562506  0.728429  0.750000  1
  F  F38  1  0.608416  0.615710  0.104149  1
  F  F39  1  0.252123  0.098825  0.156510  1
  F  F40  1  0.898084  0.202726  0.999086  1
  F  F41  1  0.101916  0.797274  0.000914  1
  F  F42  1  0.839109  0.280118  0.750000  1
  F  F43  1  0.136649  0.273297  0.359817  1
  F  F44  1  0.656889  0.899457  0.154963  1
  F  F45  1  0.600204  0.200409  0.394649  1
  F  F46  1  0.608416  0.615710  0.395851  1
  F  F47  1  0.101916  0.797274  0.499086  1
  F  F48  1  0.136649  0.273297  0.140183  1
  F  F49  1  0.153297  0.901175  0.656510  1
  F  F50  1  0.242569  0.899457  0.154963  1
  F  F51  1  0.304641  0.202726  0.500914  1
  F  F52  1  0.600204  0.200409  0.105351  1
  F  F53  1  0.242569  0.899457  0.345037  1
  F  F54  1  0.887399  0.379588  0.401688  1
  F  F55  1  0.846703  0.098825  0.343490  1
  F  F56  1  0.391584  0.384290  0.604149  1
  F  F57  1  0.747877  0.901175  0.843490  1
  F  F58  1  0.007294  0.615710  0.104149  1
  F  F59  1  0.304641  0.202726  0.999086  1
  F  F60  1  0.399796  0.799591  0.894649  1
  F  F61  1  0.112601  0.620412  0.598312  1
  F  F62  1  0.695359  0.797274  0.499086  1
  F  F63  1  0.160891  0.719882  0.250000  1
  F  F64  1  0.656889  0.899457  0.345037  1
  F  F65  1  0.391584  0.384290  0.895851  1
  F  F66  1  0.891031  0.782061  0.151813  1
  F  F67  1  0.891031  0.782061  0.348187  1
  F  F68  1  0.367766  0.735531  0.405973  1
  F  F69  1  0.441011  0.280118  0.750000  1
  F  F70  1  0.518804  0.037608  0.250000  1
  F  F71  1  0.992706  0.384290  0.895851  1
  F  F72  1  0.492189  0.379588  0.401688  1
  F  F73  1  0.863351  0.726703  0.640183  1
  F  F74  1  0.367766  0.735531  0.094027  1
  F  F75  1  0.017492  0.034983  0.750000  1
  F  F76  1  0.757431  0.100543  0.845037  1
  F  F77  1  0.507811  0.620412  0.901688  1
  F  F78  1  0.632234  0.264469  0.594027  1
  F  F79  1  0.343111  0.100543  0.845037  1
  F  F80  1  0.846703  0.098825  0.156510  1
  F  F81  1  0.343111  0.100543  0.654963  1
  F  F82  1  0.632234  0.264469  0.905973  1
  F  F83  1  0.507811  0.620412  0.598312  1
  F  F84  1  0.007294  0.615710  0.395851  1
  F  F85  1  0.757431  0.100543  0.654963  1
  F  F86  1  0.863351  0.726703  0.859817  1
  F  F87  1  0.834077  0.271571  0.250000  1
  F  F88  1  0.992706  0.384290  0.604149  1
  F  F89  1  0.492189  0.379588  0.098312  1
  F  F90  1  0.165923  0.728429  0.750000  1
  F  F91  1  0.108969  0.217939  0.848187  1
  F  F92  1  0.695359  0.797274  0.000914  1
  F  F93  1  0.112601  0.620412  0.901688  1
  F  F94  1  0.252123  0.098825  0.343490  1
  F  F95  1  0.399796  0.799591  0.605351  1
