# generated using pymatgen
data_LuTi3(BiO4)3
_symmetry_space_group_name_H-M   'P 1'
_cell_length_a   5.35154000
_cell_length_b   5.45203791
_cell_length_c   17.22170850
_cell_angle_alpha   81.24855465
_cell_angle_beta   90.00000000
_cell_angle_gamma   90.00000000
_symmetry_Int_Tables_number   1
_chemical_formula_structural   LuTi3(BiO4)3
_chemical_formula_sum   'Lu2 Ti6 Bi6 O24'
_cell_volume   496.62435608
_cell_formula_units_Z   2
loop_
 _symmetry_equiv_pos_site_id
 _symmetry_equiv_pos_as_xyz
  1  'x, y, z'
loop_
 _atom_site_type_symbol
 _atom_site_label
 _atom_site_symmetry_multiplicity
 _atom_site_fract_x
 _atom_site_fract_y
 _atom_site_fract_z
 _atom_site_occupancy
  Lu  Lu0  1  0.270093  0.085679  0.868336  1
  Lu  Lu1  1  0.729907  0.585679  0.868336  1
  Ti  Ti2  1  0.769248  0.069064  0.983024  1
  Ti  Ti3  1  0.230752  0.569064  0.983024  1
  Ti  Ti4  1  0.765533  0.185284  0.751890  1
  Ti  Ti5  1  0.234467  0.685284  0.751890  1
  Ti  Ti6  1  0.758631  0.907537  0.259934  1
  Ti  Ti7  1  0.241369  0.407537  0.259934  1
  Bi  Bi8  1  0.271229  0.180649  0.591888  1
  Bi  Bi9  1  0.728771  0.680649  0.591888  1
  Bi  Bi10  1  0.268286  0.929146  0.132814  1
  Bi  Bi11  1  0.731714  0.429146  0.132814  1
  Bi  Bi12  1  0.236553  0.773914  0.437072  1
  Bi  Bi13  1  0.763447  0.273914  0.437072  1
  O  O14  1  0.446271  0.329225  0.952532  1
  O  O15  1  0.553729  0.829225  0.952532  1
  O  O16  1  0.505419  0.999675  0.508408  1
  O  O17  1  0.494581  0.499675  0.508408  1
  O  O18  1  0.866087  0.194233  0.874282  1
  O  O19  1  0.133913  0.694233  0.874282  1
  O  O20  1  0.676457  0.248304  0.647588  1
  O  O21  1  0.323543  0.748304  0.647588  1
  O  O22  1  0.449720  0.410215  0.790660  1
  O  O23  1  0.550280  0.910215  0.790660  1
  O  O24  1  0.928399  0.527843  0.747162  1
  O  O25  1  0.071601  0.027843  0.747162  1
  O  O26  1  0.925614  0.410558  0.000796  1
  O  O27  1  0.074386  0.910558  0.000796  1
  O  O28  1  0.994470  0.498558  0.509242  1
  O  O29  1  0.005530  0.998558  0.509242  1
  O  O30  1  0.674473  0.048775  0.094145  1
  O  O31  1  0.325527  0.548775  0.094145  1
  O  O32  1  0.783698  0.858317  0.361668  1
  O  O33  1  0.216302  0.358317  0.361668  1
  O  O34  1  0.004443  0.176897  0.222105  1
  O  O35  1  0.995557  0.676897  0.222105  1
  O  O36  1  0.512825  0.194528  0.232254  1
  O  O37  1  0.487175  0.694528  0.232254  1
