# generated using pymatgen
data_La8Lu12Si11Ge5
_symmetry_space_group_name_H-M   'P 1'
_cell_length_a   7.76902910
_cell_length_b   7.77621466
_cell_length_c   14.26951568
_cell_angle_alpha   90.22374120
_cell_angle_beta   89.97322262
_cell_angle_gamma   90.07985181
_symmetry_Int_Tables_number   1
_chemical_formula_structural   La8Lu12Si11Ge5
_chemical_formula_sum   'La8 Lu12 Si11 Ge5'
_cell_volume   862.06585148
_cell_formula_units_Z   1
loop_
 _symmetry_equiv_pos_site_id
 _symmetry_equiv_pos_as_xyz
  1  'x, y, z'
loop_
 _atom_site_type_symbol
 _atom_site_label
 _atom_site_symmetry_multiplicity
 _atom_site_fract_x
 _atom_site_fract_y
 _atom_site_fract_z
 _atom_site_occupancy
  La  La0  1  0.991757  0.652965  0.037856  1
  La  La1  1  0.008975  0.348362  0.537715  1
  La  La2  1  0.647517  0.995058  0.961600  1
  La  La3  1  0.153206  0.507822  0.788204  1
  La  La4  1  0.847250  0.493197  0.287032  1
  La  La5  1  0.504417  0.149479  0.211522  1
  La  La6  1  0.493742  0.848632  0.712852  1
  La  La7  1  0.352308  0.005479  0.460709  1
  Lu  Lu8  1  0.353405  0.495932  0.375393  1
  Lu  Lu9  1  0.850916  0.007189  0.373556  1
  Lu  Lu10  1  0.994158  0.145503  0.125943  1
  Lu  Lu11  1  0.008773  0.851957  0.627381  1
  Lu  Lu12  1  0.645391  0.505506  0.876474  1
  Lu  Lu13  1  0.494833  0.351816  0.623313  1
  Lu  Lu14  1  0.505504  0.648488  0.123952  1
  Lu  Lu15  1  0.148177  0.993696  0.874105  1
  Lu  Lu16  1  0.675307  0.675095  0.498505  1
  Lu  Lu17  1  0.822724  0.174443  0.750750  1
  Lu  Lu18  1  0.177314  0.825633  0.249539  1
  Lu  Lu19  1  0.324865  0.322012  0.999470  1
  Si  Si20  1  0.443205  0.210905  0.813042  1
  Si  Si21  1  0.556264  0.790741  0.313230  1
  Si  Si22  1  0.288215  0.943054  0.063360  1
  Si  Si23  1  0.856664  0.797247  0.815028  1
  Si  Si24  1  0.142432  0.202163  0.314571  1
  Si  Si25  1  0.793840  0.856474  0.188158  1
  Si  Si26  1  0.299610  0.642849  0.564509  1
  Si  Si27  1  0.701829  0.357130  0.064592  1
  Si  Si28  1  0.643073  0.300046  0.435018  1
  Si  Si29  1  0.355503  0.705541  0.938759  1
  Si  Si30  1  0.206300  0.144430  0.688742  1
  Ge  Ge31  1  0.051809  0.710557  0.434535  1
  Ge  Ge32  1  0.947229  0.290731  0.935363  1
  Ge  Ge33  1  0.712691  0.050421  0.565615  1
  Ge  Ge34  1  0.209732  0.447701  0.184183  1
  Ge  Ge35  1  0.791065  0.551747  0.685423  1
