# generated using pymatgen
data_Ho11Tm9Sn16
_symmetry_space_group_name_H-M   'P 1'
_cell_length_a   7.98942927
_cell_length_b   8.11935449
_cell_length_c   15.35630000
_cell_angle_alpha   90.04231898
_cell_angle_beta   90.01477318
_cell_angle_gamma   90.01501984
_symmetry_Int_Tables_number   1
_chemical_formula_structural   Ho11Tm9Sn16
_chemical_formula_sum   'Ho11 Tm9 Sn16'
_cell_volume   996.14761478
_cell_formula_units_Z   1
loop_
 _symmetry_equiv_pos_site_id
 _symmetry_equiv_pos_as_xyz
  1  'x, y, z'
loop_
 _atom_site_type_symbol
 _atom_site_label
 _atom_site_symmetry_multiplicity
 _atom_site_fract_x
 _atom_site_fract_y
 _atom_site_fract_z
 _atom_site_occupancy
  Ho  Ho0  1  0.132242  0.336835  0.377134  1
  Ho  Ho1  1  0.368068  0.836987  0.622461  1
  Ho  Ho2  1  0.867619  0.663271  0.878220  1
  Ho  Ho3  1  0.521256  0.320399  0.903576  1
  Ho  Ho4  1  0.021443  0.179163  0.597149  1
  Ho  Ho5  1  0.478651  0.679216  0.402545  1
  Ho  Ho6  1  0.978612  0.821069  0.097263  1
  Ho  Ho7  1  0.479469  0.679127  0.096866  1
  Ho  Ho8  1  0.979089  0.821277  0.402829  1
  Ho  Ho9  1  0.520589  0.321022  0.596852  1
  Ho  Ho10  1  0.021015  0.179077  0.903127  1
  Tm  Tm11  1  0.366563  0.837400  0.877178  1
  Tm  Tm12  1  0.866574  0.662633  0.622768  1
  Tm  Tm13  1  0.633338  0.162529  0.376978  1
  Tm  Tm14  1  0.133150  0.337688  0.122593  1
  Tm  Tm15  1  0.632410  0.162525  0.123132  1
  Tm  Tm16  1  0.198165  0.503572  0.750435  1
  Tm  Tm17  1  0.698376  0.996529  0.749881  1
  Tm  Tm18  1  0.801488  0.496230  0.250113  1
  Tm  Tm19  1  0.301764  0.003789  0.249350  1
  Sn  Sn20  1  0.293681  0.037885  0.041398  1
  Sn  Sn21  1  0.792130  0.462670  0.458499  1
  Sn  Sn22  1  0.708008  0.962822  0.541184  1
  Sn  Sn23  1  0.208045  0.537428  0.958777  1
  Sn  Sn24  1  0.704629  0.963724  0.958673  1
  Sn  Sn25  1  0.204870  0.536918  0.542091  1
  Sn  Sn26  1  0.294946  0.036821  0.457469  1
  Sn  Sn27  1  0.793929  0.461374  0.042425  1
  Sn  Sn28  1  0.564497  0.618943  0.750298  1
  Sn  Sn29  1  0.064166  0.880969  0.750096  1
  Sn  Sn30  1  0.436020  0.380223  0.249626  1
  Sn  Sn31  1  0.935521  0.119158  0.249286  1
  Sn  Sn32  1  0.330859  0.149155  0.750300  1
  Sn  Sn33  1  0.830814  0.351187  0.749929  1
  Sn  Sn34  1  0.668956  0.851185  0.249864  1
  Sn  Sn35  1  0.169049  0.649201  0.249634  1
