# generated using pymatgen
data_Nb12Al7NiN4
_symmetry_space_group_name_H-M   'P 1'
_cell_length_a   7.04687994
_cell_length_b   7.04687994
_cell_length_c   7.04687994
_cell_angle_alpha   89.78858731
_cell_angle_beta   90.21141269
_cell_angle_gamma   90.21141269
_symmetry_Int_Tables_number   1
_chemical_formula_structural   Nb12Al7NiN4
_chemical_formula_sum   'Nb12 Al7 Ni1 N4'
_cell_volume   349.93047772
_cell_formula_units_Z   1
loop_
 _symmetry_equiv_pos_site_id
 _symmetry_equiv_pos_as_xyz
  1  'x, y, z'
loop_
 _atom_site_type_symbol
 _atom_site_label
 _atom_site_symmetry_multiplicity
 _atom_site_fract_x
 _atom_site_fract_y
 _atom_site_fract_z
 _atom_site_occupancy
  Nb  Nb0  1  0.793839  0.956057  0.373547  1
  Nb  Nb1  1  0.707662  0.044721  0.877213  1
  Nb  Nb2  1  0.205066  0.456376  0.124043  1
  Nb  Nb3  1  0.295177  0.544474  0.628093  1
  Nb  Nb4  1  0.955279  0.377213  0.792338  1
  Nb  Nb5  1  0.043943  0.873547  0.706161  1
  Nb  Nb6  1  0.455526  0.128093  0.204823  1
  Nb  Nb7  1  0.543624  0.624043  0.294934  1
  Nb  Nb8  1  0.375957  0.794934  0.956376  1
  Nb  Nb9  1  0.871907  0.704823  0.044474  1
  Nb  Nb10  1  0.126453  0.206161  0.456057  1
  Nb  Nb11  1  0.622787  0.292338  0.544721  1
  Al  Al12  1  0.321024  0.175441  0.821307  1
  Al  Al13  1  0.824559  0.321307  0.178976  1
  Al  Al14  1  0.678693  0.678976  0.675441  1
  Al  Al15  1  0.570674  0.429326  0.929326  1
  Al  Al16  1  0.416075  0.923191  0.557955  1
  Al  Al17  1  0.942045  0.583925  0.423191  1
  Al  Al18  1  0.076809  0.057955  0.083925  1
  Ni  Ni19  1  0.179964  0.820036  0.320036  1
  N  N20  1  0.875200  0.124800  0.624800  1
  N  N21  1  0.621788  0.876214  0.127838  1
  N  N22  1  0.123786  0.627838  0.878212  1
  N  N23  1  0.372162  0.378212  0.376214  1
