# generated using pymatgen
data_Y7ErSc11Si16Mo
_symmetry_space_group_name_H-M   'P 1'
_cell_length_a   7.08075902
_cell_length_b   7.33400575
_cell_length_c   13.91680848
_cell_angle_alpha   90.14648085
_cell_angle_beta   89.66325724
_cell_angle_gamma   89.72076580
_symmetry_Int_Tables_number   1
_chemical_formula_structural   Y7ErSc11Si16Mo
_chemical_formula_sum   'Y7 Er1 Sc11 Si16 Mo1'
_cell_volume   722.68094059
_cell_formula_units_Z   1
loop_
 _symmetry_equiv_pos_site_id
 _symmetry_equiv_pos_as_xyz
  1  'x, y, z'
loop_
 _atom_site_type_symbol
 _atom_site_label
 _atom_site_symmetry_multiplicity
 _atom_site_fract_x
 _atom_site_fract_y
 _atom_site_fract_z
 _atom_site_occupancy
  Y  Y0  1  0.011419  0.174403  0.097434  1
  Y  Y1  1  0.989829  0.825681  0.898068  1
  Y  Y2  1  0.487697  0.677575  0.898980  1
  Y  Y3  1  0.992988  0.829070  0.596207  1
  Y  Y4  1  0.512725  0.323959  0.096803  1
  Y  Y5  1  0.009926  0.175223  0.403761  1
  Y  Y6  1  0.506638  0.323818  0.409938  1
  Er  Er7  1  0.487887  0.676393  0.596691  1
  Sc  Sc8  1  0.164295  0.494457  0.744470  1
  Sc  Sc9  1  0.837030  0.498466  0.252062  1
  Sc  Sc10  1  0.336244  0.002479  0.252417  1
  Sc  Sc11  1  0.658479  0.002094  0.746830  1
  Sc  Sc12  1  0.664282  0.825380  0.379205  1
  Sc  Sc13  1  0.167995  0.678115  0.378262  1
  Sc  Sc14  1  0.668584  0.824056  0.124803  1
  Sc  Sc15  1  0.833380  0.323520  0.623681  1
  Sc  Sc16  1  0.333242  0.176959  0.874661  1
  Sc  Sc17  1  0.831055  0.322533  0.871314  1
  Sc  Sc18  1  0.169373  0.677071  0.125898  1
  Si  Si19  1  0.044162  0.121151  0.744892  1
  Si  Si20  1  0.962918  0.884030  0.251719  1
  Si  Si21  1  0.466032  0.618192  0.251096  1
  Si  Si22  1  0.531764  0.374534  0.745142  1
  Si  Si23  1  0.288286  0.880919  0.745296  1
  Si  Si24  1  0.710385  0.126135  0.251123  1
  Si  Si25  1  0.214639  0.374113  0.250800  1
  Si  Si26  1  0.784124  0.623196  0.746248  1
  Si  Si27  1  0.175899  0.451722  0.541408  1
  Si  Si28  1  0.842618  0.532824  0.460766  1
  Si  Si29  1  0.334184  0.968661  0.471675  1
  Si  Si30  1  0.845603  0.535681  0.038750  1
  Si  Si31  1  0.645821  0.034504  0.545371  1
  Si  Si32  1  0.154275  0.466238  0.958842  1
  Si  Si33  1  0.660972  0.036243  0.958734  1
  Si  Si34  1  0.341769  0.962886  0.038430  1
  Mo  Mo35  1  0.333475  0.177717  0.628221  1
