# generated using pymatgen
data_Pr(ZnAu)6
_symmetry_space_group_name_H-M   'P 1'
_cell_length_a   7.12892739
_cell_length_b   7.12882253
_cell_length_c   7.12892602
_cell_angle_alpha   95.26559158
_cell_angle_beta   100.42933178
_cell_angle_gamma   136.65354798
_symmetry_Int_Tables_number   1
_chemical_formula_structural   Pr(ZnAu)6
_chemical_formula_sum   'Pr1 Zn6 Au6'
_cell_volume   230.79340677
_cell_formula_units_Z   1
loop_
 _symmetry_equiv_pos_site_id
 _symmetry_equiv_pos_as_xyz
  1  'x, y, z'
loop_
 _atom_site_type_symbol
 _atom_site_label
 _atom_site_symmetry_multiplicity
 _atom_site_fract_x
 _atom_site_fract_y
 _atom_site_fract_z
 _atom_site_occupancy
  Pr  Pr0  1  0.000000  0.000000  0.000000  1
  Zn  Zn1  1  0.000000  0.000000  0.500000  1
  Zn  Zn2  1  0.500000  0.500000  0.500000  1
  Zn  Zn3  1  0.500000  0.000000  0.000000  1
  Zn  Zn4  1  0.000000  0.500000  0.000000  1
  Zn  Zn5  1  0.743116  0.500000  0.243116  1
  Zn  Zn6  1  0.256884  0.500000  0.756884  1
  Au  Au7  1  0.000006  0.342387  0.342382  1
  Au  Au8  1  0.999994  0.657613  0.657618  1
  Au  Au9  1  0.659752  0.000000  0.659752  1
  Au  Au10  1  0.340248  0.000000  0.340248  1
  Au  Au11  1  0.499988  0.320128  0.820140  1
  Au  Au12  1  0.500012  0.679872  0.179860  1
