# generated using pymatgen
data_Ta(Zn10Co)2
_symmetry_space_group_name_H-M   'P 1'
_cell_length_a   9.68472622
_cell_length_b   9.68472639
_cell_length_c   9.68472600
_cell_angle_alpha   60.00000134
_cell_angle_beta   60.00000076
_cell_angle_gamma   59.99999912
_symmetry_Int_Tables_number   1
_chemical_formula_structural   Ta(Zn10Co)2
_chemical_formula_sum   'Ta2 Zn40 Co4'
_cell_volume   642.31349741
_cell_formula_units_Z   2
loop_
 _symmetry_equiv_pos_site_id
 _symmetry_equiv_pos_as_xyz
  1  'x, y, z'
loop_
 _atom_site_type_symbol
 _atom_site_label
 _atom_site_symmetry_multiplicity
 _atom_site_fract_x
 _atom_site_fract_y
 _atom_site_fract_z
 _atom_site_occupancy
  Ta  Ta0  1  0.500000  0.500000  0.500000  1
  Ta  Ta1  1  0.750000  0.750000  0.750000  1
  Zn  Zn2  1  0.568285  0.301840  0.301840  1
  Zn  Zn3  1  0.301840  0.568285  0.828035  1
  Zn  Zn4  1  0.301840  0.828035  0.568285  1
  Zn  Zn5  1  0.828035  0.301840  0.301840  1
  Zn  Zn6  1  0.301840  0.301840  0.568285  1
  Zn  Zn7  1  0.568285  0.828035  0.301840  1
  Zn  Zn8  1  0.828035  0.568285  0.301840  1
  Zn  Zn9  1  0.301840  0.301840  0.828035  1
  Zn  Zn10  1  0.301840  0.568285  0.301840  1
  Zn  Zn11  1  0.828035  0.301840  0.568285  1
  Zn  Zn12  1  0.568285  0.301840  0.828035  1
  Zn  Zn13  1  0.301840  0.828035  0.301840  1
  Zn  Zn14  1  0.681715  0.948160  0.948160  1
  Zn  Zn15  1  0.948160  0.681715  0.421965  1
  Zn  Zn16  1  0.948160  0.421965  0.681715  1
  Zn  Zn17  1  0.421965  0.948160  0.948160  1
  Zn  Zn18  1  0.948160  0.948160  0.681715  1
  Zn  Zn19  1  0.681715  0.421965  0.948160  1
  Zn  Zn20  1  0.421965  0.681715  0.948160  1
  Zn  Zn21  1  0.948160  0.948160  0.421965  1
  Zn  Zn22  1  0.948160  0.681715  0.948160  1
  Zn  Zn23  1  0.421965  0.948160  0.681715  1
  Zn  Zn24  1  0.681715  0.948160  0.421965  1
  Zn  Zn25  1  0.948160  0.421965  0.948160  1
  Zn  Zn26  1  0.863273  0.863273  0.136727  1
  Zn  Zn27  1  0.136727  0.136727  0.863273  1
  Zn  Zn28  1  0.863273  0.136727  0.863273  1
  Zn  Zn29  1  0.136727  0.863273  0.136727  1
  Zn  Zn30  1  0.136727  0.863273  0.863273  1
  Zn  Zn31  1  0.863273  0.136727  0.136727  1
  Zn  Zn32  1  0.386727  0.386727  0.113273  1
  Zn  Zn33  1  0.113273  0.113273  0.386727  1
  Zn  Zn34  1  0.386727  0.113273  0.386727  1
  Zn  Zn35  1  0.113273  0.386727  0.113273  1
  Zn  Zn36  1  0.113273  0.386727  0.386727  1
  Zn  Zn37  1  0.386727  0.113273  0.113273  1
  Zn  Zn38  1  0.125000  0.625000  0.625000  1
  Zn  Zn39  1  0.625000  0.125000  0.625000  1
  Zn  Zn40  1  0.625000  0.625000  0.125000  1
  Zn  Zn41  1  0.625000  0.625000  0.625000  1
  Co  Co42  1  0.625000  0.125000  0.125000  1
  Co  Co43  1  0.125000  0.625000  0.125000  1
  Co  Co44  1  0.125000  0.125000  0.625000  1
  Co  Co45  1  0.125000  0.125000  0.125000  1
