# generated using pymatgen
data_Ca6LuIn3(GeO4)6
_symmetry_space_group_name_H-M   'P 1'
_cell_length_a   11.07222362
_cell_length_b   11.07222355
_cell_length_c   11.03535000
_cell_angle_alpha   109.40377287
_cell_angle_beta   109.40377276
_cell_angle_gamma   109.53858434
_symmetry_Int_Tables_number   1
_chemical_formula_structural   Ca6LuIn3(GeO4)6
_chemical_formula_sum   'Ca12 Lu2 In6 Ge12 O48'
_cell_volume   1042.30481217
_cell_formula_units_Z   2
loop_
 _symmetry_equiv_pos_site_id
 _symmetry_equiv_pos_as_xyz
  1  'x, y, z'
loop_
 _atom_site_type_symbol
 _atom_site_label
 _atom_site_symmetry_multiplicity
 _atom_site_fract_x
 _atom_site_fract_y
 _atom_site_fract_z
 _atom_site_occupancy
  Ca  Ca0  1  0.250019  0.375009  0.125009  1
  Ca  Ca1  1  0.749981  0.624991  0.874991  1
  Ca  Ca2  1  0.751578  0.125789  0.375789  1
  Ca  Ca3  1  0.124991  0.249981  0.374991  1
  Ca  Ca4  1  0.374211  0.748422  0.124211  1
  Ca  Ca5  1  0.248422  0.874211  0.624211  1
  Ca  Ca6  1  0.875009  0.750019  0.625009  1
  Ca  Ca7  1  0.625789  0.251578  0.875789  1
  Ca  Ca8  1  0.374211  0.125789  0.250000  1
  Ca  Ca9  1  0.625789  0.874211  0.750000  1
  Ca  Ca10  1  0.124991  0.375009  0.750000  1
  Ca  Ca11  1  0.875009  0.624991  0.250000  1
  Lu  Lu12  1  0.500000  0.000000  0.500000  1
  Lu  Lu13  1  0.500000  0.000000  0.000000  1
  In  In14  1  0.000000  0.000000  0.000000  1
  In  In15  1  0.000000  0.500000  0.500000  1
  In  In16  1  0.500000  0.500000  0.000000  1
  In  In17  1  0.500000  0.500000  0.500000  1
  In  In18  1  0.000000  0.000000  0.500000  1
  In  In19  1  0.000000  0.500000  0.000000  1
  Ge  Ge20  1  0.249635  0.624025  0.375618  1
  Ge  Ge21  1  0.750365  0.375975  0.624382  1
  Ge  Ge22  1  0.750365  0.874390  0.125982  1
  Ge  Ge23  1  0.374390  0.250365  0.625982  1
  Ge  Ge24  1  0.625610  0.749635  0.374018  1
  Ge  Ge25  1  0.249635  0.125610  0.874018  1
  Ge  Ge26  1  0.124025  0.749635  0.875618  1
  Ge  Ge27  1  0.875975  0.250365  0.124382  1
  Ge  Ge28  1  0.625610  0.375975  0.251593  1
  Ge  Ge29  1  0.374390  0.624025  0.748407  1
  Ge  Ge30  1  0.875975  0.125610  0.751593  1
  Ge  Ge31  1  0.124025  0.874390  0.248407  1
  O  O32  1  0.478887  0.376362  0.286928  1
  O  O33  1  0.521113  0.623638  0.713072  1
  O  O34  1  0.589570  0.193802  0.212785  1
  O  O35  1  0.910518  0.123718  0.603403  1
  O  O36  1  0.286617  0.478435  0.376111  1
  O  O37  1  0.306198  0.910430  0.287215  1
  O  O38  1  0.410430  0.806198  0.787215  1
  O  O39  1  0.089482  0.876282  0.396597  1
  O  O40  1  0.713383  0.521565  0.623889  1
  O  O41  1  0.693802  0.089570  0.712785  1
  O  O42  1  0.021565  0.308181  0.897676  1
  O  O43  1  0.213200  0.589482  0.192885  1
  O  O44  1  0.123638  0.021113  0.213072  1
  O  O45  1  0.978435  0.691819  0.102324  1
  O  O46  1  0.786800  0.410518  0.807115  1
  O  O47  1  0.876362  0.978887  0.786928  1
  O  O48  1  0.604232  0.910430  0.123215  1
  O  O49  1  0.191819  0.478435  0.602324  1
  O  O50  1  0.395768  0.089570  0.876785  1
  O  O51  1  0.808181  0.521565  0.397676  1
  O  O52  1  0.897475  0.021113  0.308041  1
  O  O53  1  0.376282  0.589482  0.896597  1
  O  O54  1  0.102525  0.978887  0.691959  1
  O  O55  1  0.623718  0.410518  0.103403  1
  O  O56  1  0.376282  0.286800  0.479685  1
  O  O57  1  0.589570  0.895768  0.376785  1
  O  O58  1  0.623718  0.713200  0.520315  1
  O  O59  1  0.410430  0.104232  0.623215  1
  O  O60  1  0.123638  0.602525  0.910566  1
  O  O61  1  0.021565  0.213383  0.123889  1
  O  O62  1  0.876362  0.397475  0.089434  1
  O  O63  1  0.978435  0.786617  0.876111  1
  O  O64  1  0.306198  0.895768  0.018983  1
  O  O65  1  0.910518  0.286800  0.307115  1
  O  O66  1  0.693802  0.104232  0.981017  1
  O  O67  1  0.089482  0.713200  0.692885  1
  O  O68  1  0.191819  0.213383  0.589495  1
  O  O69  1  0.478887  0.602525  0.191959  1
  O  O70  1  0.808181  0.786617  0.410505  1
  O  O71  1  0.521113  0.397475  0.808041  1
  O  O72  1  0.286617  0.308181  0.910505  1
  O  O73  1  0.713383  0.691819  0.089495  1
  O  O74  1  0.213200  0.123718  0.020315  1
  O  O75  1  0.786800  0.876282  0.979685  1
  O  O76  1  0.897475  0.376362  0.589434  1
  O  O77  1  0.102525  0.623638  0.410566  1
  O  O78  1  0.604232  0.193802  0.481017  1
  O  O79  1  0.395768  0.806198  0.518983  1
