# generated using pymatgen
data_YbNb9B20
_symmetry_space_group_name_H-M   'P 1'
_cell_length_a   6.25297833
_cell_length_b   7.10851399
_cell_length_c   7.42418332
_cell_angle_alpha   93.52883455
_cell_angle_beta   102.10538052
_cell_angle_gamma   116.15448863
_symmetry_Int_Tables_number   1
_chemical_formula_structural   YbNb9B20
_chemical_formula_sum   'Yb1 Nb9 B20'
_cell_volume   285.13162862
_cell_formula_units_Z   1
loop_
 _symmetry_equiv_pos_site_id
 _symmetry_equiv_pos_as_xyz
  1  'x, y, z'
loop_
 _atom_site_type_symbol
 _atom_site_label
 _atom_site_symmetry_multiplicity
 _atom_site_fract_x
 _atom_site_fract_y
 _atom_site_fract_z
 _atom_site_occupancy
  Yb  Yb0  1  0.000000  0.000000  0.000000  1
  Nb  Nb1  1  0.500000  0.000000  0.000000  1
  Nb  Nb2  1  0.497329  0.797525  0.400534  1
  Nb  Nb3  1  0.999671  0.397813  0.201460  1
  Nb  Nb4  1  0.502671  0.202475  0.599466  1
  Nb  Nb5  1  0.999836  0.795487  0.398447  1
  Nb  Nb6  1  0.500466  0.600896  0.798438  1
  Nb  Nb7  1  0.499534  0.399104  0.201562  1
  Nb  Nb8  1  0.000164  0.204513  0.601553  1
  Nb  Nb9  1  0.000329  0.602187  0.798540  1
  B  B10  1  0.334593  0.234771  0.864068  1
  B  B11  1  0.333597  0.632894  0.067161  1
  B  B12  1  0.167476  0.369039  0.933019  1
  B  B13  1  0.334377  0.032032  0.270023  1
  B  B14  1  0.167402  0.765164  0.135056  1
  B  B15  1  0.832598  0.234836  0.864944  1
  B  B16  1  0.166866  0.166312  0.336718  1
  B  B17  1  0.832524  0.630961  0.066981  1
  B  B18  1  0.333454  0.433077  0.466283  1
  B  B19  1  0.666403  0.367106  0.932839  1
  B  B20  1  0.832733  0.032506  0.269799  1
  B  B21  1  0.665407  0.765229  0.135932  1
  B  B22  1  0.333879  0.834366  0.665893  1
  B  B23  1  0.166609  0.566935  0.533334  1
  B  B24  1  0.666121  0.165634  0.334107  1
  B  B25  1  0.833391  0.433065  0.466666  1
  B  B26  1  0.167267  0.967494  0.730201  1
  B  B27  1  0.833134  0.833688  0.663282  1
  B  B28  1  0.666546  0.566923  0.533717  1
  B  B29  1  0.665623  0.967968  0.729977  1
