# generated using pymatgen
data_Er8Ti10ReSi16Ru
_symmetry_space_group_name_H-M   'P 1'
_cell_length_a   6.98368242
_cell_length_b   6.97285929
_cell_length_c   12.80413244
_cell_angle_alpha   90.06780968
_cell_angle_beta   89.86404702
_cell_angle_gamma   89.85134933
_symmetry_Int_Tables_number   1
_chemical_formula_structural   Er8Ti10ReSi16Ru
_chemical_formula_sum   'Er8 Ti10 Re1 Si16 Ru1'
_cell_volume   623.50874507
_cell_formula_units_Z   1
loop_
 _symmetry_equiv_pos_site_id
 _symmetry_equiv_pos_as_xyz
  1  'x, y, z'
loop_
 _atom_site_type_symbol
 _atom_site_label
 _atom_site_symmetry_multiplicity
 _atom_site_fract_x
 _atom_site_fract_y
 _atom_site_fract_z
 _atom_site_occupancy
  Er  Er0  1  0.341505  0.001376  0.466080  1
  Er  Er1  1  0.495856  0.842095  0.718222  1
  Er  Er2  1  0.500501  0.157789  0.217146  1
  Er  Er3  1  0.843170  0.498595  0.280727  1
  Er  Er4  1  0.158183  0.501595  0.784251  1
  Er  Er5  1  0.657453  0.998775  0.969728  1
  Er  Er6  1  0.003916  0.341069  0.531178  1
  Er  Er7  1  0.999837  0.658838  0.032270  1
  Ti  Ti8  1  0.825809  0.174067  0.751718  1
  Ti  Ti9  1  0.674045  0.674313  0.498867  1
  Ti  Ti10  1  0.150026  0.001444  0.877029  1
  Ti  Ti11  1  0.494123  0.656679  0.125925  1
  Ti  Ti12  1  0.505913  0.348267  0.627586  1
  Ti  Ti13  1  0.657178  0.493323  0.875617  1
  Ti  Ti14  1  0.348338  0.504240  0.371115  1
  Ti  Ti15  1  0.846274  0.992700  0.373387  1
  Ti  Ti16  1  0.003082  0.150585  0.126097  1
  Ti  Ti17  1  0.994599  0.849109  0.623222  1
  Re  Re18  1  0.174380  0.828705  0.248053  1
  Si  Si19  1  0.202800  0.132803  0.684347  1
  Si  Si20  1  0.371760  0.699522  0.933305  1
  Si  Si21  1  0.631960  0.296346  0.433625  1
  Si  Si22  1  0.701597  0.371874  0.067738  1
  Si  Si23  1  0.296591  0.631114  0.565691  1
  Si  Si24  1  0.798531  0.868908  0.182637  1
  Si  Si25  1  0.131231  0.199382  0.316796  1
  Si  Si26  1  0.866331  0.796884  0.816248  1
  Si  Si27  1  0.288315  0.953569  0.065594  1
  Si  Si28  1  0.546027  0.790895  0.315900  1
  Si  Si29  1  0.449283  0.209042  0.818987  1
  Si  Si30  1  0.792509  0.548002  0.683634  1
  Si  Si31  1  0.210324  0.451438  0.182396  1
  Si  Si32  1  0.707769  0.048038  0.565878  1
  Si  Si33  1  0.953477  0.288560  0.935456  1
  Si  Si34  1  0.049704  0.708423  0.431791  1
  Ru  Ru35  1  0.327604  0.331636  0.001758  1
