# generated using pymatgen
data_TmU5O16
_symmetry_space_group_name_H-M   'P 1'
_cell_length_a   6.71526228
_cell_length_b   6.74487008
_cell_length_c   8.31712900
_cell_angle_alpha   90.00000000
_cell_angle_beta   90.00000000
_cell_angle_gamma   116.35210959
_symmetry_Int_Tables_number   1
_chemical_formula_structural   TmU5O16
_chemical_formula_sum   'Tm1 U5 O16'
_cell_volume   337.56568289
_cell_formula_units_Z   1
loop_
 _symmetry_equiv_pos_site_id
 _symmetry_equiv_pos_as_xyz
  1  'x, y, z'
loop_
 _atom_site_type_symbol
 _atom_site_label
 _atom_site_symmetry_multiplicity
 _atom_site_fract_x
 _atom_site_fract_y
 _atom_site_fract_z
 _atom_site_occupancy
  Tm  Tm0  1  0.307563  0.684181  0.250000  1
  U  U1  1  0.998089  0.000070  0.250000  1
  U  U2  1  0.317402  0.685331  0.750000  1
  U  U3  1  0.683452  0.319821  0.750000  1
  U  U4  1  0.679874  0.319667  0.250000  1
  U  U5  1  0.998476  0.000371  0.750000  1
  O  O6  1  0.315038  0.687126  0.977848  1
  O  O7  1  0.518934  0.508008  0.750000  1
  O  O8  1  0.999442  0.998355  0.505287  1
  O  O9  1  0.028997  0.323351  0.250000  1
  O  O10  1  0.966036  0.671716  0.750000  1
  O  O11  1  0.322319  0.034387  0.250000  1
  O  O12  1  0.688091  0.313275  0.495366  1
  O  O13  1  0.039520  0.327909  0.750000  1
  O  O14  1  0.675798  0.954925  0.250000  1
  O  O15  1  0.331168  0.047387  0.750000  1
  O  O16  1  0.688091  0.313275  0.004634  1
  O  O17  1  0.315038  0.687126  0.522152  1
  O  O18  1  0.500108  0.479493  0.250000  1
  O  O19  1  0.953617  0.672273  0.250000  1
  O  O20  1  0.999442  0.998355  0.994713  1
  O  O21  1  0.673507  0.973598  0.750000  1
