# generated using pymatgen
data_Tb2Y14Cd3AgPd3Pt
_symmetry_space_group_name_H-M   'P 1'
_cell_length_a   9.73912275
_cell_length_b   9.73251279
_cell_length_c   9.73449300
_cell_angle_alpha   59.99331344
_cell_angle_beta   60.01580900
_cell_angle_gamma   60.00324491
_symmetry_Int_Tables_number   1
_chemical_formula_structural   Tb2Y14Cd3AgPd3Pt
_chemical_formula_sum   'Tb2 Y14 Cd3 Ag1 Pd3 Pt1'
_cell_volume   652.50481014
_cell_formula_units_Z   1
loop_
 _symmetry_equiv_pos_site_id
 _symmetry_equiv_pos_as_xyz
  1  'x, y, z'
loop_
 _atom_site_type_symbol
 _atom_site_label
 _atom_site_symmetry_multiplicity
 _atom_site_fract_x
 _atom_site_fract_y
 _atom_site_fract_z
 _atom_site_occupancy
  Tb  Tb0  1  0.354195  0.352096  0.349895  1
  Tb  Tb1  1  0.354614  0.352399  0.942332  1
  Y  Y2  1  0.358572  0.933839  0.353952  1
  Y  Y3  1  0.931343  0.358041  0.355614  1
  Y  Y4  1  0.809674  0.190504  0.189713  1
  Y  Y5  1  0.190833  0.810721  0.809014  1
  Y  Y6  1  0.190781  0.810554  0.189826  1
  Y  Y7  1  0.809889  0.190490  0.810337  1
  Y  Y8  1  0.191164  0.190834  0.809426  1
  Y  Y9  1  0.810253  0.812186  0.188845  1
  Y  Y10  1  0.933262  0.564451  0.565109  1
  Y  Y11  1  0.564741  0.935704  0.934559  1
  Y  Y12  1  0.564717  0.933466  0.564117  1
  Y  Y13  1  0.935689  0.564486  0.933950  1
  Y  Y14  1  0.565471  0.564237  0.932488  1
  Y  Y15  1  0.935412  0.935156  0.564502  1
  Cd  Cd16  1  0.581395  0.581975  0.254602  1
  Cd  Cd17  1  0.580652  0.254489  0.583144  1
  Cd  Cd18  1  0.254736  0.581056  0.582801  1
  Ag  Ag19  1  0.583312  0.583665  0.585077  1
  Pd  Pd20  1  0.144103  0.144981  0.146447  1
  Pd  Pd21  1  0.143814  0.144751  0.564959  1
  Pd  Pd22  1  0.142660  0.567327  0.145013  1
  Pt  Pt23  1  0.568720  0.142591  0.144279  1
