# generated using pymatgen
data_Tb16In3AgIrRh3
_symmetry_space_group_name_H-M   'P 1'
_cell_length_a   9.67044110
_cell_length_b   9.68283197
_cell_length_c   9.67044064
_cell_angle_alpha   59.99498469
_cell_angle_beta   59.91601204
_cell_angle_gamma   59.99498373
_symmetry_Int_Tables_number   1
_chemical_formula_structural   Tb16In3AgIrRh3
_chemical_formula_sum   'Tb16 In3 Ag1 Ir1 Rh3'
_cell_volume   639.83889298
_cell_formula_units_Z   1
loop_
 _symmetry_equiv_pos_site_id
 _symmetry_equiv_pos_as_xyz
  1  'x, y, z'
loop_
 _atom_site_type_symbol
 _atom_site_label
 _atom_site_symmetry_multiplicity
 _atom_site_fract_x
 _atom_site_fract_y
 _atom_site_fract_z
 _atom_site_occupancy
  Tb  Tb0  1  0.100626  0.700195  0.100626  1
  Tb  Tb1  1  0.940925  0.941395  0.558125  1
  Tb  Tb2  1  0.941188  0.557919  0.941188  1
  Tb  Tb3  1  0.313066  0.683877  0.313066  1
  Tb  Tb4  1  0.938342  0.559847  0.560460  1
  Tb  Tb5  1  0.311344  0.313223  0.684466  1
  Tb  Tb6  1  0.099168  0.099718  0.099168  1
  Tb  Tb7  1  0.560460  0.559847  0.938342  1
  Tb  Tb8  1  0.100346  0.100733  0.700608  1
  Tb  Tb9  1  0.688436  0.311978  0.688436  1
  Tb  Tb10  1  0.687709  0.687747  0.311920  1
  Tb  Tb11  1  0.684466  0.313223  0.311344  1
  Tb  Tb12  1  0.311920  0.687747  0.687709  1
  Tb  Tb13  1  0.560414  0.938246  0.560414  1
  Tb  Tb14  1  0.700608  0.100733  0.100346  1
  Tb  Tb15  1  0.558125  0.941395  0.940925  1
  In  In16  1  0.004774  0.332198  0.332230  1
  In  In17  1  0.332186  0.004857  0.332186  1
  In  In18  1  0.332230  0.332198  0.004774  1
  Ag  Ag19  1  0.332757  0.333057  0.332757  1
  Ir  Ir20  1  0.891877  0.324099  0.891877  1
  Rh  Rh21  1  0.892618  0.892379  0.892618  1
  Rh  Rh22  1  0.891890  0.891692  0.324525  1
  Rh  Rh23  1  0.324525  0.891692  0.891890  1
