# generated using pymatgen
data_Sr4TcNiO8
_symmetry_space_group_name_H-M   'P 1'
_cell_length_a   6.96866833
_cell_length_b   6.96866764
_cell_length_c   5.56250100
_cell_angle_alpha   90.00000000
_cell_angle_beta   90.00000000
_cell_angle_gamma   132.96660354
_symmetry_Int_Tables_number   1
_chemical_formula_structural   Sr4TcNiO8
_chemical_formula_sum   'Sr4 Tc1 Ni1 O8'
_cell_volume   197.66648193
_cell_formula_units_Z   1
loop_
 _symmetry_equiv_pos_site_id
 _symmetry_equiv_pos_as_xyz
  1  'x, y, z'
loop_
 _atom_site_type_symbol
 _atom_site_label
 _atom_site_symmetry_multiplicity
 _atom_site_fract_x
 _atom_site_fract_y
 _atom_site_fract_z
 _atom_site_occupancy
  Sr  Sr0  1  0.647572  0.352428  0.000000  1
  Sr  Sr1  1  0.144837  0.855163  0.500000  1
  Sr  Sr2  1  0.855163  0.144837  0.500000  1
  Sr  Sr3  1  0.352428  0.647572  0.000000  1
  Tc  Tc4  1  0.500000  0.500000  0.500000  1
  Ni  Ni5  1  0.000000  0.000000  0.000000  1
  O  O6  1  0.741628  0.741628  0.259040  1
  O  O7  1  0.258372  0.258372  0.740960  1
  O  O8  1  0.258372  0.258372  0.259040  1
  O  O9  1  0.741628  0.741628  0.740960  1
  O  O10  1  0.835112  0.164888  0.000000  1
  O  O11  1  0.341580  0.658420  0.500000  1
  O  O12  1  0.658420  0.341580  0.500000  1
  O  O13  1  0.164888  0.835112  0.000000  1
