# generated using pymatgen
data_TlIrCl6
_symmetry_space_group_name_H-M   'P 1'
_cell_length_a   6.65619900
_cell_length_b   6.65619888
_cell_length_c   12.67358700
_cell_angle_alpha   90.00000000
_cell_angle_beta   90.00000000
_cell_angle_gamma   120.00000556
_symmetry_Int_Tables_number   1
_chemical_formula_structural   TlIrCl6
_chemical_formula_sum   'Tl2 Ir2 Cl12'
_cell_volume   486.27589867
_cell_formula_units_Z   2
loop_
 _symmetry_equiv_pos_site_id
 _symmetry_equiv_pos_as_xyz
  1  'x, y, z'
loop_
 _atom_site_type_symbol
 _atom_site_label
 _atom_site_symmetry_multiplicity
 _atom_site_fract_x
 _atom_site_fract_y
 _atom_site_fract_z
 _atom_site_occupancy
  Tl  Tl0  1  0.000000  0.000000  0.250000  1
  Tl  Tl1  1  0.000000  0.000000  0.750000  1
  Ir  Ir2  1  0.333333  0.666667  0.250000  1
  Ir  Ir3  1  0.666667  0.333333  0.750000  1
  Cl  Cl4  1  0.622008  0.954228  0.143650  1
  Cl  Cl5  1  0.045772  0.667782  0.143650  1
  Cl  Cl6  1  0.332218  0.377992  0.143650  1
  Cl  Cl7  1  0.045772  0.377992  0.356350  1
  Cl  Cl8  1  0.377992  0.332218  0.643650  1
  Cl  Cl9  1  0.667782  0.045772  0.643650  1
  Cl  Cl10  1  0.954228  0.622008  0.643650  1
  Cl  Cl11  1  0.667782  0.622008  0.856350  1
  Cl  Cl12  1  0.954228  0.332218  0.856350  1
  Cl  Cl13  1  0.377992  0.045772  0.856350  1
  Cl  Cl14  1  0.622008  0.667782  0.356350  1
  Cl  Cl15  1  0.332218  0.954228  0.356350  1
