# generated using pymatgen
data_K3Ga(IO3)6
_symmetry_space_group_name_H-M   'P 1'
_cell_length_a   6.94533839
_cell_length_b   7.16345063
_cell_length_c   10.59858606
_cell_angle_alpha   97.82100090
_cell_angle_beta   108.98783972
_cell_angle_gamma   103.02242930
_symmetry_Int_Tables_number   1
_chemical_formula_structural   K3Ga(IO3)6
_chemical_formula_sum   'K3 Ga1 I6 O18'
_cell_volume   473.07717099
_cell_formula_units_Z   1
loop_
 _symmetry_equiv_pos_site_id
 _symmetry_equiv_pos_as_xyz
  1  'x, y, z'
loop_
 _atom_site_type_symbol
 _atom_site_label
 _atom_site_symmetry_multiplicity
 _atom_site_fract_x
 _atom_site_fract_y
 _atom_site_fract_z
 _atom_site_occupancy
  K  K0  1  0.375592  0.538597  0.294439  1
  K  K1  1  0.624408  0.461403  0.705561  1
  K  K2  1  0.000000  0.500000  0.500000  1
  Ga  Ga3  1  0.000000  0.000000  0.000000  1
  I  I4  1  0.551441  0.037209  0.192103  1
  I  I5  1  0.448559  0.962791  0.807897  1
  I  I6  1  0.785630  0.544513  0.100364  1
  I  I7  1  0.214370  0.455487  0.899636  1
  I  I8  1  0.133049  0.053743  0.371742  1
  I  I9  1  0.866951  0.946257  0.628258  1
  O  O10  1  0.584835  0.658542  0.123580  1
  O  O11  1  0.415165  0.341458  0.876420  1
  O  O12  1  0.000571  0.351643  0.732253  1
  O  O13  1  0.999429  0.648357  0.267747  1
  O  O14  1  0.613006  0.305939  0.234460  1
  O  O15  1  0.386994  0.694061  0.765540  1
  O  O16  1  0.047815  0.104362  0.196383  1
  O  O17  1  0.952185  0.895638  0.803617  1
  O  O18  1  0.292910  0.969636  0.037840  1
  O  O19  1  0.707090  0.030364  0.962160  1
  O  O20  1  0.292268  0.303059  0.463007  1
  O  O21  1  0.707732  0.696941  0.536993  1
  O  O22  1  0.880881  0.073451  0.392652  1
  O  O23  1  0.119119  0.926549  0.607348  1
  O  O24  1  0.562321  0.031455  0.681447  1
  O  O25  1  0.437679  0.968545  0.318553  1
  O  O26  1  0.106780  0.302009  0.004051  1
  O  O27  1  0.893220  0.697991  0.995949  1
