# generated using pymatgen
data_DyLuMn6P7Ir6
_symmetry_space_group_name_H-M   'P 1'
_cell_length_a   9.41185866
_cell_length_b   9.41009660
_cell_length_c   3.81955800
_cell_angle_alpha   90.00000000
_cell_angle_beta   90.00000000
_cell_angle_gamma   119.99669540
_symmetry_Int_Tables_number   1
_chemical_formula_structural   DyLuMn6P7Ir6
_chemical_formula_sum   'Dy1 Lu1 Mn6 P7 Ir6'
_cell_volume   292.97305544
_cell_formula_units_Z   1
loop_
 _symmetry_equiv_pos_site_id
 _symmetry_equiv_pos_as_xyz
  1  'x, y, z'
loop_
 _atom_site_type_symbol
 _atom_site_label
 _atom_site_symmetry_multiplicity
 _atom_site_fract_x
 _atom_site_fract_y
 _atom_site_fract_z
 _atom_site_occupancy
  Dy  Dy0  1  0.666700  0.333352  0.000000  1
  Lu  Lu1  1  0.000019  0.999984  0.500000  1
  Mn  Mn2  1  0.491973  0.937801  0.000000  1
  Mn  Mn3  1  0.062822  0.554572  0.000000  1
  Mn  Mn4  1  0.445175  0.508110  0.000000  1
  Mn  Mn5  1  0.549659  0.764688  0.500000  1
  Mn  Mn6  1  0.235412  0.784898  0.500000  1
  Mn  Mn7  1  0.214866  0.449967  0.500000  1
  P  P8  1  0.452894  0.063506  0.500000  1
  P  P9  1  0.936790  0.389468  0.500000  1
  P  P10  1  0.610556  0.547299  0.500000  1
  P  P11  1  0.744372  0.966811  0.000000  1
  P  P12  1  0.033019  0.777382  0.000000  1
  P  P13  1  0.222387  0.255487  0.000000  1
  P  P14  1  0.333403  0.666902  0.000000  1
  Ir  Ir15  1  0.761624  0.734387  0.000000  1
  Ir  Ir16  1  0.265293  0.027156  0.000000  1
  Ir  Ir17  1  0.972834  0.238212  0.000000  1
  Ir  Ir18  1  0.721190  0.109487  0.500000  1
  Ir  Ir19  1  0.890582  0.611606  0.500000  1
  Ir  Ir20  1  0.388428  0.278926  0.500000  1
