# generated using pymatgen
data_Y5Ho3Al8
_symmetry_space_group_name_H-M   'P 1'
_cell_length_a   5.62556300
_cell_length_b   5.85858303
_cell_length_c   11.42254006
_cell_angle_alpha   90.01216246
_cell_angle_beta   90.00000000
_cell_angle_gamma   90.00000000
_symmetry_Int_Tables_number   1
_chemical_formula_structural   Y5Ho3Al8
_chemical_formula_sum   'Y5 Ho3 Al8'
_cell_volume   376.46210163
_cell_formula_units_Z   1
loop_
 _symmetry_equiv_pos_site_id
 _symmetry_equiv_pos_as_xyz
  1  'x, y, z'
loop_
 _atom_site_type_symbol
 _atom_site_label
 _atom_site_symmetry_multiplicity
 _atom_site_fract_x
 _atom_site_fract_y
 _atom_site_fract_z
 _atom_site_occupancy
  Y  Y0  1  0.750000  0.161875  0.483947  1
  Y  Y1  1  0.250000  0.838183  0.516271  1
  Y  Y2  1  0.250000  0.161579  0.015962  1
  Y  Y3  1  0.750000  0.838512  0.983548  1
  Y  Y4  1  0.750000  0.396548  0.168596  1
  Ho  Ho5  1  0.250000  0.603333  0.831353  1
  Ho  Ho6  1  0.250000  0.396721  0.331580  1
  Ho  Ho7  1  0.750000  0.603298  0.668705  1
  Al  Al8  1  0.499862  0.928234  0.250079  1
  Al  Al9  1  0.000031  0.071587  0.750005  1
  Al  Al10  1  0.499969  0.071587  0.750005  1
  Al  Al11  1  0.000138  0.928234  0.250079  1
  Al  Al12  1  0.750000  0.659228  0.401886  1
  Al  Al13  1  0.250000  0.340872  0.598305  1
  Al  Al14  1  0.250000  0.659328  0.098238  1
  Al  Al15  1  0.750000  0.340881  0.901443  1
