# generated using pymatgen
data_RbUInBr6
_symmetry_space_group_name_H-M   'P 1'
_cell_length_a   7.76317217
_cell_length_b   7.76317229
_cell_length_c   11.46051500
_cell_angle_alpha   90.00000000
_cell_angle_beta   90.00000000
_cell_angle_gamma   87.65086394
_symmetry_Int_Tables_number   1
_chemical_formula_structural   RbUInBr6
_chemical_formula_sum   'Rb2 U2 In2 Br12'
_cell_volume   690.10861114
_cell_formula_units_Z   2
loop_
 _symmetry_equiv_pos_site_id
 _symmetry_equiv_pos_as_xyz
  1  'x, y, z'
loop_
 _atom_site_type_symbol
 _atom_site_label
 _atom_site_symmetry_multiplicity
 _atom_site_fract_x
 _atom_site_fract_y
 _atom_site_fract_z
 _atom_site_occupancy
  Rb  Rb0  1  0.000000  0.500000  0.250000  1
  Rb  Rb1  1  0.000000  0.500000  0.750000  1
  U  U2  1  0.000000  0.000000  0.000000  1
  U  U3  1  0.500000  0.500000  0.500000  1
  In  In4  1  0.500000  0.000000  0.750000  1
  In  In5  1  0.500000  0.000000  0.250000  1
  Br  Br6  1  0.801390  0.303646  0.000000  1
  Br  Br7  1  0.198610  0.696354  0.000000  1
  Br  Br8  1  0.500000  0.500000  0.255378  1
  Br  Br9  1  0.311607  0.200852  0.500000  1
  Br  Br10  1  0.299148  0.188393  0.000000  1
  Br  Br11  1  0.803646  0.301390  0.500000  1
  Br  Br12  1  0.000000  0.000000  0.244622  1
  Br  Br13  1  0.688393  0.799148  0.500000  1
  Br  Br14  1  0.196354  0.698610  0.500000  1
  Br  Br15  1  0.500000  0.500000  0.744622  1
  Br  Br16  1  0.700852  0.811607  0.000000  1
  Br  Br17  1  0.000000  0.000000  0.755378  1
