# generated using pymatgen
data_Ho4In(Si2Pd)2
_symmetry_space_group_name_H-M   'P 1'
_cell_length_a   4.22614480
_cell_length_b   7.01438171
_cell_length_c   8.05018000
_cell_angle_alpha   107.27024960
_cell_angle_beta   105.21771619
_cell_angle_gamma   90.00000318
_symmetry_Int_Tables_number   1
_chemical_formula_structural   Ho4In(Si2Pd)2
_chemical_formula_sum   'Ho4 In1 Si4 Pd2'
_cell_volume   219.10063630
_cell_formula_units_Z   1
loop_
 _symmetry_equiv_pos_site_id
 _symmetry_equiv_pos_as_xyz
  1  'x, y, z'
loop_
 _atom_site_type_symbol
 _atom_site_label
 _atom_site_symmetry_multiplicity
 _atom_site_fract_x
 _atom_site_fract_y
 _atom_site_fract_z
 _atom_site_occupancy
  Ho  Ho0  1  0.585252  0.380919  0.170506  1
  Ho  Ho1  1  0.655346  0.925971  0.310695  1
  Ho  Ho2  1  0.344653  0.074030  0.689305  1
  Ho  Ho3  1  0.414747  0.619082  0.829493  1
  In  In4  1  0.000000  0.000000  0.000000  1
  Si  Si5  1  0.060458  0.653854  0.120916  1
  Si  Si6  1  0.195386  0.250289  0.390772  1
  Si  Si7  1  0.804613  0.749712  0.609228  1
  Si  Si8  1  0.939540  0.346145  0.879084  1
  Pd  Pd9  1  0.216965  0.638361  0.433930  1
  Pd  Pd10  1  0.783034  0.361640  0.566070  1
