# generated using pymatgen
data_K3Rb5(CdI4)4
_symmetry_space_group_name_H-M   'P 1'
_cell_length_a   7.98739415
_cell_length_b   10.52269000
_cell_length_c   18.14014200
_cell_angle_alpha   90.00000000
_cell_angle_beta   90.01098229
_cell_angle_gamma   90.00000000
_symmetry_Int_Tables_number   1
_chemical_formula_structural   K3Rb5(CdI4)4
_chemical_formula_sum   'K3 Rb5 Cd4 I16'
_cell_volume   1524.65845433
_cell_formula_units_Z   1
loop_
 _symmetry_equiv_pos_site_id
 _symmetry_equiv_pos_as_xyz
  1  'x, y, z'
loop_
 _atom_site_type_symbol
 _atom_site_label
 _atom_site_symmetry_multiplicity
 _atom_site_fract_x
 _atom_site_fract_y
 _atom_site_fract_z
 _atom_site_occupancy
  K  K0  1  0.007207  0.750000  0.274622  1
  K  K1  1  0.505862  0.250000  0.225833  1
  K  K2  1  0.991312  0.250000  0.725034  1
  Rb  Rb3  1  0.999941  0.001821  0.002226  1
  Rb  Rb4  1  0.501580  0.001402  0.498666  1
  Rb  Rb5  1  0.999941  0.498179  0.002226  1
  Rb  Rb6  1  0.501580  0.498598  0.498666  1
  Rb  Rb7  1  0.491064  0.750000  0.775048  1
  Cd  Cd8  1  0.592159  0.750000  0.099457  1
  Cd  Cd9  1  0.091370  0.250000  0.403090  1
  Cd  Cd10  1  0.408449  0.250000  0.904952  1
  Cd  Cd11  1  0.909551  0.750000  0.592569  1
  I  I12  1  0.239624  0.750000  0.101694  1
  I  I13  1  0.739858  0.250000  0.399196  1
  I  I14  1  0.760008  0.250000  0.898316  1
  I  I15  1  0.260879  0.750000  0.595059  1
  I  I16  1  0.791894  0.750000  0.444194  1
  I  I17  1  0.298921  0.250000  0.054537  1
  I  I18  1  0.205502  0.250000  0.552459  1
  I  I19  1  0.712610  0.750000  0.951404  1
  I  I20  1  0.735111  0.963645  0.171934  1
  I  I21  1  0.234398  0.036405  0.330108  1
  I  I22  1  0.256032  0.460399  0.833121  1
  I  I23  1  0.769801  0.534691  0.665216  1
  I  I24  1  0.256032  0.039601  0.833121  1
  I  I25  1  0.769801  0.965309  0.665216  1
  I  I26  1  0.735111  0.536355  0.171934  1
  I  I27  1  0.234398  0.463595  0.330108  1
