# generated using pymatgen
data_Ca3Tm3Al12(Si3Ru2)4
_symmetry_space_group_name_H-M   'P 1'
_cell_length_a   8.65201534
_cell_length_b   8.66223882
_cell_length_c   9.27045100
_cell_angle_alpha   90.00000000
_cell_angle_beta   90.00000000
_cell_angle_gamma   119.89722877
_symmetry_Int_Tables_number   1
_chemical_formula_structural   Ca3Tm3Al12(Si3Ru2)4
_chemical_formula_sum   'Ca3 Tm3 Al12 Si12 Ru8'
_cell_volume   602.32064488
_cell_formula_units_Z   1
loop_
 _symmetry_equiv_pos_site_id
 _symmetry_equiv_pos_as_xyz
  1  'x, y, z'
loop_
 _atom_site_type_symbol
 _atom_site_label
 _atom_site_symmetry_multiplicity
 _atom_site_fract_x
 _atom_site_fract_y
 _atom_site_fract_z
 _atom_site_occupancy
  Ca  Ca0  1  0.808478  0.191535  0.750000  1
  Ca  Ca1  1  0.191481  0.809196  0.250000  1
  Ca  Ca2  1  0.382890  0.191129  0.750000  1
  Tm  Tm3  1  0.614613  0.807307  0.250000  1
  Tm  Tm4  1  0.807577  0.614499  0.750000  1
  Tm  Tm5  1  0.193055  0.385248  0.250000  1
  Al  Al6  1  0.834223  0.166610  0.420101  1
  Al  Al7  1  0.166233  0.833512  0.578572  1
  Al  Al8  1  0.333106  0.166983  0.420313  1
  Al  Al9  1  0.166233  0.833512  0.921428  1
  Al  Al10  1  0.668182  0.833595  0.580077  1
  Al  Al11  1  0.834223  0.166610  0.079899  1
  Al  Al12  1  0.833868  0.667934  0.418809  1
  Al  Al13  1  0.668182  0.833595  0.919923  1
  Al  Al14  1  0.166607  0.332593  0.579404  1
  Al  Al15  1  0.333106  0.166983  0.079687  1
  Al  Al16  1  0.166607  0.332593  0.920596  1
  Al  Al17  1  0.833868  0.667934  0.081191  1
  Si  Si18  1  0.666671  0.333371  0.956292  1
  Si  Si19  1  0.333160  0.666879  0.045896  1
  Si  Si20  1  0.333160  0.666879  0.454104  1
  Si  Si21  1  0.666671  0.333371  0.543708  1
  Si  Si22  1  0.438048  0.561423  0.750000  1
  Si  Si23  1  0.561270  0.438466  0.250000  1
  Si  Si24  1  0.123164  0.561407  0.750000  1
  Si  Si25  1  0.876379  0.437994  0.250000  1
  Si  Si26  1  0.437875  0.875829  0.750000  1
  Si  Si27  1  0.561794  0.123371  0.250000  1
  Si  Si28  1  0.996647  0.993484  0.750000  1
  Si  Si29  1  0.997238  0.003089  0.250000  1
  Ru  Ru30  1  0.500867  0.502182  0.001863  1
  Ru  Ru31  1  0.000448  0.500265  0.000918  1
  Ru  Ru32  1  0.500867  0.502182  0.498137  1
  Ru  Ru33  1  0.501027  0.998697  0.002081  1
  Ru  Ru34  1  0.000448  0.500265  0.499082  1
  Ru  Ru35  1  0.501027  0.998697  0.497919  1
  Ru  Ru36  1  0.000354  0.000390  0.000645  1
  Ru  Ru37  1  0.000354  0.000390  0.499355  1
