# generated using pymatgen
data_Er(LuS2)2
_symmetry_space_group_name_H-M   'P 1'
_cell_length_a   3.83346200
_cell_length_b   6.59080338
_cell_length_c   6.64412119
_cell_angle_alpha   71.50437591
_cell_angle_beta   90.00000000
_cell_angle_gamma   90.00000000
_symmetry_Int_Tables_number   1
_chemical_formula_structural   Er(LuS2)2
_chemical_formula_sum   'Er1 Lu2 S4'
_cell_volume   159.19695050
_cell_formula_units_Z   1
loop_
 _symmetry_equiv_pos_site_id
 _symmetry_equiv_pos_as_xyz
  1  'x, y, z'
loop_
 _atom_site_type_symbol
 _atom_site_label
 _atom_site_symmetry_multiplicity
 _atom_site_fract_x
 _atom_site_fract_y
 _atom_site_fract_z
 _atom_site_occupancy
  Er  Er0  1  0.000000  0.500000  0.500000  1
  Lu  Lu1  1  0.000000  0.000000  0.000000  1
  Lu  Lu2  1  0.500000  0.500000  0.000000  1
  S  S3  1  0.500000  0.754719  0.248629  1
  S  S4  1  0.000000  0.258500  0.238304  1
  S  S5  1  0.500000  0.245281  0.751371  1
  S  S6  1  0.000000  0.741500  0.761696  1
