# generated using pymatgen
data_Nd3Th(ZnIr)4
_symmetry_space_group_name_H-M   'P 1'
_cell_length_a   3.99663200
_cell_length_b   7.41743100
_cell_length_c   16.65347100
_cell_angle_alpha   90.00000000
_cell_angle_beta   90.00000000
_cell_angle_gamma   90.00000000
_symmetry_Int_Tables_number   1
_chemical_formula_structural   Nd3Th(ZnIr)4
_chemical_formula_sum   'Nd6 Th2 Zn8 Ir8'
_cell_volume   493.68785274
_cell_formula_units_Z   2
loop_
 _symmetry_equiv_pos_site_id
 _symmetry_equiv_pos_as_xyz
  1  'x, y, z'
loop_
 _atom_site_type_symbol
 _atom_site_label
 _atom_site_symmetry_multiplicity
 _atom_site_fract_x
 _atom_site_fract_y
 _atom_site_fract_z
 _atom_site_occupancy
  Nd  Nd0  1  0.750000  0.331096  0.437681  1
  Nd  Nd1  1  0.750000  0.947718  0.284863  1
  Nd  Nd2  1  0.750000  0.831096  0.062319  1
  Nd  Nd3  1  0.750000  0.447718  0.215137  1
  Nd  Nd4  1  0.250000  0.050863  0.714969  1
  Nd  Nd5  1  0.250000  0.550863  0.785031  1
  Th  Th6  1  0.250000  0.169274  0.939782  1
  Th  Th7  1  0.250000  0.669274  0.560218  1
  Zn  Zn8  1  0.750000  0.010019  0.559916  1
  Zn  Zn9  1  0.250000  0.618035  0.348354  1
  Zn  Zn10  1  0.750000  0.379869  0.653727  1
  Zn  Zn11  1  0.250000  0.502699  0.060042  1
  Zn  Zn12  1  0.750000  0.510019  0.940084  1
  Zn  Zn13  1  0.250000  0.002699  0.439958  1
  Zn  Zn14  1  0.250000  0.118035  0.151646  1
  Zn  Zn15  1  0.750000  0.879869  0.846273  1
  Ir  Ir16  1  0.750000  0.750571  0.440369  1
  Ir  Ir17  1  0.250000  0.240529  0.311550  1
  Ir  Ir18  1  0.750000  0.247864  0.819952  1
  Ir  Ir19  1  0.750000  0.747864  0.680048  1
  Ir  Ir20  1  0.250000  0.251463  0.565868  1
  Ir  Ir21  1  0.250000  0.740529  0.188450  1
  Ir  Ir22  1  0.750000  0.250571  0.059631  1
  Ir  Ir23  1  0.250000  0.751463  0.934132  1
