# generated using pymatgen
data_NdAg(Te3O8)2
_symmetry_space_group_name_H-M   'P 1'
_cell_length_a   6.99523839
_cell_length_b   6.99523904
_cell_length_c   10.29158308
_cell_angle_alpha   66.18930060
_cell_angle_beta   66.18929740
_cell_angle_gamma   49.81650359
_symmetry_Int_Tables_number   1
_chemical_formula_structural   NdAg(Te3O8)2
_chemical_formula_sum   'Nd1 Ag1 Te6 O16'
_cell_volume   344.52592191
_cell_formula_units_Z   1
loop_
 _symmetry_equiv_pos_site_id
 _symmetry_equiv_pos_as_xyz
  1  'x, y, z'
loop_
 _atom_site_type_symbol
 _atom_site_label
 _atom_site_symmetry_multiplicity
 _atom_site_fract_x
 _atom_site_fract_y
 _atom_site_fract_z
 _atom_site_occupancy
  Nd  Nd0  1  0.567829  0.432171  0.250000  1
  Ag  Ag1  1  0.434218  0.565782  0.750000  1
  Te  Te2  1  0.696594  0.879635  0.854750  1
  Te  Te3  1  0.875432  0.685362  0.360949  1
  Te  Te4  1  0.998941  0.990162  0.503522  1
  Te  Te5  1  0.009838  0.001059  0.996478  1
  Te  Te6  1  0.120365  0.303406  0.645250  1
  Te  Te7  1  0.314638  0.124568  0.139051  1
  O  O8  1  0.979260  0.820297  0.909296  1
  O  O9  1  0.800176  0.983455  0.404908  1
  O  O10  1  0.344796  0.882915  0.877647  1
  O  O11  1  0.795281  0.568013  0.582714  1
  O  O12  1  0.870810  0.310532  0.840114  1
  O  O13  1  0.855353  0.330042  0.380677  1
  O  O14  1  0.578883  0.784964  0.098880  1
  O  O15  1  0.294177  0.856375  0.343177  1
  O  O16  1  0.689468  0.129190  0.659886  1
  O  O17  1  0.431987  0.204719  0.917286  1
  O  O18  1  0.117085  0.655204  0.622353  1
  O  O19  1  0.143625  0.705823  0.156823  1
  O  O20  1  0.215036  0.421117  0.401120  1
  O  O21  1  0.669958  0.144647  0.119323  1
  O  O22  1  0.179703  0.020740  0.590704  1
  O  O23  1  0.016545  0.199824  0.095092  1
