# generated using pymatgen
data_K2CaSmB24
_symmetry_space_group_name_H-M   'P 1'
_cell_length_a   4.17266500
_cell_length_b   4.17266500
_cell_length_c   16.72313100
_cell_angle_alpha   90.00000000
_cell_angle_beta   90.00000000
_cell_angle_gamma   90.00000000
_symmetry_Int_Tables_number   1
_chemical_formula_structural   K2CaSmB24
_chemical_formula_sum   'K2 Ca1 Sm1 B24'
_cell_volume   291.16866140
_cell_formula_units_Z   1
loop_
 _symmetry_equiv_pos_site_id
 _symmetry_equiv_pos_as_xyz
  1  'x, y, z'
loop_
 _atom_site_type_symbol
 _atom_site_label
 _atom_site_symmetry_multiplicity
 _atom_site_fract_x
 _atom_site_fract_y
 _atom_site_fract_z
 _atom_site_occupancy
  K  K0  1  0.000000  0.000000  0.250939  1
  K  K1  1  0.000000  0.000000  0.749061  1
  Ca  Ca2  1  0.000000  0.000000  0.500000  1
  Sm  Sm3  1  0.000000  0.000000  0.000000  1
  B  B4  1  0.201565  0.500000  0.121989  1
  B  B5  1  0.200383  0.500000  0.376192  1
  B  B6  1  0.200383  0.500000  0.623808  1
  B  B7  1  0.201565  0.500000  0.878011  1
  B  B8  1  0.500000  0.500000  0.198152  1
  B  B9  1  0.500000  0.500000  0.450474  1
  B  B10  1  0.500000  0.500000  0.699242  1
  B  B11  1  0.500000  0.500000  0.951024  1
  B  B12  1  0.500000  0.201565  0.121989  1
  B  B13  1  0.500000  0.200383  0.376192  1
  B  B14  1  0.500000  0.200383  0.623808  1
  B  B15  1  0.500000  0.201565  0.878011  1
  B  B16  1  0.500000  0.500000  0.048976  1
  B  B17  1  0.500000  0.500000  0.300758  1
  B  B18  1  0.500000  0.500000  0.549526  1
  B  B19  1  0.500000  0.500000  0.801848  1
  B  B20  1  0.500000  0.798435  0.121989  1
  B  B21  1  0.500000  0.799617  0.376192  1
  B  B22  1  0.500000  0.799617  0.623808  1
  B  B23  1  0.500000  0.798435  0.878011  1
  B  B24  1  0.798435  0.500000  0.121989  1
  B  B25  1  0.799617  0.500000  0.376192  1
  B  B26  1  0.799617  0.500000  0.623808  1
  B  B27  1  0.798435  0.500000  0.878011  1
