# generated using pymatgen
data_NdTh3(Cu5Sn)4
_symmetry_space_group_name_H-M   'P 1'
_cell_length_a   5.11012600
_cell_length_b   8.36483874
_cell_length_c   10.65000794
_cell_angle_alpha   90.04810727
_cell_angle_beta   90.00000000
_cell_angle_gamma   90.00000000
_symmetry_Int_Tables_number   1
_chemical_formula_structural   NdTh3(Cu5Sn)4
_chemical_formula_sum   'Nd1 Th3 Cu20 Sn4'
_cell_volume   455.23847498
_cell_formula_units_Z   1
loop_
 _symmetry_equiv_pos_site_id
 _symmetry_equiv_pos_as_xyz
  1  'x, y, z'
loop_
 _atom_site_type_symbol
 _atom_site_label
 _atom_site_symmetry_multiplicity
 _atom_site_fract_x
 _atom_site_fract_y
 _atom_site_fract_z
 _atom_site_occupancy
  Nd  Nd0  1  0.250000  0.252042  0.441802  1
  Th  Th1  1  0.250000  0.750980  0.059475  1
  Th  Th2  1  0.750000  0.249435  0.941009  1
  Th  Th3  1  0.750000  0.750057  0.557749  1
  Cu  Cu4  1  0.250000  0.815792  0.744677  1
  Cu  Cu5  1  0.750000  0.183437  0.253478  1
  Cu  Cu6  1  0.750000  0.684582  0.245221  1
  Cu  Cu7  1  0.250000  0.315240  0.755980  1
  Cu  Cu8  1  0.501516  0.566972  0.812509  1
  Cu  Cu9  1  0.498924  0.432212  0.187001  1
  Cu  Cu10  1  0.498643  0.932633  0.312675  1
  Cu  Cu11  1  0.001076  0.432212  0.187001  1
  Cu  Cu12  1  0.501615  0.066825  0.687889  1
  Cu  Cu13  1  0.998484  0.566972  0.812509  1
  Cu  Cu14  1  0.998385  0.066825  0.687889  1
  Cu  Cu15  1  0.001357  0.932633  0.312675  1
  Cu  Cu16  1  0.250000  0.918952  0.517440  1
  Cu  Cu17  1  0.750000  0.081805  0.482265  1
  Cu  Cu18  1  0.750000  0.581687  0.018139  1
  Cu  Cu19  1  0.250000  0.418756  0.982441  1
  Cu  Cu20  1  0.250000  0.564029  0.605299  1
  Cu  Cu21  1  0.750000  0.438027  0.394637  1
  Cu  Cu22  1  0.750000  0.936878  0.105054  1
  Cu  Cu23  1  0.250000  0.063540  0.895333  1
  Sn  Sn24  1  0.250000  0.637768  0.359962  1
  Sn  Sn25  1  0.750000  0.360371  0.639138  1
  Sn  Sn26  1  0.750000  0.860420  0.859625  1
  Sn  Sn27  1  0.250000  0.138920  0.141127  1
