# generated using pymatgen
data_Zr10CuSiSn5Bi
_symmetry_space_group_name_H-M   'P 1'
_cell_length_a   8.73769306
_cell_length_b   8.73769373
_cell_length_c   5.88219458
_cell_angle_alpha   89.95805731
_cell_angle_beta   89.95806259
_cell_angle_gamma   119.96200434
_symmetry_Int_Tables_number   1
_chemical_formula_structural   Zr10CuSiSn5Bi
_chemical_formula_sum   'Zr10 Cu1 Si1 Sn5 Bi1'
_cell_volume   389.07139891
_cell_formula_units_Z   1
loop_
 _symmetry_equiv_pos_site_id
 _symmetry_equiv_pos_as_xyz
  1  'x, y, z'
loop_
 _atom_site_type_symbol
 _atom_site_label
 _atom_site_symmetry_multiplicity
 _atom_site_fract_x
 _atom_site_fract_y
 _atom_site_fract_z
 _atom_site_occupancy
  Zr  Zr0  1  0.738145  0.000439  0.254209  1
  Zr  Zr1  1  0.000439  0.738145  0.254209  1
  Zr  Zr2  1  0.260643  0.260643  0.254039  1
  Zr  Zr3  1  0.259614  0.995400  0.745674  1
  Zr  Zr4  1  0.995400  0.259614  0.745674  1
  Zr  Zr5  1  0.741039  0.741039  0.745648  1
  Zr  Zr6  1  0.332870  0.668740  0.498431  1
  Zr  Zr7  1  0.668740  0.332870  0.498431  1
  Zr  Zr8  1  0.668964  0.332702  0.001590  1
  Zr  Zr9  1  0.332702  0.668964  0.001590  1
  Cu  Cu10  1  0.999576  0.999576  0.001099  1
  Si  Si11  1  0.000166  0.000166  0.499152  1
  Sn  Sn12  1  0.389631  0.000545  0.247756  1
  Sn  Sn13  1  0.000545  0.389631  0.247756  1
  Sn  Sn14  1  0.612321  0.612321  0.248102  1
  Sn  Sn15  1  0.609901  0.999609  0.751968  1
  Sn  Sn16  1  0.999609  0.609901  0.751968  1
  Bi  Bi17  1  0.389693  0.389693  0.752704  1
