# generated using pymatgen
data_HfZr11(TcIr)6
_symmetry_space_group_name_H-M   'P 1'
_cell_length_a   4.66005600
_cell_length_b   6.55961200
_cell_length_c   14.02264900
_cell_angle_alpha   90.00023204
_cell_angle_beta   90.00009821
_cell_angle_gamma   89.99982659
_symmetry_Int_Tables_number   1
_chemical_formula_structural   HfZr11(TcIr)6
_chemical_formula_sum   'Hf1 Zr11 Tc6 Ir6'
_cell_volume   428.64656785
_cell_formula_units_Z   1
loop_
 _symmetry_equiv_pos_site_id
 _symmetry_equiv_pos_as_xyz
  1  'x, y, z'
loop_
 _atom_site_type_symbol
 _atom_site_label
 _atom_site_symmetry_multiplicity
 _atom_site_fract_x
 _atom_site_fract_y
 _atom_site_fract_z
 _atom_site_occupancy
  Hf  Hf0  1  0.999852  0.749915  0.833334  1
  Zr  Zr1  1  0.499996  0.249786  0.999989  1
  Zr  Zr2  1  0.500003  0.750159  0.999535  1
  Zr  Zr3  1  0.000153  0.250097  0.166605  1
  Zr  Zr4  1  0.000144  0.749755  0.166588  1
  Zr  Zr5  1  0.500146  0.249892  0.333335  1
  Zr  Zr6  1  0.500148  0.750261  0.333335  1
  Zr  Zr7  1  0.000004  0.250090  0.500060  1
  Zr  Zr8  1  0.999995  0.749761  0.500078  1
  Zr  Zr9  1  0.499845  0.249785  0.666676  1
  Zr  Zr10  1  0.499862  0.750162  0.667130  1
  Zr  Zr11  1  0.999854  0.250322  0.833333  1
  Tc  Tc12  1  0.999998  0.500574  0.999492  1
  Tc  Tc13  1  0.500139  0.000010  0.166525  1
  Tc  Tc14  1  0.000138  0.500038  0.333342  1
  Tc  Tc15  1  0.499999  0.000009  0.500134  1
  Tc  Tc16  1  0.999858  0.500576  0.667167  1
  Tc  Tc17  1  0.499863  0.998909  0.833342  1
  Ir  Ir18  1  0.999998  0.998877  0.999122  1
  Ir  Ir19  1  0.500162  0.499913  0.166625  1
  Ir  Ir20  1  0.000164  0.000041  0.333329  1
  Ir  Ir21  1  0.500000  0.499915  0.500047  1
  Ir  Ir22  1  0.999836  0.998875  0.667548  1
  Ir  Ir23  1  0.499838  0.502285  0.833327  1
