# generated using pymatgen
data_Li4Tm4Co11Ni5P12
_symmetry_space_group_name_H-M   'P 1'
_cell_length_a   3.68752200
_cell_length_b   10.23824916
_cell_length_c   11.97431501
_cell_angle_alpha   89.97504943
_cell_angle_beta   90.00000000
_cell_angle_gamma   90.00000000
_symmetry_Int_Tables_number   1
_chemical_formula_structural   Li4Tm4Co11Ni5P12
_chemical_formula_sum   'Li4 Tm4 Co11 Ni5 P12'
_cell_volume   452.07548005
_cell_formula_units_Z   1
loop_
 _symmetry_equiv_pos_site_id
 _symmetry_equiv_pos_as_xyz
  1  'x, y, z'
loop_
 _atom_site_type_symbol
 _atom_site_label
 _atom_site_symmetry_multiplicity
 _atom_site_fract_x
 _atom_site_fract_y
 _atom_site_fract_z
 _atom_site_occupancy
  Li  Li0  1  0.250000  0.703344  0.992241  1
  Li  Li1  1  0.250000  0.796728  0.492345  1
  Li  Li2  1  0.750000  0.295334  0.007654  1
  Li  Li3  1  0.750000  0.203416  0.508028  1
  Tm  Tm4  1  0.250000  0.580579  0.706403  1
  Tm  Tm5  1  0.250000  0.919238  0.207237  1
  Tm  Tm6  1  0.750000  0.419938  0.293614  1
  Tm  Tm7  1  0.750000  0.080354  0.794614  1
  Co  Co8  1  0.250000  0.281621  0.673451  1
  Co  Co9  1  0.750000  0.780898  0.826056  1
  Co  Co10  1  0.750000  0.719665  0.326364  1
  Co  Co11  1  0.250000  0.881087  0.698505  1
  Co  Co12  1  0.250000  0.620389  0.199321  1
  Co  Co13  1  0.750000  0.119534  0.300476  1
  Co  Co14  1  0.750000  0.381108  0.801404  1
  Co  Co15  1  0.250000  0.466657  0.932558  1
  Co  Co16  1  0.250000  0.033272  0.433102  1
  Co  Co17  1  0.750000  0.533497  0.067566  1
  Co  Co18  1  0.750000  0.966992  0.567728  1
  Ni  Ni19  1  0.250000  0.407017  0.483093  1
  Ni  Ni20  1  0.250000  0.092185  0.985526  1
  Ni  Ni21  1  0.750000  0.592812  0.515786  1
  Ni  Ni22  1  0.750000  0.904963  0.014800  1
  Ni  Ni23  1  0.250000  0.220394  0.173122  1
  P  P24  1  0.250000  0.426099  0.114171  1
  P  P25  1  0.250000  0.078395  0.614861  1
  P  P26  1  0.750000  0.578364  0.885537  1
  P  P27  1  0.750000  0.922527  0.385823  1
  P  P28  1  0.250000  0.271637  0.858547  1
  P  P29  1  0.250000  0.227533  0.359625  1
  P  P30  1  0.750000  0.728620  0.141269  1
  P  P31  1  0.750000  0.772102  0.641797  1
  P  P32  1  0.250000  0.603445  0.387033  1
  P  P33  1  0.250000  0.896175  0.886596  1
  P  P34  1  0.750000  0.397428  0.613183  1
  P  P35  1  0.750000  0.096650  0.110560  1
