# generated using pymatgen
data_K3Rb5Ba4(HfBi4)2
_symmetry_space_group_name_H-M   'P 1'
_cell_length_a   11.52803183
_cell_length_b   11.52803176
_cell_length_c   8.83445945
_cell_angle_alpha   88.65083641
_cell_angle_beta   88.65083657
_cell_angle_gamma   60.48365451
_symmetry_Int_Tables_number   1
_chemical_formula_structural   K3Rb5Ba4(HfBi4)2
_chemical_formula_sum   'K3 Rb5 Ba4 Hf2 Bi8'
_cell_volume   1021.30536235
_cell_formula_units_Z   1
loop_
 _symmetry_equiv_pos_site_id
 _symmetry_equiv_pos_as_xyz
  1  'x, y, z'
loop_
 _atom_site_type_symbol
 _atom_site_label
 _atom_site_symmetry_multiplicity
 _atom_site_fract_x
 _atom_site_fract_y
 _atom_site_fract_z
 _atom_site_occupancy
  K  K0  1  0.281446  0.861246  0.692995  1
  K  K1  1  0.861246  0.281446  0.692995  1
  K  K2  1  0.855620  0.855620  0.669224  1
  Rb  Rb3  1  0.943823  0.529248  0.372193  1
  Rb  Rb4  1  0.529248  0.943823  0.372193  1
  Rb  Rb5  1  0.724308  0.131541  0.191174  1
  Rb  Rb6  1  0.131541  0.724308  0.191174  1
  Rb  Rb7  1  0.140161  0.140161  0.206177  1
  Ba  Ba8  1  0.529518  0.529518  0.371091  1
  Ba  Ba9  1  0.050946  0.476752  0.876396  1
  Ba  Ba10  1  0.476752  0.050946  0.876396  1
  Ba  Ba11  1  0.476811  0.476811  0.871683  1
  Hf  Hf12  1  0.334454  0.334454  0.488535  1
  Hf  Hf13  1  0.665263  0.665263  0.978002  1
  Bi  Bi14  1  0.392503  0.799187  0.085364  1
  Bi  Bi15  1  0.799187  0.392503  0.085364  1
  Bi  Bi16  1  0.804361  0.804361  0.055508  1
  Bi  Bi17  1  0.604635  0.205870  0.599627  1
  Bi  Bi18  1  0.205870  0.604635  0.599627  1
  Bi  Bi19  1  0.199837  0.199837  0.616864  1
  Bi  Bi20  1  0.336829  0.336829  0.155557  1
  Bi  Bi21  1  0.656255  0.656255  0.654683  1
