# generated using pymatgen
data_Nd3IrAu3
_symmetry_space_group_name_H-M   'P 1'
_cell_length_a   8.31478366
_cell_length_b   8.31478398
_cell_length_c   8.31478402
_cell_angle_alpha   114.34755754
_cell_angle_beta   114.34755803
_cell_angle_gamma   114.34754872
_symmetry_Int_Tables_number   1
_chemical_formula_structural   Nd3IrAu3
_chemical_formula_sum   'Nd6 Ir2 Au6'
_cell_volume   340.06210726
_cell_formula_units_Z   2
loop_
 _symmetry_equiv_pos_site_id
 _symmetry_equiv_pos_as_xyz
  1  'x, y, z'
loop_
 _atom_site_type_symbol
 _atom_site_label
 _atom_site_symmetry_multiplicity
 _atom_site_fract_x
 _atom_site_fract_y
 _atom_site_fract_z
 _atom_site_occupancy
  Nd  Nd0  1  0.041566  0.391747  0.280439  1
  Nd  Nd1  1  0.391747  0.280439  0.041566  1
  Nd  Nd2  1  0.719561  0.958434  0.608253  1
  Nd  Nd3  1  0.280439  0.041566  0.391747  1
  Nd  Nd4  1  0.608253  0.719561  0.958434  1
  Nd  Nd5  1  0.958434  0.608253  0.719561  1
  Ir  Ir6  1  0.000000  0.000000  0.000000  1
  Ir  Ir7  1  0.500000  0.500000  0.500000  1
  Au  Au8  1  0.434416  0.941111  0.775288  1
  Au  Au9  1  0.941111  0.775288  0.434416  1
  Au  Au10  1  0.224712  0.565584  0.058889  1
  Au  Au11  1  0.775288  0.434416  0.941111  1
  Au  Au12  1  0.058889  0.224712  0.565584  1
  Au  Au13  1  0.565584  0.058889  0.224712  1
