# generated using pymatgen
data_Cs2LiCrBr6
_symmetry_space_group_name_H-M   'P 1'
_cell_length_a   7.70300000
_cell_length_b   7.70300027
_cell_length_c   6.53522000
_cell_angle_alpha   90.00000000
_cell_angle_beta   90.00000000
_cell_angle_gamma   119.99999883
_symmetry_Int_Tables_number   1
_chemical_formula_structural   Cs2LiCrBr6
_chemical_formula_sum   'Cs2 Li1 Cr1 Br6'
_cell_volume   335.82317249
_cell_formula_units_Z   1
loop_
 _symmetry_equiv_pos_site_id
 _symmetry_equiv_pos_as_xyz
  1  'x, y, z'
loop_
 _atom_site_type_symbol
 _atom_site_label
 _atom_site_symmetry_multiplicity
 _atom_site_fract_x
 _atom_site_fract_y
 _atom_site_fract_z
 _atom_site_occupancy
  Cs  Cs0  1  0.666667  0.333333  0.252737  1
  Cs  Cs1  1  0.333333  0.666667  0.762831  1
  Li  Li2  1  0.000000  0.000000  0.513458  1
  Cr  Cr3  1  0.000000  0.000000  0.012806  1
  Br  Br4  1  0.691562  0.845780  0.240964  1
  Br  Br5  1  0.846058  0.153942  0.785027  1
  Br  Br6  1  0.154220  0.845780  0.240964  1
  Br  Br7  1  0.307883  0.153942  0.785027  1
  Br  Br8  1  0.846058  0.692117  0.785027  1
  Br  Br9  1  0.154220  0.308438  0.240964  1
