# generated using pymatgen
data_LiY4Lu3Hg8
_symmetry_space_group_name_H-M   'P 1'
_cell_length_a   7.33371701
_cell_length_b   7.33530800
_cell_length_c   7.34442401
_cell_angle_alpha   90.00000000
_cell_angle_beta   89.99312970
_cell_angle_gamma   90.00000000
_symmetry_Int_Tables_number   1
_chemical_formula_structural   LiY4Lu3Hg8
_chemical_formula_sum   'Li1 Y4 Lu3 Hg8'
_cell_volume   395.09382366
_cell_formula_units_Z   1
loop_
 _symmetry_equiv_pos_site_id
 _symmetry_equiv_pos_as_xyz
  1  'x, y, z'
loop_
 _atom_site_type_symbol
 _atom_site_label
 _atom_site_symmetry_multiplicity
 _atom_site_fract_x
 _atom_site_fract_y
 _atom_site_fract_z
 _atom_site_occupancy
  Li  Li0  1  0.750006  0.250000  0.999009  1
  Y  Y1  1  0.249975  0.250000  0.000020  1
  Y  Y2  1  0.750021  0.750000  0.000017  1
  Y  Y3  1  0.749973  0.750000  0.499981  1
  Y  Y4  1  0.250029  0.250000  0.499981  1
  Lu  Lu5  1  0.249995  0.750000  0.000605  1
  Lu  Lu6  1  0.749995  0.250000  0.499368  1
  Lu  Lu7  1  0.250003  0.750000  0.500780  1
  Hg  Hg8  1  0.501845  0.001825  0.248420  1
  Hg  Hg9  1  0.501845  0.498175  0.248420  1
  Hg  Hg10  1  0.998593  0.498567  0.248531  1
  Hg  Hg11  1  0.998593  0.001433  0.248531  1
  Hg  Hg12  1  0.998111  0.001873  0.751582  1
  Hg  Hg13  1  0.998111  0.498127  0.751582  1
  Hg  Hg14  1  0.501452  0.498519  0.751587  1
  Hg  Hg15  1  0.501452  0.001481  0.751587  1
