# generated using pymatgen
data_Mg4Cd9Hg5
_symmetry_space_group_name_H-M   'P 1'
_cell_length_a   19.09736396
_cell_length_b   19.09736344
_cell_length_c   6.04560200
_cell_angle_alpha   103.96683295
_cell_angle_beta   103.96683256
_cell_angle_gamma   11.07031520
_symmetry_Int_Tables_number   1
_chemical_formula_structural   Mg4Cd9Hg5
_chemical_formula_sum   'Mg4 Cd9 Hg5'
_cell_volume   410.73222253
_cell_formula_units_Z   1
loop_
 _symmetry_equiv_pos_site_id
 _symmetry_equiv_pos_as_xyz
  1  'x, y, z'
loop_
 _atom_site_type_symbol
 _atom_site_label
 _atom_site_symmetry_multiplicity
 _atom_site_fract_x
 _atom_site_fract_y
 _atom_site_fract_z
 _atom_site_occupancy
  Mg  Mg0  1  0.112813  0.112813  0.115560  1
  Mg  Mg1  1  0.222056  0.222056  0.100482  1
  Mg  Mg2  1  0.334521  0.334521  0.217995  1
  Mg  Mg3  1  0.445058  0.445058  0.194634  1
  Cd  Cd4  1  0.555968  0.555968  0.290592  1
  Cd  Cd5  1  0.777622  0.777622  0.400879  1
  Cd  Cd6  1  0.000906  0.000906  0.514301  1
  Cd  Cd7  1  0.223526  0.223526  0.606612  1
  Cd  Cd8  1  0.444091  0.444091  0.696336  1
  Cd  Cd9  1  0.555443  0.555443  0.809415  1
  Cd  Cd10  1  0.667168  0.667168  0.775511  1
  Cd  Cd11  1  0.775954  0.775954  0.914892  1
  Cd  Cd12  1  0.888962  0.888962  0.873437  1
  Hg  Hg13  1  0.995380  0.995380  0.011477  1
  Hg  Hg14  1  0.672990  0.672990  0.279131  1
  Hg  Hg15  1  0.894026  0.894026  0.374786  1
  Hg  Hg16  1  0.105990  0.105990  0.608027  1
  Hg  Hg17  1  0.327525  0.327525  0.715933  1
