# generated using pymatgen
data_TbLuBi2(Rh2O7)2
_symmetry_space_group_name_H-M   'P 1'
_cell_length_a   7.27215126
_cell_length_b   7.27215046
_cell_length_c   7.21529193
_cell_angle_alpha   60.14885304
_cell_angle_beta   60.14885930
_cell_angle_gamma   60.40283136
_symmetry_Int_Tables_number   1
_chemical_formula_structural   TbLuBi2(Rh2O7)2
_chemical_formula_sum   'Tb1 Lu1 Bi2 Rh4 O14'
_cell_volume   271.23695814
_cell_formula_units_Z   1
loop_
 _symmetry_equiv_pos_site_id
 _symmetry_equiv_pos_as_xyz
  1  'x, y, z'
loop_
 _atom_site_type_symbol
 _atom_site_label
 _atom_site_symmetry_multiplicity
 _atom_site_fract_x
 _atom_site_fract_y
 _atom_site_fract_z
 _atom_site_occupancy
  Tb  Tb0  1  0.125000  0.125000  0.125000  1
  Lu  Lu1  1  0.125000  0.125000  0.625000  1
  Bi  Bi2  1  0.125000  0.625000  0.125000  1
  Bi  Bi3  1  0.625000  0.125000  0.125000  1
  Rh  Rh4  1  0.625000  0.625000  0.625000  1
  Rh  Rh5  1  0.625000  0.625000  0.125000  1
  Rh  Rh6  1  0.125000  0.625000  0.625000  1
  Rh  Rh7  1  0.625000  0.125000  0.625000  1
  O  O8  1  0.243987  0.243987  0.262224  1
  O  O9  1  0.288366  0.715289  0.288815  1
  O  O10  1  0.962272  0.962272  0.542502  1
  O  O11  1  0.530888  0.961666  0.545215  1
  O  O12  1  0.707678  0.707678  0.292525  1
  O  O13  1  0.961666  0.530888  0.545215  1
  O  O14  1  0.719112  0.288334  0.704785  1
  O  O15  1  0.287728  0.287728  0.707498  1
  O  O16  1  0.715289  0.288366  0.288815  1
  O  O17  1  0.288334  0.719112  0.704785  1
  O  O18  1  0.961634  0.534711  0.961185  1
  O  O19  1  0.542322  0.542322  0.957475  1
  O  O20  1  0.006013  0.006013  0.987776  1
  O  O21  1  0.534711  0.961634  0.961185  1
