# generated using pymatgen
data_Er3Ti(Co4P3)2
_symmetry_space_group_name_H-M   'P 1'
_cell_length_a   3.68134200
_cell_length_b   10.57839100
_cell_length_c   12.24771700
_cell_angle_alpha   90.00000000
_cell_angle_beta   90.00000000
_cell_angle_gamma   90.00000000
_symmetry_Int_Tables_number   1
_chemical_formula_structural   Er3Ti(Co4P3)2
_chemical_formula_sum   'Er6 Ti2 Co16 P12'
_cell_volume   476.95886361
_cell_formula_units_Z   2
loop_
 _symmetry_equiv_pos_site_id
 _symmetry_equiv_pos_as_xyz
  1  'x, y, z'
loop_
 _atom_site_type_symbol
 _atom_site_label
 _atom_site_symmetry_multiplicity
 _atom_site_fract_x
 _atom_site_fract_y
 _atom_site_fract_z
 _atom_site_occupancy
  Er  Er0  1  0.750000  0.250000  0.475410  1
  Er  Er1  1  0.250000  0.750000  0.524590  1
  Er  Er2  1  0.250000  0.929982  0.795572  1
  Er  Er3  1  0.250000  0.570018  0.795572  1
  Er  Er4  1  0.750000  0.070018  0.204428  1
  Er  Er5  1  0.750000  0.429982  0.204428  1
  Ti  Ti6  1  0.250000  0.250000  0.846746  1
  Ti  Ti7  1  0.750000  0.750000  0.153254  1
  Co  Co8  1  0.250000  0.250000  0.298336  1
  Co  Co9  1  0.750000  0.750000  0.701664  1
  Co  Co10  1  0.750000  0.250000  0.013785  1
  Co  Co11  1  0.250000  0.750000  0.986215  1
  Co  Co12  1  0.250000  0.417724  0.006639  1
  Co  Co13  1  0.250000  0.082276  0.006639  1
  Co  Co14  1  0.750000  0.582276  0.993361  1
  Co  Co15  1  0.750000  0.917724  0.993361  1
  Co  Co16  1  0.250000  0.454215  0.568188  1
  Co  Co17  1  0.250000  0.045785  0.568188  1
  Co  Co18  1  0.750000  0.545785  0.431812  1
  Co  Co19  1  0.750000  0.954215  0.431812  1
  Co  Co20  1  0.250000  0.872073  0.293764  1
  Co  Co21  1  0.250000  0.627927  0.293764  1
  Co  Co22  1  0.750000  0.127927  0.706236  1
  Co  Co23  1  0.750000  0.372073  0.706236  1
  P  P24  1  0.250000  0.250000  0.118314  1
  P  P25  1  0.750000  0.750000  0.881686  1
  P  P26  1  0.250000  0.250000  0.646792  1
  P  P27  1  0.750000  0.750000  0.353208  1
  P  P28  1  0.250000  0.438695  0.384065  1
  P  P29  1  0.250000  0.061305  0.384065  1
  P  P30  1  0.750000  0.561305  0.615935  1
  P  P31  1  0.750000  0.938695  0.615935  1
  P  P32  1  0.250000  0.907589  0.107907  1
  P  P33  1  0.250000  0.592411  0.107907  1
  P  P34  1  0.750000  0.092411  0.892093  1
  P  P35  1  0.750000  0.407589  0.892093  1
