# generated using pymatgen
data_Tb3ThCdRu
_symmetry_space_group_name_H-M   'P 1'
_cell_length_a   9.72700078
_cell_length_b   9.72700090
_cell_length_c   9.72700100
_cell_angle_alpha   60.00000305
_cell_angle_beta   60.00000264
_cell_angle_gamma   59.99999824
_symmetry_Int_Tables_number   1
_chemical_formula_structural   Tb3ThCdRu
_chemical_formula_sum   'Tb12 Th4 Cd4 Ru4'
_cell_volume   650.76154584
_cell_formula_units_Z   4
loop_
 _symmetry_equiv_pos_site_id
 _symmetry_equiv_pos_as_xyz
  1  'x, y, z'
loop_
 _atom_site_type_symbol
 _atom_site_label
 _atom_site_symmetry_multiplicity
 _atom_site_fract_x
 _atom_site_fract_y
 _atom_site_fract_z
 _atom_site_occupancy
  Tb  Tb0  1  0.563364  0.563364  0.936636  1
  Tb  Tb1  1  0.936636  0.563364  0.936636  1
  Tb  Tb2  1  0.563364  0.936636  0.936636  1
  Tb  Tb3  1  0.936636  0.936636  0.563364  1
  Tb  Tb4  1  0.563364  0.936636  0.563364  1
  Tb  Tb5  1  0.936636  0.563364  0.563364  1
  Tb  Tb6  1  0.188635  0.188635  0.811365  1
  Tb  Tb7  1  0.811365  0.188635  0.811365  1
  Tb  Tb8  1  0.188634  0.811366  0.811365  1
  Tb  Tb9  1  0.811365  0.811366  0.188635  1
  Tb  Tb10  1  0.188634  0.811365  0.188634  1
  Tb  Tb11  1  0.811365  0.188635  0.188635  1
  Th  Th12  1  0.347289  0.347289  0.958133  1
  Th  Th13  1  0.347289  0.958133  0.347289  1
  Th  Th14  1  0.958133  0.347289  0.347289  1
  Th  Th15  1  0.347289  0.347289  0.347289  1
  Cd  Cd16  1  0.581165  0.581165  0.256504  1
  Cd  Cd17  1  0.581165  0.256504  0.581165  1
  Cd  Cd18  1  0.256504  0.581165  0.581165  1
  Cd  Cd19  1  0.581165  0.581165  0.581165  1
  Ru  Ru20  1  0.143792  0.143792  0.568624  1
  Ru  Ru21  1  0.143792  0.568624  0.143792  1
  Ru  Ru22  1  0.568624  0.143792  0.143792  1
  Ru  Ru23  1  0.143792  0.143792  0.143792  1
