# generated using pymatgen
data_Sr3RhO6
_symmetry_space_group_name_H-M   'P 1'
_cell_length_a   6.13301900
_cell_length_b   5.87782104
_cell_length_c   10.30258508
_cell_angle_alpha   54.77912599
_cell_angle_beta   90.00000000
_cell_angle_gamma   90.00000000
_symmetry_Int_Tables_number   1
_chemical_formula_structural   Sr3RhO6
_chemical_formula_sum   'Sr6 Rh2 O12'
_cell_volume   303.40609124
_cell_formula_units_Z   2
loop_
 _symmetry_equiv_pos_site_id
 _symmetry_equiv_pos_as_xyz
  1  'x, y, z'
loop_
 _atom_site_type_symbol
 _atom_site_label
 _atom_site_symmetry_multiplicity
 _atom_site_fract_x
 _atom_site_fract_y
 _atom_site_fract_z
 _atom_site_occupancy
  Sr  Sr0  1  0.500000  0.500000  0.500000  1
  Sr  Sr1  1  0.948471  0.730925  0.254518  1
  Sr  Sr2  1  0.448471  0.269075  0.245482  1
  Sr  Sr3  1  0.000000  0.500000  0.000000  1
  Sr  Sr4  1  0.551529  0.730925  0.754518  1
  Sr  Sr5  1  0.051529  0.269075  0.745482  1
  Rh  Rh6  1  0.500000  0.000000  0.000000  1
  Rh  Rh7  1  0.000000  0.000000  0.500000  1
  O  O8  1  0.451732  0.118188  0.780180  1
  O  O9  1  0.235174  0.763524  0.065244  1
  O  O10  1  0.177649  0.314632  0.456089  1
  O  O11  1  0.677649  0.685368  0.043911  1
  O  O12  1  0.735174  0.236476  0.434756  1
  O  O13  1  0.951732  0.881812  0.719820  1
  O  O14  1  0.048268  0.118188  0.280180  1
  O  O15  1  0.264826  0.763524  0.565244  1
  O  O16  1  0.322351  0.314632  0.956089  1
  O  O17  1  0.822351  0.685368  0.543911  1
  O  O18  1  0.764826  0.236476  0.934756  1
  O  O19  1  0.548268  0.881812  0.219820  1
