# generated using pymatgen
data_Na20Sn4(As3P)3
_symmetry_space_group_name_H-M   'P 1'
_cell_length_a   7.60296345
_cell_length_b   8.59405305
_cell_length_c   16.21963695
_cell_angle_alpha   57.86873422
_cell_angle_beta   89.96294709
_cell_angle_gamma   89.99782369
_symmetry_Int_Tables_number   1
_chemical_formula_structural   Na20Sn4(As3P)3
_chemical_formula_sum   'Na20 Sn4 As9 P3'
_cell_volume   897.46828226
_cell_formula_units_Z   1
loop_
 _symmetry_equiv_pos_site_id
 _symmetry_equiv_pos_as_xyz
  1  'x, y, z'
loop_
 _atom_site_type_symbol
 _atom_site_label
 _atom_site_symmetry_multiplicity
 _atom_site_fract_x
 _atom_site_fract_y
 _atom_site_fract_z
 _atom_site_occupancy
  Na  Na0  1  0.509972  0.565437  0.259718  1
  Na  Na1  1  0.010087  0.433913  0.242269  1
  Na  Na2  1  0.489067  0.434084  0.742186  1
  Na  Na3  1  0.990382  0.566747  0.757547  1
  Na  Na4  1  0.977739  0.918484  0.413427  1
  Na  Na5  1  0.477285  0.080480  0.086898  1
  Na  Na6  1  0.022663  0.082003  0.586643  1
  Na  Na7  1  0.522441  0.917442  0.913210  1
  Na  Na8  1  0.532259  0.247074  0.583998  1
  Na  Na9  1  0.029164  0.758685  0.915401  1
  Na  Na10  1  0.467781  0.755367  0.415305  1
  Na  Na11  1  0.968756  0.244079  0.085333  1
  Na  Na12  1  0.147933  0.827932  0.245680  1
  Na  Na13  1  0.648720  0.172168  0.255286  1
  Na  Na14  1  0.852101  0.174147  0.753864  1
  Na  Na15  1  0.353517  0.831747  0.742527  1
  Na  Na16  1  0.336980  0.163186  0.417763  1
  Na  Na17  1  0.836711  0.836285  0.083365  1
  Na  Na18  1  0.663406  0.836882  0.582441  1
  Na  Na19  1  0.159893  0.156109  0.917088  1
  Sn  Sn20  1  0.647439  0.514434  0.913914  1
  Sn  Sn21  1  0.143070  0.486356  0.585449  1
  Sn  Sn22  1  0.357773  0.485555  0.087731  1
  Sn  Sn23  1  0.857659  0.514266  0.414456  1
  As  As24  1  0.732808  0.221494  0.419673  1
  As  As25  1  0.233625  0.778072  0.082097  1
  As  As26  1  0.267757  0.779280  0.579747  1
  As  As27  1  0.767726  0.219969  0.919390  1
  As  As28  1  0.753302  0.832193  0.264443  1
  As  As29  1  0.253728  0.167113  0.237293  1
  As  As30  1  0.247730  0.167938  0.734848  1
  As  As31  1  0.747883  0.833520  0.763553  1
  As  As32  1  0.290345  0.475333  0.927270  1
  P  P33  1  0.799322  0.522134  0.570152  1
  P  P34  1  0.701753  0.521406  0.070331  1
  P  P35  1  0.201225  0.478684  0.429709  1
