# generated using pymatgen
data_Tb13Ho3(LuPb4)4
_symmetry_space_group_name_H-M   'P 1'
_cell_length_a   8.17800070
_cell_length_b   8.26763215
_cell_length_c   15.64960300
_cell_angle_alpha   89.99614742
_cell_angle_beta   90.08393899
_cell_angle_gamma   90.14473362
_symmetry_Int_Tables_number   1
_chemical_formula_structural   Tb13Ho3(LuPb4)4
_chemical_formula_sum   'Tb13 Ho3 Lu4 Pb16'
_cell_volume   1058.10742279
_cell_formula_units_Z   1
loop_
 _symmetry_equiv_pos_site_id
 _symmetry_equiv_pos_as_xyz
  1  'x, y, z'
loop_
 _atom_site_type_symbol
 _atom_site_label
 _atom_site_symmetry_multiplicity
 _atom_site_fract_x
 _atom_site_fract_y
 _atom_site_fract_z
 _atom_site_occupancy
  Tb  Tb0  1  0.125855  0.342046  0.120305  1
  Tb  Tb1  1  0.623688  0.159011  0.121596  1
  Tb  Tb2  1  0.123524  0.341868  0.379327  1
  Tb  Tb3  1  0.376008  0.841978  0.621214  1
  Tb  Tb4  1  0.876552  0.657946  0.879032  1
  Tb  Tb5  1  0.534767  0.323605  0.900707  1
  Tb  Tb6  1  0.035515  0.176529  0.599116  1
  Tb  Tb7  1  0.465360  0.677424  0.401538  1
  Tb  Tb8  1  0.964208  0.823951  0.099199  1
  Tb  Tb9  1  0.467054  0.677771  0.098416  1
  Tb  Tb10  1  0.967768  0.823048  0.402181  1
  Tb  Tb11  1  0.532777  0.323311  0.598653  1
  Tb  Tb12  1  0.034222  0.174972  0.899789  1
  Ho  Ho13  1  0.373706  0.843746  0.876719  1
  Ho  Ho14  1  0.872705  0.656322  0.621946  1
  Ho  Ho15  1  0.626978  0.156343  0.379063  1
  Lu  Lu16  1  0.207009  0.505552  0.750113  1
  Lu  Lu17  1  0.707129  0.995294  0.749488  1
  Lu  Lu18  1  0.792248  0.495031  0.251288  1
  Lu  Lu19  1  0.293235  0.004666  0.249826  1
  Pb  Pb20  1  0.282817  0.032045  0.042223  1
  Pb  Pb21  1  0.781216  0.465055  0.457441  1
  Pb  Pb22  1  0.719232  0.964179  0.543244  1
  Pb  Pb23  1  0.219661  0.536058  0.955439  1
  Pb  Pb24  1  0.713785  0.965602  0.955593  1
  Pb  Pb25  1  0.213235  0.534948  0.544694  1
  Pb  Pb26  1  0.287023  0.035393  0.455843  1
  Pb  Pb27  1  0.782992  0.466894  0.044588  1
  Pb  Pb28  1  0.569849  0.625932  0.750355  1
  Pb  Pb29  1  0.068960  0.873884  0.748923  1
  Pb  Pb30  1  0.430527  0.374211  0.251656  1
  Pb  Pb31  1  0.929855  0.124554  0.250330  1
  Pb  Pb32  1  0.346667  0.156272  0.749871  1
  Pb  Pb33  1  0.846625  0.344055  0.749438  1
  Pb  Pb34  1  0.653939  0.844733  0.250738  1
  Pb  Pb35  1  0.153308  0.655773  0.250105  1
