# generated using pymatgen
data_Mg(NbRe6)4
_symmetry_space_group_name_H-M   'P 1'
_cell_length_a   8.41496854
_cell_length_b   8.41499048
_cell_length_c   8.41500000
_cell_angle_alpha   109.47139641
_cell_angle_beta   109.47156975
_cell_angle_gamma   109.47102902
_symmetry_Int_Tables_number   1
_chemical_formula_structural   Mg(NbRe6)4
_chemical_formula_sum   'Mg1 Nb4 Re24'
_cell_volume   458.70826905
_cell_formula_units_Z   1
loop_
 _symmetry_equiv_pos_site_id
 _symmetry_equiv_pos_as_xyz
  1  'x, y, z'
loop_
 _atom_site_type_symbol
 _atom_site_label
 _atom_site_symmetry_multiplicity
 _atom_site_fract_x
 _atom_site_fract_y
 _atom_site_fract_z
 _atom_site_occupancy
  Mg  Mg0  1  0.000001  0.000001  0.000001  1
  Nb  Nb1  1  0.366550  0.366549  0.366548  1
  Nb  Nb2  1  0.000000  0.633452  0.000001  1
  Nb  Nb3  1  0.633451  0.000000  0.999999  1
  Nb  Nb4  1  0.000000  0.000000  0.633451  1
  Re  Re5  1  0.999994  0.399136  0.680754  1
  Re  Re6  1  0.281620  0.600860  0.600861  1
  Re  Re7  1  0.718378  0.319240  0.319244  1
  Re  Re8  1  0.319237  0.718373  0.319236  1
  Re  Re9  1  0.680764  0.000007  0.399138  1
  Re  Re10  1  0.999997  0.680756  0.399138  1
  Re  Re11  1  0.600867  0.600862  0.281631  1
  Re  Re12  1  0.806140  0.806143  0.181670  1
  Re  Re13  1  0.375531  0.193860  0.000009  1
  Re  Re14  1  0.193859  0.375528  0.999999  1
  Re  Re15  1  0.624475  0.818331  0.624472  1
  Re  Re16  1  0.375534  0.000005  0.193863  1
  Re  Re17  1  0.999997  0.375527  0.193867  1
  Re  Re18  1  0.818334  0.624465  0.624466  1
  Re  Re19  1  0.181662  0.806132  0.806136  1
  Re  Re20  1  0.806139  0.181668  0.806136  1
  Re  Re21  1  0.193860  0.000000  0.375524  1
  Re  Re22  1  0.999995  0.193865  0.375528  1
  Re  Re23  1  0.624474  0.624474  0.818330  1
  Re  Re24  1  0.399137  0.999997  0.680763  1
  Re  Re25  1  0.600867  0.281627  0.600857  1
  Re  Re26  1  0.680767  0.399138  0.000005  1
  Re  Re27  1  0.399136  0.680766  0.000000  1
  Re  Re28  1  0.319234  0.319239  0.718371  1
