# generated using pymatgen
data_Nb3CrRe2Si3
_symmetry_space_group_name_H-M   'P 1'
_cell_length_a   6.78076800
_cell_length_b   6.81154898
_cell_length_c   3.33140100
_cell_angle_alpha   90.00000000
_cell_angle_beta   90.00000000
_cell_angle_gamma   119.85061724
_symmetry_Int_Tables_number   1
_chemical_formula_structural   Nb3CrRe2Si3
_chemical_formula_sum   'Nb3 Cr1 Re2 Si3'
_cell_volume   133.45476385
_cell_formula_units_Z   1
loop_
 _symmetry_equiv_pos_site_id
 _symmetry_equiv_pos_as_xyz
  1  'x, y, z'
loop_
 _atom_site_type_symbol
 _atom_site_label
 _atom_site_symmetry_multiplicity
 _atom_site_fract_x
 _atom_site_fract_y
 _atom_site_fract_z
 _atom_site_occupancy
  Nb  Nb0  1  0.410672  0.000000  0.500000  1
  Nb  Nb1  1  0.995166  0.396179  0.500000  1
  Nb  Nb2  1  0.598987  0.603821  0.500000  1
  Cr  Cr3  1  0.745166  0.000000  0.000000  1
  Re  Re4  1  0.001354  0.746302  0.000000  1
  Re  Re5  1  0.255052  0.253698  0.000000  1
  Si  Si6  1  0.336041  0.668507  0.000000  1
  Si  Si7  1  0.667534  0.331493  0.000000  1
  Si  Si8  1  0.990027  0.000000  0.500000  1
