# generated using pymatgen
data_Dy5Re2P12Ir11Ru6
_symmetry_space_group_name_H-M   'P 1'
_cell_length_a   12.66237285
_cell_length_b   12.55933351
_cell_length_c   3.98334100
_cell_angle_alpha   90.00000000
_cell_angle_beta   90.00000000
_cell_angle_gamma   119.92004193
_symmetry_Int_Tables_number   1
_chemical_formula_structural   Dy5Re2P12Ir11Ru6
_chemical_formula_sum   'Dy5 Re2 P12 Ir11 Ru6'
_cell_volume   549.04654223
_cell_formula_units_Z   1
loop_
 _symmetry_equiv_pos_site_id
 _symmetry_equiv_pos_as_xyz
  1  'x, y, z'
loop_
 _atom_site_type_symbol
 _atom_site_label
 _atom_site_symmetry_multiplicity
 _atom_site_fract_x
 _atom_site_fract_y
 _atom_site_fract_z
 _atom_site_occupancy
  Dy  Dy0  1  0.665575  0.331047  0.000000  1
  Dy  Dy1  1  0.336535  0.669809  0.000000  1
  Dy  Dy2  1  0.811886  0.000126  0.500000  1
  Dy  Dy3  1  0.184632  0.185375  0.500000  1
  Dy  Dy4  1  0.999536  0.813332  0.500000  1
  Re  Re5  1  0.448712  0.998653  0.000000  1
  Re  Re6  1  0.548092  0.546764  0.000000  1
  P  P7  1  0.633982  0.999348  0.000000  1
  P  P8  1  0.362885  0.364086  0.000000  1
  P  P9  1  0.000138  0.636891  0.000000  1
  P  P10  1  0.687293  0.517661  0.500000  1
  P  P11  1  0.829457  0.306934  0.500000  1
  P  P12  1  0.319957  0.836713  0.500000  1
  P  P13  1  0.520876  0.689276  0.500000  1
  P  P14  1  0.177857  0.999961  0.000000  1
  P  P15  1  0.819748  0.820184  0.000000  1
  P  P16  1  0.996157  0.182092  0.000000  1
  P  P17  1  0.478605  0.164138  0.500000  1
  P  P18  1  0.170783  0.482392  0.500000  1
  Ir  Ir19  1  0.625712  0.803868  0.000000  1
  Ir  Ir20  1  0.181992  0.377272  0.000000  1
  Ir  Ir21  1  0.373116  0.180614  0.000000  1
  Ir  Ir22  1  0.192716  0.818962  0.000000  1
  Ir  Ir23  1  0.804889  0.622298  0.000000  1
  Ir  Ir24  1  0.869058  0.506562  0.500000  1
  Ir  Ir25  1  0.493281  0.359228  0.500000  1
  Ir  Ir26  1  0.636961  0.128453  0.500000  1
  Ir  Ir27  1  0.134789  0.642522  0.500000  1
  Ir  Ir28  1  0.362250  0.491551  0.500000  1
  Ir  Ir29  1  0.998904  0.001229  0.000000  1
  Ru  Ru30  1  0.511584  0.869847  0.500000  1
  Ru  Ru31  1  0.714136  0.711691  0.500000  1
  Ru  Ru32  1  0.002236  0.288801  0.500000  1
  Ru  Ru33  1  0.002732  0.456115  0.000000  1
  Ru  Ru34  1  0.818838  0.197165  0.000000  1
  Ru  Ru35  1  0.284097  0.999035  0.500000  1
