# generated using pymatgen
data_CoAgIr3Pb3O14
_symmetry_space_group_name_H-M   'P 1'
_cell_length_a   7.29501844
_cell_length_b   7.19766410
_cell_length_c   7.29501900
_cell_angle_alpha   59.55156280
_cell_angle_beta   60.00001109
_cell_angle_gamma   59.55155637
_symmetry_Int_Tables_number   1
_chemical_formula_structural   CoAgIr3Pb3O14
_chemical_formula_sum   'Co1 Ag1 Ir3 Pb3 O14'
_cell_volume   268.99995839
_cell_formula_units_Z   1
loop_
 _symmetry_equiv_pos_site_id
 _symmetry_equiv_pos_as_xyz
  1  'x, y, z'
loop_
 _atom_site_type_symbol
 _atom_site_label
 _atom_site_symmetry_multiplicity
 _atom_site_fract_x
 _atom_site_fract_y
 _atom_site_fract_z
 _atom_site_occupancy
  Co  Co0  1  0.625000  0.125000  0.625000  1
  Ag  Ag1  1  0.125000  0.625000  0.125000  1
  Ir  Ir2  1  0.125000  0.625000  0.625000  1
  Ir  Ir3  1  0.625000  0.625000  0.125000  1
  Ir  Ir4  1  0.625000  0.625000  0.625000  1
  Pb  Pb5  1  0.625000  0.125000  0.125000  1
  Pb  Pb6  1  0.125000  0.125000  0.625000  1
  Pb  Pb7  1  0.125000  0.125000  0.125000  1
  O  O8  1  0.692378  0.708841  0.299390  1
  O  O9  1  0.301996  0.294020  0.701993  1
  O  O10  1  0.701993  0.294020  0.701993  1
  O  O11  1  0.299390  0.708841  0.299390  1
  O  O12  1  0.299390  0.708841  0.692378  1
  O  O13  1  0.701993  0.294020  0.301996  1
  O  O14  1  0.557622  0.541159  0.950610  1
  O  O15  1  0.948004  0.955980  0.548007  1
  O  O16  1  0.548007  0.955980  0.548007  1
  O  O17  1  0.950610  0.541159  0.950610  1
  O  O18  1  0.950610  0.541159  0.557622  1
  O  O19  1  0.548007  0.955980  0.948004  1
  O  O20  1  0.242854  0.271438  0.242854  1
  O  O21  1  0.007146  0.978562  0.007146  1
