# generated using pymatgen
data_Ba2Ta12Nb3O32
_symmetry_space_group_name_H-M   'P 1'
_cell_length_a   12.83967072
_cell_length_b   12.83967092
_cell_length_c   12.83967000
_cell_angle_alpha   35.67340431
_cell_angle_beta   35.67340307
_cell_angle_gamma   35.67340173
_symmetry_Int_Tables_number   1
_chemical_formula_structural   Ba2Ta12Nb3O32
_chemical_formula_sum   'Ba2 Ta12 Nb3 O32'
_cell_volume   643.48845287
_cell_formula_units_Z   1
loop_
 _symmetry_equiv_pos_site_id
 _symmetry_equiv_pos_as_xyz
  1  'x, y, z'
loop_
 _atom_site_type_symbol
 _atom_site_label
 _atom_site_symmetry_multiplicity
 _atom_site_fract_x
 _atom_site_fract_y
 _atom_site_fract_z
 _atom_site_occupancy
  Ba  Ba0  1  0.360252  0.360559  0.360305  1
  Ba  Ba1  1  0.639902  0.640216  0.639946  1
  Ta  Ta2  1  0.443940  0.682840  0.275606  1
  Ta  Ta3  1  0.860121  0.862740  0.861209  1
  Ta  Ta4  1  0.137355  0.140226  0.138626  1
  Ta  Ta5  1  0.926969  0.805457  0.471179  1
  Ta  Ta6  1  0.471067  0.927808  0.804846  1
  Ta  Ta7  1  0.804705  0.471723  0.926589  1
  Ta  Ta8  1  0.073119  0.194987  0.528742  1
  Ta  Ta9  1  0.528730  0.073841  0.194409  1
  Ta  Ta10  1  0.194357  0.529287  0.072656  1
  Ta  Ta11  1  0.000012  0.999876  0.000680  1
  Ta  Ta12  1  0.316915  0.724521  0.555612  1
  Ta  Ta13  1  0.725277  0.554716  0.317095  1
  Nb  Nb14  1  0.554799  0.316726  0.725333  1
  Nb  Nb15  1  0.275764  0.443707  0.683130  1
  Nb  Nb16  1  0.682823  0.274897  0.444865  1
  O  O17  1  0.959982  0.181329  0.763209  1
  O  O18  1  0.762898  0.960180  0.181846  1
  O  O19  1  0.180712  0.763275  0.960787  1
  O  O20  1  0.039271  0.818530  0.236754  1
  O  O21  1  0.236458  0.039291  0.819128  1
  O  O22  1  0.817992  0.236814  0.040017  1
  O  O23  1  0.468065  0.352099  0.057614  1
  O  O24  1  0.059339  0.467317  0.351733  1
  O  O25  1  0.352110  0.057715  0.467993  1
  O  O26  1  0.532492  0.647950  0.941015  1
  O  O27  1  0.942663  0.531635  0.647816  1
  O  O28  1  0.648285  0.940821  0.532387  1
  O  O29  1  0.072658  0.956526  0.657743  1
  O  O30  1  0.661692  0.067394  0.959216  1
  O  O31  1  0.954927  0.657616  0.074666  1
  O  O32  1  0.931855  0.041364  0.338819  1
  O  O33  1  0.342388  0.926688  0.044317  1
  O  O34  1  0.538590  0.801927  0.364003  1
  O  O35  1  0.805753  0.365768  0.534008  1
  O  O36  1  0.359714  0.544726  0.801378  1
  O  O37  1  0.459969  0.194876  0.638007  1
  O  O38  1  0.199055  0.639578  0.455449  1
  O  O39  1  0.633580  0.466249  0.194567  1
  O  O40  1  0.761402  0.069245  0.669243  1
  O  O41  1  0.072335  0.669891  0.759588  1
  O  O42  1  0.667643  0.759165  0.073048  1
  O  O43  1  0.239942  0.927000  0.333172  1
  O  O44  1  0.929645  0.334051  0.238312  1
  O  O45  1  0.331415  0.237896  0.930882  1
  O  O46  1  0.238397  0.237883  0.237016  1
  O  O47  1  0.762878  0.762413  0.761513  1
  O  O48  1  0.039787  0.338660  0.933923  1
