# generated using pymatgen
data_Tb3ErCo4(P3Ir4)4
_symmetry_space_group_name_H-M   'P 1'
_cell_length_a   3.93461500
_cell_length_b   10.70624804
_cell_length_c   12.37912705
_cell_angle_alpha   90.00980821
_cell_angle_beta   90.00000000
_cell_angle_gamma   90.00000000
_symmetry_Int_Tables_number   1
_chemical_formula_structural   Tb3ErCo4(P3Ir4)4
_chemical_formula_sum   'Tb3 Er1 Co4 P12 Ir16'
_cell_volume   521.47027509
_cell_formula_units_Z   1
loop_
 _symmetry_equiv_pos_site_id
 _symmetry_equiv_pos_as_xyz
  1  'x, y, z'
loop_
 _atom_site_type_symbol
 _atom_site_label
 _atom_site_symmetry_multiplicity
 _atom_site_fract_x
 _atom_site_fract_y
 _atom_site_fract_z
 _atom_site_occupancy
  Tb  Tb0  1  0.250000  0.585137  0.709873  1
  Tb  Tb1  1  0.250000  0.914932  0.209854  1
  Tb  Tb2  1  0.750000  0.414855  0.290115  1
  Er  Er3  1  0.750000  0.085085  0.789972  1
  Co  Co4  1  0.250000  0.460711  0.934020  1
  Co  Co5  1  0.250000  0.038897  0.434522  1
  Co  Co6  1  0.750000  0.538878  0.065795  1
  Co  Co7  1  0.750000  0.961431  0.566335  1
  P  P8  1  0.250000  0.426388  0.105484  1
  P  P9  1  0.250000  0.073527  0.606014  1
  P  P10  1  0.750000  0.573451  0.894405  1
  P  P11  1  0.750000  0.926468  0.394721  1
  P  P12  1  0.250000  0.270349  0.870982  1
  P  P13  1  0.250000  0.228918  0.371477  1
  P  P14  1  0.750000  0.729011  0.128481  1
  P  P15  1  0.750000  0.771113  0.628437  1
  P  P16  1  0.250000  0.594960  0.385054  1
  P  P17  1  0.250000  0.905648  0.884777  1
  P  P18  1  0.750000  0.405139  0.614873  1
  P  P19  1  0.750000  0.094988  0.115077  1
  Ir  Ir20  1  0.250000  0.720920  0.980440  1
  Ir  Ir21  1  0.250000  0.779349  0.480843  1
  Ir  Ir22  1  0.750000  0.279403  0.019319  1
  Ir  Ir23  1  0.750000  0.220664  0.519522  1
  Ir  Ir24  1  0.250000  0.407545  0.479119  1
  Ir  Ir25  1  0.250000  0.092507  0.977427  1
  Ir  Ir26  1  0.750000  0.592490  0.520941  1
  Ir  Ir27  1  0.750000  0.907750  0.020991  1
  Ir  Ir28  1  0.250000  0.231458  0.179347  1
  Ir  Ir29  1  0.250000  0.266973  0.680199  1
  Ir  Ir30  1  0.750000  0.768334  0.820292  1
  Ir  Ir31  1  0.750000  0.731791  0.320547  1
  Ir  Ir32  1  0.250000  0.886668  0.699330  1
  Ir  Ir33  1  0.250000  0.614654  0.198651  1
  Ir  Ir34  1  0.750000  0.114617  0.301500  1
  Ir  Ir35  1  0.750000  0.384989  0.801257  1
