# generated using pymatgen
data_Er2LuThMgCo
_symmetry_space_group_name_H-M   'P 1'
_cell_length_a   9.54654324
_cell_length_b   9.54654338
_cell_length_c   9.54827900
_cell_angle_alpha   59.99398918
_cell_angle_beta   59.99398870
_cell_angle_gamma   60.01202636
_symmetry_Int_Tables_number   1
_chemical_formula_structural   Er2LuThMgCo
_chemical_formula_sum   'Er8 Lu4 Th4 Mg4 Co4'
_cell_volume   615.32191389
_cell_formula_units_Z   4
loop_
 _symmetry_equiv_pos_site_id
 _symmetry_equiv_pos_as_xyz
  1  'x, y, z'
loop_
 _atom_site_type_symbol
 _atom_site_label
 _atom_site_symmetry_multiplicity
 _atom_site_fract_x
 _atom_site_fract_y
 _atom_site_fract_z
 _atom_site_occupancy
  Er  Er0  1  0.434911  0.434911  0.065089  1
  Er  Er1  1  0.065089  0.065089  0.434911  1
  Er  Er2  1  0.185378  0.814622  0.814622  1
  Er  Er3  1  0.814622  0.185378  0.185378  1
  Er  Er4  1  0.814622  0.185378  0.814622  1
  Er  Er5  1  0.185378  0.814622  0.185378  1
  Er  Er6  1  0.814684  0.814684  0.185316  1
  Er  Er7  1  0.185316  0.185316  0.814684  1
  Lu  Lu8  1  0.064537  0.435463  0.435463  1
  Lu  Lu9  1  0.435463  0.064537  0.064537  1
  Lu  Lu10  1  0.435463  0.064537  0.435463  1
  Lu  Lu11  1  0.064537  0.435463  0.064537  1
  Th  Th12  1  0.595484  0.595484  0.594285  1
  Th  Th13  1  0.595484  0.595484  0.214748  1
  Th  Th14  1  0.594285  0.214748  0.595484  1
  Th  Th15  1  0.214748  0.594285  0.595484  1
  Mg  Mg16  1  0.829511  0.829511  0.830212  1
  Mg  Mg17  1  0.829511  0.829511  0.510767  1
  Mg  Mg18  1  0.830212  0.510767  0.829511  1
  Mg  Mg19  1  0.510767  0.830212  0.829511  1
  Co  Co20  1  0.393592  0.393592  0.395159  1
  Co  Co21  1  0.393592  0.393592  0.817657  1
  Co  Co22  1  0.395159  0.817657  0.393592  1
  Co  Co23  1  0.817657  0.395159  0.393592  1
