# generated using pymatgen
data_Tc4OsRu3
_symmetry_space_group_name_H-M   'P 1'
_cell_length_a   5.52392300
_cell_length_b   5.52751795
_cell_length_c   4.34413100
_cell_angle_alpha   90.00000000
_cell_angle_beta   90.00000000
_cell_angle_gamma   119.97849413
_symmetry_Int_Tables_number   1
_chemical_formula_structural   Tc4OsRu3
_chemical_formula_sum   'Tc4 Os1 Ru3'
_cell_volume   114.89612893
_cell_formula_units_Z   1
loop_
 _symmetry_equiv_pos_site_id
 _symmetry_equiv_pos_as_xyz
  1  'x, y, z'
loop_
 _atom_site_type_symbol
 _atom_site_label
 _atom_site_symmetry_multiplicity
 _atom_site_fract_x
 _atom_site_fract_y
 _atom_site_fract_z
 _atom_site_occupancy
  Tc  Tc0  1  0.668889  0.833731  0.250000  1
  Tc  Tc1  1  0.164842  0.833731  0.250000  1
  Tc  Tc2  1  0.332366  0.165244  0.750000  1
  Tc  Tc3  1  0.832877  0.165244  0.750000  1
  Os  Os4  1  0.164264  0.328528  0.250000  1
  Ru  Ru5  1  0.835274  0.670548  0.750000  1
  Ru  Ru6  1  0.335598  0.671198  0.750000  1
  Ru  Ru7  1  0.665889  0.331777  0.250000  1
