# generated using pymatgen
data_Na2Mn(CrSe3)2
_symmetry_space_group_name_H-M   'P 1'
_cell_length_a   6.39930942
_cell_length_b   6.39931021
_cell_length_c   7.30429372
_cell_angle_alpha   81.57908327
_cell_angle_beta   81.57907991
_cell_angle_gamma   119.87116579
_symmetry_Int_Tables_number   1
_chemical_formula_structural   Na2Mn(CrSe3)2
_chemical_formula_sum   'Na2 Mn1 Cr2 Se6'
_cell_volume   248.05104799
_cell_formula_units_Z   1
loop_
 _symmetry_equiv_pos_site_id
 _symmetry_equiv_pos_as_xyz
  1  'x, y, z'
loop_
 _atom_site_type_symbol
 _atom_site_label
 _atom_site_symmetry_multiplicity
 _atom_site_fract_x
 _atom_site_fract_y
 _atom_site_fract_z
 _atom_site_occupancy
  Na  Na0  1  0.166114  0.833886  0.500000  1
  Na  Na1  1  0.833886  0.166114  0.500000  1
  Mn  Mn2  1  0.000000  0.000000  0.000000  1
  Cr  Cr3  1  0.332086  0.667914  0.000000  1
  Cr  Cr4  1  0.667914  0.332086  0.000000  1
  Se  Se5  1  0.933727  0.605503  0.196311  1
  Se  Se6  1  0.264296  0.264296  0.196549  1
  Se  Se7  1  0.605503  0.933727  0.196311  1
  Se  Se8  1  0.735704  0.735704  0.803451  1
  Se  Se9  1  0.066273  0.394497  0.803689  1
  Se  Se10  1  0.394497  0.066273  0.803689  1
