# generated using pymatgen
data_Tb4Ho16CoBi8Os3
_symmetry_space_group_name_H-M   'P 1'
_cell_length_a   7.95748911
_cell_length_b   9.00369900
_cell_length_c   12.42632628
_cell_angle_alpha   90.00000000
_cell_angle_beta   89.76330482
_cell_angle_gamma   90.00000000
_symmetry_Int_Tables_number   1
_chemical_formula_structural   Tb4Ho16CoBi8Os3
_chemical_formula_sum   'Tb4 Ho16 Co1 Bi8 Os3'
_cell_volume   890.29937361
_cell_formula_units_Z   1
loop_
 _symmetry_equiv_pos_site_id
 _symmetry_equiv_pos_as_xyz
  1  'x, y, z'
loop_
 _atom_site_type_symbol
 _atom_site_label
 _atom_site_symmetry_multiplicity
 _atom_site_fract_x
 _atom_site_fract_y
 _atom_site_fract_z
 _atom_site_occupancy
  Tb  Tb0  1  0.344416  0.750000  0.701738  1
  Tb  Tb1  1  0.156412  0.750000  0.206891  1
  Tb  Tb2  1  0.878448  0.750000  0.805469  1
  Tb  Tb3  1  0.617457  0.750000  0.312319  1
  Ho  Ho4  1  0.658369  0.250000  0.292428  1
  Ho  Ho5  1  0.842031  0.250000  0.791157  1
  Ho  Ho6  1  0.119641  0.250000  0.193632  1
  Ho  Ho7  1  0.378696  0.250000  0.692853  1
  Ho  Ho8  1  0.675189  0.540990  0.563864  1
  Ho  Ho9  1  0.325248  0.459215  0.436938  1
  Ho  Ho10  1  0.174475  0.457011  0.936161  1
  Ho  Ho11  1  0.325248  0.040785  0.436938  1
  Ho  Ho12  1  0.824534  0.542421  0.064382  1
  Ho  Ho13  1  0.675189  0.959010  0.563864  1
  Ho  Ho14  1  0.824534  0.957579  0.064382  1
  Ho  Ho15  1  0.174475  0.042989  0.936161  1
  Ho  Ho16  1  0.055798  0.750000  0.496510  1
  Ho  Ho17  1  0.944533  0.250000  0.503166  1
  Ho  Ho18  1  0.558766  0.250000  0.003606  1
  Ho  Ho19  1  0.442303  0.750000  0.995427  1
  Co  Co20  1  0.429583  0.750000  0.491294  1
  Bi  Bi21  1  0.569789  0.507630  0.827771  1
  Bi  Bi22  1  0.429933  0.491447  0.172624  1
  Bi  Bi23  1  0.071316  0.491221  0.671459  1
  Bi  Bi24  1  0.429933  0.008553  0.172624  1
  Bi  Bi25  1  0.929636  0.508021  0.328941  1
  Bi  Bi26  1  0.569789  0.992370  0.827771  1
  Bi  Bi27  1  0.929636  0.991979  0.328941  1
  Bi  Bi28  1  0.071316  0.008779  0.671459  1
  Os  Os29  1  0.075608  0.750000  0.988972  1
  Os  Os30  1  0.923754  0.250000  0.010155  1
  Os  Os31  1  0.573949  0.250000  0.510103  1
