# generated using pymatgen
data_LaEu2ReO7
_symmetry_space_group_name_H-M   'P 1'
_cell_length_a   6.77770580
_cell_length_b   6.77770568
_cell_length_c   7.66599300
_cell_angle_alpha   90.00000000
_cell_angle_beta   90.00000000
_cell_angle_gamma   110.94272520
_symmetry_Int_Tables_number   1
_chemical_formula_structural   LaEu2ReO7
_chemical_formula_sum   'La2 Eu4 Re2 O14'
_cell_volume   328.89098949
_cell_formula_units_Z   2
loop_
 _symmetry_equiv_pos_site_id
 _symmetry_equiv_pos_as_xyz
  1  'x, y, z'
loop_
 _atom_site_type_symbol
 _atom_site_label
 _atom_site_symmetry_multiplicity
 _atom_site_fract_x
 _atom_site_fract_y
 _atom_site_fract_z
 _atom_site_occupancy
  La  La0  1  0.000000  0.000000  0.500000  1
  La  La1  1  0.000000  0.000000  0.000000  1
  Eu  Eu2  1  0.489935  0.973554  0.750000  1
  Eu  Eu3  1  0.026446  0.510065  0.250000  1
  Eu  Eu4  1  0.973554  0.489935  0.750000  1
  Eu  Eu5  1  0.510065  0.026446  0.250000  1
  Re  Re6  1  0.500000  0.500000  0.000000  1
  Re  Re7  1  0.500000  0.500000  0.500000  1
  O  O8  1  0.143130  0.878015  0.250000  1
  O  O9  1  0.559910  0.802120  0.485181  1
  O  O10  1  0.802120  0.559910  0.014819  1
  O  O11  1  0.440090  0.197880  0.985181  1
  O  O12  1  0.559910  0.802120  0.014819  1
  O  O13  1  0.523815  0.523815  0.750000  1
  O  O14  1  0.856870  0.121985  0.750000  1
  O  O15  1  0.121985  0.856870  0.750000  1
  O  O16  1  0.197880  0.440090  0.985181  1
  O  O17  1  0.878015  0.143130  0.250000  1
  O  O18  1  0.440090  0.197880  0.514819  1
  O  O19  1  0.476185  0.476185  0.250000  1
  O  O20  1  0.802120  0.559910  0.485181  1
  O  O21  1  0.197880  0.440090  0.514819  1
