# generated using pymatgen
data_PrGd(PS)2
_symmetry_space_group_name_H-M   'P 1'
_cell_length_a   5.43279500
_cell_length_b   5.52244600
_cell_length_c   16.97738000
_cell_angle_alpha   90.00000000
_cell_angle_beta   90.00000000
_cell_angle_gamma   90.00000000
_symmetry_Int_Tables_number   1
_chemical_formula_structural   PrGd(PS)2
_chemical_formula_sum   'Pr4 Gd4 P8 S8'
_cell_volume   509.36073687
_cell_formula_units_Z   4
loop_
 _symmetry_equiv_pos_site_id
 _symmetry_equiv_pos_as_xyz
  1  'x, y, z'
loop_
 _atom_site_type_symbol
 _atom_site_label
 _atom_site_symmetry_multiplicity
 _atom_site_fract_x
 _atom_site_fract_y
 _atom_site_fract_z
 _atom_site_occupancy
  Pr  Pr0  1  0.250000  0.484297  0.363996  1
  Pr  Pr1  1  0.250000  0.984297  0.136004  1
  Pr  Pr2  1  0.750000  0.515703  0.636004  1
  Pr  Pr3  1  0.750000  0.015703  0.863996  1
  Gd  Gd4  1  0.250000  0.014790  0.648271  1
  Gd  Gd5  1  0.250000  0.514790  0.851729  1
  Gd  Gd6  1  0.750000  0.985210  0.351729  1
  Gd  Gd7  1  0.750000  0.485210  0.148271  1
  P  P8  1  0.041156  0.303124  0.996370  1
  P  P9  1  0.458844  0.803124  0.503630  1
  P  P10  1  0.541156  0.696876  0.003630  1
  P  P11  1  0.958844  0.196876  0.496370  1
  P  P12  1  0.958844  0.696876  0.003630  1
  P  P13  1  0.541156  0.196876  0.496370  1
  P  P14  1  0.458844  0.303124  0.996370  1
  P  P15  1  0.041156  0.803124  0.503630  1
  S  S16  1  0.250000  0.484533  0.187306  1
  S  S17  1  0.250000  0.984533  0.312694  1
  S  S18  1  0.750000  0.515467  0.812694  1
  S  S19  1  0.750000  0.015467  0.687306  1
  S  S20  1  0.250000  0.010879  0.815571  1
  S  S21  1  0.250000  0.510879  0.684429  1
  S  S22  1  0.750000  0.989121  0.184429  1
  S  S23  1  0.750000  0.489121  0.315571  1
