# generated using pymatgen
data_Ho9ErGaBi5
_symmetry_space_group_name_H-M   'P 1'
_cell_length_a   8.14847900
_cell_length_b   9.41024323
_cell_length_c   11.96637330
_cell_angle_alpha   90.02543460
_cell_angle_beta   90.00000000
_cell_angle_gamma   90.00000000
_symmetry_Int_Tables_number   1
_chemical_formula_structural   Ho9ErGaBi5
_chemical_formula_sum   'Ho18 Er2 Ga2 Bi10'
_cell_volume   917.57147408
_cell_formula_units_Z   2
loop_
 _symmetry_equiv_pos_site_id
 _symmetry_equiv_pos_as_xyz
  1  'x, y, z'
loop_
 _atom_site_type_symbol
 _atom_site_label
 _atom_site_symmetry_multiplicity
 _atom_site_fract_x
 _atom_site_fract_y
 _atom_site_fract_z
 _atom_site_occupancy
  Ho  Ho0  1  0.354629  0.749781  0.206425  1
  Ho  Ho1  1  0.854629  0.750219  0.293575  1
  Ho  Ho2  1  0.651128  0.250065  0.784448  1
  Ho  Ho3  1  0.151128  0.249935  0.715552  1
  Ho  Ho4  1  0.308972  0.049146  0.940626  1
  Ho  Ho5  1  0.808972  0.450854  0.559374  1
  Ho  Ho6  1  0.308699  0.451099  0.940744  1
  Ho  Ho7  1  0.808699  0.048901  0.559256  1
  Ho  Ho8  1  0.684346  0.929715  0.055290  1
  Ho  Ho9  1  0.184346  0.570285  0.444710  1
  Ho  Ho10  1  0.478892  0.250070  0.489888  1
  Ho  Ho11  1  0.978892  0.249930  0.010112  1
  Ho  Ho12  1  0.535823  0.749768  0.509862  1
  Ho  Ho13  1  0.035823  0.750232  0.990138  1
  Ho  Ho14  1  0.312999  0.249983  0.219252  1
  Ho  Ho15  1  0.812999  0.250017  0.280748  1
  Ho  Ho16  1  0.677028  0.749874  0.785624  1
  Ho  Ho17  1  0.177028  0.750126  0.714376  1
  Er  Er18  1  0.684645  0.570802  0.055410  1
  Er  Er19  1  0.184645  0.929198  0.444590  1
  Ga  Ga20  1  0.410141  0.749782  0.960013  1
  Ga  Ga21  1  0.910141  0.750218  0.539987  1
  Bi  Bi22  1  0.593046  0.250702  0.042544  1
  Bi  Bi23  1  0.093046  0.249298  0.457456  1
  Bi  Bi24  1  0.563038  0.996386  0.324470  1
  Bi  Bi25  1  0.063038  0.503614  0.175530  1
  Bi  Bi26  1  0.436828  0.498016  0.676270  1
  Bi  Bi27  1  0.936828  0.001984  0.823730  1
  Bi  Bi28  1  0.436691  0.001953  0.676078  1
  Bi  Bi29  1  0.936691  0.498047  0.823922  1
  Bi  Bi30  1  0.563097  0.503391  0.324373  1
  Bi  Bi31  1  0.063097  0.996609  0.175627  1
