# generated using pymatgen
data_CaYb5(InAs2)4
_symmetry_space_group_name_H-M   'P 1'
_cell_length_a   4.37056300
_cell_length_b   6.57372397
_cell_length_c   16.18017755
_cell_angle_alpha   90.16541521
_cell_angle_beta   90.00000000
_cell_angle_gamma   90.00000000
_symmetry_Int_Tables_number   1
_chemical_formula_structural   CaYb5(InAs2)4
_chemical_formula_sum   'Ca1 Yb5 In4 As8'
_cell_volume   464.86871773
_cell_formula_units_Z   1
loop_
 _symmetry_equiv_pos_site_id
 _symmetry_equiv_pos_as_xyz
  1  'x, y, z'
loop_
 _atom_site_type_symbol
 _atom_site_label
 _atom_site_symmetry_multiplicity
 _atom_site_fract_x
 _atom_site_fract_y
 _atom_site_fract_z
 _atom_site_occupancy
  Ca  Ca0  1  0.500000  0.218635  0.304489  1
  Yb  Yb1  1  0.000000  0.284940  0.804608  1
  Yb  Yb2  1  0.500000  0.784241  0.695723  1
  Yb  Yb3  1  0.000000  0.716384  0.195126  1
  Yb  Yb4  1  0.000000  0.001019  0.999644  1
  Yb  Yb5  1  0.500000  0.498324  0.500594  1
  In  In6  1  0.000000  0.852501  0.411352  1
  In  In7  1  0.500000  0.358326  0.088282  1
  In  In8  1  0.000000  0.143046  0.590404  1
  In  In9  1  0.500000  0.644798  0.910410  1
  As  As10  1  0.500000  0.240478  0.927865  1
  As  As11  1  0.500000  0.761812  0.071235  1
  As  As12  1  0.000000  0.220134  0.172485  1
  As  As13  1  0.000000  0.256967  0.429681  1
  As  As14  1  0.500000  0.717880  0.325759  1
  As  As15  1  0.000000  0.780247  0.825480  1
  As  As16  1  0.000000  0.738689  0.572143  1
  As  As17  1  0.500000  0.281579  0.674721  1
