# generated using pymatgen
data_Ho3Zn2Cd3Pd
_symmetry_space_group_name_H-M   'P 1'
_cell_length_a   7.79340700
_cell_length_b   7.79340537
_cell_length_c   3.78848500
_cell_angle_alpha   90.00000000
_cell_angle_beta   90.00000000
_cell_angle_gamma   119.99998572
_symmetry_Int_Tables_number   1
_chemical_formula_structural   Ho3Zn2Cd3Pd
_chemical_formula_sum   'Ho3 Zn2 Cd3 Pd1'
_cell_volume   199.27411530
_cell_formula_units_Z   1
loop_
 _symmetry_equiv_pos_site_id
 _symmetry_equiv_pos_as_xyz
  1  'x, y, z'
loop_
 _atom_site_type_symbol
 _atom_site_label
 _atom_site_symmetry_multiplicity
 _atom_site_fract_x
 _atom_site_fract_y
 _atom_site_fract_z
 _atom_site_occupancy
  Ho  Ho0  1  0.399616  0.418356  0.000000  1
  Ho  Ho1  1  0.581644  0.981259  0.000000  1
  Ho  Ho2  1  0.018741  0.600384  0.000000  1
  Zn  Zn3  1  0.000000  0.000000  0.000000  1
  Zn  Zn4  1  0.666667  0.333333  0.500000  1
  Cd  Cd5  1  0.743040  0.734100  0.500000  1
  Cd  Cd6  1  0.265900  0.008940  0.500000  1
  Cd  Cd7  1  0.991060  0.256960  0.500000  1
  Pd  Pd8  1  0.333333  0.666667  0.500000  1
