# generated using pymatgen
data_Tb4Sc3Fe(WO6)4
_symmetry_space_group_name_H-M   'P 1'
_cell_length_a   5.27707030
_cell_length_b   7.55131592
_cell_length_c   11.25975775
_cell_angle_alpha   90.04168333
_cell_angle_beta   89.99820468
_cell_angle_gamma   90.03855029
_symmetry_Int_Tables_number   1
_chemical_formula_structural   Tb4Sc3Fe(WO6)4
_chemical_formula_sum   'Tb4 Sc3 Fe1 W4 O24'
_cell_volume   448.68789544
_cell_formula_units_Z   1
loop_
 _symmetry_equiv_pos_site_id
 _symmetry_equiv_pos_as_xyz
  1  'x, y, z'
loop_
 _atom_site_type_symbol
 _atom_site_label
 _atom_site_symmetry_multiplicity
 _atom_site_fract_x
 _atom_site_fract_y
 _atom_site_fract_z
 _atom_site_occupancy
  Tb  Tb0  1  0.954727  0.251293  0.041647  1
  Tb  Tb1  1  0.456576  0.752148  0.456123  1
  Tb  Tb2  1  0.545713  0.250903  0.546934  1
  Tb  Tb3  1  0.044315  0.754806  0.952703  1
  Sc  Sc4  1  0.455809  0.508758  0.141967  1
  Sc  Sc5  1  0.958413  0.009440  0.358692  1
  Sc  Sc6  1  0.044178  0.508815  0.641834  1
  Fe  Fe7  1  0.543669  0.009126  0.859914  1
  W  W8  1  0.448233  0.997122  0.138907  1
  W  W9  1  0.947648  0.497152  0.360254  1
  W  W10  1  0.052646  0.997210  0.642592  1
  W  W11  1  0.552052  0.497713  0.860250  1
  O  O12  1  0.745069  0.541531  0.018228  1
  O  O13  1  0.735350  0.957591  0.026910  1
  O  O14  1  0.317600  0.760943  0.114242  1
  O  O15  1  0.571104  0.239741  0.142481  1
  O  O16  1  0.128889  0.074802  0.200389  1
  O  O17  1  0.095077  0.434442  0.213932  1
  O  O18  1  0.596912  0.935404  0.284990  1
  O  O19  1  0.629662  0.576186  0.296985  1
  O  O20  1  0.070626  0.740364  0.357390  1
  O  O21  1  0.817341  0.260589  0.385375  1
  O  O22  1  0.236568  0.456705  0.470009  1
  O  O23  1  0.245982  0.044563  0.483311  1
  O  O24  1  0.755542  0.543654  0.519153  1
  O  O25  1  0.764918  0.957180  0.530387  1
  O  O26  1  0.180979  0.761024  0.616443  1
  O  O27  1  0.933711  0.240280  0.643348  1
  O  O28  1  0.371093  0.070250  0.709900  1
  O  O29  1  0.404771  0.435550  0.713614  1
  O  O30  1  0.890697  0.938027  0.786206  1
  O  O31  1  0.871580  0.574408  0.797276  1
  O  O32  1  0.435736  0.743634  0.857482  1
  O  O33  1  0.673855  0.256568  0.883489  1
  O  O34  1  0.262767  0.458786  0.969260  1
  O  O35  1  0.260198  0.043706  0.977386  1
