# generated using pymatgen
data_RbAs(HO2)2
_symmetry_space_group_name_H-M   'P 1'
_cell_length_a   6.79310099
_cell_length_b   6.79310004
_cell_length_c   6.79310111
_cell_angle_alpha   108.19925809
_cell_angle_beta   108.19925445
_cell_angle_gamma   112.04624588
_symmetry_Int_Tables_number   1
_chemical_formula_structural   RbAs(HO2)2
_chemical_formula_sum   'Rb2 As2 H4 O8'
_cell_volume   240.94649147
_cell_formula_units_Z   2
loop_
 _symmetry_equiv_pos_site_id
 _symmetry_equiv_pos_as_xyz
  1  'x, y, z'
loop_
 _atom_site_type_symbol
 _atom_site_label
 _atom_site_symmetry_multiplicity
 _atom_site_fract_x
 _atom_site_fract_y
 _atom_site_fract_z
 _atom_site_occupancy
  Rb  Rb0  1  0.750000  0.250000  0.500000  1
  Rb  Rb1  1  0.500000  0.500000  0.000000  1
  As  As2  1  0.250000  0.750000  0.500000  1
  As  As3  1  0.000000  0.000000  0.000000  1
  H  H4  1  0.264191  0.875000  0.889191  1
  H  H5  1  0.985809  0.375000  0.110809  1
  H  H6  1  0.625000  0.735809  0.610809  1
  H  H7  1  0.125000  0.014191  0.389191  1
  O  O8  1  0.265137  0.716054  0.745034  1
  O  O9  1  0.278980  0.033946  0.049083  1
  O  O10  1  0.971020  0.520103  0.254966  1
  O  O11  1  0.984863  0.229897  0.950917  1
  O  O12  1  0.479897  0.734863  0.450917  1
  O  O13  1  0.966054  0.015137  0.245034  1
  O  O14  1  0.283946  0.028980  0.549083  1
  O  O15  1  0.770103  0.721020  0.754966  1
