# generated using pymatgen
data_Hf2Sc6Co16As11P
_symmetry_space_group_name_H-M   'P 1'
_cell_length_a   12.50129724
_cell_length_b   12.52774065
_cell_length_c   3.73761900
_cell_angle_alpha   90.00000000
_cell_angle_beta   90.00000000
_cell_angle_gamma   119.96411226
_symmetry_Int_Tables_number   1
_chemical_formula_structural   Hf2Sc6Co16As11P
_chemical_formula_sum   'Hf2 Sc6 Co16 As11 P1'
_cell_volume   507.11964580
_cell_formula_units_Z   1
loop_
 _symmetry_equiv_pos_site_id
 _symmetry_equiv_pos_as_xyz
  1  'x, y, z'
loop_
 _atom_site_type_symbol
 _atom_site_label
 _atom_site_symmetry_multiplicity
 _atom_site_fract_x
 _atom_site_fract_y
 _atom_site_fract_z
 _atom_site_occupancy
  Hf  Hf0  1  0.000325  0.558646  0.000000  1
  Hf  Hf1  1  0.173484  0.991124  0.500000  1
  Sc  Sc2  1  0.825407  0.817109  0.500000  1
  Sc  Sc3  1  0.443712  0.443484  0.000000  1
  Sc  Sc4  1  0.999694  0.181588  0.500000  1
  Sc  Sc5  1  0.557048  0.000480  0.000000  1
  Sc  Sc6  1  0.332642  0.665521  0.000000  1
  Sc  Sc7  1  0.667516  0.333248  0.000000  1
  Co  Co8  1  0.628053  0.824628  0.000000  1
  Co  Co9  1  0.369864  0.194214  0.000000  1
  Co  Co10  1  0.001508  0.727493  0.500000  1
  Co  Co11  1  0.279874  0.279194  0.500000  1
  Co  Co12  1  0.876852  0.356906  0.500000  1
  Co  Co13  1  0.719898  0.000171  0.500000  1
  Co  Co14  1  0.829645  0.635049  0.000000  1
  Co  Co15  1  0.170479  0.807086  0.000000  1
  Co  Co16  1  0.352555  0.876210  0.500000  1
  Co  Co17  1  0.123499  0.480240  0.500000  1
  Co  Co18  1  0.645752  0.521703  0.500000  1
  Co  Co19  1  0.002420  0.991598  0.000000  1
  Co  Co20  1  0.522136  0.645600  0.500000  1
  Co  Co21  1  0.476868  0.123330  0.500000  1
  Co  Co22  1  0.195677  0.371802  0.000000  1
  Co  Co23  1  0.804486  0.175521  0.000000  1
  As  As24  1  0.999837  0.346502  0.000000  1
  As  As25  1  0.825565  0.515793  0.500000  1
  As  As26  1  0.688125  0.174374  0.500000  1
  As  As27  1  0.173452  0.173601  0.000000  1
  As  As28  1  0.652854  0.653497  0.000000  1
  As  As29  1  0.827302  0.998698  0.000000  1
  As  As30  1  0.513485  0.825836  0.500000  1
  As  As31  1  0.174628  0.689740  0.500000  1
  As  As32  1  0.347685  0.000377  0.000000  1
  As  As33  1  0.486126  0.312098  0.500000  1
  As  As34  1  0.312213  0.485957  0.500000  1
  P  P35  1  0.999334  0.821583  0.000000  1
