# generated using pymatgen
data_Sc3Tc2Ge3Rh
_symmetry_space_group_name_H-M   'P 1'
_cell_length_a   7.05586841
_cell_length_b   7.00237916
_cell_length_c   3.51123900
_cell_angle_alpha   90.00000000
_cell_angle_beta   90.00000000
_cell_angle_gamma   119.74954870
_symmetry_Int_Tables_number   1
_chemical_formula_structural   Sc3Tc2Ge3Rh
_chemical_formula_sum   'Sc3 Tc2 Ge3 Rh1'
_cell_volume   150.61826175
_cell_formula_units_Z   1
loop_
 _symmetry_equiv_pos_site_id
 _symmetry_equiv_pos_as_xyz
  1  'x, y, z'
loop_
 _atom_site_type_symbol
 _atom_site_label
 _atom_site_symmetry_multiplicity
 _atom_site_fract_x
 _atom_site_fract_y
 _atom_site_fract_z
 _atom_site_occupancy
  Sc  Sc0  1  0.402674  0.399264  0.500000  1
  Sc  Sc1  1  0.597326  0.996590  0.500000  1
  Sc  Sc2  1  0.000000  0.603495  0.500000  1
  Tc  Tc3  1  0.745113  0.744792  0.000000  1
  Tc  Tc4  1  0.254887  0.999679  0.000000  1
  Ge  Ge5  1  0.664827  0.333436  0.000000  1
  Ge  Ge6  1  0.335173  0.668610  0.000000  1
  Ge  Ge7  1  0.000000  0.998013  0.500000  1
  Rh  Rh8  1  0.000000  0.256123  0.000000  1
