# generated using pymatgen
data_Ca3TbSn3Sb3Rh7
_symmetry_space_group_name_H-M   'P 1'
_cell_length_a   7.63358664
_cell_length_b   7.62225229
_cell_length_c   7.62225183
_cell_angle_alpha   109.36681869
_cell_angle_beta   109.46959533
_cell_angle_gamma   109.46959266
_symmetry_Int_Tables_number   1
_chemical_formula_structural   Ca3TbSn3Sb3Rh7
_chemical_formula_sum   'Ca3 Tb1 Sn3 Sb3 Rh7'
_cell_volume   341.86030900
_cell_formula_units_Z   1
loop_
 _symmetry_equiv_pos_site_id
 _symmetry_equiv_pos_as_xyz
  1  'x, y, z'
loop_
 _atom_site_type_symbol
 _atom_site_label
 _atom_site_symmetry_multiplicity
 _atom_site_fract_x
 _atom_site_fract_y
 _atom_site_fract_z
 _atom_site_occupancy
  Ca  Ca0  1  0.486944  0.999712  0.999712  1
  Ca  Ca1  1  0.999832  0.504272  0.000031  1
  Ca  Ca2  1  0.999832  0.000031  0.504272  1
  Tb  Tb3  1  0.494446  0.495638  0.495638  1
  Sn  Sn4  1  0.989475  0.306002  0.306002  1
  Sn  Sn5  1  0.686945  0.003335  0.693548  1
  Sn  Sn6  1  0.686945  0.693548  0.003335  1
  Sb  Sb7  1  0.996505  0.672889  0.672889  1
  Sb  Sb8  1  0.321216  0.997405  0.326987  1
  Sb  Sb9  1  0.321216  0.326987  0.997405  1
  Rh  Rh10  1  0.014006  0.000573  0.000573  1
  Rh  Rh11  1  0.503127  0.752152  0.257108  1
  Rh  Rh12  1  0.746904  0.500337  0.247924  1
  Rh  Rh13  1  0.251289  0.742532  0.499555  1
  Rh  Rh14  1  0.251289  0.499555  0.742532  1
  Rh  Rh15  1  0.503127  0.257108  0.752152  1
  Rh  Rh16  1  0.746904  0.247924  0.500337  1
