# generated using pymatgen
data_YEr3Al18(Co2Pt)2
_symmetry_space_group_name_H-M   'P 1'
_cell_length_a   7.47298939
_cell_length_b   7.47133162
_cell_length_c   9.34330908
_cell_angle_alpha   90.00277889
_cell_angle_beta   90.01180596
_cell_angle_gamma   119.55809294
_symmetry_Int_Tables_number   1
_chemical_formula_structural   YEr3Al18(Co2Pt)2
_chemical_formula_sum   'Y1 Er3 Al18 Co4 Pt2'
_cell_volume   453.77485831
_cell_formula_units_Z   1
loop_
 _symmetry_equiv_pos_site_id
 _symmetry_equiv_pos_as_xyz
  1  'x, y, z'
loop_
 _atom_site_type_symbol
 _atom_site_label
 _atom_site_symmetry_multiplicity
 _atom_site_fract_x
 _atom_site_fract_y
 _atom_site_fract_z
 _atom_site_occupancy
  Y  Y0  1  0.330564  0.006508  0.749656  1
  Er  Er1  1  0.993601  0.669664  0.250388  1
  Er  Er2  1  0.006448  0.330541  0.750384  1
  Er  Er3  1  0.669686  0.993587  0.249619  1
  Al  Al4  1  0.120592  0.120682  0.250002  1
  Al  Al5  1  0.878886  0.879317  0.749992  1
  Al  Al6  1  0.330671  0.325063  0.546343  1
  Al  Al7  1  0.669285  0.675316  0.046807  1
  Al  Al8  1  0.324642  0.331030  0.953613  1
  Al  Al9  1  0.675301  0.669291  0.453207  1
  Al  Al10  1  0.341071  0.549909  0.241792  1
  Al  Al11  1  0.659551  0.450674  0.741826  1
  Al  Al12  1  0.549950  0.341131  0.258168  1
  Al  Al13  1  0.450100  0.658529  0.758190  1
  Al  Al14  1  0.005903  0.334156  0.073387  1
  Al  Al15  1  0.993648  0.665344  0.573107  1
  Al  Al16  1  0.334182  0.005907  0.426157  1
  Al  Al17  1  0.666231  0.994064  0.926916  1
  Al  Al18  1  0.009778  0.673256  0.926904  1
  Al  Al19  1  0.989663  0.326210  0.426619  1
  Al  Al20  1  0.674237  0.010293  0.573089  1
  Al  Al21  1  0.326224  0.989660  0.073860  1
  Co  Co22  1  0.999889  0.999753  0.000306  1
  Co  Co23  1  0.999575  0.000082  0.499694  1
  Co  Co24  1  0.329007  0.670848  0.000196  1
  Co  Co25  1  0.671177  0.329193  0.499788  1
  Pt  Pt26  1  0.672397  0.327882  0.000185  1
  Pt  Pt27  1  0.327741  0.672108  0.499806  1
