# generated using pymatgen
data_Hf18FeRe8Pd
_symmetry_space_group_name_H-M   'P 1'
_cell_length_a   8.53383500
_cell_length_b   8.61434513
_cell_length_c   8.61459001
_cell_angle_alpha   119.99827367
_cell_angle_beta   90.00000000
_cell_angle_gamma   90.00000000
_symmetry_Int_Tables_number   1
_chemical_formula_structural   Hf18FeRe8Pd
_chemical_formula_sum   'Hf18 Fe1 Re8 Pd1'
_cell_volume   548.45286375
_cell_formula_units_Z   1
loop_
 _symmetry_equiv_pos_site_id
 _symmetry_equiv_pos_as_xyz
  1  'x, y, z'
loop_
 _atom_site_type_symbol
 _atom_site_label
 _atom_site_symmetry_multiplicity
 _atom_site_fract_x
 _atom_site_fract_y
 _atom_site_fract_z
 _atom_site_occupancy
  Hf  Hf0  1  0.552257  0.806266  0.612530  1
  Hf  Hf1  1  0.552257  0.806264  0.193762  1
  Hf  Hf2  1  0.552254  0.387462  0.193720  1
  Hf  Hf3  1  0.440723  0.200769  0.401527  1
  Hf  Hf4  1  0.440709  0.200781  0.799214  1
  Hf  Hf5  1  0.440723  0.598468  0.799244  1
  Hf  Hf6  1  0.059277  0.200769  0.401527  1
  Hf  Hf7  1  0.059291  0.200781  0.799214  1
  Hf  Hf8  1  0.059277  0.598468  0.799244  1
  Hf  Hf9  1  0.947743  0.806266  0.612530  1
  Hf  Hf10  1  0.947743  0.806264  0.193762  1
  Hf  Hf11  1  0.947746  0.387462  0.193720  1
  Hf  Hf12  1  0.750000  0.457174  0.914380  1
  Hf  Hf13  1  0.750000  0.457183  0.542795  1
  Hf  Hf14  1  0.750000  0.085605  0.542803  1
  Hf  Hf15  1  0.250000  0.540853  0.081714  1
  Hf  Hf16  1  0.250000  0.540831  0.459162  1
  Hf  Hf17  1  0.250000  0.918287  0.459153  1
  Fe  Fe18  1  0.250000  0.333381  0.666629  1
  Re  Re19  1  0.750000  0.111074  0.222190  1
  Re  Re20  1  0.750000  0.111087  0.888898  1
  Re  Re21  1  0.750000  0.777820  0.888918  1
  Re  Re22  1  0.250000  0.890225  0.780418  1
  Re  Re23  1  0.250000  0.890236  0.109790  1
  Re  Re24  1  0.250000  0.219574  0.109802  1
  Re  Re25  1  0.500831  0.000002  0.000007  1
  Re  Re26  1  0.999169  0.000002  0.000007  1
  Pd  Pd27  1  0.750000  0.666647  0.333337  1
