# generated using pymatgen
data_TbPr3(Sn5Ir3)2
_symmetry_space_group_name_H-M   'P 1'
_cell_length_a   13.60939662
_cell_length_b   13.60939664
_cell_length_c   7.30304011
_cell_angle_alpha   89.91423704
_cell_angle_beta   90.08576405
_cell_angle_gamma   160.89552262
_symmetry_Int_Tables_number   1
_chemical_formula_structural   TbPr3(Sn5Ir3)2
_chemical_formula_sum   'Tb1 Pr3 Sn10 Ir6'
_cell_volume   442.70657723
_cell_formula_units_Z   1
loop_
 _symmetry_equiv_pos_site_id
 _symmetry_equiv_pos_as_xyz
  1  'x, y, z'
loop_
 _atom_site_type_symbol
 _atom_site_label
 _atom_site_symmetry_multiplicity
 _atom_site_fract_x
 _atom_site_fract_y
 _atom_site_fract_z
 _atom_site_occupancy
  Tb  Tb0  1  0.523736  0.476264  0.237365  1
  Pr  Pr1  1  0.172383  0.827617  0.756915  1
  Pr  Pr2  1  0.827528  0.172472  0.256993  1
  Pr  Pr3  1  0.477104  0.522896  0.737426  1
  Sn  Sn4  1  0.878977  0.121023  0.730849  1
  Sn  Sn5  1  0.120363  0.879637  0.231600  1
  Sn  Sn6  1  0.704579  0.295421  0.049831  1
  Sn  Sn7  1  0.295003  0.704997  0.549685  1
  Sn  Sn8  1  0.596936  0.403064  0.608391  1
  Sn  Sn9  1  0.403484  0.596516  0.109567  1
  Sn  Sn10  1  0.952747  0.047253  0.397912  1
  Sn  Sn11  1  0.048171  0.951829  0.901195  1
  Sn  Sn12  1  0.290667  0.709333  0.977451  1
  Sn  Sn13  1  0.709187  0.290813  0.477187  1
  Ir  Ir14  1  0.050765  0.949235  0.515430  1
  Ir  Ir15  1  0.949628  0.050372  0.021753  1
  Ir  Ir16  1  0.776854  0.223146  0.765355  1
  Ir  Ir17  1  0.222862  0.777138  0.265280  1
  Ir  Ir18  1  0.394346  0.605654  0.481139  1
  Ir  Ir19  1  0.604681  0.395319  0.984672  1
