# generated using pymatgen
data_TbYbY5FeI12
_symmetry_space_group_name_H-M   'P 1'
_cell_length_a   9.76112102
_cell_length_b   9.74104208
_cell_length_c   9.81606978
_cell_angle_alpha   106.86765947
_cell_angle_beta   107.15592920
_cell_angle_gamma   106.77258346
_symmetry_Int_Tables_number   1
_chemical_formula_structural   TbYbY5FeI12
_chemical_formula_sum   'Tb1 Yb1 Y5 Fe1 I12'
_cell_volume   778.72845850
_cell_formula_units_Z   1
loop_
 _symmetry_equiv_pos_site_id
 _symmetry_equiv_pos_as_xyz
  1  'x, y, z'
loop_
 _atom_site_type_symbol
 _atom_site_label
 _atom_site_symmetry_multiplicity
 _atom_site_fract_x
 _atom_site_fract_y
 _atom_site_fract_z
 _atom_site_occupancy
  Tb  Tb0  1  0.712641  0.975605  0.906805  1
  Yb  Yb1  1  0.500064  0.499939  0.499976  1
  Y  Y2  1  0.093394  0.287317  0.024459  1
  Y  Y3  1  0.024893  0.097289  0.301952  1
  Y  Y4  1  0.287247  0.024545  0.093191  1
  Y  Y5  1  0.906611  0.712686  0.975599  1
  Y  Y6  1  0.975038  0.902763  0.698120  1
  Fe  Fe7  1  0.999272  0.999956  0.999802  1
  I  I8  1  0.455999  0.378835  0.151095  1
  I  I9  1  0.150099  0.457341  0.377531  1
  I  I10  1  0.379333  0.149275  0.455430  1
  I  I11  1  0.544062  0.620483  0.848802  1
  I  I12  1  0.850089  0.542739  0.622543  1
  I  I13  1  0.620707  0.850255  0.543771  1
  I  I14  1  0.776371  0.317538  0.926570  1
  I  I15  1  0.925842  0.773055  0.318214  1
  I  I16  1  0.318540  0.927360  0.777174  1
  I  I17  1  0.224229  0.683166  0.073607  1
  I  I18  1  0.074368  0.227062  0.681875  1
  I  I19  1  0.681200  0.072792  0.223483  1
