# generated using pymatgen
data_CsGa2PSe6
_symmetry_space_group_name_H-M   'P 1'
_cell_length_a   6.72828038
_cell_length_b   6.80127695
_cell_length_c   7.01197649
_cell_angle_alpha   99.42281404
_cell_angle_beta   104.15918314
_cell_angle_gamma   98.27637009
_symmetry_Int_Tables_number   1
_chemical_formula_structural   CsGa2PSe6
_chemical_formula_sum   'Cs1 Ga2 P1 Se6'
_cell_volume   301.19625453
_cell_formula_units_Z   1
loop_
 _symmetry_equiv_pos_site_id
 _symmetry_equiv_pos_as_xyz
  1  'x, y, z'
loop_
 _atom_site_type_symbol
 _atom_site_label
 _atom_site_symmetry_multiplicity
 _atom_site_fract_x
 _atom_site_fract_y
 _atom_site_fract_z
 _atom_site_occupancy
  Cs  Cs0  1  0.002957  0.996444  0.984199  1
  Ga  Ga1  1  0.554269  0.374049  0.795698  1
  Ga  Ga2  1  0.786931  0.525451  0.394549  1
  P  P3  1  0.373835  0.799801  0.532062  1
  Se  Se4  1  0.660948  0.852828  0.425505  1
  Se  Se5  1  0.422870  0.701059  0.827171  1
  Se  Se6  1  0.878134  0.425595  0.711923  1
  Se  Se7  1  0.113631  0.592441  0.283772  1
  Se  Se8  1  0.261344  0.096709  0.566407  1
  Se  Se9  1  0.577392  0.268033  0.111024  1
