# generated using pymatgen
data_Yb2Zn21Pd
_symmetry_space_group_name_H-M   'P 1'
_cell_length_a   8.25505010
_cell_length_b   8.29966215
_cell_length_c   8.29966281
_cell_angle_alpha   99.00432947
_cell_angle_beta   100.51767890
_cell_angle_gamma   131.72150199
_symmetry_Int_Tables_number   1
_chemical_formula_structural   Yb2Zn21Pd
_chemical_formula_sum   'Yb2 Zn21 Pd1'
_cell_volume   386.19867474
_cell_formula_units_Z   1
loop_
 _symmetry_equiv_pos_site_id
 _symmetry_equiv_pos_as_xyz
  1  'x, y, z'
loop_
 _atom_site_type_symbol
 _atom_site_label
 _atom_site_symmetry_multiplicity
 _atom_site_fract_x
 _atom_site_fract_y
 _atom_site_fract_z
 _atom_site_occupancy
  Yb  Yb0  1  0.501871  0.502129  0.999742  1
  Yb  Yb1  1  0.748129  0.247871  0.500258  1
  Zn  Zn2  1  0.404695  0.077748  0.085719  1
  Zn  Zn3  1  0.993642  0.318398  0.916193  1
  Zn  Zn4  1  0.256358  0.672551  0.824756  1
  Zn  Zn5  1  0.845305  0.431024  0.173052  1
  Zn  Zn6  1  0.924184  0.598337  0.917416  1
  Zn  Zn7  1  0.680869  0.008173  0.084649  1
  Zn  Zn8  1  0.325816  0.743232  0.174152  1
  Zn  Zn9  1  0.569131  0.153779  0.827304  1
  Zn  Zn10  1  0.845305  0.672252  0.414281  1
  Zn  Zn11  1  0.256358  0.431602  0.583807  1
  Zn  Zn12  1  0.993642  0.077449  0.675244  1
  Zn  Zn13  1  0.404695  0.318976  0.326948  1
  Zn  Zn14  1  0.325816  0.151663  0.582584  1
  Zn  Zn15  1  0.569131  0.741827  0.415351  1
  Zn  Zn16  1  0.924184  0.006768  0.325848  1
  Zn  Zn17  1  0.680869  0.596221  0.672696  1
  Zn  Zn18  1  0.246362  0.751858  0.494504  1
  Zn  Zn19  1  0.003638  0.998142  0.005496  1
  Zn  Zn20  1  0.125000  0.875000  0.750000  1
  Zn  Zn21  1  0.125000  0.375000  0.250000  1
  Zn  Zn22  1  0.625000  0.875000  0.750000  1
  Pd  Pd23  1  0.125000  0.875000  0.250000  1
