# generated using pymatgen
data_Dy6Tm11Lu3(Cd3Ru)2
_symmetry_space_group_name_H-M   'P 1'
_cell_length_a   9.48689574
_cell_length_b   9.48289796
_cell_length_c   9.71965116
_cell_angle_alpha   90.00000117
_cell_angle_beta   89.96860340
_cell_angle_gamma   119.98605065
_symmetry_Int_Tables_number   1
_chemical_formula_structural   Dy6Tm11Lu3(Cd3Ru)2
_chemical_formula_sum   'Dy6 Tm11 Lu3 Cd6 Ru2'
_cell_volume   757.36888064
_cell_formula_units_Z   1
loop_
 _symmetry_equiv_pos_site_id
 _symmetry_equiv_pos_as_xyz
  1  'x, y, z'
loop_
 _atom_site_type_symbol
 _atom_site_label
 _atom_site_symmetry_multiplicity
 _atom_site_fract_x
 _atom_site_fract_y
 _atom_site_fract_z
 _atom_site_occupancy
  Dy  Dy0  1  0.540446  0.460613  0.249742  1
  Dy  Dy1  1  0.540446  0.079832  0.249742  1
  Dy  Dy2  1  0.919547  0.459774  0.249708  1
  Dy  Dy3  1  0.459481  0.540107  0.750159  1
  Dy  Dy4  1  0.459481  0.919375  0.750159  1
  Dy  Dy5  1  0.079357  0.539679  0.750201  1
  Tm  Tm6  1  0.210137  0.790165  0.440419  1
  Tm  Tm7  1  0.210137  0.419973  0.440419  1
  Tm  Tm8  1  0.580361  0.790181  0.440230  1
  Tm  Tm9  1  0.789749  0.209662  0.559433  1
  Tm  Tm10  1  0.789749  0.580086  0.559433  1
  Tm  Tm11  1  0.419884  0.209942  0.559357  1
  Tm  Tm12  1  0.789607  0.209381  0.940636  1
  Tm  Tm13  1  0.789607  0.580224  0.940636  1
  Tm  Tm14  1  0.419656  0.209828  0.940565  1
  Tm  Tm15  1  0.210658  0.790212  0.059494  1
  Tm  Tm16  1  0.210658  0.420448  0.059494  1
  Lu  Lu17  1  0.000218  0.000109  0.500253  1
  Lu  Lu18  1  0.999308  0.999653  0.000215  1
  Lu  Lu19  1  0.579966  0.789984  0.059114  1
  Cd  Cd20  1  0.886975  0.113231  0.250023  1
  Cd  Cd21  1  0.886975  0.773746  0.250023  1
  Cd  Cd22  1  0.227021  0.113511  0.250106  1
  Cd  Cd23  1  0.113293  0.886930  0.750380  1
  Cd  Cd24  1  0.113293  0.226363  0.750380  1
  Cd  Cd25  1  0.772986  0.886493  0.749932  1
  Ru  Ru26  1  0.334294  0.667147  0.249742  1
  Ru  Ru27  1  0.666709  0.333354  0.750007  1
