# generated using pymatgen
data_CaLa9(Pb3S)2
_symmetry_space_group_name_H-M   'P 1'
_cell_length_a   9.67030300
_cell_length_b   9.67030320
_cell_length_c   7.12869700
_cell_angle_alpha   90.00000000
_cell_angle_beta   90.00000000
_cell_angle_gamma   120.00000274
_symmetry_Int_Tables_number   1
_chemical_formula_structural   CaLa9(Pb3S)2
_chemical_formula_sum   'Ca1 La9 Pb6 S2'
_cell_volume   577.32577660
_cell_formula_units_Z   1
loop_
 _symmetry_equiv_pos_site_id
 _symmetry_equiv_pos_as_xyz
  1  'x, y, z'
loop_
 _atom_site_type_symbol
 _atom_site_label
 _atom_site_symmetry_multiplicity
 _atom_site_fract_x
 _atom_site_fract_y
 _atom_site_fract_z
 _atom_site_occupancy
  Ca  Ca0  1  0.666667  0.333333  0.000000  1
  La  La1  1  0.757257  0.756207  0.751272  1
  La  La2  1  0.243793  0.001050  0.751272  1
  La  La3  1  0.998950  0.242743  0.751272  1
  La  La4  1  0.243793  0.242743  0.248728  1
  La  La5  1  0.757257  0.001050  0.248728  1
  La  La6  1  0.998950  0.756207  0.248728  1
  La  La7  1  0.333333  0.666667  0.000000  1
  La  La8  1  0.333333  0.666667  0.500000  1
  La  La9  1  0.666667  0.333333  0.500000  1
  Pb  Pb10  1  0.398487  0.397336  0.750675  1
  Pb  Pb11  1  0.602664  0.001151  0.750675  1
  Pb  Pb12  1  0.998849  0.601513  0.750675  1
  Pb  Pb13  1  0.602664  0.601513  0.249325  1
  Pb  Pb14  1  0.398487  0.001151  0.249325  1
  Pb  Pb15  1  0.998849  0.397336  0.249325  1
  S  S16  1  0.000000  0.000000  0.000000  1
  S  S17  1  0.000000  0.000000  0.500000  1
