# generated using pymatgen
data_Hf6Al5CuRh12
_symmetry_space_group_name_H-M   'P 1'
_cell_length_a   4.34100500
_cell_length_b   6.67125900
_cell_length_c   12.88807200
_cell_angle_alpha   90.00000000
_cell_angle_beta   90.00047764
_cell_angle_gamma   90.00000000
_symmetry_Int_Tables_number   1
_chemical_formula_structural   Hf6Al5CuRh12
_chemical_formula_sum   'Hf6 Al5 Cu1 Rh12'
_cell_volume   373.23816140
_cell_formula_units_Z   1
loop_
 _symmetry_equiv_pos_site_id
 _symmetry_equiv_pos_as_xyz
  1  'x, y, z'
loop_
 _atom_site_type_symbol
 _atom_site_label
 _atom_site_symmetry_multiplicity
 _atom_site_fract_x
 _atom_site_fract_y
 _atom_site_fract_z
 _atom_site_occupancy
  Hf  Hf0  1  0.000000  0.000000  0.000000  1
  Hf  Hf1  1  0.499978  0.500000  0.157346  1
  Hf  Hf2  1  0.999978  0.000000  0.332865  1
  Hf  Hf3  1  0.499999  0.500000  0.500000  1
  Hf  Hf4  1  0.000022  0.000000  0.667134  1
  Hf  Hf5  1  0.500020  0.500000  0.842655  1
  Al  Al6  1  0.499974  0.000000  0.167012  1
  Al  Al7  1  0.999980  0.500000  0.330295  1
  Al  Al8  1  0.499999  0.000000  0.500000  1
  Al  Al9  1  0.000020  0.500000  0.669704  1
  Al  Al10  1  0.500026  0.000000  0.832988  1
  Cu  Cu11  1  0.000000  0.500000  0.000000  1
  Rh  Rh12  1  0.500001  0.237953  0.000000  1
  Rh  Rh13  1  0.500001  0.762049  0.000000  1
  Rh  Rh14  1  0.999982  0.247445  0.169218  1
  Rh  Rh15  1  0.999982  0.752554  0.169218  1
  Rh  Rh16  1  0.499978  0.251740  0.333280  1
  Rh  Rh17  1  0.499978  0.748260  0.333280  1
  Rh  Rh18  1  0.000000  0.251558  0.500000  1
  Rh  Rh19  1  0.000000  0.748442  0.500000  1
  Rh  Rh20  1  0.500022  0.251740  0.666720  1
  Rh  Rh21  1  0.500022  0.748260  0.666720  1
  Rh  Rh22  1  0.000018  0.247445  0.830782  1
  Rh  Rh23  1  0.000018  0.752554  0.830782  1
