# generated using pymatgen
data_Dy2Sc3Si7Pt8Rh
_symmetry_space_group_name_H-M   'P 1'
_cell_length_a   10.04077285
_cell_length_b   10.05590926
_cell_length_c   3.96050100
_cell_angle_alpha   90.00000000
_cell_angle_beta   90.00000000
_cell_angle_gamma   119.82655768
_symmetry_Int_Tables_number   1
_chemical_formula_structural   Dy2Sc3Si7Pt8Rh
_chemical_formula_sum   'Dy2 Sc3 Si7 Pt8 Rh1'
_cell_volume   346.91703180
_cell_formula_units_Z   1
loop_
 _symmetry_equiv_pos_site_id
 _symmetry_equiv_pos_as_xyz
  1  'x, y, z'
loop_
 _atom_site_type_symbol
 _atom_site_label
 _atom_site_symmetry_multiplicity
 _atom_site_fract_x
 _atom_site_fract_y
 _atom_site_fract_z
 _atom_site_occupancy
  Dy  Dy0  1  0.000788  0.999053  0.000000  1
  Dy  Dy1  1  0.332687  0.667887  0.500000  1
  Sc  Sc2  1  0.894784  0.456271  0.500000  1
  Sc  Sc3  1  0.559616  0.104222  0.500000  1
  Sc  Sc4  1  0.543685  0.438851  0.500000  1
  Si  Si5  1  0.246122  0.190980  0.500000  1
  Si  Si6  1  0.804834  0.050352  0.500000  1
  Si  Si7  1  0.954677  0.755822  0.500000  1
  Si  Si8  1  0.556252  0.647565  0.000000  1
  Si  Si9  1  0.349266  0.909983  0.000000  1
  Si  Si10  1  0.090719  0.444472  0.000000  1
  Si  Si11  1  0.666273  0.333019  0.000000  1
  Pt  Pt12  1  0.064413  0.282712  0.500000  1
  Pt  Pt13  1  0.717686  0.780973  0.500000  1
  Pt  Pt14  1  0.314286  0.413497  0.000000  1
  Pt  Pt15  1  0.586563  0.901558  0.000000  1
  Pt  Pt16  1  0.097922  0.687076  0.000000  1
  Pt  Pt17  1  0.383474  0.172343  0.000000  1
  Pt  Pt18  1  0.827890  0.211389  0.000000  1
  Pt  Pt19  1  0.787189  0.615443  0.000000  1
  Rh  Rh20  1  0.220875  0.936533  0.500000  1
