# generated using pymatgen
data_Ce4Si(TcB3)2
_symmetry_space_group_name_H-M   'P 1'
_cell_length_a   5.38880113
_cell_length_b   5.38880130
_cell_length_c   8.14714393
_cell_angle_alpha   70.68769701
_cell_angle_beta   70.68769503
_cell_angle_gamma   60.00000145
_symmetry_Int_Tables_number   1
_chemical_formula_structural   Ce4Si(TcB3)2
_chemical_formula_sum   'Ce4 Si1 Tc2 B6'
_cell_volume   189.36167117
_cell_formula_units_Z   1
loop_
 _symmetry_equiv_pos_site_id
 _symmetry_equiv_pos_as_xyz
  1  'x, y, z'
loop_
 _atom_site_type_symbol
 _atom_site_label
 _atom_site_symmetry_multiplicity
 _atom_site_fract_x
 _atom_site_fract_y
 _atom_site_fract_z
 _atom_site_occupancy
  Ce  Ce0  1  0.741473  0.741473  0.775581  1
  Ce  Ce1  1  0.258527  0.258527  0.224419  1
  Ce  Ce2  1  0.592557  0.592557  0.222328  1
  Ce  Ce3  1  0.407443  0.407443  0.777672  1
  Si  Si4  1  0.000000  0.000000  0.000000  1
  Tc  Tc5  1  0.892646  0.892646  0.322065  1
  Tc  Tc6  1  0.107354  0.107354  0.677936  1
  B  B7  1  0.500000  0.170939  0.500000  1
  B  B8  1  0.829061  0.500000  0.500000  1
  B  B9  1  0.170939  0.829061  0.500000  1
  B  B10  1  0.170939  0.500000  0.500000  1
  B  B11  1  0.829061  0.170939  0.500000  1
  B  B12  1  0.500000  0.829061  0.500000  1
