# generated using pymatgen
data_MnHg2Pt4PbO14
_symmetry_space_group_name_H-M   'P 1'
_cell_length_a   7.22160505
_cell_length_b   7.18589424
_cell_length_c   7.29932816
_cell_angle_alpha   60.51273663
_cell_angle_beta   60.29230676
_cell_angle_gamma   60.16342623
_symmetry_Int_Tables_number   1
_chemical_formula_structural   MnHg2Pt4PbO14
_chemical_formula_sum   'Mn1 Hg2 Pt4 Pb1 O14'
_cell_volume   269.79561787
_cell_formula_units_Z   1
loop_
 _symmetry_equiv_pos_site_id
 _symmetry_equiv_pos_as_xyz
  1  'x, y, z'
loop_
 _atom_site_type_symbol
 _atom_site_label
 _atom_site_symmetry_multiplicity
 _atom_site_fract_x
 _atom_site_fract_y
 _atom_site_fract_z
 _atom_site_occupancy
  Mn  Mn0  1  0.625000  0.125000  0.125000  1
  Hg  Hg1  1  0.125000  0.125000  0.125000  1
  Hg  Hg2  1  0.125000  0.625000  0.125000  1
  Pt  Pt3  1  0.625000  0.625000  0.125000  1
  Pt  Pt4  1  0.625000  0.625000  0.625000  1
  Pt  Pt5  1  0.625000  0.125000  0.625000  1
  Pt  Pt6  1  0.125000  0.625000  0.625000  1
  Pb  Pb7  1  0.125000  0.125000  0.625000  1
  O  O8  1  0.695725  0.288661  0.292223  1
  O  O9  1  0.709726  0.289603  0.711069  1
  O  O10  1  0.960876  0.015778  0.007569  1
  O  O11  1  0.293381  0.706291  0.294036  1
  O  O12  1  0.695725  0.723389  0.292223  1
  O  O13  1  0.959671  0.534626  0.544459  1
  O  O14  1  0.290329  0.715374  0.705541  1
  O  O15  1  0.289124  0.234222  0.242431  1
  O  O16  1  0.956619  0.543709  0.955964  1
  O  O17  1  0.540274  0.960397  0.538931  1
  O  O18  1  0.554275  0.526611  0.957777  1
  O  O19  1  0.959671  0.961244  0.544459  1
  O  O20  1  0.554275  0.961339  0.957777  1
  O  O21  1  0.290329  0.288756  0.705541  1
