# generated using pymatgen
data_Li5AlGe2
_symmetry_space_group_name_H-M   'P 1'
_cell_length_a   4.43035106
_cell_length_b   5.96059490
_cell_length_c   4.58297691
_cell_angle_alpha   90.64722389
_cell_angle_beta   90.00534854
_cell_angle_gamma   89.98763902
_symmetry_Int_Tables_number   1
_chemical_formula_structural   Li5AlGe2
_chemical_formula_sum   'Li5 Al1 Ge2'
_cell_volume   121.01736590
_cell_formula_units_Z   1
loop_
 _symmetry_equiv_pos_site_id
 _symmetry_equiv_pos_as_xyz
  1  'x, y, z'
loop_
 _atom_site_type_symbol
 _atom_site_label
 _atom_site_symmetry_multiplicity
 _atom_site_fract_x
 _atom_site_fract_y
 _atom_site_fract_z
 _atom_site_occupancy
  Li  Li0  1  0.006450  0.328134  0.868865  1
  Li  Li1  1  0.506170  0.327454  0.454989  1
  Li  Li2  1  0.505232  0.827244  0.462669  1
  Li  Li3  1  0.006196  0.086935  0.356652  1
  Li  Li4  1  0.505903  0.571525  0.006141  1
  Al  Al5  1  0.005352  0.820480  0.869469  1
  Ge  Ge6  1  0.505638  0.073143  0.945306  1
  Ge  Ge7  1  0.005536  0.580827  0.374693  1
