# generated using pymatgen
data_Eu3DyTa4O16
_symmetry_space_group_name_H-M   'P 1'
_cell_length_a   5.45355349
_cell_length_b   7.69735281
_cell_length_c   7.71906900
_cell_angle_alpha   80.38712732
_cell_angle_beta   89.86343060
_cell_angle_gamma   89.56936564
_symmetry_Int_Tables_number   1
_chemical_formula_structural   Eu3DyTa4O16
_chemical_formula_sum   'Eu3 Dy1 Ta4 O16'
_cell_volume   319.47140891
_cell_formula_units_Z   1
loop_
 _symmetry_equiv_pos_site_id
 _symmetry_equiv_pos_as_xyz
  1  'x, y, z'
loop_
 _atom_site_type_symbol
 _atom_site_label
 _atom_site_symmetry_multiplicity
 _atom_site_fract_x
 _atom_site_fract_y
 _atom_site_fract_z
 _atom_site_occupancy
  Eu  Eu0  1  0.225747  0.355337  0.894535  1
  Eu  Eu1  1  0.725142  0.642887  0.604347  1
  Eu  Eu2  1  0.777740  0.644454  0.105804  1
  Dy  Dy3  1  0.283834  0.359723  0.392557  1
  Ta  Ta4  1  0.732907  0.165581  0.687207  1
  Ta  Ta5  1  0.234259  0.837377  0.808756  1
  Ta  Ta6  1  0.268631  0.836925  0.309099  1
  Ta  Ta7  1  0.767257  0.165657  0.190451  1
  O  O8  1  0.499572  0.332756  0.132062  1
  O  O9  1  0.011078  0.664810  0.371897  1
  O  O10  1  0.494010  0.665301  0.872206  1
  O  O11  1  0.997464  0.329290  0.619747  1
  O  O12  1  0.990472  0.380712  0.175009  1
  O  O13  1  0.489811  0.612960  0.332548  1
  O  O14  1  0.010361  0.617051  0.833347  1
  O  O15  1  0.506004  0.383278  0.664646  1
  O  O16  1  0.849377  0.173978  0.940512  1
  O  O17  1  0.355638  0.830122  0.558898  1
  O  O18  1  0.146766  0.833564  0.058478  1
  O  O19  1  0.631862  0.170662  0.441111  1
  O  O20  1  0.413408  0.057210  0.802465  1
  O  O21  1  0.912654  0.942628  0.697471  1
  O  O22  1  0.590452  0.940778  0.201168  1
  O  O23  1  0.085554  0.056957  0.305678  1
