# generated using pymatgen
data_ZrMo3(SeO3)8
_symmetry_space_group_name_H-M   'P 1'
_cell_length_a   8.42854088
_cell_length_b   8.42853952
_cell_length_c   8.42854002
_cell_angle_alpha   89.80413812
_cell_angle_beta   90.19586633
_cell_angle_gamma   90.19585724
_symmetry_Int_Tables_number   1
_chemical_formula_structural   ZrMo3(SeO3)8
_chemical_formula_sum   'Zr1 Mo3 Se8 O24'
_cell_volume   598.75545497
_cell_formula_units_Z   1
loop_
 _symmetry_equiv_pos_site_id
 _symmetry_equiv_pos_as_xyz
  1  'x, y, z'
loop_
 _atom_site_type_symbol
 _atom_site_label
 _atom_site_symmetry_multiplicity
 _atom_site_fract_x
 _atom_site_fract_y
 _atom_site_fract_z
 _atom_site_occupancy
  Zr  Zr0  1  0.500000  0.500000  0.000000  1
  Mo  Mo1  1  0.500000  0.000000  0.500000  1
  Mo  Mo2  1  0.000000  0.000000  0.000000  1
  Mo  Mo3  1  0.000000  0.500000  0.500000  1
  Se  Se4  1  0.829849  0.170151  0.670151  1
  Se  Se5  1  0.170151  0.829849  0.329849  1
  Se  Se6  1  0.679269  0.677530  0.655079  1
  Se  Se7  1  0.155079  0.679269  0.822470  1
  Se  Se8  1  0.322470  0.155079  0.820731  1
  Se  Se9  1  0.844921  0.320731  0.177530  1
  Se  Se10  1  0.677530  0.844921  0.179269  1
  Se  Se11  1  0.320731  0.322470  0.344921  1
  O  O12  1  0.239146  0.458351  0.477603  1
  O  O13  1  0.977603  0.239146  0.041649  1
  O  O14  1  0.038158  0.740229  0.460848  1
  O  O15  1  0.449009  0.262664  0.938846  1
  O  O16  1  0.259771  0.960848  0.461842  1
  O  O17  1  0.561154  0.550991  0.762664  1
  O  O18  1  0.960848  0.038158  0.759771  1
  O  O19  1  0.550991  0.737336  0.061154  1
  O  O20  1  0.541649  0.977603  0.260854  1
  O  O21  1  0.458351  0.022397  0.739146  1
  O  O22  1  0.758924  0.971962  0.037685  1
  O  O23  1  0.262664  0.561154  0.949009  1
  O  O24  1  0.028038  0.537685  0.741076  1
  O  O25  1  0.039152  0.961842  0.240229  1
  O  O26  1  0.241076  0.028038  0.962315  1
  O  O27  1  0.438846  0.449009  0.237336  1
  O  O28  1  0.760854  0.541649  0.522397  1
  O  O29  1  0.971962  0.462315  0.258924  1
  O  O30  1  0.022397  0.760854  0.958351  1
  O  O31  1  0.462315  0.241076  0.471962  1
  O  O32  1  0.537685  0.758924  0.528038  1
  O  O33  1  0.961842  0.259771  0.539152  1
  O  O34  1  0.740229  0.039152  0.538158  1
  O  O35  1  0.737336  0.438846  0.050991  1
