# generated using pymatgen
data_Ta2I8O
_symmetry_space_group_name_H-M   'P 1'
_cell_length_a   7.76950086
_cell_length_b   7.83355999
_cell_length_c   7.50499400
_cell_angle_alpha   92.15395931
_cell_angle_beta   95.20664292
_cell_angle_gamma   95.20737742
_symmetry_Int_Tables_number   1
_chemical_formula_structural   Ta2I8O
_chemical_formula_sum   'Ta2 I8 O1'
_cell_volume   452.52940434
_cell_formula_units_Z   1
loop_
 _symmetry_equiv_pos_site_id
 _symmetry_equiv_pos_as_xyz
  1  'x, y, z'
loop_
 _atom_site_type_symbol
 _atom_site_label
 _atom_site_symmetry_multiplicity
 _atom_site_fract_x
 _atom_site_fract_y
 _atom_site_fract_z
 _atom_site_occupancy
  Ta  Ta0  1  0.052501  0.409584  0.775102  1
  Ta  Ta1  1  0.947134  0.590104  0.225150  1
  I  I2  1  0.645828  0.383788  0.210058  1
  I  I3  1  0.889349  0.689256  0.599226  1
  I  I4  1  0.264861  0.771516  0.281486  1
  I  I5  1  0.790719  0.862085  0.115448  1
  I  I6  1  0.211559  0.136742  0.876732  1
  I  I7  1  0.352576  0.618242  0.794938  1
  I  I8  1  0.111073  0.311782  0.401381  1
  I  I9  1  0.734517  0.228796  0.719457  1
  O  O10  1  0.999879  0.498106  0.001019  1
