# generated using pymatgen
data_Y4ZnCd3Rh4
_symmetry_space_group_name_H-M   'P 1'
_cell_length_a   4.13243600
_cell_length_b   7.05562548
_cell_length_c   8.59725472
_cell_angle_alpha   90.75655594
_cell_angle_beta   90.00000000
_cell_angle_gamma   90.00000000
_symmetry_Int_Tables_number   1
_chemical_formula_structural   Y4ZnCd3Rh4
_chemical_formula_sum   'Y4 Zn1 Cd3 Rh4'
_cell_volume   250.64762198
_cell_formula_units_Z   1
loop_
 _symmetry_equiv_pos_site_id
 _symmetry_equiv_pos_as_xyz
  1  'x, y, z'
loop_
 _atom_site_type_symbol
 _atom_site_label
 _atom_site_symmetry_multiplicity
 _atom_site_fract_x
 _atom_site_fract_y
 _atom_site_fract_z
 _atom_site_occupancy
  Y  Y0  1  0.250000  0.540924  0.176805  1
  Y  Y1  1  0.750000  0.454187  0.822653  1
  Y  Y2  1  0.750000  0.958779  0.684712  1
  Y  Y3  1  0.250000  0.041873  0.319435  1
  Zn  Zn4  1  0.250000  0.140052  0.939520  1
  Cd  Cd5  1  0.250000  0.634685  0.560286  1
  Cd  Cd6  1  0.750000  0.358570  0.438585  1
  Cd  Cd7  1  0.750000  0.866359  0.059085  1
  Rh  Rh8  1  0.250000  0.751715  0.869722  1
  Rh  Rh9  1  0.750000  0.255804  0.118311  1
  Rh  Rh10  1  0.750000  0.759099  0.366659  1
  Rh  Rh11  1  0.250000  0.237953  0.644227  1
