# generated using pymatgen
data_Dy6Ho14IrRu11
_symmetry_space_group_name_H-M   'P 1'
_cell_length_a   10.78957493
_cell_length_b   10.79000158
_cell_length_c   6.35527400
_cell_angle_alpha   89.96977992
_cell_angle_beta   89.96426397
_cell_angle_gamma   89.99485200
_symmetry_Int_Tables_number   1
_chemical_formula_structural   Dy6Ho14IrRu11
_chemical_formula_sum   'Dy6 Ho14 Ir1 Ru11'
_cell_volume   739.87776600
_cell_formula_units_Z   1
loop_
 _symmetry_equiv_pos_site_id
 _symmetry_equiv_pos_as_xyz
  1  'x, y, z'
loop_
 _atom_site_type_symbol
 _atom_site_label
 _atom_site_symmetry_multiplicity
 _atom_site_fract_x
 _atom_site_fract_y
 _atom_site_fract_z
 _atom_site_occupancy
  Dy  Dy0  1  0.291841  0.086403  0.376465  1
  Dy  Dy1  1  0.291760  0.914567  0.876671  1
  Dy  Dy2  1  0.708352  0.086684  0.876503  1
  Dy  Dy3  1  0.708429  0.913345  0.376428  1
  Dy  Dy4  1  0.586576  0.792212  0.876652  1
  Dy  Dy5  1  0.586391  0.207682  0.376335  1
  Ho  Ho6  1  0.413934  0.792520  0.376618  1
  Ho  Ho7  1  0.413513  0.208523  0.876705  1
  Ho  Ho8  1  0.207481  0.413569  0.623316  1
  Ho  Ho9  1  0.207252  0.585914  0.123429  1
  Ho  Ho10  1  0.792704  0.413785  0.123539  1
  Ho  Ho11  1  0.791771  0.586252  0.623269  1
  Ho  Ho12  1  0.913849  0.707805  0.123490  1
  Ho  Ho13  1  0.913637  0.291987  0.623373  1
  Ho  Ho14  1  0.085325  0.707886  0.623209  1
  Ho  Ho15  1  0.086382  0.291903  0.123419  1
  Ho  Ho16  1  0.000238  0.000173  0.499986  1
  Ho  Ho17  1  0.999852  0.999800  0.000065  1
  Ho  Ho18  1  0.501171  0.499523  0.000845  1
  Ho  Ho19  1  0.500340  0.498841  0.499231  1
  Ir  Ir20  1  0.346044  0.653609  0.749811  1
  Ru  Ru21  1  0.847281  0.153116  0.250118  1
  Ru  Ru22  1  0.847156  0.846482  0.749812  1
  Ru  Ru23  1  0.153229  0.153280  0.750467  1
  Ru  Ru24  1  0.154009  0.845694  0.250167  1
  Ru  Ru25  1  0.652786  0.347428  0.750199  1
  Ru  Ru26  1  0.652043  0.653180  0.250572  1
  Ru  Ru27  1  0.346530  0.348160  0.249469  1
  Ru  Ru28  1  0.499959  0.999587  0.124320  1
  Ru  Ru29  1  0.499934  0.000143  0.624875  1
  Ru  Ru30  1  0.999822  0.499977  0.875046  1
  Ru  Ru31  1  0.000409  0.499971  0.375594  1
