# generated using pymatgen
data_Sc2(TlCl3)3
_symmetry_space_group_name_H-M   'P 1'
_cell_length_a   9.40505544
_cell_length_b   9.40505605
_cell_length_c   9.40505600
_cell_angle_alpha   84.22626948
_cell_angle_beta   84.22626911
_cell_angle_gamma   84.22626454
_symmetry_Int_Tables_number   1
_chemical_formula_structural   Sc2(TlCl3)3
_chemical_formula_sum   'Sc4 Tl6 Cl18'
_cell_volume   820.05816593
_cell_formula_units_Z   2
loop_
 _symmetry_equiv_pos_site_id
 _symmetry_equiv_pos_as_xyz
  1  'x, y, z'
loop_
 _atom_site_type_symbol
 _atom_site_label
 _atom_site_symmetry_multiplicity
 _atom_site_fract_x
 _atom_site_fract_y
 _atom_site_fract_z
 _atom_site_occupancy
  Sc  Sc0  1  0.151419  0.151419  0.151419  1
  Sc  Sc1  1  0.348581  0.348581  0.348581  1
  Sc  Sc2  1  0.848581  0.848581  0.848581  1
  Sc  Sc3  1  0.651418  0.651418  0.651419  1
  Tl  Tl4  1  0.912995  0.587005  0.250000  1
  Tl  Tl5  1  0.250000  0.912996  0.587005  1
  Tl  Tl6  1  0.587004  0.250001  0.912996  1
  Tl  Tl7  1  0.087004  0.412994  0.750000  1
  Tl  Tl8  1  0.750000  0.087003  0.412995  1
  Tl  Tl9  1  0.412996  0.749999  0.087004  1
  Cl  Cl10  1  0.403367  0.096633  0.250000  1
  Cl  Cl11  1  0.250000  0.403366  0.096633  1
  Cl  Cl12  1  0.096634  0.250000  0.403367  1
  Cl  Cl13  1  0.596633  0.903367  0.750000  1
  Cl  Cl14  1  0.750000  0.596633  0.903367  1
  Cl  Cl15  1  0.903366  0.750000  0.596633  1
  Cl  Cl16  1  0.420351  0.585556  0.757306  1
  Cl  Cl17  1  0.757307  0.420350  0.585556  1
  Cl  Cl18  1  0.585556  0.757306  0.420350  1
  Cl  Cl19  1  0.914444  0.079649  0.742693  1
  Cl  Cl20  1  0.079650  0.742693  0.914443  1
  Cl  Cl21  1  0.742694  0.914443  0.079649  1
  Cl  Cl22  1  0.579650  0.414444  0.242693  1
  Cl  Cl23  1  0.242693  0.579650  0.414444  1
  Cl  Cl24  1  0.414444  0.242694  0.579650  1
  Cl  Cl25  1  0.085556  0.920351  0.257307  1
  Cl  Cl26  1  0.920350  0.257307  0.085556  1
  Cl  Cl27  1  0.257306  0.085557  0.920351  1
