# generated using pymatgen
data_YEr4(In2Ru)2
_symmetry_space_group_name_H-M   'P 1'
_cell_length_a   3.53508000
_cell_length_b   8.06625400
_cell_length_c   18.34224600
_cell_angle_alpha   90.00000000
_cell_angle_beta   90.00000000
_cell_angle_gamma   90.00000000
_symmetry_Int_Tables_number   1
_chemical_formula_structural   YEr4(In2Ru)2
_chemical_formula_sum   'Y2 Er8 In8 Ru4'
_cell_volume   523.02645187
_cell_formula_units_Z   2
loop_
 _symmetry_equiv_pos_site_id
 _symmetry_equiv_pos_as_xyz
  1  'x, y, z'
loop_
 _atom_site_type_symbol
 _atom_site_label
 _atom_site_symmetry_multiplicity
 _atom_site_fract_x
 _atom_site_fract_y
 _atom_site_fract_z
 _atom_site_occupancy
  Y  Y0  1  0.000000  0.000000  0.000000  1
  Y  Y1  1  0.000000  0.500000  0.500000  1
  Er  Er2  1  0.000000  0.117743  0.411372  1
  Er  Er3  1  0.000000  0.882257  0.588628  1
  Er  Er4  1  0.000000  0.382257  0.911372  1
  Er  Er5  1  0.000000  0.617743  0.088628  1
  Er  Er6  1  0.000000  0.243809  0.221205  1
  Er  Er7  1  0.000000  0.756191  0.778795  1
  Er  Er8  1  0.000000  0.256191  0.721205  1
  Er  Er9  1  0.000000  0.743809  0.278795  1
  In  In10  1  0.500000  0.429368  0.349536  1
  In  In11  1  0.500000  0.570632  0.650464  1
  In  In12  1  0.500000  0.070632  0.849536  1
  In  In13  1  0.500000  0.929368  0.150464  1
  In  In14  1  0.500000  0.294948  0.068507  1
  In  In15  1  0.500000  0.705052  0.931493  1
  In  In16  1  0.500000  0.205052  0.568507  1
  In  In17  1  0.500000  0.794948  0.431493  1
  Ru  Ru18  1  0.500000  0.018889  0.303421  1
  Ru  Ru19  1  0.500000  0.981111  0.696579  1
  Ru  Ru20  1  0.500000  0.481111  0.803421  1
  Ru  Ru21  1  0.500000  0.518889  0.196579  1
