# generated using pymatgen
data_Nd8Cd(Si4Pt)3
_symmetry_space_group_name_H-M   'P 1'
_cell_length_a   8.27537400
_cell_length_b   8.27537477
_cell_length_c   8.59995200
_cell_angle_alpha   90.00000000
_cell_angle_beta   90.00000000
_cell_angle_gamma   119.99999692
_symmetry_Int_Tables_number   1
_chemical_formula_structural   Nd8Cd(Si4Pt)3
_chemical_formula_sum   'Nd8 Cd1 Si12 Pt3'
_cell_volume   510.03734221
_cell_formula_units_Z   1
loop_
 _symmetry_equiv_pos_site_id
 _symmetry_equiv_pos_as_xyz
  1  'x, y, z'
loop_
 _atom_site_type_symbol
 _atom_site_label
 _atom_site_symmetry_multiplicity
 _atom_site_fract_x
 _atom_site_fract_y
 _atom_site_fract_z
 _atom_site_occupancy
  Nd  Nd0  1  0.000000  0.000000  0.747845  1
  Nd  Nd1  1  0.000000  0.000000  0.252176  1
  Nd  Nd2  1  0.501779  0.498221  0.746099  1
  Nd  Nd3  1  0.501779  0.003557  0.746099  1
  Nd  Nd4  1  0.996443  0.498221  0.746099  1
  Nd  Nd5  1  0.502559  0.497441  0.253954  1
  Nd  Nd6  1  0.994882  0.497441  0.253954  1
  Nd  Nd7  1  0.502559  0.005118  0.253954  1
  Cd  Cd8  1  0.333333  0.666667  0.001487  1
  Si  Si9  1  0.831567  0.168433  0.999509  1
  Si  Si10  1  0.831567  0.663134  0.999509  1
  Si  Si11  1  0.336866  0.168433  0.999509  1
  Si  Si12  1  0.834040  0.165960  0.500535  1
  Si  Si13  1  0.834040  0.668080  0.500535  1
  Si  Si14  1  0.331920  0.165960  0.500535  1
  Si  Si15  1  0.166444  0.833556  0.499476  1
  Si  Si16  1  0.667112  0.833556  0.499476  1
  Si  Si17  1  0.166444  0.332888  0.499476  1
  Si  Si18  1  0.158238  0.841762  0.000277  1
  Si  Si19  1  0.683525  0.841762  0.000277  1
  Si  Si20  1  0.158238  0.316475  0.000277  1
  Pt  Pt21  1  0.666667  0.333333  0.999158  1
  Pt  Pt22  1  0.666667  0.333333  0.500745  1
  Pt  Pt23  1  0.333333  0.666667  0.499037  1
