# generated using pymatgen
data_CrAgP2O7
_symmetry_space_group_name_H-M   'P 1'
_cell_length_a   7.86232375
_cell_length_b   6.31988655
_cell_length_c   6.21843541
_cell_angle_alpha   108.02483881
_cell_angle_beta   102.45548902
_cell_angle_gamma   97.38090821
_symmetry_Int_Tables_number   1
_chemical_formula_structural   CrAgP2O7
_chemical_formula_sum   'Cr2 Ag2 P4 O14'
_cell_volume   280.49640753
_cell_formula_units_Z   2
loop_
 _symmetry_equiv_pos_site_id
 _symmetry_equiv_pos_as_xyz
  1  'x, y, z'
loop_
 _atom_site_type_symbol
 _atom_site_label
 _atom_site_symmetry_multiplicity
 _atom_site_fract_x
 _atom_site_fract_y
 _atom_site_fract_z
 _atom_site_occupancy
  Cr  Cr0  1  0.228919  0.689513  0.373695  1
  Cr  Cr1  1  0.771074  0.310417  0.626317  1
  Ag  Ag2  1  0.999954  0.999966  0.000061  1
  Ag  Ag3  1  0.500011  0.000006  0.000010  1
  P  P4  1  0.201340  0.548374  0.819056  1
  P  P5  1  0.323281  0.239011  0.462433  1
  P  P6  1  0.676730  0.761042  0.537568  1
  P  P7  1  0.798660  0.451619  0.180902  1
  O  O8  1  0.031427  0.381696  0.780259  1
  O  O9  1  0.183568  0.719472  0.688164  1
  O  O10  1  0.204388  0.009988  0.414396  1
  O  O11  1  0.227496  0.352782  0.297740  1
  O  O12  1  0.343423  0.399501  0.729581  1
  O  O13  1  0.296581  0.684512  0.078403  1
  O  O14  1  0.488197  0.778273  0.559022  1
  O  O15  1  0.511806  0.221721  0.440987  1
  O  O16  1  0.703430  0.315496  0.921572  1
  O  O17  1  0.656584  0.600471  0.270447  1
  O  O18  1  0.772513  0.647270  0.702264  1
  O  O19  1  0.795606  0.990053  0.585591  1
  O  O20  1  0.816435  0.280505  0.311794  1
  O  O21  1  0.968574  0.618315  0.219740  1
