# generated using pymatgen
data_Y6Be(P3Rh5)4
_symmetry_space_group_name_H-M   'P 1'
_cell_length_a   13.32409800
_cell_length_b   13.32409633
_cell_length_c   3.91186300
_cell_angle_alpha   90.00000000
_cell_angle_beta   90.00000000
_cell_angle_gamma   119.99999918
_symmetry_Int_Tables_number   1
_chemical_formula_structural   Y6Be(P3Rh5)4
_chemical_formula_sum   'Y6 Be1 P12 Rh20'
_cell_volume   601.43660123
_cell_formula_units_Z   1
loop_
 _symmetry_equiv_pos_site_id
 _symmetry_equiv_pos_as_xyz
  1  'x, y, z'
loop_
 _atom_site_type_symbol
 _atom_site_label
 _atom_site_symmetry_multiplicity
 _atom_site_fract_x
 _atom_site_fract_y
 _atom_site_fract_z
 _atom_site_occupancy
  Y  Y0  1  0.530354  0.717408  0.248051  1
  Y  Y1  1  0.282592  0.812946  0.248051  1
  Y  Y2  1  0.187054  0.469646  0.248051  1
  Y  Y3  1  0.469646  0.282592  0.751949  1
  Y  Y4  1  0.717408  0.187054  0.751949  1
  Y  Y5  1  0.812946  0.530354  0.751949  1
  Be  Be6  1  0.000000  0.000000  0.000000  1
  P  P7  1  0.525856  0.139126  0.250893  1
  P  P8  1  0.860874  0.386731  0.250893  1
  P  P9  1  0.613269  0.474144  0.250893  1
  P  P10  1  0.947654  0.720086  0.252202  1
  P  P11  1  0.279914  0.227570  0.252202  1
  P  P12  1  0.772430  0.052346  0.252202  1
  P  P13  1  0.386731  0.525856  0.749107  1
  P  P14  1  0.474144  0.860874  0.749107  1
  P  P15  1  0.139126  0.613269  0.749107  1
  P  P16  1  0.720086  0.772430  0.747798  1
  P  P17  1  0.227570  0.947654  0.747798  1
  P  P18  1  0.052346  0.279914  0.747798  1
  Rh  Rh19  1  0.333333  0.666667  0.752155  1
  Rh  Rh20  1  0.922283  0.249786  0.252344  1
  Rh  Rh21  1  0.750214  0.672497  0.252344  1
  Rh  Rh22  1  0.327503  0.077717  0.252344  1
  Rh  Rh23  1  0.437925  0.023264  0.750667  1
  Rh  Rh24  1  0.976736  0.414662  0.750667  1
  Rh  Rh25  1  0.585338  0.562075  0.750667  1
  Rh  Rh26  1  0.666667  0.333333  0.247845  1
  Rh  Rh27  1  0.091850  0.189939  0.244328  1
  Rh  Rh28  1  0.810061  0.901911  0.244328  1
  Rh  Rh29  1  0.098089  0.908150  0.244328  1
  Rh  Rh30  1  0.023264  0.585338  0.249333  1
  Rh  Rh31  1  0.414662  0.437925  0.249333  1
  Rh  Rh32  1  0.562075  0.976736  0.249333  1
  Rh  Rh33  1  0.672497  0.922283  0.747656  1
  Rh  Rh34  1  0.077717  0.750214  0.747656  1
  Rh  Rh35  1  0.249786  0.327503  0.747656  1
  Rh  Rh36  1  0.908150  0.810061  0.755672  1
  Rh  Rh37  1  0.189939  0.098089  0.755672  1
  Rh  Rh38  1  0.901911  0.091850  0.755672  1
