# generated using pymatgen
data_TbHoBi2(Rh2O7)2
_symmetry_space_group_name_H-M   'P 1'
_cell_length_a   7.23984848
_cell_length_b   7.28697505
_cell_length_c   7.28697502
_cell_angle_alpha   60.33494453
_cell_angle_beta   60.10422966
_cell_angle_gamma   60.10423739
_symmetry_Int_Tables_number   1
_chemical_formula_structural   TbHoBi2(Rh2O7)2
_chemical_formula_sum   'Tb1 Ho1 Bi2 Rh4 O14'
_cell_volume   272.94946640
_cell_formula_units_Z   1
loop_
 _symmetry_equiv_pos_site_id
 _symmetry_equiv_pos_as_xyz
  1  'x, y, z'
loop_
 _atom_site_type_symbol
 _atom_site_label
 _atom_site_symmetry_multiplicity
 _atom_site_fract_x
 _atom_site_fract_y
 _atom_site_fract_z
 _atom_site_occupancy
  Tb  Tb0  1  0.125000  0.125000  0.125000  1
  Ho  Ho1  1  0.625000  0.125000  0.125000  1
  Bi  Bi2  1  0.125000  0.625000  0.125000  1
  Bi  Bi3  1  0.125000  0.125000  0.625000  1
  Rh  Rh4  1  0.625000  0.625000  0.625000  1
  Rh  Rh5  1  0.625000  0.625000  0.125000  1
  Rh  Rh6  1  0.125000  0.625000  0.625000  1
  Rh  Rh7  1  0.625000  0.125000  0.625000  1
  O  O8  1  0.256025  0.246008  0.246008  1
  O  O9  1  0.288790  0.714902  0.289303  1
  O  O10  1  0.961210  0.960697  0.535098  1
  O  O11  1  0.543466  0.961171  0.533803  1
  O  O12  1  0.706534  0.716197  0.288829  1
  O  O13  1  0.957328  0.542790  0.542790  1
  O  O14  1  0.706534  0.288829  0.716197  1
  O  O15  1  0.288790  0.289303  0.714902  1
  O  O16  1  0.710903  0.288090  0.288090  1
  O  O17  1  0.292672  0.707210  0.707210  1
  O  O18  1  0.961210  0.535098  0.960697  1
  O  O19  1  0.543466  0.533803  0.961171  1
  O  O20  1  0.993975  0.003992  0.003992  1
  O  O21  1  0.539097  0.961910  0.961910  1
