# generated using pymatgen
data_La20Ir11Pt
_symmetry_space_group_name_H-M   'P 1'
_cell_length_a   11.42411091
_cell_length_b   11.42411091
_cell_length_c   6.72099095
_cell_angle_alpha   90.04306366
_cell_angle_beta   90.04306366
_cell_angle_gamma   89.98442428
_symmetry_Int_Tables_number   1
_chemical_formula_structural   La20Ir11Pt
_chemical_formula_sum   'La20 Ir11 Pt1'
_cell_volume   877.15808535
_cell_formula_units_Z   1
loop_
 _symmetry_equiv_pos_site_id
 _symmetry_equiv_pos_as_xyz
  1  'x, y, z'
loop_
 _atom_site_type_symbol
 _atom_site_label
 _atom_site_symmetry_multiplicity
 _atom_site_fract_x
 _atom_site_fract_y
 _atom_site_fract_z
 _atom_site_occupancy
  La  La0  1  0.291932  0.090883  0.385221  1
  La  La1  1  0.292705  0.908775  0.884879  1
  La  La2  1  0.705255  0.089611  0.879680  1
  La  La3  1  0.706496  0.906260  0.386190  1
  La  La4  1  0.590835  0.792327  0.885963  1
  La  La5  1  0.587440  0.208198  0.386600  1
  La  La6  1  0.408619  0.792514  0.385613  1
  La  La7  1  0.408658  0.207650  0.885787  1
  La  La8  1  0.207673  0.409165  0.614037  1
  La  La9  1  0.207486  0.591381  0.114387  1
  La  La10  1  0.791802  0.412560  0.113400  1
  La  La11  1  0.792350  0.591342  0.614213  1
  La  La12  1  0.909117  0.708068  0.114779  1
  La  La13  1  0.910389  0.294745  0.620320  1
  La  La14  1  0.091225  0.707295  0.615121  1
  La  La15  1  0.093740  0.293504  0.113810  1
  La  La16  1  0.002117  0.997667  0.501509  1
  La  La17  1  0.002333  0.997883  0.998491  1
  La  La18  1  0.499794  0.500168  0.999624  1
  La  La19  1  0.499832  0.500206  0.500376  1
  Ir  Ir20  1  0.846603  0.847324  0.749938  1
  Ir  Ir21  1  0.152676  0.153397  0.750062  1
  Ir  Ir22  1  0.153546  0.846454  0.250000  1
  Ir  Ir23  1  0.654469  0.345531  0.750000  1
  Ir  Ir24  1  0.653733  0.653447  0.250068  1
  Ir  Ir25  1  0.346553  0.346267  0.249932  1
  Ir  Ir26  1  0.346352  0.653648  0.750000  1
  Ir  Ir27  1  0.501054  0.000285  0.115235  1
  Ir  Ir28  1  0.500500  0.000418  0.614421  1
  Ir  Ir29  1  0.999582  0.499500  0.885579  1
  Ir  Ir30  1  0.999715  0.498946  0.384765  1
  Pt  Pt31  1  0.845421  0.154579  0.250000  1
