# generated using pymatgen
data_TbLu(Cu2P)4
_symmetry_space_group_name_H-M   'P 1'
_cell_length_a   7.24099105
_cell_length_b   7.24099129
_cell_length_c   3.77440000
_cell_angle_alpha   90.00000000
_cell_angle_beta   90.00000000
_cell_angle_gamma   89.93088170
_symmetry_Int_Tables_number   1
_chemical_formula_structural   TbLu(Cu2P)4
_chemical_formula_sum   'Tb1 Lu1 Cu8 P4'
_cell_volume   197.89901975
_cell_formula_units_Z   1
loop_
 _symmetry_equiv_pos_site_id
 _symmetry_equiv_pos_as_xyz
  1  'x, y, z'
loop_
 _atom_site_type_symbol
 _atom_site_label
 _atom_site_symmetry_multiplicity
 _atom_site_fract_x
 _atom_site_fract_y
 _atom_site_fract_z
 _atom_site_occupancy
  Tb  Tb0  1  0.500000  0.500000  0.500000  1
  Lu  Lu1  1  0.000000  0.000000  0.000000  1
  Cu  Cu2  1  0.665860  0.916147  0.500000  1
  Cu  Cu3  1  0.165051  0.584623  0.000000  1
  Cu  Cu4  1  0.415377  0.834949  0.000000  1
  Cu  Cu5  1  0.916147  0.665860  0.500000  1
  Cu  Cu6  1  0.834949  0.415377  0.000000  1
  Cu  Cu7  1  0.584623  0.165051  0.000000  1
  Cu  Cu8  1  0.083853  0.334140  0.500000  1
  Cu  Cu9  1  0.334140  0.083853  0.500000  1
  P  P10  1  0.284801  0.284801  0.000000  1
  P  P11  1  0.715199  0.715199  0.000000  1
  P  P12  1  0.790115  0.209885  0.500000  1
  P  P13  1  0.209885  0.790115  0.500000  1
