# generated using pymatgen
data_BaNa3(Al2Au3)4
_symmetry_space_group_name_H-M   'P 1'
_cell_length_a   5.49517300
_cell_length_b   7.09662441
_cell_length_c   13.23509524
_cell_angle_alpha   90.56378235
_cell_angle_beta   90.00000000
_cell_angle_gamma   90.00000000
_symmetry_Int_Tables_number   1
_chemical_formula_structural   BaNa3(Al2Au3)4
_chemical_formula_sum   'Ba1 Na3 Al8 Au12'
_cell_volume   516.10638990
_cell_formula_units_Z   1
loop_
 _symmetry_equiv_pos_site_id
 _symmetry_equiv_pos_as_xyz
  1  'x, y, z'
loop_
 _atom_site_type_symbol
 _atom_site_label
 _atom_site_symmetry_multiplicity
 _atom_site_fract_x
 _atom_site_fract_y
 _atom_site_fract_z
 _atom_site_occupancy
  Ba  Ba0  1  0.750000  0.136081  0.575650  1
  Na  Na1  1  0.250000  0.647865  0.913727  1
  Na  Na2  1  0.250000  0.839633  0.401009  1
  Na  Na3  1  0.750000  0.348957  0.087653  1
  Al  Al4  1  0.998548  0.137695  0.847932  1
  Al  Al5  1  0.501034  0.364430  0.342756  1
  Al  Al6  1  0.498158  0.858756  0.154051  1
  Al  Al7  1  0.001073  0.638058  0.656024  1
  Al  Al8  1  0.001842  0.858756  0.154051  1
  Al  Al9  1  0.498927  0.638058  0.656024  1
  Al  Al10  1  0.501452  0.137695  0.847932  1
  Al  Al11  1  0.998966  0.364430  0.342756  1
  Au  Au12  1  0.250000  0.348150  0.718923  1
  Au  Au13  1  0.250000  0.152487  0.216765  1
  Au  Au14  1  0.750000  0.658068  0.282773  1
  Au  Au15  1  0.750000  0.835833  0.788972  1
  Au  Au16  1  0.250000  0.934197  0.705023  1
  Au  Au17  1  0.250000  0.561488  0.197324  1
  Au  Au18  1  0.750000  0.061309  0.309409  1
  Au  Au19  1  0.750000  0.432891  0.803850  1
  Au  Au20  1  0.250000  0.439054  0.503140  1
  Au  Au21  1  0.250000  0.076226  0.005795  1
  Au  Au22  1  0.750000  0.625899  0.492463  1
  Au  Au23  1  0.750000  0.903982  0.995997  1
