# generated using pymatgen
data_BaNa2B2Pt7
_symmetry_space_group_name_H-M   'P 1'
_cell_length_a   8.37133425
_cell_length_b   8.37133322
_cell_length_c   8.37133263
_cell_angle_alpha   38.96511188
_cell_angle_beta   38.96512314
_cell_angle_gamma   38.96511615
_symmetry_Int_Tables_number   1
_chemical_formula_structural   BaNa2B2Pt7
_chemical_formula_sum   'Ba1 Na2 B2 Pt7'
_cell_volume   208.62087721
_cell_formula_units_Z   1
loop_
 _symmetry_equiv_pos_site_id
 _symmetry_equiv_pos_as_xyz
  1  'x, y, z'
loop_
 _atom_site_type_symbol
 _atom_site_label
 _atom_site_symmetry_multiplicity
 _atom_site_fract_x
 _atom_site_fract_y
 _atom_site_fract_z
 _atom_site_occupancy
  Ba  Ba0  1  0.857633  0.857633  0.857633  1
  Na  Na1  1  0.139031  0.139031  0.139031  1
  Na  Na2  1  0.005348  0.005348  0.005348  1
  B  B3  1  0.668416  0.668416  0.668416  1
  B  B4  1  0.331498  0.331498  0.331498  1
  Pt  Pt5  1  0.437767  0.933387  0.437767  1
  Pt  Pt6  1  0.437767  0.437767  0.933387  1
  Pt  Pt7  1  0.933387  0.437767  0.437767  1
  Pt  Pt8  1  0.560900  0.068205  0.560900  1
  Pt  Pt9  1  0.560900  0.560900  0.068205  1
  Pt  Pt10  1  0.068205  0.560900  0.560900  1
  Pt  Pt11  1  0.499146  0.499146  0.499146  1
