# generated using pymatgen
data_Dy2TmRh9
_symmetry_space_group_name_H-M   'P 1'
_cell_length_a   5.25010600
_cell_length_b   5.25010709
_cell_length_c   17.57289600
_cell_angle_alpha   90.00000000
_cell_angle_beta   90.00000000
_cell_angle_gamma   119.99998056
_symmetry_Int_Tables_number   1
_chemical_formula_structural   Dy2TmRh9
_chemical_formula_sum   'Dy4 Tm2 Rh18'
_cell_volume   419.47906305
_cell_formula_units_Z   2
loop_
 _symmetry_equiv_pos_site_id
 _symmetry_equiv_pos_as_xyz
  1  'x, y, z'
loop_
 _atom_site_type_symbol
 _atom_site_label
 _atom_site_symmetry_multiplicity
 _atom_site_fract_x
 _atom_site_fract_y
 _atom_site_fract_z
 _atom_site_occupancy
  Dy  Dy0  1  0.666667  0.333333  0.457984  1
  Dy  Dy1  1  0.333333  0.666667  0.542016  1
  Dy  Dy2  1  0.333333  0.666667  0.750314  1
  Dy  Dy3  1  0.666667  0.333333  0.249686  1
  Tm  Tm4  1  0.333333  0.666667  0.958091  1
  Tm  Tm5  1  0.666667  0.333333  0.041909  1
  Rh  Rh6  1  0.167416  0.832584  0.374310  1
  Rh  Rh7  1  0.167416  0.334831  0.374310  1
  Rh  Rh8  1  0.665169  0.832584  0.374310  1
  Rh  Rh9  1  0.832584  0.167416  0.625690  1
  Rh  Rh10  1  0.832584  0.665169  0.625690  1
  Rh  Rh11  1  0.334831  0.167416  0.625690  1
  Rh  Rh12  1  0.832524  0.167476  0.875102  1
  Rh  Rh13  1  0.832524  0.665049  0.875102  1
  Rh  Rh14  1  0.334951  0.167476  0.875102  1
  Rh  Rh15  1  0.167476  0.832524  0.124898  1
  Rh  Rh16  1  0.167476  0.334951  0.124898  1
  Rh  Rh17  1  0.665049  0.832524  0.124898  1
  Rh  Rh18  1  0.333333  0.666667  0.249759  1
  Rh  Rh19  1  0.666667  0.333333  0.750241  1
  Rh  Rh20  1  0.000000  0.000000  0.249588  1
  Rh  Rh21  1  0.000000  0.000000  0.750412  1
  Rh  Rh22  1  0.000000  0.000000  0.500000  1
  Rh  Rh23  1  0.000000  0.000000  0.000000  1
