# generated using pymatgen
data_PrYCo9As7Ru3
_symmetry_space_group_name_H-M   'P 1'
_cell_length_a   3.84792700
_cell_length_b   9.41846206
_cell_length_c   9.41846200
_cell_angle_alpha   119.99999886
_cell_angle_beta   90.00000000
_cell_angle_gamma   90.00000000
_symmetry_Int_Tables_number   1
_chemical_formula_structural   PrYCo9As7Ru3
_chemical_formula_sum   'Pr1 Y1 Co9 As7 Ru3'
_cell_volume   295.60885786
_cell_formula_units_Z   1
loop_
 _symmetry_equiv_pos_site_id
 _symmetry_equiv_pos_as_xyz
  1  'x, y, z'
loop_
 _atom_site_type_symbol
 _atom_site_label
 _atom_site_symmetry_multiplicity
 _atom_site_fract_x
 _atom_site_fract_y
 _atom_site_fract_z
 _atom_site_occupancy
  Pr  Pr0  1  0.500000  0.333333  0.666667  1
  Y  Y1  1  0.000000  0.666667  0.333333  1
  Co  Co2  1  0.000000  0.571205  0.943763  1
  Co  Co3  1  0.000000  0.372558  0.428795  1
  Co  Co4  1  0.000000  0.056237  0.627442  1
  Co  Co5  1  0.000000  0.874513  0.155496  1
  Co  Co6  1  0.000000  0.280983  0.125487  1
  Co  Co7  1  0.000000  0.844504  0.719017  1
  Co  Co8  1  0.500000  0.944453  0.380506  1
  Co  Co9  1  0.500000  0.436052  0.055547  1
  Co  Co10  1  0.500000  0.619494  0.563948  1
  As  As11  1  0.000000  0.000000  0.000000  1
  As  As12  1  0.500000  0.706970  0.115830  1
  As  As13  1  0.500000  0.408860  0.293030  1
  As  As14  1  0.500000  0.884170  0.591140  1
  As  As15  1  0.000000  0.592549  0.701446  1
  As  As16  1  0.000000  0.108898  0.407451  1
  As  As17  1  0.000000  0.298554  0.891102  1
  Ru  Ru18  1  0.500000  0.782431  0.900659  1
  Ru  Ru19  1  0.500000  0.118228  0.217569  1
  Ru  Ru20  1  0.500000  0.099341  0.881772  1
