# generated using pymatgen
data_La2HfThBi5
_symmetry_space_group_name_H-M   'P 1'
_cell_length_a   9.81688600
_cell_length_b   9.76683906
_cell_length_c   6.57733900
_cell_angle_alpha   90.00000000
_cell_angle_beta   90.00000000
_cell_angle_gamma   120.16965141
_symmetry_Int_Tables_number   1
_chemical_formula_structural   La2HfThBi5
_chemical_formula_sum   'La4 Hf2 Th2 Bi10'
_cell_volume   545.20980901
_cell_formula_units_Z   2
loop_
 _symmetry_equiv_pos_site_id
 _symmetry_equiv_pos_as_xyz
  1  'x, y, z'
loop_
 _atom_site_type_symbol
 _atom_site_label
 _atom_site_symmetry_multiplicity
 _atom_site_fract_x
 _atom_site_fract_y
 _atom_site_fract_z
 _atom_site_occupancy
  La  La0  1  0.998591  0.616518  0.250000  1
  La  La1  1  0.001409  0.383482  0.750000  1
  La  La2  1  0.382072  0.383482  0.250000  1
  La  La3  1  0.617928  0.616518  0.750000  1
  Hf  Hf4  1  0.000000  0.000000  0.000000  1
  Hf  Hf5  1  0.000000  0.000000  0.500000  1
  Th  Th6  1  0.618358  0.000000  0.250000  1
  Th  Th7  1  0.381642  0.000000  0.750000  1
  Bi  Bi8  1  0.266493  0.000000  0.250000  1
  Bi  Bi9  1  0.733507  0.000000  0.750000  1
  Bi  Bi10  1  0.998688  0.261202  0.250000  1
  Bi  Bi11  1  0.001312  0.738798  0.750000  1
  Bi  Bi12  1  0.737486  0.738798  0.250000  1
  Bi  Bi13  1  0.262514  0.261202  0.750000  1
  Bi  Bi14  1  0.335983  0.671968  0.000000  1
  Bi  Bi15  1  0.664017  0.328032  0.000000  1
  Bi  Bi16  1  0.664017  0.328032  0.500000  1
  Bi  Bi17  1  0.335983  0.671968  0.500000  1
