# generated using pymatgen
data_SrPr7(Si3Ir)4
_symmetry_space_group_name_H-M   'P 1'
_cell_length_a   8.28517022
_cell_length_b   8.28517138
_cell_length_c   8.62162000
_cell_angle_alpha   90.00000000
_cell_angle_beta   90.00000000
_cell_angle_gamma   120.17094211
_symmetry_Int_Tables_number   1
_chemical_formula_structural   SrPr7(Si3Ir)4
_chemical_formula_sum   'Sr1 Pr7 Si12 Ir4'
_cell_volume   511.64858479
_cell_formula_units_Z   1
loop_
 _symmetry_equiv_pos_site_id
 _symmetry_equiv_pos_as_xyz
  1  'x, y, z'
loop_
 _atom_site_type_symbol
 _atom_site_label
 _atom_site_symmetry_multiplicity
 _atom_site_fract_x
 _atom_site_fract_y
 _atom_site_fract_z
 _atom_site_occupancy
  Sr  Sr0  1  0.499566  0.500434  0.750000  1
  Pr  Pr1  1  0.500268  0.499732  0.250000  1
  Pr  Pr2  1  0.000641  0.500301  0.750000  1
  Pr  Pr3  1  0.999302  0.499715  0.250000  1
  Pr  Pr4  1  0.499699  0.999359  0.750000  1
  Pr  Pr5  1  0.500285  0.000698  0.250000  1
  Pr  Pr6  1  0.000072  0.999928  0.750000  1
  Pr  Pr7  1  0.000027  0.999973  0.250000  1
  Si  Si8  1  0.833678  0.166322  0.001477  1
  Si  Si9  1  0.166359  0.833641  0.001054  1
  Si  Si10  1  0.334774  0.167472  0.001434  1
  Si  Si11  1  0.166359  0.833641  0.498946  1
  Si  Si12  1  0.665266  0.832596  0.001211  1
  Si  Si13  1  0.833678  0.166322  0.498523  1
  Si  Si14  1  0.832528  0.665226  0.001434  1
  Si  Si15  1  0.665266  0.832596  0.498789  1
  Si  Si16  1  0.167404  0.334734  0.001211  1
  Si  Si17  1  0.334774  0.167472  0.498566  1
  Si  Si18  1  0.167404  0.334734  0.498789  1
  Si  Si19  1  0.832528  0.665226  0.498566  1
  Ir  Ir20  1  0.668240  0.331760  0.002691  1
  Ir  Ir21  1  0.331821  0.668179  0.005012  1
  Ir  Ir22  1  0.331821  0.668179  0.494988  1
  Ir  Ir23  1  0.668240  0.331760  0.497309  1
