# generated using pymatgen
data_Na5Yb(Si3Ir)8
_symmetry_space_group_name_H-M   'P 1'
_cell_length_a   10.10180658
_cell_length_b   10.10180704
_cell_length_c   8.16266199
_cell_angle_alpha   90.10066466
_cell_angle_beta   89.89933746
_cell_angle_gamma   132.39578000
_symmetry_Int_Tables_number   1
_chemical_formula_structural   Na5Yb(Si3Ir)8
_chemical_formula_sum   'Na5 Yb1 Si24 Ir8'
_cell_volume   615.15218513
_cell_formula_units_Z   1
loop_
 _symmetry_equiv_pos_site_id
 _symmetry_equiv_pos_as_xyz
  1  'x, y, z'
loop_
 _atom_site_type_symbol
 _atom_site_label
 _atom_site_symmetry_multiplicity
 _atom_site_fract_x
 _atom_site_fract_y
 _atom_site_fract_z
 _atom_site_occupancy
  Na  Na0  1  0.000452  0.500452  0.750000  1
  Na  Na1  1  0.500577  0.000577  0.750000  1
  Na  Na2  1  0.999279  0.499279  0.250000  1
  Na  Na3  1  0.500060  0.500010  0.499942  1
  Na  Na4  1  0.000010  0.000060  0.000058  1
  Yb  Yb5  1  0.499562  0.999562  0.250000  1
  Si  Si6  1  0.389738  0.156528  0.999730  1
  Si  Si7  1  0.656528  0.889738  0.500270  1
  Si  Si8  1  0.111503  0.345372  0.500276  1
  Si  Si9  1  0.845372  0.611503  0.999724  1
  Si  Si10  1  0.609837  0.843420  0.998521  1
  Si  Si11  1  0.343420  0.109837  0.501479  1
  Si  Si12  1  0.888486  0.654207  0.499104  1
  Si  Si13  1  0.154207  0.388486  0.000896  1
  Si  Si14  1  0.614747  0.381339  0.226977  1
  Si  Si15  1  0.881339  0.114747  0.273023  1
  Si  Si16  1  0.885120  0.119354  0.728596  1
  Si  Si17  1  0.619354  0.385120  0.771404  1
  Si  Si18  1  0.385989  0.620227  0.771069  1
  Si  Si19  1  0.120227  0.885989  0.728931  1
  Si  Si20  1  0.708319  0.296765  0.997337  1
  Si  Si21  1  0.796765  0.208319  0.502663  1
  Si  Si22  1  0.291283  0.703073  0.997112  1
  Si  Si23  1  0.203073  0.791283  0.502888  1
  Si  Si24  1  0.169237  0.168459  0.331000  1
  Si  Si25  1  0.668459  0.669237  0.169000  1
  Si  Si26  1  0.330928  0.333075  0.830884  1
  Si  Si27  1  0.833075  0.830928  0.669116  1
  Si  Si28  1  0.379269  0.613457  0.227054  1
  Si  Si29  1  0.113457  0.879269  0.272946  1
  Ir  Ir30  1  0.626330  0.625767  0.874760  1
  Ir  Ir31  1  0.125767  0.126330  0.625240  1
  Ir  Ir32  1  0.874632  0.874476  0.375115  1
  Ir  Ir33  1  0.374476  0.374632  0.124885  1
  Ir  Ir34  1  0.334156  0.668606  0.498645  1
  Ir  Ir35  1  0.168606  0.834156  0.001355  1
  Ir  Ir36  1  0.665570  0.330791  0.498098  1
  Ir  Ir37  1  0.830791  0.165570  0.001902  1
