# generated using pymatgen
data_DyLu9(In2Sb)2
_symmetry_space_group_name_H-M   'P 1'
_cell_length_a   6.45339403
_cell_length_b   8.81168037
_cell_length_c   8.78066110
_cell_angle_alpha   119.72809040
_cell_angle_beta   89.99038590
_cell_angle_gamma   90.00970702
_symmetry_Int_Tables_number   1
_chemical_formula_structural   DyLu9(In2Sb)2
_chemical_formula_sum   'Dy1 Lu9 In4 Sb2'
_cell_volume   433.59891754
_cell_formula_units_Z   1
loop_
 _symmetry_equiv_pos_site_id
 _symmetry_equiv_pos_as_xyz
  1  'x, y, z'
loop_
 _atom_site_type_symbol
 _atom_site_label
 _atom_site_symmetry_multiplicity
 _atom_site_fract_x
 _atom_site_fract_y
 _atom_site_fract_z
 _atom_site_occupancy
  Dy  Dy0  1  0.750047  0.233043  0.995353  1
  Lu  Lu1  1  0.494862  0.333983  0.669324  1
  Lu  Lu2  1  0.495892  0.666468  0.334870  1
  Lu  Lu3  1  0.004377  0.666544  0.335218  1
  Lu  Lu4  1  0.005423  0.334061  0.668953  1
  Lu  Lu5  1  0.750270  0.767293  0.759778  1
  Lu  Lu6  1  0.750127  0.999971  0.233386  1
  Lu  Lu7  1  0.250217  0.765582  0.000799  1
  Lu  Lu8  1  0.250171  0.233780  0.236200  1
  Lu  Lu9  1  0.250058  0.999088  0.764124  1
  In  In10  1  0.750272  0.999065  0.591747  1
  In  In11  1  0.248692  0.396734  0.004012  1
  In  In12  1  0.249633  0.601135  0.604501  1
  In  In13  1  0.249987  0.000085  0.401883  1
  Sb  Sb14  1  0.750121  0.607179  0.000757  1
  Sb  Sb15  1  0.749852  0.395992  0.399094  1
