# generated using pymatgen
data_Yb3YTm2(CoSn6)2
_symmetry_space_group_name_H-M   'P 1'
_cell_length_a   8.37282705
_cell_length_b   8.37282621
_cell_length_c   13.25983346
_cell_angle_alpha   90.07043751
_cell_angle_beta   89.92957023
_cell_angle_gamma   147.93027018
_symmetry_Int_Tables_number   1
_chemical_formula_structural   Yb3YTm2(CoSn6)2
_chemical_formula_sum   'Yb3 Y1 Tm2 Co2 Sn12'
_cell_volume   493.55586957
_cell_formula_units_Z   1
loop_
 _symmetry_equiv_pos_site_id
 _symmetry_equiv_pos_as_xyz
  1  'x, y, z'
loop_
 _atom_site_type_symbol
 _atom_site_label
 _atom_site_symmetry_multiplicity
 _atom_site_fract_x
 _atom_site_fract_y
 _atom_site_fract_z
 _atom_site_occupancy
  Yb  Yb0  1  0.099869  0.900131  0.597601  1
  Yb  Yb1  1  0.100267  0.899733  0.903244  1
  Yb  Yb2  1  0.900330  0.099670  0.402042  1
  Y  Y3  1  0.898435  0.101565  0.095685  1
  Tm  Tm4  1  0.901005  0.098995  0.753727  1
  Tm  Tm5  1  0.099079  0.900921  0.247512  1
  Co  Co6  1  0.298327  0.701673  0.249328  1
  Co  Co7  1  0.703793  0.296207  0.750502  1
  Sn  Sn8  1  0.758846  0.241154  0.572526  1
  Sn  Sn9  1  0.424802  0.575198  0.578713  1
  Sn  Sn10  1  0.574589  0.425411  0.422009  1
  Sn  Sn11  1  0.731969  0.268031  0.248729  1
  Sn  Sn12  1  0.268458  0.731542  0.750289  1
  Sn  Sn13  1  0.240508  0.759492  0.072391  1
  Sn  Sn14  1  0.241864  0.758136  0.426914  1
  Sn  Sn15  1  0.573254  0.426746  0.075603  1
  Sn  Sn16  1  0.455530  0.544470  0.248757  1
  Sn  Sn17  1  0.545252  0.454748  0.750632  1
  Sn  Sn18  1  0.757986  0.242014  0.928861  1
  Sn  Sn19  1  0.425838  0.574162  0.924937  1
