# generated using pymatgen
data_HoGa2(FeTc)5
_symmetry_space_group_name_H-M   'P 1'
_cell_length_a   4.78195506
_cell_length_b   6.65949168
_cell_length_c   6.65949092
_cell_angle_alpha   97.42716793
_cell_angle_beta   111.04080668
_cell_angle_gamma   68.95918334
_symmetry_Int_Tables_number   1
_chemical_formula_structural   HoGa2(FeTc)5
_chemical_formula_sum   'Ho1 Ga2 Fe5 Tc5'
_cell_volume   184.73674736
_cell_formula_units_Z   1
loop_
 _symmetry_equiv_pos_site_id
 _symmetry_equiv_pos_as_xyz
  1  'x, y, z'
loop_
 _atom_site_type_symbol
 _atom_site_label
 _atom_site_symmetry_multiplicity
 _atom_site_fract_x
 _atom_site_fract_y
 _atom_site_fract_z
 _atom_site_occupancy
  Ho  Ho0  1  0.000000  0.005276  0.005276  1
  Ga  Ga1  1  0.713103  0.788259  0.214463  1
  Ga  Ga2  1  0.286897  0.214463  0.788259  1
  Fe  Fe3  1  0.500000  0.223775  0.223775  1
  Fe  Fe4  1  0.496296  0.004568  0.495274  1
  Fe  Fe5  1  0.994409  0.004568  0.495274  1
  Fe  Fe6  1  0.503704  0.495274  0.004568  1
  Fe  Fe7  1  0.005591  0.495274  0.004568  1
  Tc  Tc8  1  0.639865  0.356738  0.636468  1
  Tc  Tc9  1  0.360135  0.636468  0.356738  1
  Tc  Tc10  1  0.000000  0.360033  0.360033  1
  Tc  Tc11  1  0.000000  0.639034  0.639034  1
  Tc  Tc12  1  0.500000  0.776272  0.776272  1
