# generated using pymatgen
data_TiNb5Re3(Si2Mo)3
_symmetry_space_group_name_H-M   'P 1'
_cell_length_a   7.66449026
_cell_length_b   7.64429955
_cell_length_c   7.66437689
_cell_angle_alpha   126.28303558
_cell_angle_beta   128.41102436
_cell_angle_gamma   77.74848021
_symmetry_Int_Tables_number   1
_chemical_formula_structural   TiNb5Re3(Si2Mo)3
_chemical_formula_sum   'Ti1 Nb5 Re3 Si6 Mo3'
_cell_volume   274.91516483
_cell_formula_units_Z   1
loop_
 _symmetry_equiv_pos_site_id
 _symmetry_equiv_pos_as_xyz
  1  'x, y, z'
loop_
 _atom_site_type_symbol
 _atom_site_label
 _atom_site_symmetry_multiplicity
 _atom_site_fract_x
 _atom_site_fract_y
 _atom_site_fract_z
 _atom_site_occupancy
  Ti  Ti0  1  0.550991  0.094272  0.043030  1
  Nb  Nb1  1  0.447211  0.492162  0.544271  1
  Nb  Nb2  1  0.949051  0.493900  0.045271  1
  Nb  Nb3  1  0.050871  0.091088  0.541617  1
  Nb  Nb4  1  0.752818  0.905731  0.653654  1
  Nb  Nb5  1  0.248596  0.901127  0.152146  1
  Re  Re6  1  0.870127  0.496626  0.625932  1
  Re  Re7  1  0.628181  0.754604  0.125197  1
  Re  Re8  1  0.371447  0.497541  0.126382  1
  Si  Si9  1  0.748757  0.498121  0.249372  1
  Si  Si10  1  0.248799  0.498407  0.749226  1
  Si  Si11  1  0.337237  0.827844  0.498856  1
  Si  Si12  1  0.666106  0.162133  0.489649  1
  Si  Si13  1  0.827678  0.827231  0.991522  1
  Si  Si14  1  0.172849  0.165066  0.998798  1
  Mo  Mo15  1  0.500994  0.240785  0.740821  1
  Mo  Mo16  1  0.998594  0.239251  0.239387  1
  Mo  Mo17  1  0.129692  0.756308  0.627068  1
