# generated using pymatgen
data_Sm2H8PdPt
_symmetry_space_group_name_H-M   'P 1'
_cell_length_a   3.83120101
_cell_length_b   5.18680700
_cell_length_c   6.45379700
_cell_angle_alpha   90.00000000
_cell_angle_beta   107.29439378
_cell_angle_gamma   90.00000000
_symmetry_Int_Tables_number   1
_chemical_formula_structural   Sm2H8PdPt
_chemical_formula_sum   'Sm2 H8 Pd1 Pt1'
_cell_volume   122.44981701
_cell_formula_units_Z   1
loop_
 _symmetry_equiv_pos_site_id
 _symmetry_equiv_pos_as_xyz
  1  'x, y, z'
loop_
 _atom_site_type_symbol
 _atom_site_label
 _atom_site_symmetry_multiplicity
 _atom_site_fract_x
 _atom_site_fract_y
 _atom_site_fract_z
 _atom_site_occupancy
  Sm  Sm0  1  0.861003  0.750000  0.219769  1
  Sm  Sm1  1  0.136049  0.249999  0.773673  1
  H  H2  1  0.305838  0.997663  0.112075  1
  H  H3  1  0.305838  0.502336  0.112075  1
  H  H4  1  0.909689  0.249999  0.320062  1
  H  H5  1  0.499618  0.004266  0.499077  1
  H  H6  1  0.499618  0.495735  0.499077  1
  H  H7  1  0.085697  0.750000  0.670363  1
  H  H8  1  0.697188  0.485566  0.894284  1
  H  H9  1  0.697188  0.014433  0.894284  1
  Pd  Pd10  1  0.595576  0.750000  0.693828  1
  Pt  Pt11  1  0.406696  0.249999  0.311434  1
