# generated using pymatgen
data_Zr3Nb2Si3O
_symmetry_space_group_name_H-M   'P 1'
_cell_length_a   7.82605000
_cell_length_b   7.82604940
_cell_length_c   5.42229400
_cell_angle_alpha   90.00000000
_cell_angle_beta   90.00000000
_cell_angle_gamma   119.99999407
_symmetry_Int_Tables_number   1
_chemical_formula_structural   Zr3Nb2Si3O
_chemical_formula_sum   'Zr6 Nb4 Si6 O2'
_cell_volume   287.60664942
_cell_formula_units_Z   2
loop_
 _symmetry_equiv_pos_site_id
 _symmetry_equiv_pos_as_xyz
  1  'x, y, z'
loop_
 _atom_site_type_symbol
 _atom_site_label
 _atom_site_symmetry_multiplicity
 _atom_site_fract_x
 _atom_site_fract_y
 _atom_site_fract_z
 _atom_site_occupancy
  Zr  Zr0  1  0.242643  0.000000  0.750000  1
  Zr  Zr1  1  0.757357  0.000000  0.250000  1
  Zr  Zr2  1  0.000000  0.242643  0.750000  1
  Zr  Zr3  1  0.000000  0.757357  0.250000  1
  Zr  Zr4  1  0.757357  0.757357  0.750000  1
  Zr  Zr5  1  0.242643  0.242643  0.250000  1
  Nb  Nb6  1  0.333333  0.666667  0.500000  1
  Nb  Nb7  1  0.666667  0.333333  0.500000  1
  Nb  Nb8  1  0.666667  0.333333  0.000000  1
  Nb  Nb9  1  0.333333  0.666667  0.000000  1
  Si  Si10  1  0.593526  0.000000  0.750000  1
  Si  Si11  1  0.406474  0.000000  0.250000  1
  Si  Si12  1  0.000000  0.593526  0.750000  1
  Si  Si13  1  0.000000  0.406474  0.250000  1
  Si  Si14  1  0.406474  0.406474  0.750000  1
  Si  Si15  1  0.593526  0.593526  0.250000  1
  O  O16  1  0.000000  0.000000  0.500000  1
  O  O17  1  0.000000  0.000000  0.000000  1
