# generated using pymatgen
data_Y2MnCoF14
_symmetry_space_group_name_H-M   'P 1'
_cell_length_a   5.43139456
_cell_length_b   8.73733876
_cell_length_c   11.72315700
_cell_angle_alpha   62.27421101
_cell_angle_beta   90.04346188
_cell_angle_gamma   89.99223905
_symmetry_Int_Tables_number   1
_chemical_formula_structural   Y2MnCoF14
_chemical_formula_sum   'Y4 Mn2 Co2 F28'
_cell_volume   492.45735121
_cell_formula_units_Z   2
loop_
 _symmetry_equiv_pos_site_id
 _symmetry_equiv_pos_as_xyz
  1  'x, y, z'
loop_
 _atom_site_type_symbol
 _atom_site_label
 _atom_site_symmetry_multiplicity
 _atom_site_fract_x
 _atom_site_fract_y
 _atom_site_fract_z
 _atom_site_occupancy
  Y  Y0  1  0.262752  0.810707  0.262645  1
  Y  Y1  1  0.737248  0.189293  0.737355  1
  Y  Y2  1  0.764128  0.190293  0.234185  1
  Y  Y3  1  0.235872  0.809707  0.765815  1
  Mn  Mn4  1  0.259596  0.274239  0.456644  1
  Mn  Mn5  1  0.740404  0.725761  0.543356  1
  Co  Co6  1  0.759723  0.725617  0.043412  1
  Co  Co7  1  0.240277  0.274383  0.956588  1
  F  F8  1  0.930240  0.705915  0.421537  1
  F  F9  1  0.069760  0.294085  0.578463  1
  F  F10  1  0.425247  0.294455  0.076709  1
  F  F11  1  0.574753  0.705545  0.923291  1
  F  F12  1  0.484337  0.729035  0.129697  1
  F  F13  1  0.515663  0.270965  0.870303  1
  F  F14  1  0.980314  0.272646  0.367408  1
  F  F15  1  0.019686  0.727354  0.632592  1
  F  F16  1  0.945000  0.740682  0.168220  1
  F  F17  1  0.055000  0.259318  0.831780  1
  F  F18  1  0.448260  0.259301  0.329820  1
  F  F19  1  0.551740  0.740699  0.670180  1
  F  F20  1  0.772205  0.492314  0.136221  1
  F  F21  1  0.227795  0.507686  0.863779  1
  F  F22  1  0.271841  0.512581  0.361804  1
  F  F23  1  0.728159  0.487419  0.638196  1
  F  F24  1  0.959879  0.283165  0.038720  1
  F  F25  1  0.040121  0.716835  0.961280  1
  F  F26  1  0.454828  0.718726  0.459638  1
  F  F27  1  0.545172  0.281274  0.540362  1
  F  F28  1  0.739982  0.961912  0.453046  1
  F  F29  1  0.260018  0.038088  0.546954  1
  F  F30  1  0.241326  0.042795  0.043375  1
  F  F31  1  0.758674  0.957205  0.956625  1
  F  F32  1  0.595324  0.969622  0.227100  1
  F  F33  1  0.404676  0.030378  0.772900  1
  F  F34  1  0.096007  0.030258  0.272558  1
  F  F35  1  0.903993  0.969742  0.727442  1
