# generated using pymatgen
data_Cs2TcH9
_symmetry_space_group_name_H-M   'P 1'
_cell_length_a   10.49445000
_cell_length_b   10.49444924
_cell_length_c   6.08764300
_cell_angle_alpha   90.00000000
_cell_angle_beta   90.00000000
_cell_angle_gamma   119.99999609
_symmetry_Int_Tables_number   1
_chemical_formula_structural   Cs2TcH9
_chemical_formula_sum   'Cs6 Tc3 H27'
_cell_volume   580.62958243
_cell_formula_units_Z   3
loop_
 _symmetry_equiv_pos_site_id
 _symmetry_equiv_pos_as_xyz
  1  'x, y, z'
loop_
 _atom_site_type_symbol
 _atom_site_label
 _atom_site_symmetry_multiplicity
 _atom_site_fract_x
 _atom_site_fract_y
 _atom_site_fract_z
 _atom_site_occupancy
  Cs  Cs0  1  0.261087  0.000000  0.500000  1
  Cs  Cs1  1  0.000000  0.261087  0.500000  1
  Cs  Cs2  1  0.738913  0.738913  0.500000  1
  Cs  Cs3  1  0.589884  0.000000  0.000000  1
  Cs  Cs4  1  0.000000  0.589884  0.000000  1
  Cs  Cs5  1  0.410116  0.410116  0.000000  1
  Tc  Tc6  1  0.000000  0.000000  0.000000  1
  Tc  Tc7  1  0.333333  0.666667  0.500000  1
  Tc  Tc8  1  0.666667  0.333333  0.500000  1
  H  H9  1  0.884271  0.000000  0.193524  1
  H  H10  1  0.000000  0.884271  0.193524  1
  H  H11  1  0.884271  0.000000  0.806476  1
  H  H12  1  0.000000  0.884271  0.806476  1
  H  H13  1  0.115729  0.115729  0.193524  1
  H  H14  1  0.115729  0.115729  0.806476  1
  H  H15  1  0.158924  0.000000  0.000000  1
  H  H16  1  0.000000  0.158924  0.000000  1
  H  H17  1  0.841076  0.841076  0.000000  1
  H  H18  1  0.235240  0.545074  0.298579  1
  H  H19  1  0.454926  0.690166  0.298579  1
  H  H20  1  0.235240  0.545074  0.701421  1
  H  H21  1  0.545074  0.235240  0.701421  1
  H  H22  1  0.309834  0.764760  0.298579  1
  H  H23  1  0.454926  0.690166  0.701421  1
  H  H24  1  0.690166  0.454926  0.701421  1
  H  H25  1  0.545074  0.235240  0.298579  1
  H  H26  1  0.309834  0.764760  0.701421  1
  H  H27  1  0.690166  0.454926  0.298579  1
  H  H28  1  0.764760  0.309834  0.701421  1
  H  H29  1  0.764760  0.309834  0.298579  1
  H  H30  1  0.365689  0.526237  0.500000  1
  H  H31  1  0.473763  0.839452  0.500000  1
  H  H32  1  0.526237  0.365689  0.500000  1
  H  H33  1  0.160548  0.634311  0.500000  1
  H  H34  1  0.839452  0.473763  0.500000  1
  H  H35  1  0.634311  0.160548  0.500000  1
