# generated using pymatgen
data_SrVCoNi(PO4)3
_symmetry_space_group_name_H-M   'P 1'
_cell_length_a   9.15761871
_cell_length_b   9.15761907
_cell_length_c   9.15761900
_cell_angle_alpha   137.56554382
_cell_angle_beta   109.85572993
_cell_angle_gamma   85.54347854
_symmetry_Int_Tables_number   1
_chemical_formula_structural   SrVCoNi(PO4)3
_chemical_formula_sum   'Sr2 V2 Co2 Ni2 P6 O24'
_cell_volume   468.92969793
_cell_formula_units_Z   2
loop_
 _symmetry_equiv_pos_site_id
 _symmetry_equiv_pos_as_xyz
  1  'x, y, z'
loop_
 _atom_site_type_symbol
 _atom_site_label
 _atom_site_symmetry_multiplicity
 _atom_site_fract_x
 _atom_site_fract_y
 _atom_site_fract_z
 _atom_site_occupancy
  Sr  Sr0  1  0.250000  0.345953  0.095953  1
  Sr  Sr1  1  0.750000  0.654047  0.904047  1
  V  V2  1  0.000435  0.500000  0.500435  1
  V  V3  1  0.499565  0.000000  0.499565  1
  Co  Co4  1  0.616676  0.116676  0.000000  1
  Co  Co5  1  0.883324  0.883324  0.500000  1
  Ni  Ni6  1  0.116928  0.116928  0.500000  1
  Ni  Ni7  1  0.383072  0.883072  0.000000  1
  P  P8  1  0.250000  0.838861  0.588861  1
  P  P9  1  0.750000  0.161139  0.411139  1
  P  P10  1  0.322289  0.322289  0.500000  1
  P  P11  1  0.177711  0.677711  0.000000  1
  P  P12  1  0.822775  0.322775  0.000000  1
  P  P13  1  0.677225  0.677225  0.500000  1
  O  O14  1  0.343465  0.795890  0.453519  1
  O  O15  1  0.657628  0.204110  0.547574  1
  O  O16  1  0.842372  0.389946  0.546481  1
  O  O17  1  0.156535  0.610054  0.452426  1
  O  O18  1  0.133859  0.985780  0.616472  1
  O  O19  1  0.630692  0.014220  0.148079  1
  O  O20  1  0.869308  0.017387  0.383528  1
  O  O21  1  0.366141  0.982613  0.851921  1
  O  O22  1  0.345235  0.202791  0.277554  1
  O  O23  1  0.074763  0.797209  0.142443  1
  O  O24  1  0.845399  0.567829  0.141592  1
  O  O25  1  0.573763  0.432171  0.277570  1
  O  O26  1  0.654601  0.796193  0.722430  1
  O  O27  1  0.926237  0.203807  0.858408  1
  O  O28  1  0.154765  0.432320  0.857557  1
  O  O29  1  0.425237  0.567680  0.722446  1
  O  O30  1  0.133970  0.289793  0.434669  1
  O  O31  1  0.144877  0.710207  0.844178  1
  O  O32  1  0.634923  0.199518  0.843230  1
  O  O33  1  0.643712  0.800482  0.435406  1
  O  O34  1  0.865077  0.708305  0.564594  1
  O  O35  1  0.856288  0.291695  0.156770  1
  O  O36  1  0.366030  0.800698  0.155822  1
  O  O37  1  0.355123  0.199302  0.565331  1
