# generated using pymatgen
data_Sm2Al2ZnCu7
_symmetry_space_group_name_H-M   'P 1'
_cell_length_a   4.20819600
_cell_length_b   5.11126637
_cell_length_c   8.86263155
_cell_angle_alpha   90.68565873
_cell_angle_beta   90.00000000
_cell_angle_gamma   90.00000000
_symmetry_Int_Tables_number   1
_chemical_formula_structural   Sm2Al2ZnCu7
_chemical_formula_sum   'Sm2 Al2 Zn1 Cu7'
_cell_volume   190.61455990
_cell_formula_units_Z   1
loop_
 _symmetry_equiv_pos_site_id
 _symmetry_equiv_pos_as_xyz
  1  'x, y, z'
loop_
 _atom_site_type_symbol
 _atom_site_label
 _atom_site_symmetry_multiplicity
 _atom_site_fract_x
 _atom_site_fract_y
 _atom_site_fract_z
 _atom_site_occupancy
  Sm  Sm0  1  0.000000  0.003072  0.998499  1
  Sm  Sm1  1  0.000000  0.496899  0.501496  1
  Al  Al2  1  0.500000  0.510969  0.996149  1
  Al  Al3  1  0.500000  0.989018  0.503854  1
  Zn  Zn4  1  0.500000  0.249936  0.249982  1
  Cu  Cu5  1  0.000000  0.994299  0.335672  1
  Cu  Cu6  1  0.000000  0.499970  0.832391  1
  Cu  Cu7  1  0.000000  0.505648  0.164324  1
  Cu  Cu8  1  0.000000  0.000023  0.667609  1
  Cu  Cu9  1  0.500000  0.750014  0.750008  1
  Cu  Cu10  1  0.500000  0.749932  0.250025  1
  Cu  Cu11  1  0.500000  0.250020  0.749991  1
