# generated using pymatgen
data_Ce3SmInHgRh4
_symmetry_space_group_name_H-M   'P 1'
_cell_length_a   7.69219156
_cell_length_b   7.71346401
_cell_length_c   3.71978700
_cell_angle_alpha   90.00000000
_cell_angle_beta   90.00000000
_cell_angle_gamma   88.01403153
_symmetry_Int_Tables_number   1
_chemical_formula_structural   Ce3SmInHgRh4
_chemical_formula_sum   'Ce3 Sm1 In1 Hg1 Rh4'
_cell_volume   220.57519946
_cell_formula_units_Z   1
loop_
 _symmetry_equiv_pos_site_id
 _symmetry_equiv_pos_as_xyz
  1  'x, y, z'
loop_
 _atom_site_type_symbol
 _atom_site_label
 _atom_site_symmetry_multiplicity
 _atom_site_fract_x
 _atom_site_fract_y
 _atom_site_fract_z
 _atom_site_occupancy
  Ce  Ce0  1  0.327267  0.831507  0.500000  1
  Ce  Ce1  1  0.167484  0.327235  0.500000  1
  Ce  Ce2  1  0.829834  0.669970  0.500000  1
  Sm  Sm3  1  0.671467  0.166613  0.500000  1
  In  In4  1  0.501434  0.494974  0.000000  1
  Hg  Hg5  1  0.993361  0.000323  0.000000  1
  Rh  Rh6  1  0.147386  0.639818  0.000000  1
  Rh  Rh7  1  0.877758  0.382962  0.000000  1
  Rh  Rh8  1  0.626787  0.849504  0.000000  1
  Rh  Rh9  1  0.357222  0.137094  0.000000  1
