# generated using pymatgen
data_LiTb4FeC8
_symmetry_space_group_name_H-M   'P 1'
_cell_length_a   6.67133562
_cell_length_b   6.67133596
_cell_length_c   6.67133470
_cell_angle_alpha   133.96991461
_cell_angle_beta   111.11730594
_cell_angle_gamma   86.87243752
_symmetry_Int_Tables_number   1
_chemical_formula_structural   LiTb4FeC8
_chemical_formula_sum   'Li1 Tb4 Fe1 C8'
_cell_volume   190.69784128
_cell_formula_units_Z   1
loop_
 _symmetry_equiv_pos_site_id
 _symmetry_equiv_pos_as_xyz
  1  'x, y, z'
loop_
 _atom_site_type_symbol
 _atom_site_label
 _atom_site_symmetry_multiplicity
 _atom_site_fract_x
 _atom_site_fract_y
 _atom_site_fract_z
 _atom_site_occupancy
  Li  Li0  1  0.000000  0.250000  0.250000  1
  Tb  Tb1  1  0.196874  0.356379  0.840709  1
  Tb  Tb2  1  0.803126  0.643835  0.159504  1
  Tb  Tb3  1  0.515668  0.856165  0.659291  1
  Tb  Tb4  1  0.484332  0.143621  0.340496  1
  Fe  Fe5  1  0.000000  0.750000  0.750000  1
  C  C6  1  0.786611  0.128662  0.660913  1
  C  C7  1  0.213389  0.874301  0.342050  1
  C  C8  1  0.467748  0.625699  0.839087  1
  C  C9  1  0.532252  0.371338  0.157950  1
  C  C10  1  0.908050  0.027856  0.766413  1
  C  C11  1  0.091950  0.858363  0.119806  1
  C  C12  1  0.261443  0.641637  0.733587  1
  C  C13  1  0.738557  0.472144  0.380194  1
