# generated using pymatgen
data_Mg3Al2Co10B4Mo
_symmetry_space_group_name_H-M   'P 1'
_cell_length_a   8.78846150
_cell_length_b   8.78846150
_cell_length_c   2.80666500
_cell_angle_alpha   90.00000000
_cell_angle_beta   90.00000000
_cell_angle_gamma   90.21519355
_symmetry_Int_Tables_number   1
_chemical_formula_structural   Mg3Al2Co10B4Mo
_chemical_formula_sum   'Mg3 Al2 Co10 B4 Mo1'
_cell_volume   216.77701134
_cell_formula_units_Z   1
loop_
 _symmetry_equiv_pos_site_id
 _symmetry_equiv_pos_as_xyz
  1  'x, y, z'
loop_
 _atom_site_type_symbol
 _atom_site_label
 _atom_site_symmetry_multiplicity
 _atom_site_fract_x
 _atom_site_fract_y
 _atom_site_fract_z
 _atom_site_occupancy
  Mg  Mg0  1  0.322898  0.177648  0.000000  1
  Mg  Mg1  1  0.677648  0.822898  0.000000  1
  Mg  Mg2  1  0.822065  0.322065  0.000000  1
  Al  Al3  1  0.998416  0.003924  0.000000  1
  Al  Al4  1  0.503924  0.498416  0.000000  1
  Co  Co5  1  0.002491  0.502491  0.500000  1
  Co  Co6  1  0.069970  0.223422  0.500000  1
  Co  Co7  1  0.216505  0.922454  0.500000  1
  Co  Co8  1  0.278133  0.442600  0.500000  1
  Co  Co9  1  0.422454  0.716505  0.500000  1
  Co  Co10  1  0.497635  0.997635  0.500000  1
  Co  Co11  1  0.567593  0.277633  0.500000  1
  Co  Co12  1  0.723422  0.569970  0.500000  1
  Co  Co13  1  0.777633  0.067593  0.500000  1
  Co  Co14  1  0.942600  0.778133  0.500000  1
  B  B15  1  0.123128  0.378669  0.000000  1
  B  B16  1  0.376904  0.876904  0.000000  1
  B  B17  1  0.622383  0.122383  0.000000  1
  B  B18  1  0.878669  0.623128  0.000000  1
  Mo  Mo19  1  0.175529  0.675529  0.000000  1
