# generated using pymatgen
data_Tm12InCoTcNi3
_symmetry_space_group_name_H-M   'P 1'
_cell_length_a   8.18921514
_cell_length_b   8.18921516
_cell_length_c   8.18921486
_cell_angle_alpha   111.40988621
_cell_angle_beta   110.45956531
_cell_angle_gamma   106.58373691
_symmetry_Int_Tables_number   1
_chemical_formula_structural   Tm12InCoTcNi3
_chemical_formula_sum   'Tm12 In1 Co1 Tc1 Ni3'
_cell_volume   421.93993776
_cell_formula_units_Z   1
loop_
 _symmetry_equiv_pos_site_id
 _symmetry_equiv_pos_as_xyz
  1  'x, y, z'
loop_
 _atom_site_type_symbol
 _atom_site_label
 _atom_site_symmetry_multiplicity
 _atom_site_fract_x
 _atom_site_fract_y
 _atom_site_fract_z
 _atom_site_occupancy
  Tm  Tm0  1  0.416582  0.224426  0.192156  1
  Tm  Tm1  1  0.583358  0.775229  0.808129  1
  Tm  Tm2  1  0.032271  0.224426  0.807844  1
  Tm  Tm3  1  0.967099  0.775229  0.191871  1
  Tm  Tm4  1  0.179423  0.278611  0.461075  1
  Tm  Tm5  1  0.817536  0.718348  0.538925  1
  Tm  Tm6  1  0.179423  0.718348  0.900813  1
  Tm  Tm7  1  0.817536  0.278611  0.099187  1
  Tm  Tm8  1  0.319155  0.622538  0.303384  1
  Tm  Tm9  1  0.684544  0.379031  0.694486  1
  Tm  Tm10  1  0.319155  0.015771  0.696616  1
  Tm  Tm11  1  0.684544  0.990058  0.305514  1
  In  In12  1  0.499793  0.499793  0.000000  1
  Co  Co13  1  0.884522  0.384522  0.500000  1
  Tc  Tc14  1  0.998867  0.998867  0.000000  1
  Ni  Ni15  1  0.360059  0.999409  0.360650  1
  Ni  Ni16  1  0.638760  0.999409  0.639350  1
  Ni  Ni17  1  0.117371  0.617371  0.500000  1
