# generated using pymatgen
data_Y3Hf(Al3Ir)6
_symmetry_space_group_name_H-M   'P 1'
_cell_length_a   7.53999600
_cell_length_b   7.53015027
_cell_length_c   9.41516000
_cell_angle_alpha   90.00000000
_cell_angle_beta   90.00000000
_cell_angle_gamma   119.60102667
_symmetry_Int_Tables_number   1
_chemical_formula_structural   Y3Hf(Al3Ir)6
_chemical_formula_sum   'Y3 Hf1 Al18 Ir6'
_cell_volume   464.79890524
_cell_formula_units_Z   1
loop_
 _symmetry_equiv_pos_site_id
 _symmetry_equiv_pos_as_xyz
  1  'x, y, z'
loop_
 _atom_site_type_symbol
 _atom_site_label
 _atom_site_symmetry_multiplicity
 _atom_site_fract_x
 _atom_site_fract_y
 _atom_site_fract_z
 _atom_site_occupancy
  Y  Y0  1  0.005593  0.327826  0.750000  1
  Y  Y1  1  0.671137  0.995484  0.250000  1
  Y  Y2  1  0.329308  0.006345  0.750000  1
  Hf  Hf3  1  0.997084  0.672843  0.250000  1
  Al  Al4  1  0.126397  0.123338  0.250000  1
  Al  Al5  1  0.870987  0.869808  0.750000  1
  Al  Al6  1  0.000320  0.338102  0.078974  1
  Al  Al7  1  0.999235  0.665026  0.929508  1
  Al  Al8  1  0.999235  0.665026  0.570492  1
  Al  Al9  1  0.332258  0.997970  0.420927  1
  Al  Al10  1  0.000320  0.338102  0.421026  1
  Al  Al11  1  0.664722  0.998365  0.574294  1
  Al  Al12  1  0.664722  0.998365  0.925706  1
  Al  Al13  1  0.332258  0.997970  0.079073  1
  Al  Al14  1  0.333643  0.333713  0.550572  1
  Al  Al15  1  0.668879  0.666601  0.443617  1
  Al  Al16  1  0.668879  0.666601  0.056383  1
  Al  Al17  1  0.333643  0.333713  0.949428  1
  Al  Al18  1  0.335445  0.548932  0.250000  1
  Al  Al19  1  0.660851  0.452533  0.750000  1
  Al  Al20  1  0.554988  0.344928  0.250000  1
  Al  Al21  1  0.451248  0.659783  0.750000  1
  Ir  Ir22  1  0.672630  0.328615  0.001175  1
  Ir  Ir23  1  0.327526  0.672109  0.001845  1
  Ir  Ir24  1  0.327526  0.672109  0.498155  1
  Ir  Ir25  1  0.672630  0.328615  0.498825  1
  Ir  Ir26  1  0.999268  0.998591  0.001447  1
  Ir  Ir27  1  0.999268  0.998591  0.498553  1
