# generated using pymatgen
data_Er7Tm13Pb16
_symmetry_space_group_name_H-M   'P 1'
_cell_length_a   8.14711021
_cell_length_b   8.21449306
_cell_length_c   15.48849131
_cell_angle_alpha   90.00308991
_cell_angle_beta   90.02277749
_cell_angle_gamma   89.98688177
_symmetry_Int_Tables_number   1
_chemical_formula_structural   Er7Tm13Pb16
_chemical_formula_sum   'Er7 Tm13 Pb16'
_cell_volume   1036.55757206
_cell_formula_units_Z   1
loop_
 _symmetry_equiv_pos_site_id
 _symmetry_equiv_pos_as_xyz
  1  'x, y, z'
loop_
 _atom_site_type_symbol
 _atom_site_label
 _atom_site_symmetry_multiplicity
 _atom_site_fract_x
 _atom_site_fract_y
 _atom_site_fract_z
 _atom_site_occupancy
  Er  Er0  1  0.035739  0.176749  0.599951  1
  Er  Er1  1  0.464278  0.676747  0.400138  1
  Er  Er2  1  0.964198  0.823356  0.099860  1
  Er  Er3  1  0.464190  0.676670  0.099819  1
  Er  Er4  1  0.964240  0.823266  0.400156  1
  Er  Er5  1  0.535721  0.323301  0.599877  1
  Er  Er6  1  0.035803  0.176726  0.900107  1
  Tm  Tm7  1  0.377486  0.840800  0.879066  1
  Tm  Tm8  1  0.877429  0.659200  0.620935  1
  Tm  Tm9  1  0.622546  0.159243  0.379058  1
  Tm  Tm10  1  0.122437  0.340719  0.120938  1
  Tm  Tm11  1  0.622460  0.159321  0.120868  1
  Tm  Tm12  1  0.122532  0.340751  0.379048  1
  Tm  Tm13  1  0.377465  0.840807  0.620947  1
  Tm  Tm14  1  0.877450  0.659181  0.879066  1
  Tm  Tm15  1  0.535895  0.323343  0.900064  1
  Tm  Tm16  1  0.208563  0.504144  0.750054  1
  Tm  Tm17  1  0.708401  0.995811  0.750041  1
  Tm  Tm18  1  0.791528  0.495755  0.249994  1
  Tm  Tm19  1  0.291550  0.004248  0.249975  1
  Pb  Pb20  1  0.281121  0.033082  0.042453  1
  Pb  Pb21  1  0.781173  0.466901  0.457577  1
  Pb  Pb22  1  0.718815  0.966852  0.542442  1
  Pb  Pb23  1  0.219299  0.532764  0.957520  1
  Pb  Pb24  1  0.718688  0.967112  0.957553  1
  Pb  Pb25  1  0.218814  0.533167  0.542436  1
  Pb  Pb26  1  0.281187  0.033132  0.457574  1
  Pb  Pb27  1  0.780968  0.466701  0.042233  1
  Pb  Pb28  1  0.571665  0.627340  0.749996  1
  Pb  Pb29  1  0.071711  0.872539  0.750014  1
  Pb  Pb30  1  0.428297  0.372597  0.249994  1
  Pb  Pb31  1  0.928304  0.127485  0.250010  1
  Pb  Pb32  1  0.347649  0.153433  0.750181  1
  Pb  Pb33  1  0.847312  0.346793  0.750038  1
  Pb  Pb34  1  0.652565  0.846772  0.250016  1
  Pb  Pb35  1  0.152519  0.653193  0.250001  1
