# generated using pymatgen
data_CsPu2CuS4
_symmetry_space_group_name_H-M   'P 1'
_cell_length_a   4.05080100
_cell_length_b   7.35774565
_cell_length_c   13.77007900
_cell_angle_alpha   90.00000000
_cell_angle_beta   90.00000000
_cell_angle_gamma   105.97837522
_symmetry_Int_Tables_number   1
_chemical_formula_structural   CsPu2CuS4
_chemical_formula_sum   'Cs2 Pu4 Cu2 S8'
_cell_volume   394.55787496
_cell_formula_units_Z   2
loop_
 _symmetry_equiv_pos_site_id
 _symmetry_equiv_pos_as_xyz
  1  'x, y, z'
loop_
 _atom_site_type_symbol
 _atom_site_label
 _atom_site_symmetry_multiplicity
 _atom_site_fract_x
 _atom_site_fract_y
 _atom_site_fract_z
 _atom_site_occupancy
  Cs  Cs0  1  0.103942  0.207885  0.250000  1
  Cs  Cs1  1  0.896102  0.792205  0.750000  1
  Pu  Pu2  1  0.366720  0.733440  0.057770  1
  Pu  Pu3  1  0.366720  0.733440  0.442230  1
  Pu  Pu4  1  0.633249  0.266500  0.557882  1
  Pu  Pu5  1  0.633249  0.266500  0.942118  1
  Cu  Cu6  1  0.831274  0.662550  0.250000  1
  Cu  Cu7  1  0.168744  0.337488  0.750000  1
  S  S8  1  0.000076  0.000152  0.999954  1
  S  S9  1  0.745295  0.490592  0.106088  1
  S  S10  1  0.415620  0.831239  0.250000  1
  S  S11  1  0.745295  0.490592  0.393912  1
  S  S12  1  0.000076  0.000152  0.500046  1
  S  S13  1  0.254629  0.509257  0.606176  1
  S  S14  1  0.584374  0.168749  0.750000  1
  S  S15  1  0.254629  0.509257  0.893824  1
