# generated using pymatgen
data_Dy4Er5TmPb8
_symmetry_space_group_name_H-M   'P 1'
_cell_length_a   8.17513000
_cell_length_b   8.25019300
_cell_length_c   15.57233000
_cell_angle_alpha   90.00000000
_cell_angle_beta   90.00000000
_cell_angle_gamma   90.00000000
_symmetry_Int_Tables_number   1
_chemical_formula_structural   Dy4Er5TmPb8
_chemical_formula_sum   'Dy8 Er10 Tm2 Pb16'
_cell_volume   1050.29760279
_cell_formula_units_Z   2
loop_
 _symmetry_equiv_pos_site_id
 _symmetry_equiv_pos_as_xyz
  1  'x, y, z'
loop_
 _atom_site_type_symbol
 _atom_site_label
 _atom_site_symmetry_multiplicity
 _atom_site_fract_x
 _atom_site_fract_y
 _atom_site_fract_z
 _atom_site_occupancy
  Dy  Dy0  1  0.536490  0.323284  0.899967  1
  Dy  Dy1  1  0.036490  0.176716  0.600033  1
  Dy  Dy2  1  0.463489  0.676707  0.399993  1
  Dy  Dy3  1  0.963489  0.823293  0.100007  1
  Dy  Dy4  1  0.463489  0.676707  0.100007  1
  Dy  Dy5  1  0.963489  0.823293  0.399993  1
  Dy  Dy6  1  0.536490  0.323284  0.600033  1
  Dy  Dy7  1  0.036490  0.176716  0.899967  1
  Er  Er8  1  0.376555  0.841307  0.878995  1
  Er  Er9  1  0.876555  0.658693  0.621005  1
  Er  Er10  1  0.623526  0.158693  0.379050  1
  Er  Er11  1  0.123526  0.341307  0.120950  1
  Er  Er12  1  0.623526  0.158693  0.120950  1
  Er  Er13  1  0.123526  0.341307  0.379050  1
  Er  Er14  1  0.376555  0.841307  0.621005  1
  Er  Er15  1  0.876555  0.658693  0.878995  1
  Er  Er16  1  0.791784  0.495461  0.250000  1
  Er  Er17  1  0.291784  0.004539  0.250000  1
  Tm  Tm18  1  0.208251  0.504567  0.750000  1
  Tm  Tm19  1  0.708251  0.995433  0.750000  1
  Pb  Pb20  1  0.281593  0.033345  0.042849  1
  Pb  Pb21  1  0.781593  0.466655  0.457151  1
  Pb  Pb22  1  0.718385  0.966694  0.542961  1
  Pb  Pb23  1  0.218385  0.533306  0.957039  1
  Pb  Pb24  1  0.718385  0.966694  0.957039  1
  Pb  Pb25  1  0.218385  0.533306  0.542961  1
  Pb  Pb26  1  0.281593  0.033345  0.457151  1
  Pb  Pb27  1  0.781593  0.466655  0.042849  1
  Pb  Pb28  1  0.570961  0.627171  0.750000  1
  Pb  Pb29  1  0.070961  0.872829  0.750000  1
  Pb  Pb30  1  0.428793  0.372974  0.250000  1
  Pb  Pb31  1  0.928793  0.127026  0.250000  1
  Pb  Pb32  1  0.347612  0.153694  0.750000  1
  Pb  Pb33  1  0.847612  0.346306  0.750000  1
  Pb  Pb34  1  0.652523  0.846569  0.250000  1
  Pb  Pb35  1  0.152523  0.653431  0.250000  1
