# generated using pymatgen
data_Lu8Ti11Si16W
_symmetry_space_group_name_H-M   'P 1'
_cell_length_a   6.96698022
_cell_length_b   6.96698041
_cell_length_c   12.78472739
_cell_angle_alpha   89.98504085
_cell_angle_beta   89.98504263
_cell_angle_gamma   89.96708766
_symmetry_Int_Tables_number   1
_chemical_formula_structural   Lu8Ti11Si16W
_chemical_formula_sum   'Lu8 Ti11 Si16 W1'
_cell_volume   620.55536884
_cell_formula_units_Z   1
loop_
 _symmetry_equiv_pos_site_id
 _symmetry_equiv_pos_as_xyz
  1  'x, y, z'
loop_
 _atom_site_type_symbol
 _atom_site_label
 _atom_site_symmetry_multiplicity
 _atom_site_fract_x
 _atom_site_fract_y
 _atom_site_fract_z
 _atom_site_occupancy
  Lu  Lu0  1  0.998606  0.660249  0.031824  1
  Lu  Lu1  1  0.999546  0.340857  0.534256  1
  Lu  Lu2  1  0.339751  0.001394  0.468176  1
  Lu  Lu3  1  0.157799  0.500139  0.782210  1
  Lu  Lu4  1  0.840976  0.497804  0.282601  1
  Lu  Lu5  1  0.502196  0.159024  0.217399  1
  Lu  Lu6  1  0.499861  0.842201  0.717790  1
  Lu  Lu7  1  0.659143  0.000454  0.965744  1
  Ti  Ti8  1  0.672902  0.671990  0.501011  1
  Ti  Ti9  1  0.172741  0.827259  0.250000  1
  Ti  Ti10  1  0.328010  0.327098  0.998989  1
  Ti  Ti11  1  0.991503  0.849430  0.626897  1
  Ti  Ti12  1  0.006889  0.148949  0.124257  1
  Ti  Ti13  1  0.851051  0.993111  0.375743  1
  Ti  Ti14  1  0.350043  0.507349  0.375156  1
  Ti  Ti15  1  0.651922  0.492804  0.875061  1
  Ti  Ti16  1  0.507196  0.348078  0.624939  1
  Ti  Ti17  1  0.492651  0.649957  0.124844  1
  Ti  Ti18  1  0.150570  0.008497  0.873103  1
  Si  Si19  1  0.045704  0.705998  0.435695  1
  Si  Si20  1  0.632541  0.295718  0.432313  1
  Si  Si21  1  0.367433  0.704529  0.931900  1
  Si  Si22  1  0.202990  0.131868  0.681823  1
  Si  Si23  1  0.295471  0.632567  0.568100  1
  Si  Si24  1  0.704282  0.367459  0.067687  1
  Si  Si25  1  0.795934  0.867062  0.182236  1
  Si  Si26  1  0.132938  0.204066  0.317764  1
  Si  Si27  1  0.953596  0.293960  0.934639  1
  Si  Si28  1  0.706040  0.046404  0.565361  1
  Si  Si29  1  0.206734  0.453080  0.184982  1
  Si  Si30  1  0.791812  0.545097  0.686016  1
  Si  Si31  1  0.454903  0.208188  0.813984  1
  Si  Si32  1  0.546920  0.793266  0.315018  1
  Si  Si33  1  0.294002  0.954296  0.064305  1
  Si  Si34  1  0.868132  0.797010  0.818177  1
  W  W35  1  0.827217  0.172783  0.750000  1
