# generated using pymatgen
data_SmYBeCoSi4
_symmetry_space_group_name_H-M   'P 1'
_cell_length_a   8.46983002
_cell_length_b   8.46982988
_cell_length_c   3.94681900
_cell_angle_alpha   90.00000000
_cell_angle_beta   90.00000000
_cell_angle_gamma   152.31831634
_symmetry_Int_Tables_number   1
_chemical_formula_structural   SmYBeCoSi4
_chemical_formula_sum   'Sm1 Y1 Be1 Co1 Si4'
_cell_volume   131.53382524
_cell_formula_units_Z   1
loop_
 _symmetry_equiv_pos_site_id
 _symmetry_equiv_pos_as_xyz
  1  'x, y, z'
loop_
 _atom_site_type_symbol
 _atom_site_label
 _atom_site_symmetry_multiplicity
 _atom_site_fract_x
 _atom_site_fract_y
 _atom_site_fract_z
 _atom_site_occupancy
  Sm  Sm0  1  0.112686  0.887314  0.250000  1
  Y  Y1  1  0.898342  0.101658  0.750000  1
  Be  Be2  1  0.672076  0.327924  0.750000  1
  Co  Co3  1  0.318095  0.681905  0.250000  1
  Si  Si4  1  0.537348  0.462652  0.750000  1
  Si  Si5  1  0.454669  0.545331  0.250000  1
  Si  Si6  1  0.252260  0.747740  0.750000  1
  Si  Si7  1  0.754523  0.245477  0.250000  1
