# generated using pymatgen
data_Sc3TiIr2
_symmetry_space_group_name_H-M   'P 1'
_cell_length_a   8.59280712
_cell_length_b   8.59280661
_cell_length_c   8.59280600
_cell_angle_alpha   59.99999463
_cell_angle_beta   59.99999661
_cell_angle_gamma   60.00000021
_symmetry_Int_Tables_number   1
_chemical_formula_structural   Sc3TiIr2
_chemical_formula_sum   'Sc12 Ti4 Ir8'
_cell_volume   448.63182852
_cell_formula_units_Z   4
loop_
 _symmetry_equiv_pos_site_id
 _symmetry_equiv_pos_as_xyz
  1  'x, y, z'
loop_
 _atom_site_type_symbol
 _atom_site_label
 _atom_site_symmetry_multiplicity
 _atom_site_fract_x
 _atom_site_fract_y
 _atom_site_fract_z
 _atom_site_occupancy
  Sc  Sc0  1  0.810590  0.810590  0.189410  1
  Sc  Sc1  1  0.189410  0.189410  0.810590  1
  Sc  Sc2  1  0.810590  0.189410  0.810590  1
  Sc  Sc3  1  0.189410  0.810590  0.189410  1
  Sc  Sc4  1  0.189410  0.810590  0.810590  1
  Sc  Sc5  1  0.810590  0.189410  0.189410  1
  Sc  Sc6  1  0.439410  0.439410  0.060590  1
  Sc  Sc7  1  0.060590  0.060590  0.439410  1
  Sc  Sc8  1  0.439410  0.060590  0.439410  1
  Sc  Sc9  1  0.060590  0.439410  0.060590  1
  Sc  Sc10  1  0.060590  0.439410  0.439410  1
  Sc  Sc11  1  0.439410  0.060590  0.060590  1
  Ti  Ti12  1  0.125000  0.625000  0.625000  1
  Ti  Ti13  1  0.625000  0.125000  0.625000  1
  Ti  Ti14  1  0.625000  0.625000  0.125000  1
  Ti  Ti15  1  0.625000  0.625000  0.625000  1
  Ir  Ir16  1  0.755271  0.414910  0.414910  1
  Ir  Ir17  1  0.414910  0.755271  0.414910  1
  Ir  Ir18  1  0.414910  0.414910  0.755271  1
  Ir  Ir19  1  0.414910  0.414910  0.414910  1
  Ir  Ir20  1  0.494729  0.835090  0.835090  1
  Ir  Ir21  1  0.835090  0.494729  0.835090  1
  Ir  Ir22  1  0.835090  0.835090  0.494729  1
  Ir  Ir23  1  0.835090  0.835090  0.835090  1
