# generated using pymatgen
data_Y2TaBe2Ir5
_symmetry_space_group_name_H-M   'P 1'
_cell_length_a   9.65427100
_cell_length_b   9.65427100
_cell_length_c   3.22825700
_cell_angle_alpha   90.00000000
_cell_angle_beta   90.00000000
_cell_angle_gamma   90.00000000
_symmetry_Int_Tables_number   1
_chemical_formula_structural   Y2TaBe2Ir5
_chemical_formula_sum   'Y4 Ta2 Be4 Ir10'
_cell_volume   300.88952756
_cell_formula_units_Z   2
loop_
 _symmetry_equiv_pos_site_id
 _symmetry_equiv_pos_as_xyz
  1  'x, y, z'
loop_
 _atom_site_type_symbol
 _atom_site_label
 _atom_site_symmetry_multiplicity
 _atom_site_fract_x
 _atom_site_fract_y
 _atom_site_fract_z
 _atom_site_occupancy
  Y  Y0  1  0.675202  0.175202  0.000000  1
  Y  Y1  1  0.324798  0.824798  0.000000  1
  Y  Y2  1  0.175202  0.324798  0.000000  1
  Y  Y3  1  0.824798  0.675202  0.000000  1
  Ta  Ta4  1  0.000000  0.000000  0.000000  1
  Ta  Ta5  1  0.500000  0.500000  0.000000  1
  Be  Be6  1  0.119862  0.619862  0.000000  1
  Be  Be7  1  0.880138  0.380138  0.000000  1
  Be  Be8  1  0.619862  0.880138  0.000000  1
  Be  Be9  1  0.380138  0.119862  0.000000  1
  Ir  Ir10  1  0.213834  0.068099  0.500000  1
  Ir  Ir11  1  0.786166  0.931901  0.500000  1
  Ir  Ir12  1  0.068099  0.786166  0.500000  1
  Ir  Ir13  1  0.713834  0.431901  0.500000  1
  Ir  Ir14  1  0.931901  0.213834  0.500000  1
  Ir  Ir15  1  0.286166  0.568099  0.500000  1
  Ir  Ir16  1  0.568099  0.713834  0.500000  1
  Ir  Ir17  1  0.431901  0.286166  0.500000  1
  Ir  Ir18  1  0.500000  0.000000  0.500000  1
  Ir  Ir19  1  0.000000  0.500000  0.500000  1
