# generated using pymatgen
data_Tb2Mg3PaIr3
_symmetry_space_group_name_H-M   'P 1'
_cell_length_a   7.50536200
_cell_length_b   7.24895042
_cell_length_c   4.02939500
_cell_angle_alpha   90.00000000
_cell_angle_beta   90.00000000
_cell_angle_gamma   121.17716842
_symmetry_Int_Tables_number   1
_chemical_formula_structural   Tb2Mg3PaIr3
_chemical_formula_sum   'Tb2 Mg3 Pa1 Ir3'
_cell_volume   187.56097379
_cell_formula_units_Z   1
loop_
 _symmetry_equiv_pos_site_id
 _symmetry_equiv_pos_as_xyz
  1  'x, y, z'
loop_
 _atom_site_type_symbol
 _atom_site_label
 _atom_site_symmetry_multiplicity
 _atom_site_fract_x
 _atom_site_fract_y
 _atom_site_fract_z
 _atom_site_occupancy
  Tb  Tb0  1  0.000951  0.593364  0.000000  1
  Tb  Tb1  1  0.407586  0.406636  0.000000  1
  Mg  Mg2  1  0.231929  0.000000  0.500000  1
  Mg  Mg3  1  0.007507  0.253968  0.500000  1
  Mg  Mg4  1  0.753541  0.746032  0.500000  1
  Pa  Pa5  1  0.588968  0.000000  0.000000  1
  Ir  Ir6  1  0.361001  0.697344  0.500000  1
  Ir  Ir7  1  0.663658  0.302656  0.500000  1
  Ir  Ir8  1  0.984858  0.000000  0.000000  1
