# generated using pymatgen
data_LiCa2Pt3
_symmetry_space_group_name_H-M   'P 1'
_cell_length_a   5.55744700
_cell_length_b   5.55744737
_cell_length_c   8.37385600
_cell_angle_alpha   90.00000000
_cell_angle_beta   90.00000000
_cell_angle_gamma   119.99999184
_symmetry_Int_Tables_number   1
_chemical_formula_structural   LiCa2Pt3
_chemical_formula_sum   'Li2 Ca4 Pt6'
_cell_volume   223.97876418
_cell_formula_units_Z   2
loop_
 _symmetry_equiv_pos_site_id
 _symmetry_equiv_pos_as_xyz
  1  'x, y, z'
loop_
 _atom_site_type_symbol
 _atom_site_label
 _atom_site_symmetry_multiplicity
 _atom_site_fract_x
 _atom_site_fract_y
 _atom_site_fract_z
 _atom_site_occupancy
  Li  Li0  1  0.000000  0.000000  0.000000  1
  Li  Li1  1  0.000000  0.000000  0.500000  1
  Ca  Ca2  1  0.333333  0.666666  0.065111  1
  Ca  Ca3  1  0.333333  0.666666  0.434889  1
  Ca  Ca4  1  0.666667  0.333333  0.565112  1
  Ca  Ca5  1  0.666667  0.333333  0.934888  1
  Pt  Pt6  1  0.334458  0.167229  0.250000  1
  Pt  Pt7  1  0.832769  0.167229  0.250000  1
  Pt  Pt8  1  0.832772  0.665543  0.250000  1
  Pt  Pt9  1  0.167230  0.334458  0.750000  1
  Pt  Pt10  1  0.167229  0.832771  0.750000  1
  Pt  Pt11  1  0.665542  0.832771  0.750000  1
