# generated using pymatgen
data_EuTh(AlCu)5
_symmetry_space_group_name_H-M   'P 1'
_cell_length_a   4.13998200
_cell_length_b   5.32506200
_cell_length_c   9.32547300
_cell_angle_alpha   90.00000000
_cell_angle_beta   90.00000000
_cell_angle_gamma   90.00000000
_symmetry_Int_Tables_number   1
_chemical_formula_structural   EuTh(AlCu)5
_chemical_formula_sum   'Eu1 Th1 Al5 Cu5'
_cell_volume   205.58621483
_cell_formula_units_Z   1
loop_
 _symmetry_equiv_pos_site_id
 _symmetry_equiv_pos_as_xyz
  1  'x, y, z'
loop_
 _atom_site_type_symbol
 _atom_site_label
 _atom_site_symmetry_multiplicity
 _atom_site_fract_x
 _atom_site_fract_y
 _atom_site_fract_z
 _atom_site_occupancy
  Eu  Eu0  1  0.000000  0.000000  0.500000  1
  Th  Th1  1  0.000000  0.500000  0.000000  1
  Al  Al2  1  0.500000  0.500000  0.500000  1
  Al  Al3  1  0.500000  0.748421  0.238802  1
  Al  Al4  1  0.500000  0.251579  0.761198  1
  Al  Al5  1  0.500000  0.251579  0.238802  1
  Al  Al6  1  0.500000  0.748421  0.761198  1
  Cu  Cu7  1  0.000000  0.500000  0.332490  1
  Cu  Cu8  1  0.000000  0.000000  0.834602  1
  Cu  Cu9  1  0.000000  0.000000  0.165398  1
  Cu  Cu10  1  0.000000  0.500000  0.667510  1
  Cu  Cu11  1  0.500000  0.000000  0.000000  1
