# generated using pymatgen
data_K6Rb12TlInSb8
_symmetry_space_group_name_H-M   'P 1'
_cell_length_a   10.99468800
_cell_length_b   10.99468877
_cell_length_c   11.56543500
_cell_angle_alpha   90.00000000
_cell_angle_beta   90.00000000
_cell_angle_gamma   119.99999769
_symmetry_Int_Tables_number   1
_chemical_formula_structural   K6Rb12TlInSb8
_chemical_formula_sum   'K6 Rb12 Tl1 In1 Sb8'
_cell_volume   1210.76111240
_cell_formula_units_Z   1
loop_
 _symmetry_equiv_pos_site_id
 _symmetry_equiv_pos_as_xyz
  1  'x, y, z'
loop_
 _atom_site_type_symbol
 _atom_site_label
 _atom_site_symmetry_multiplicity
 _atom_site_fract_x
 _atom_site_fract_y
 _atom_site_fract_z
 _atom_site_occupancy
  K  K0  1  0.118842  0.237683  0.250000  1
  K  K1  1  0.881167  0.118833  0.750000  1
  K  K2  1  0.237666  0.118833  0.750000  1
  K  K3  1  0.762317  0.881158  0.250000  1
  K  K4  1  0.118842  0.881158  0.250000  1
  K  K5  1  0.881167  0.762334  0.750000  1
  Rb  Rb6  1  0.207435  0.414870  0.542964  1
  Rb  Rb7  1  0.792497  0.207503  0.042718  1
  Rb  Rb8  1  0.415007  0.207503  0.042718  1
  Rb  Rb9  1  0.585130  0.792565  0.542964  1
  Rb  Rb10  1  0.207435  0.792565  0.542964  1
  Rb  Rb11  1  0.792497  0.584993  0.457282  1
  Rb  Rb12  1  0.792497  0.207503  0.457282  1
  Rb  Rb13  1  0.792497  0.584993  0.042718  1
  Rb  Rb14  1  0.415007  0.207503  0.457282  1
  Rb  Rb15  1  0.585130  0.792565  0.957036  1
  Rb  Rb16  1  0.207435  0.414870  0.957036  1
  Rb  Rb17  1  0.207435  0.792565  0.957036  1
  Tl  Tl18  1  0.333333  0.666667  0.250000  1
  In  In19  1  0.666667  0.333333  0.750000  1
  Sb  Sb20  1  0.485810  0.514190  0.250000  1
  Sb  Sb21  1  0.966531  0.483266  0.750000  1
  Sb  Sb22  1  0.516734  0.033469  0.750000  1
  Sb  Sb23  1  0.485810  0.971619  0.250000  1
  Sb  Sb24  1  0.028381  0.514190  0.250000  1
  Sb  Sb25  1  0.516734  0.483266  0.750000  1
  Sb  Sb26  1  0.000000  0.000000  0.999995  1
  Sb  Sb27  1  0.000000  0.000000  0.500005  1
