# generated using pymatgen
data_HoTmSi2Tc
_symmetry_space_group_name_H-M   'P 1'
_cell_length_a   5.74477014
_cell_length_b   5.74477095
_cell_length_c   9.99580857
_cell_angle_alpha   63.91370976
_cell_angle_beta   63.91370560
_cell_angle_gamma   42.62471252
_symmetry_Int_Tables_number   1
_chemical_formula_structural   HoTmSi2Tc
_chemical_formula_sum   'Ho2 Tm2 Si4 Tc2'
_cell_volume   196.94548340
_cell_formula_units_Z   2
loop_
 _symmetry_equiv_pos_site_id
 _symmetry_equiv_pos_as_xyz
  1  'x, y, z'
loop_
 _atom_site_type_symbol
 _atom_site_label
 _atom_site_symmetry_multiplicity
 _atom_site_fract_x
 _atom_site_fract_y
 _atom_site_fract_z
 _atom_site_occupancy
  Ho  Ho0  1  0.811756  0.811756  0.109382  1
  Ho  Ho1  1  0.188244  0.188244  0.890618  1
  Tm  Tm2  1  0.004025  0.004025  0.323939  1
  Tm  Tm3  1  0.995975  0.995975  0.676061  1
  Si  Si4  1  0.640188  0.640188  0.440128  1
  Si  Si5  1  0.359812  0.359812  0.559872  1
  Si  Si6  1  0.502224  0.502224  0.122747  1
  Si  Si7  1  0.497776  0.497776  0.877253  1
  Tc  Tc8  1  0.728499  0.728499  0.629638  1
  Tc  Tc9  1  0.271501  0.271501  0.370362  1
