# generated using pymatgen
data_CeNdAlInRh2
_symmetry_space_group_name_H-M   'P 1'
_cell_length_a   4.17341200
_cell_length_b   7.49256900
_cell_length_c   16.60053900
_cell_angle_alpha   90.00000000
_cell_angle_beta   90.00000000
_cell_angle_gamma   90.00000000
_symmetry_Int_Tables_number   1
_chemical_formula_structural   CeNdAlInRh2
_chemical_formula_sum   'Ce4 Nd4 Al4 In4 Rh8'
_cell_volume   519.09183873
_cell_formula_units_Z   4
loop_
 _symmetry_equiv_pos_site_id
 _symmetry_equiv_pos_as_xyz
  1  'x, y, z'
loop_
 _atom_site_type_symbol
 _atom_site_label
 _atom_site_symmetry_multiplicity
 _atom_site_fract_x
 _atom_site_fract_y
 _atom_site_fract_z
 _atom_site_occupancy
  Ce  Ce0  1  0.250000  0.043448  0.786581  1
  Ce  Ce1  1  0.750000  0.956552  0.213419  1
  Ce  Ce2  1  0.250000  0.543448  0.713419  1
  Ce  Ce3  1  0.750000  0.456552  0.286581  1
  Nd  Nd4  1  0.250000  0.172375  0.559258  1
  Nd  Nd5  1  0.750000  0.827625  0.440742  1
  Nd  Nd6  1  0.250000  0.672375  0.940742  1
  Nd  Nd7  1  0.750000  0.327625  0.059258  1
  Al  Al8  1  0.250000  0.005897  0.061042  1
  Al  Al9  1  0.750000  0.994103  0.938958  1
  Al  Al10  1  0.250000  0.505897  0.438958  1
  Al  Al11  1  0.750000  0.494103  0.561042  1
  In  In12  1  0.250000  0.120746  0.350210  1
  In  In13  1  0.750000  0.879254  0.649790  1
  In  In14  1  0.250000  0.620746  0.149790  1
  In  In15  1  0.750000  0.379254  0.850210  1
  Rh  Rh16  1  0.750000  0.300191  0.430226  1
  Rh  Rh17  1  0.250000  0.699809  0.569774  1
  Rh  Rh18  1  0.750000  0.800191  0.069774  1
  Rh  Rh19  1  0.250000  0.199809  0.930226  1
  Rh  Rh20  1  0.750000  0.769789  0.815664  1
  Rh  Rh21  1  0.250000  0.230211  0.184336  1
  Rh  Rh22  1  0.750000  0.269789  0.684336  1
  Rh  Rh23  1  0.250000  0.730211  0.315664  1
