# generated using pymatgen
data_ErTi2ZnAu3
_symmetry_space_group_name_H-M   'P 1'
_cell_length_a   5.64799598
_cell_length_b   5.64799597
_cell_length_c   5.60997746
_cell_angle_alpha   101.82248486
_cell_angle_beta   101.82247428
_cell_angle_gamma   126.37004952
_symmetry_Int_Tables_number   1
_chemical_formula_structural   ErTi2ZnAu3
_chemical_formula_sum   'Er1 Ti2 Zn1 Au3'
_cell_volume   128.37856901
_cell_formula_units_Z   1
loop_
 _symmetry_equiv_pos_site_id
 _symmetry_equiv_pos_as_xyz
  1  'x, y, z'
loop_
 _atom_site_type_symbol
 _atom_site_label
 _atom_site_symmetry_multiplicity
 _atom_site_fract_x
 _atom_site_fract_y
 _atom_site_fract_z
 _atom_site_occupancy
  Er  Er0  1  0.001147  0.998853  0.000000  1
  Ti  Ti1  1  0.249116  0.750884  0.500000  1
  Ti  Ti2  1  0.749116  0.250884  0.500000  1
  Zn  Zn3  1  0.306618  0.693382  0.000000  1
  Au  Au4  1  0.306454  0.315456  0.621911  1
  Au  Au5  1  0.684544  0.693546  0.378089  1
  Au  Au6  1  0.703005  0.296995  0.000000  1
