# generated using pymatgen
data_Sc4Ni5P6Ir
_symmetry_space_group_name_H-M   'P 1'
_cell_length_a   3.67174800
_cell_length_b   10.08354200
_cell_length_c   12.30864400
_cell_angle_alpha   90.00000000
_cell_angle_beta   90.00000000
_cell_angle_gamma   90.00000000
_symmetry_Int_Tables_number   1
_chemical_formula_structural   Sc4Ni5P6Ir
_chemical_formula_sum   'Sc8 Ni10 P12 Ir2'
_cell_volume   455.71800701
_cell_formula_units_Z   2
loop_
 _symmetry_equiv_pos_site_id
 _symmetry_equiv_pos_as_xyz
  1  'x, y, z'
loop_
 _atom_site_type_symbol
 _atom_site_label
 _atom_site_symmetry_multiplicity
 _atom_site_fract_x
 _atom_site_fract_y
 _atom_site_fract_z
 _atom_site_occupancy
  Sc  Sc0  1  0.250000  0.341457  0.996561  1
  Sc  Sc1  1  0.250000  0.158543  0.496561  1
  Sc  Sc2  1  0.750000  0.656849  0.003631  1
  Sc  Sc3  1  0.750000  0.843151  0.503631  1
  Sc  Sc4  1  0.250000  0.425995  0.713755  1
  Sc  Sc5  1  0.250000  0.074005  0.213755  1
  Sc  Sc6  1  0.750000  0.570443  0.285087  1
  Sc  Sc7  1  0.750000  0.929557  0.785087  1
  Ni  Ni8  1  0.750000  0.098924  0.021024  1
  Ni  Ni9  1  0.750000  0.401076  0.521024  1
  Ni  Ni10  1  0.250000  0.135716  0.715939  1
  Ni  Ni11  1  0.250000  0.364284  0.215939  1
  Ni  Ni12  1  0.750000  0.868157  0.282629  1
  Ni  Ni13  1  0.750000  0.631843  0.782629  1
  Ni  Ni14  1  0.250000  0.767106  0.169148  1
  Ni  Ni15  1  0.250000  0.732894  0.669148  1
  Ni  Ni16  1  0.750000  0.225624  0.834263  1
  Ni  Ni17  1  0.750000  0.274376  0.334263  1
  P  P18  1  0.250000  0.107859  0.893563  1
  P  P19  1  0.250000  0.392141  0.393563  1
  P  P20  1  0.750000  0.898249  0.105499  1
  P  P21  1  0.750000  0.601751  0.605499  1
  P  P22  1  0.250000  0.732810  0.851399  1
  P  P23  1  0.250000  0.767190  0.351399  1
  P  P24  1  0.750000  0.263239  0.146022  1
  P  P25  1  0.750000  0.236761  0.646022  1
  P  P26  1  0.250000  0.553614  0.125573  1
  P  P27  1  0.250000  0.946386  0.625573  1
  P  P28  1  0.750000  0.443174  0.874291  1
  P  P29  1  0.750000  0.056826  0.374291  1
  Ir  Ir30  1  0.250000  0.904358  0.981616  1
  Ir  Ir31  1  0.250000  0.595642  0.481616  1
