# generated using pymatgen
data_Sc2Al6(GaIr)3
_symmetry_space_group_name_H-M   'P 1'
_cell_length_a   7.44884173
_cell_length_b   7.44884203
_cell_length_c   9.42439800
_cell_angle_alpha   90.00000000
_cell_angle_beta   90.00000000
_cell_angle_gamma   119.79377530
_symmetry_Int_Tables_number   1
_chemical_formula_structural   Sc2Al6(GaIr)3
_chemical_formula_sum   'Sc4 Al12 Ga6 Ir6'
_cell_volume   453.79583336
_cell_formula_units_Z   2
loop_
 _symmetry_equiv_pos_site_id
 _symmetry_equiv_pos_as_xyz
  1  'x, y, z'
loop_
 _atom_site_type_symbol
 _atom_site_label
 _atom_site_symmetry_multiplicity
 _atom_site_fract_x
 _atom_site_fract_y
 _atom_site_fract_z
 _atom_site_occupancy
  Sc  Sc0  1  0.997345  0.670921  0.250000  1
  Sc  Sc1  1  0.002655  0.329079  0.750000  1
  Sc  Sc2  1  0.670921  0.997345  0.250000  1
  Sc  Sc3  1  0.329079  0.002655  0.750000  1
  Al  Al4  1  0.999433  0.334346  0.075405  1
  Al  Al5  1  0.000567  0.665654  0.924595  1
  Al  Al6  1  0.000567  0.665654  0.575405  1
  Al  Al7  1  0.334346  0.999433  0.424595  1
  Al  Al8  1  0.999433  0.334346  0.424595  1
  Al  Al9  1  0.665654  0.000567  0.575405  1
  Al  Al10  1  0.665654  0.000567  0.924595  1
  Al  Al11  1  0.334346  0.999433  0.075405  1
  Al  Al12  1  0.332113  0.332113  0.561880  1
  Al  Al13  1  0.667887  0.667887  0.438120  1
  Al  Al14  1  0.667887  0.667887  0.061880  1
  Al  Al15  1  0.332113  0.332113  0.938120  1
  Ga  Ga16  1  0.125282  0.125282  0.250000  1
  Ga  Ga17  1  0.874718  0.874718  0.750000  1
  Ga  Ga18  1  0.339486  0.551581  0.250000  1
  Ga  Ga19  1  0.660514  0.448419  0.750000  1
  Ga  Ga20  1  0.551581  0.339486  0.250000  1
  Ga  Ga21  1  0.448419  0.660514  0.750000  1
  Ir  Ir22  1  0.672276  0.327724  0.000000  1
  Ir  Ir23  1  0.327724  0.672276  0.000000  1
  Ir  Ir24  1  0.327724  0.672276  0.500000  1
  Ir  Ir25  1  0.672276  0.327724  0.500000  1
  Ir  Ir26  1  0.000000  0.000000  0.000000  1
  Ir  Ir27  1  0.000000  0.000000  0.500000  1
