# generated using pymatgen
data_Ho4TcOs6W
_symmetry_space_group_name_H-M   'P 1'
_cell_length_a   5.24180082
_cell_length_b   5.24180049
_cell_length_c   8.94306200
_cell_angle_alpha   90.00000000
_cell_angle_beta   90.00000000
_cell_angle_gamma   116.41204888
_symmetry_Int_Tables_number   1
_chemical_formula_structural   Ho4TcOs6W
_chemical_formula_sum   'Ho4 Tc1 Os6 W1'
_cell_volume   220.07472693
_cell_formula_units_Z   1
loop_
 _symmetry_equiv_pos_site_id
 _symmetry_equiv_pos_as_xyz
  1  'x, y, z'
loop_
 _atom_site_type_symbol
 _atom_site_label
 _atom_site_symmetry_multiplicity
 _atom_site_fract_x
 _atom_site_fract_y
 _atom_site_fract_z
 _atom_site_occupancy
  Ho  Ho0  1  0.328873  0.671127  0.437157  1
  Ho  Ho1  1  0.667225  0.332775  0.564960  1
  Ho  Ho2  1  0.667225  0.332775  0.935040  1
  Ho  Ho3  1  0.328873  0.671127  0.062843  1
  Tc  Tc4  1  0.175297  0.824703  0.750000  1
  Os  Os5  1  0.995061  0.004939  0.502298  1
  Os  Os6  1  0.995061  0.004939  0.997702  1
  Os  Os7  1  0.826695  0.651460  0.250000  1
  Os  Os8  1  0.348540  0.173305  0.250000  1
  Os  Os9  1  0.172667  0.340905  0.750000  1
  Os  Os10  1  0.659095  0.827333  0.750000  1
  W  W11  1  0.835386  0.164614  0.250000  1
