# generated using pymatgen
data_Dy3In3CuHgRh
_symmetry_space_group_name_H-M   'P 1'
_cell_length_a   7.73429700
_cell_length_b   7.73429666
_cell_length_c   3.89038800
_cell_angle_alpha   90.00000000
_cell_angle_beta   90.00000000
_cell_angle_gamma   120.00000574
_symmetry_Int_Tables_number   1
_chemical_formula_structural   Dy3In3CuHgRh
_chemical_formula_sum   'Dy3 In3 Cu1 Hg1 Rh1'
_cell_volume   201.54182863
_cell_formula_units_Z   1
loop_
 _symmetry_equiv_pos_site_id
 _symmetry_equiv_pos_as_xyz
  1  'x, y, z'
loop_
 _atom_site_type_symbol
 _atom_site_label
 _atom_site_symmetry_multiplicity
 _atom_site_fract_x
 _atom_site_fract_y
 _atom_site_fract_z
 _atom_site_occupancy
  Dy  Dy0  1  0.395991  0.973040  0.500000  1
  Dy  Dy1  1  0.026960  0.422951  0.500000  1
  Dy  Dy2  1  0.577049  0.604009  0.500000  1
  In  In3  1  0.749548  0.995126  0.000000  1
  In  In4  1  0.004874  0.754422  0.000000  1
  In  In5  1  0.245578  0.250452  0.000000  1
  Cu  Cu6  1  0.000000  0.000000  0.500000  1
  Hg  Hg7  1  0.666667  0.333333  0.000000  1
  Rh  Rh8  1  0.333333  0.666667  0.000000  1
