# generated using pymatgen
data_Hf10CuSn5Sb2
_symmetry_space_group_name_H-M   'P 1'
_cell_length_a   5.86923312
_cell_length_b   8.66721064
_cell_length_c   8.66909613
_cell_angle_alpha   119.99281016
_cell_angle_beta   90.00889597
_cell_angle_gamma   89.98219842
_symmetry_Int_Tables_number   1
_chemical_formula_structural   Hf10CuSn5Sb2
_chemical_formula_sum   'Hf10 Cu1 Sn5 Sb2'
_cell_volume   381.94128046
_cell_formula_units_Z   1
loop_
 _symmetry_equiv_pos_site_id
 _symmetry_equiv_pos_as_xyz
  1  'x, y, z'
loop_
 _atom_site_type_symbol
 _atom_site_label
 _atom_site_symmetry_multiplicity
 _atom_site_fract_x
 _atom_site_fract_y
 _atom_site_fract_z
 _atom_site_occupancy
  Hf  Hf0  1  0.499608  0.333772  0.667112  1
  Hf  Hf1  1  0.499608  0.666660  0.332888  1
  Hf  Hf2  1  0.000233  0.666695  0.332887  1
  Hf  Hf3  1  0.000233  0.333808  0.667113  1
  Hf  Hf4  1  0.733529  0.272493  0.000000  1
  Hf  Hf5  1  0.733639  0.728056  0.728766  1
  Hf  Hf6  1  0.733639  0.999290  0.271234  1
  Hf  Hf7  1  0.266827  0.727166  0.000000  1
  Hf  Hf8  1  0.266818  0.272367  0.272315  1
  Hf  Hf9  1  0.266818  0.000052  0.727685  1
  Cu  Cu10  1  0.498985  0.000825  0.000000  1
  Sn  Sn11  1  0.754083  0.387255  0.387222  1
  Sn  Sn12  1  0.754083  0.000033  0.612778  1
  Sn  Sn13  1  0.245775  0.385971  0.000000  1
  Sn  Sn14  1  0.246312  0.613031  0.612453  1
  Sn  Sn15  1  0.246312  0.000578  0.387547  1
  Sb  Sb16  1  0.752760  0.611738  0.000000  1
  Sb  Sb17  1  0.000738  0.000211  0.000000  1
