# generated using pymatgen
data_Sm3Mg2CdSn2Pt
_symmetry_space_group_name_H-M   'P 1'
_cell_length_a   7.50112105
_cell_length_b   7.55304898
_cell_length_c   4.58080600
_cell_angle_alpha   90.00000000
_cell_angle_beta   90.00000000
_cell_angle_gamma   120.22926851
_symmetry_Int_Tables_number   1
_chemical_formula_structural   Sm3Mg2CdSn2Pt
_chemical_formula_sum   'Sm3 Mg2 Cd1 Sn2 Pt1'
_cell_volume   224.23997144
_cell_formula_units_Z   1
loop_
 _symmetry_equiv_pos_site_id
 _symmetry_equiv_pos_as_xyz
  1  'x, y, z'
loop_
 _atom_site_type_symbol
 _atom_site_label
 _atom_site_symmetry_multiplicity
 _atom_site_fract_x
 _atom_site_fract_y
 _atom_site_fract_z
 _atom_site_occupancy
  Sm  Sm0  1  0.603528  0.602165  0.000000  1
  Sm  Sm1  1  0.396472  0.998638  0.000000  1
  Sm  Sm2  1  0.000000  0.400758  0.000000  1
  Mg  Mg3  1  0.227852  0.227107  0.500000  1
  Mg  Mg4  1  0.772148  0.999255  0.500000  1
  Cd  Cd5  1  0.000000  0.764747  0.500000  1
  Sn  Sn6  1  0.336183  0.665499  0.500000  1
  Sn  Sn7  1  0.663817  0.329315  0.500000  1
  Pt  Pt8  1  0.000000  0.012516  0.000000  1
