# generated using pymatgen
data_Ho12TlCo4Cu
_symmetry_space_group_name_H-M   'P 1'
_cell_length_a   8.28396116
_cell_length_b   8.28387740
_cell_length_c   8.28396300
_cell_angle_alpha   111.32200042
_cell_angle_beta   110.39598349
_cell_angle_gamma   106.73175568
_symmetry_Int_Tables_number   1
_chemical_formula_structural   Ho12TlCo4Cu
_chemical_formula_sum   'Ho12 Tl1 Co4 Cu1'
_cell_volume   436.83268430
_cell_formula_units_Z   1
loop_
 _symmetry_equiv_pos_site_id
 _symmetry_equiv_pos_as_xyz
  1  'x, y, z'
loop_
 _atom_site_type_symbol
 _atom_site_label
 _atom_site_symmetry_multiplicity
 _atom_site_fract_x
 _atom_site_fract_y
 _atom_site_fract_z
 _atom_site_occupancy
  Ho  Ho0  1  0.813607  0.707904  0.521509  1
  Ho  Ho1  1  0.186393  0.292096  0.478491  1
  Ho  Ho2  1  0.186396  0.707904  0.894297  1
  Ho  Ho3  1  0.813604  0.292096  0.105703  1
  Ho  Ho4  1  0.685090  0.379444  0.694355  1
  Ho  Ho5  1  0.314910  0.620556  0.305645  1
  Ho  Ho6  1  0.685087  0.990737  0.305651  1
  Ho  Ho7  1  0.314913  0.009263  0.694349  1
  Ho  Ho8  1  0.586150  0.785081  0.801066  1
  Ho  Ho9  1  0.413850  0.214919  0.198934  1
  Ho  Ho10  1  0.984015  0.785081  0.198930  1
  Ho  Ho11  1  0.015985  0.214919  0.801070  1
  Tl  Tl12  1  0.500000  0.500000  0.000000  1
  Co  Co13  1  0.622864  0.000000  0.622864  1
  Co  Co14  1  0.377136  0.000000  0.377136  1
  Co  Co15  1  0.112352  0.612351  0.500001  1
  Co  Co16  1  0.887648  0.387649  0.499999  1
  Cu  Cu17  1  0.000000  0.000000  0.000000  1
