# generated using pymatgen
data_LuZrRe4
_symmetry_space_group_name_H-M   'P 1'
_cell_length_a   5.35135700
_cell_length_b   5.35135802
_cell_length_c   8.70932100
_cell_angle_alpha   90.00000000
_cell_angle_beta   90.00000000
_cell_angle_gamma   119.99999985
_symmetry_Int_Tables_number   1
_chemical_formula_structural   LuZrRe4
_chemical_formula_sum   'Lu2 Zr2 Re8'
_cell_volume   215.99458441
_cell_formula_units_Z   2
loop_
 _symmetry_equiv_pos_site_id
 _symmetry_equiv_pos_as_xyz
  1  'x, y, z'
loop_
 _atom_site_type_symbol
 _atom_site_label
 _atom_site_symmetry_multiplicity
 _atom_site_fract_x
 _atom_site_fract_y
 _atom_site_fract_z
 _atom_site_occupancy
  Lu  Lu0  1  0.666667  0.333333  0.562754  1
  Lu  Lu1  1  0.333333  0.666667  0.062754  1
  Zr  Zr2  1  0.333333  0.666667  0.436820  1
  Zr  Zr3  1  0.666667  0.333333  0.936820  1
  Re  Re4  1  0.657277  0.828639  0.749968  1
  Re  Re5  1  0.342723  0.171361  0.249968  1
  Re  Re6  1  0.828639  0.171361  0.249968  1
  Re  Re7  1  0.171361  0.342723  0.749968  1
  Re  Re8  1  0.171361  0.828639  0.749968  1
  Re  Re9  1  0.828639  0.657277  0.249968  1
  Re  Re10  1  0.000000  0.000000  0.500523  1
  Re  Re11  1  0.000000  0.000000  0.000523  1
