# generated using pymatgen
data_LiEr15TmIn3Rh4
_symmetry_space_group_name_H-M   'P 1'
_cell_length_a   9.53749199
_cell_length_b   9.56664348
_cell_length_c   9.53782100
_cell_angle_alpha   60.09960955
_cell_angle_beta   59.99885538
_cell_angle_gamma   60.08706195
_symmetry_Int_Tables_number   1
_chemical_formula_structural   LiEr15TmIn3Rh4
_chemical_formula_sum   'Li1 Er15 Tm1 In3 Rh4'
_cell_volume   616.21947283
_cell_formula_units_Z   1
loop_
 _symmetry_equiv_pos_site_id
 _symmetry_equiv_pos_as_xyz
  1  'x, y, z'
loop_
 _atom_site_type_symbol
 _atom_site_label
 _atom_site_symmetry_multiplicity
 _atom_site_fract_x
 _atom_site_fract_y
 _atom_site_fract_z
 _atom_site_occupancy
  Li  Li0  1  0.427036  0.718882  0.427040  1
  Er  Er1  1  0.436855  0.062260  0.063861  1
  Er  Er2  1  0.436855  0.062260  0.437025  1
  Er  Er3  1  0.063269  0.436024  0.063171  1
  Er  Er4  1  0.649291  0.051995  0.649357  1
  Er  Er5  1  0.185575  0.815338  0.813628  1
  Er  Er6  1  0.063943  0.062218  0.436919  1
  Er  Er7  1  0.811007  0.189905  0.188200  1
  Er  Er8  1  0.813631  0.815232  0.185568  1
  Er  Er9  1  0.650879  0.649167  0.049051  1
  Er  Er10  1  0.650879  0.649167  0.650904  1
  Er  Er11  1  0.063269  0.436024  0.437537  1
  Er  Er12  1  0.049115  0.649099  0.650893  1
  Er  Er13  1  0.811007  0.189905  0.810886  1
  Er  Er14  1  0.437438  0.436055  0.063254  1
  Er  Er15  1  0.185575  0.815338  0.185459  1
  Tm  Tm16  1  0.188255  0.189852  0.810946  1
  In  In17  1  0.416270  0.421087  0.746316  1
  In  In18  1  0.746293  0.421078  0.416314  1
  In  In19  1  0.416270  0.421087  0.416327  1
  Rh  Rh20  1  0.856687  0.430215  0.856549  1
  Rh  Rh21  1  0.856391  0.859213  0.427993  1
  Rh  Rh22  1  0.427816  0.859391  0.856396  1
  Rh  Rh23  1  0.856391  0.859213  0.856403  1
