# generated using pymatgen
data_RbPaCl4O
_symmetry_space_group_name_H-M   'P 1'
_cell_length_a   7.42262097
_cell_length_b   7.42262167
_cell_length_c   8.08304221
_cell_angle_alpha   108.65185139
_cell_angle_beta   108.65185361
_cell_angle_gamma   32.90952739
_symmetry_Int_Tables_number   1
_chemical_formula_structural   RbPaCl4O
_chemical_formula_sum   'Rb1 Pa1 Cl4 O1'
_cell_volume   228.10830136
_cell_formula_units_Z   1
loop_
 _symmetry_equiv_pos_site_id
 _symmetry_equiv_pos_as_xyz
  1  'x, y, z'
loop_
 _atom_site_type_symbol
 _atom_site_label
 _atom_site_symmetry_multiplicity
 _atom_site_fract_x
 _atom_site_fract_y
 _atom_site_fract_z
 _atom_site_occupancy
  Rb  Rb0  1  0.996946  0.003055  0.500000  1
  Pa  Pa1  1  0.501627  0.498374  0.000000  1
  Cl  Cl2  1  0.368843  0.369572  0.161973  1
  Cl  Cl3  1  0.633581  0.633650  0.313853  1
  Cl  Cl4  1  0.366350  0.366419  0.686147  1
  Cl  Cl5  1  0.630429  0.631157  0.838027  1
  O  O6  1  0.001516  0.998484  0.000000  1
