# generated using pymatgen
data_TbDy7Ta3Ti8Si16Ru
_symmetry_space_group_name_H-M   'P 1'
_cell_length_a   7.03079735
_cell_length_b   7.03117103
_cell_length_c   12.92388312
_cell_angle_alpha   90.07985577
_cell_angle_beta   89.90824715
_cell_angle_gamma   89.76598546
_symmetry_Int_Tables_number   1
_chemical_formula_structural   TbDy7Ta3Ti8Si16Ru
_chemical_formula_sum   'Tb1 Dy7 Ta3 Ti8 Si16 Ru1'
_cell_volume   638.88200988
_cell_formula_units_Z   1
loop_
 _symmetry_equiv_pos_site_id
 _symmetry_equiv_pos_as_xyz
  1  'x, y, z'
loop_
 _atom_site_type_symbol
 _atom_site_label
 _atom_site_symmetry_multiplicity
 _atom_site_fract_x
 _atom_site_fract_y
 _atom_site_fract_z
 _atom_site_occupancy
  Tb  Tb0  1  0.998674  0.659082  0.031590  1
  Dy  Dy1  1  0.340075  0.003126  0.467906  1
  Dy  Dy2  1  0.497250  0.840848  0.718259  1
  Dy  Dy3  1  0.501173  0.159881  0.215708  1
  Dy  Dy4  1  0.840846  0.497270  0.281815  1
  Dy  Dy5  1  0.159938  0.501166  0.784222  1
  Dy  Dy6  1  0.658879  0.998979  0.968262  1
  Dy  Dy7  1  0.003145  0.340105  0.532165  1
  Ta  Ta8  1  0.174672  0.827178  0.248221  1
  Ta  Ta9  1  0.827128  0.174613  0.751844  1
  Ta  Ta10  1  0.674481  0.674459  0.500014  1
  Ti  Ti11  1  0.149974  0.004468  0.875056  1
  Ti  Ti12  1  0.491051  0.657344  0.126313  1
  Ti  Ti13  1  0.509496  0.347678  0.628326  1
  Ti  Ti14  1  0.657269  0.490969  0.873637  1
  Ti  Ti15  1  0.347690  0.509492  0.371727  1
  Ti  Ti16  1  0.846534  0.991775  0.375473  1
  Ti  Ti17  1  0.004427  0.150027  0.124878  1
  Ti  Ti18  1  0.991711  0.846534  0.624558  1
  Si  Si19  1  0.201746  0.130735  0.685530  1
  Si  Si20  1  0.374038  0.698267  0.934828  1
  Si  Si21  1  0.630201  0.298023  0.435253  1
  Si  Si22  1  0.698004  0.373601  0.065063  1
  Si  Si23  1  0.297997  0.630206  0.564802  1
  Si  Si24  1  0.797874  0.868886  0.184985  1
  Si  Si25  1  0.130808  0.201747  0.314479  1
  Si  Si26  1  0.868745  0.798125  0.815058  1
  Si  Si27  1  0.288247  0.954618  0.062856  1
  Si  Si28  1  0.546817  0.793417  0.315288  1
  Si  Si29  1  0.450223  0.209053  0.817811  1
  Si  Si30  1  0.793405  0.546878  0.684711  1
  Si  Si31  1  0.209219  0.450099  0.182310  1
  Si  Si32  1  0.707787  0.047424  0.565094  1
  Si  Si33  1  0.954393  0.287731  0.937011  1
  Si  Si34  1  0.047425  0.707747  0.434954  1
  Ru  Ru35  1  0.328655  0.328443  0.999992  1
