# generated using pymatgen
data_Sr7TaRu3O19
_symmetry_space_group_name_H-M   'P 1'
_cell_length_a   7.44322489
_cell_length_b   7.44322394
_cell_length_c   10.51912069
_cell_angle_alpha   82.17333026
_cell_angle_beta   82.17333644
_cell_angle_gamma   44.77450989
_symmetry_Int_Tables_number   1
_chemical_formula_structural   Sr7TaRu3O19
_chemical_formula_sum   'Sr7 Ta1 Ru3 O19'
_cell_volume   405.98396602
_cell_formula_units_Z   1
loop_
 _symmetry_equiv_pos_site_id
 _symmetry_equiv_pos_as_xyz
  1  'x, y, z'
loop_
 _atom_site_type_symbol
 _atom_site_label
 _atom_site_symmetry_multiplicity
 _atom_site_fract_x
 _atom_site_fract_y
 _atom_site_fract_z
 _atom_site_occupancy
  Sr  Sr0  1  0.862662  0.862662  0.950264  1
  Sr  Sr1  1  0.417013  0.417016  0.167765  1
  Sr  Sr2  1  0.800839  0.800839  0.589167  1
  Sr  Sr3  1  0.205618  0.205618  0.410694  1
  Sr  Sr4  1  0.580072  0.580069  0.832053  1
  Sr  Sr5  1  0.138024  0.138024  0.050099  1
  Sr  Sr6  1  0.495263  0.495263  0.499101  1
  Ta  Ta7  1  0.961792  0.961792  0.317821  1
  Ru  Ru8  1  0.326161  0.326160  0.787470  1
  Ru  Ru9  1  0.672613  0.672614  0.215380  1
  Ru  Ru10  1  0.037140  0.037140  0.677194  1
  O  O11  1  0.685590  0.171869  0.712831  1
  O  O12  1  0.171869  0.685591  0.712831  1
  O  O13  1  0.398593  0.398593  0.931349  1
  O  O14  1  0.953558  0.953558  0.137164  1
  O  O15  1  0.620556  0.123117  0.378101  1
  O  O16  1  0.123116  0.620557  0.378102  1
  O  O17  1  0.296710  0.296710  0.623698  1
  O  O18  1  0.000732  0.479743  0.851693  1
  O  O19  1  0.479743  0.000733  0.851693  1
  O  O20  1  0.520152  0.997199  0.148722  1
  O  O21  1  0.997200  0.520152  0.148722  1
  O  O22  1  0.700138  0.700138  0.378947  1
  O  O23  1  0.371098  0.884115  0.627876  1
  O  O24  1  0.884116  0.371097  0.627875  1
  O  O25  1  0.049122  0.049122  0.853293  1
  O  O26  1  0.601711  0.601711  0.069864  1
  O  O27  1  0.826460  0.318576  0.284482  1
  O  O28  1  0.318577  0.826460  0.284482  1
  O  O29  1  0.003761  0.003761  0.501268  1
