# generated using pymatgen
data_Dy8Sc11Si16Ru
_symmetry_space_group_name_H-M   'P 1'
_cell_length_a   7.01072961
_cell_length_b   7.36192065
_cell_length_c   13.90880100
_cell_angle_alpha   90.00000000
_cell_angle_beta   90.00000000
_cell_angle_gamma   90.07718743
_symmetry_Int_Tables_number   1
_chemical_formula_structural   Dy8Sc11Si16Ru
_chemical_formula_sum   'Dy8 Sc11 Si16 Ru1'
_cell_volume   717.86643731
_cell_formula_units_Z   1
loop_
 _symmetry_equiv_pos_site_id
 _symmetry_equiv_pos_as_xyz
  1  'x, y, z'
loop_
 _atom_site_type_symbol
 _atom_site_label
 _atom_site_symmetry_multiplicity
 _atom_site_fract_x
 _atom_site_fract_y
 _atom_site_fract_z
 _atom_site_occupancy
  Dy  Dy0  1  0.011458  0.177470  0.093686  1
  Dy  Dy1  1  0.992934  0.818454  0.900860  1
  Dy  Dy2  1  0.488739  0.672640  0.901745  1
  Dy  Dy3  1  0.992934  0.818454  0.599140  1
  Dy  Dy4  1  0.510969  0.324037  0.095126  1
  Dy  Dy5  1  0.011458  0.177470  0.406314  1
  Dy  Dy6  1  0.510969  0.324037  0.404874  1
  Dy  Dy7  1  0.488739  0.672640  0.598255  1
  Sc  Sc8  1  0.840474  0.496307  0.250000  1
  Sc  Sc9  1  0.340912  0.003069  0.250000  1
  Sc  Sc10  1  0.658381  0.996973  0.750000  1
  Sc  Sc11  1  0.326483  0.177780  0.626951  1
  Sc  Sc12  1  0.671478  0.824346  0.374694  1
  Sc  Sc13  1  0.171831  0.674650  0.376324  1
  Sc  Sc14  1  0.671478  0.824346  0.125306  1
  Sc  Sc15  1  0.827584  0.330738  0.627954  1
  Sc  Sc16  1  0.326483  0.177780  0.873049  1
  Sc  Sc17  1  0.827584  0.330738  0.872046  1
  Sc  Sc18  1  0.171831  0.674650  0.123676  1
  Si  Si19  1  0.030182  0.118602  0.750000  1
  Si  Si20  1  0.971633  0.885037  0.250000  1
  Si  Si21  1  0.468240  0.616325  0.250000  1
  Si  Si22  1  0.517661  0.393670  0.750000  1
  Si  Si23  1  0.285801  0.866311  0.750000  1
  Si  Si24  1  0.715614  0.128337  0.250000  1
  Si  Si25  1  0.214357  0.371821  0.250000  1
  Si  Si26  1  0.795124  0.628417  0.750000  1
  Si  Si27  1  0.157041  0.465070  0.546160  1
  Si  Si28  1  0.843397  0.535831  0.463089  1
  Si  Si29  1  0.345121  0.964579  0.463178  1
  Si  Si30  1  0.843397  0.535831  0.036911  1
  Si  Si31  1  0.658435  0.034401  0.539906  1
  Si  Si32  1  0.157041  0.465070  0.953840  1
  Si  Si33  1  0.658435  0.034401  0.960094  1
  Si  Si34  1  0.345121  0.964579  0.036822  1
  Ru  Ru35  1  0.150680  0.495140  0.750000  1
