# generated using pymatgen
data_Ta3GaAuN
_symmetry_space_group_name_H-M   'P 1'
_cell_length_a   7.08754700
_cell_length_b   7.08754700
_cell_length_c   7.08754700
_cell_angle_alpha   90.00000000
_cell_angle_beta   90.00000000
_cell_angle_gamma   90.00000000
_symmetry_Int_Tables_number   1
_chemical_formula_structural   Ta3GaAuN
_chemical_formula_sum   'Ta12 Ga4 Au4 N4'
_cell_volume   356.03103402
_cell_formula_units_Z   4
loop_
 _symmetry_equiv_pos_site_id
 _symmetry_equiv_pos_as_xyz
  1  'x, y, z'
loop_
 _atom_site_type_symbol
 _atom_site_label
 _atom_site_symmetry_multiplicity
 _atom_site_fract_x
 _atom_site_fract_y
 _atom_site_fract_z
 _atom_site_occupancy
  Ta  Ta0  1  0.785984  0.955365  0.377577  1
  Ta  Ta1  1  0.714016  0.044635  0.877577  1
  Ta  Ta2  1  0.214016  0.455365  0.122423  1
  Ta  Ta3  1  0.285984  0.544635  0.622423  1
  Ta  Ta4  1  0.955365  0.377577  0.785984  1
  Ta  Ta5  1  0.044635  0.877577  0.714016  1
  Ta  Ta6  1  0.455365  0.122423  0.214016  1
  Ta  Ta7  1  0.544635  0.622423  0.285984  1
  Ta  Ta8  1  0.377577  0.785984  0.955365  1
  Ta  Ta9  1  0.877577  0.714016  0.044635  1
  Ta  Ta10  1  0.122423  0.214016  0.455365  1
  Ta  Ta11  1  0.622423  0.285984  0.544635  1
  Ga  Ga12  1  0.570111  0.429889  0.929889  1
  Ga  Ga13  1  0.429889  0.929889  0.570111  1
  Ga  Ga14  1  0.929889  0.570111  0.429889  1
  Ga  Ga15  1  0.070111  0.070111  0.070111  1
  Au  Au16  1  0.181223  0.818777  0.318777  1
  Au  Au17  1  0.318777  0.181223  0.818777  1
  Au  Au18  1  0.818777  0.318777  0.181223  1
  Au  Au19  1  0.681223  0.681223  0.681223  1
  N  N20  1  0.875979  0.124021  0.624021  1
  N  N21  1  0.624021  0.875979  0.124021  1
  N  N22  1  0.124021  0.624021  0.875979  1
  N  N23  1  0.375979  0.375979  0.375979  1
