# generated using pymatgen
data_TlInBi6(MoO6)4
_symmetry_space_group_name_H-M   'P 1'
_cell_length_a   10.45715184
_cell_length_b   10.45715320
_cell_length_c   5.49811064
_cell_angle_alpha   77.58882767
_cell_angle_beta   77.58883208
_cell_angle_gamma   68.77525200
_symmetry_Int_Tables_number   1
_chemical_formula_structural   TlInBi6(MoO6)4
_chemical_formula_sum   'Tl1 In1 Bi6 Mo4 O24'
_cell_volume   541.10545737
_cell_formula_units_Z   1
loop_
 _symmetry_equiv_pos_site_id
 _symmetry_equiv_pos_as_xyz
  1  'x, y, z'
loop_
 _atom_site_type_symbol
 _atom_site_label
 _atom_site_symmetry_multiplicity
 _atom_site_fract_x
 _atom_site_fract_y
 _atom_site_fract_z
 _atom_site_occupancy
  Tl  Tl0  1  0.097456  0.902544  0.750000  1
  In  In1  1  0.906429  0.093571  0.250000  1
  Bi  Bi2  1  0.724827  0.960502  0.938573  1
  Bi  Bi3  1  0.274504  0.043596  0.061159  1
  Bi  Bi4  1  0.039498  0.275173  0.561427  1
  Bi  Bi5  1  0.956404  0.725496  0.438841  1
  Bi  Bi6  1  0.662592  0.337408  0.750000  1
  Bi  Bi7  1  0.341069  0.658931  0.250000  1
  Mo  Mo8  1  0.539042  0.797207  0.572909  1
  Mo  Mo9  1  0.460839  0.202681  0.428468  1
  Mo  Mo10  1  0.202793  0.460958  0.927091  1
  Mo  Mo11  1  0.797319  0.539161  0.071532  1
  O  O12  1  0.551855  0.638349  0.776628  1
  O  O13  1  0.448523  0.361263  0.224497  1
  O  O14  1  0.361651  0.448145  0.723372  1
  O  O15  1  0.638737  0.551477  0.275503  1
  O  O16  1  0.887049  0.935469  0.586192  1
  O  O17  1  0.106585  0.068657  0.403706  1
  O  O18  1  0.064531  0.112951  0.913808  1
  O  O19  1  0.931343  0.893415  0.096294  1
  O  O20  1  0.598898  0.169459  0.620265  1
  O  O21  1  0.400335  0.829860  0.383341  1
  O  O22  1  0.830541  0.401102  0.879735  1
  O  O23  1  0.170140  0.599665  0.116659  1
  O  O24  1  0.298209  0.207393  0.631279  1
  O  O25  1  0.701317  0.791794  0.368109  1
  O  O26  1  0.792607  0.701791  0.868721  1
  O  O27  1  0.208206  0.298683  0.131891  1
  O  O28  1  0.740815  0.155471  0.026302  1
  O  O29  1  0.265589  0.844349  0.980028  1
  O  O30  1  0.844529  0.259185  0.473698  1
  O  O31  1  0.155651  0.734411  0.519972  1
  O  O32  1  0.504384  0.929703  0.762093  1
  O  O33  1  0.496385  0.070946  0.236826  1
  O  O34  1  0.070297  0.495616  0.737907  1
  O  O35  1  0.929054  0.503615  0.263174  1
