# generated using pymatgen
data_Ce2Gd4PuO12
_symmetry_space_group_name_H-M   'P 1'
_cell_length_a   6.66207107
_cell_length_b   6.68933465
_cell_length_c   6.66407500
_cell_angle_alpha   99.16088020
_cell_angle_beta   99.21150195
_cell_angle_gamma   99.44974740
_symmetry_Int_Tables_number   1
_chemical_formula_structural   Ce2Gd4PuO12
_chemical_formula_sum   'Ce2 Gd4 Pu1 O12'
_cell_volume   283.87988598
_cell_formula_units_Z   1
loop_
 _symmetry_equiv_pos_site_id
 _symmetry_equiv_pos_as_xyz
  1  'x, y, z'
loop_
 _atom_site_type_symbol
 _atom_site_label
 _atom_site_symmetry_multiplicity
 _atom_site_fract_x
 _atom_site_fract_y
 _atom_site_fract_z
 _atom_site_occupancy
  Ce  Ce0  1  0.865162  0.396574  0.695155  1
  Ce  Ce1  1  0.603479  0.306460  0.140692  1
  Gd  Gd2  1  0.303209  0.134712  0.605969  1
  Gd  Gd3  1  0.692964  0.858805  0.392979  1
  Gd  Gd4  1  0.393569  0.696909  0.858894  1
  Gd  Gd5  1  0.142770  0.609673  0.307511  1
  Pu  Pu6  1  0.998070  0.000694  0.001632  1
  O  O7  1  0.928430  0.060445  0.686211  1
  O  O8  1  0.937179  0.316722  0.069918  1
  O  O9  1  0.587758  0.182450  0.430167  1
  O  O10  1  0.821367  0.564048  0.416380  1
  O  O11  1  0.316675  0.074107  0.944198  1
  O  O12  1  0.574509  0.413331  0.821992  1
  O  O13  1  0.434226  0.576341  0.175064  1
  O  O14  1  0.683292  0.930978  0.059367  1
  O  O15  1  0.173202  0.430459  0.588531  1
  O  O16  1  0.415692  0.822009  0.565656  1
  O  O17  1  0.057383  0.683624  0.925427  1
  O  O18  1  0.071065  0.941660  0.314256  1
