# generated using pymatgen
data_Cs6LaYI12
_symmetry_space_group_name_H-M   'P 1'
_cell_length_a   10.74296211
_cell_length_b   10.74921410
_cell_length_c   8.92090100
_cell_angle_alpha   90.00000000
_cell_angle_beta   90.00000000
_cell_angle_gamma   90.01591010
_symmetry_Int_Tables_number   1
_chemical_formula_structural   Cs6LaYI12
_chemical_formula_sum   'Cs6 La1 Y1 I12'
_cell_volume   1030.17133217
_cell_formula_units_Z   1
loop_
 _symmetry_equiv_pos_site_id
 _symmetry_equiv_pos_as_xyz
  1  'x, y, z'
loop_
 _atom_site_type_symbol
 _atom_site_label
 _atom_site_symmetry_multiplicity
 _atom_site_fract_x
 _atom_site_fract_y
 _atom_site_fract_z
 _atom_site_occupancy
  Cs  Cs0  1  0.000000  0.000000  0.500000  1
  Cs  Cs1  1  0.000000  0.000000  0.000000  1
  Cs  Cs2  1  0.234441  0.587531  0.500000  1
  Cs  Cs3  1  0.765559  0.412469  0.500000  1
  Cs  Cs4  1  0.412425  0.231893  0.000000  1
  Cs  Cs5  1  0.587575  0.768107  0.000000  1
  La  La6  1  0.000000  0.500000  0.000000  1
  Y  Y7  1  0.500000  0.000000  0.500000  1
  I  I8  1  0.693979  0.059138  0.742919  1
  I  I9  1  0.306021  0.940862  0.742919  1
  I  I10  1  0.938696  0.701066  0.251107  1
  I  I11  1  0.061304  0.298934  0.251107  1
  I  I12  1  0.306021  0.940862  0.257081  1
  I  I13  1  0.693979  0.059138  0.257081  1
  I  I14  1  0.061304  0.298934  0.748893  1
  I  I15  1  0.938696  0.701066  0.748893  1
  I  I16  1  0.569304  0.725159  0.500000  1
  I  I17  1  0.430696  0.274841  0.500000  1
  I  I18  1  0.284850  0.571282  0.000000  1
  I  I19  1  0.715150  0.428718  0.000000  1
