# generated using pymatgen
data_Tb2Ce3(SiB4)2
_symmetry_space_group_name_H-M   'P 1'
_cell_length_a   7.31285397
_cell_length_b   7.31285397
_cell_length_c   8.28102900
_cell_angle_alpha   90.00000000
_cell_angle_beta   90.00000000
_cell_angle_gamma   90.08413160
_symmetry_Int_Tables_number   1
_chemical_formula_structural   Tb2Ce3(SiB4)2
_chemical_formula_sum   'Tb4 Ce6 Si4 B16'
_cell_volume   442.85101017
_cell_formula_units_Z   2
loop_
 _symmetry_equiv_pos_site_id
 _symmetry_equiv_pos_as_xyz
  1  'x, y, z'
loop_
 _atom_site_type_symbol
 _atom_site_label
 _atom_site_symmetry_multiplicity
 _atom_site_fract_x
 _atom_site_fract_y
 _atom_site_fract_z
 _atom_site_occupancy
  Tb  Tb0  1  0.181188  0.318812  0.780610  1
  Tb  Tb1  1  0.181188  0.318812  0.219390  1
  Tb  Tb2  1  0.001584  0.000611  0.500000  1
  Tb  Tb3  1  0.499389  0.498416  0.500000  1
  Ce  Ce4  1  0.682466  0.182731  0.226777  1
  Ce  Ce5  1  0.317269  0.817534  0.773223  1
  Ce  Ce6  1  0.317269  0.817534  0.226777  1
  Ce  Ce7  1  0.818179  0.681821  0.226896  1
  Ce  Ce8  1  0.818179  0.681821  0.773104  1
  Ce  Ce9  1  0.682466  0.182731  0.773223  1
  Si  Si10  1  0.115630  0.613642  0.500000  1
  Si  Si11  1  0.886358  0.384370  0.500000  1
  Si  Si12  1  0.383980  0.116020  0.500000  1
  Si  Si13  1  0.613528  0.886472  0.500000  1
  B  B14  1  0.173260  0.038802  0.000000  1
  B  B15  1  0.827868  0.962012  0.000000  1
  B  B16  1  0.960388  0.172651  0.000000  1
  B  B17  1  0.327349  0.539612  0.000000  1
  B  B18  1  0.039713  0.827951  0.000000  1
  B  B19  1  0.672049  0.460287  0.000000  1
  B  B20  1  0.537988  0.672132  0.000000  1
  B  B21  1  0.461198  0.326740  0.000000  1
  B  B22  1  0.091722  0.591424  0.000000  1
  B  B23  1  0.908576  0.408278  0.000000  1
  B  B24  1  0.409357  0.090643  0.000000  1
  B  B25  1  0.590877  0.909123  0.000000  1
  B  B26  1  0.000419  0.999930  0.158324  1
  B  B27  1  0.000419  0.999930  0.841676  1
  B  B28  1  0.500070  0.499581  0.841676  1
  B  B29  1  0.500070  0.499581  0.158324  1
