# generated using pymatgen
data_Tm2Al9PtRh2
_symmetry_space_group_name_H-M   'P 1'
_cell_length_a   7.54971701
_cell_length_b   7.54971662
_cell_length_c   9.40540779
_cell_angle_alpha   89.96568410
_cell_angle_beta   89.96567315
_cell_angle_gamma   119.54998023
_symmetry_Int_Tables_number   1
_chemical_formula_structural   Tm2Al9PtRh2
_chemical_formula_sum   'Tm4 Al18 Pt2 Rh4'
_cell_volume   466.35953935
_cell_formula_units_Z   2
loop_
 _symmetry_equiv_pos_site_id
 _symmetry_equiv_pos_as_xyz
  1  'x, y, z'
loop_
 _atom_site_type_symbol
 _atom_site_label
 _atom_site_symmetry_multiplicity
 _atom_site_fract_x
 _atom_site_fract_y
 _atom_site_fract_z
 _atom_site_occupancy
  Tm  Tm0  1  0.995442  0.670653  0.250726  1
  Tm  Tm1  1  0.004558  0.329347  0.749274  1
  Tm  Tm2  1  0.670653  0.995442  0.250726  1
  Tm  Tm3  1  0.329347  0.004558  0.749274  1
  Al  Al4  1  0.126275  0.126275  0.250697  1
  Al  Al5  1  0.873725  0.873725  0.749303  1
  Al  Al6  1  0.000297  0.331145  0.078086  1
  Al  Al7  1  0.999703  0.668855  0.921914  1
  Al  Al8  1  0.000448  0.665020  0.575341  1
  Al  Al9  1  0.334980  0.999552  0.424659  1
  Al  Al10  1  0.999552  0.334980  0.424659  1
  Al  Al11  1  0.665020  0.000448  0.575341  1
  Al  Al12  1  0.668855  0.999703  0.921914  1
  Al  Al13  1  0.331145  0.000297  0.078086  1
  Al  Al14  1  0.331780  0.331780  0.552839  1
  Al  Al15  1  0.668220  0.668220  0.447161  1
  Al  Al16  1  0.670269  0.670269  0.058645  1
  Al  Al17  1  0.329731  0.329731  0.941355  1
  Al  Al18  1  0.339915  0.547780  0.253693  1
  Al  Al19  1  0.660085  0.452220  0.746307  1
  Al  Al20  1  0.547780  0.339915  0.253693  1
  Al  Al21  1  0.452220  0.660085  0.746307  1
  Pt  Pt22  1  0.672701  0.327299  0.000000  1
  Pt  Pt23  1  0.327299  0.672701  0.000000  1
  Rh  Rh24  1  0.327805  0.672195  0.500000  1
  Rh  Rh25  1  0.672195  0.327805  0.500000  1
  Rh  Rh26  1  0.000000  0.000000  0.000000  1
  Rh  Rh27  1  0.000000  0.000000  0.500000  1
