# generated using pymatgen
data_Hf4CrBiSb
_symmetry_space_group_name_H-M   'P 1'
_cell_length_a   8.13607157
_cell_length_b   8.13607230
_cell_length_c   8.26277111
_cell_angle_alpha   96.21265562
_cell_angle_beta   96.21265116
_cell_angle_gamma   141.27813292
_symmetry_Int_Tables_number   1
_chemical_formula_structural   Hf4CrBiSb
_chemical_formula_sum   'Hf8 Cr2 Bi2 Sb2'
_cell_volume   323.40259828
_cell_formula_units_Z   2
loop_
 _symmetry_equiv_pos_site_id
 _symmetry_equiv_pos_as_xyz
  1  'x, y, z'
loop_
 _atom_site_type_symbol
 _atom_site_label
 _atom_site_symmetry_multiplicity
 _atom_site_fract_x
 _atom_site_fract_y
 _atom_site_fract_z
 _atom_site_occupancy
  Hf  Hf0  1  0.078751  0.194726  0.273476  1
  Hf  Hf1  1  0.921249  0.805274  0.726524  1
  Hf  Hf2  1  0.803629  0.083744  0.887371  1
  Hf  Hf3  1  0.416256  0.696371  0.112629  1
  Hf  Hf4  1  0.196371  0.916256  0.112629  1
  Hf  Hf5  1  0.583744  0.303629  0.887371  1
  Hf  Hf6  1  0.694726  0.578751  0.273476  1
  Hf  Hf7  1  0.305274  0.421249  0.726524  1
  Cr  Cr8  1  0.250000  0.250000  0.000000  1
  Cr  Cr9  1  0.750000  0.750000  0.000000  1
  Bi  Bi10  1  0.363392  0.136608  0.500000  1
  Bi  Bi11  1  0.636608  0.863392  0.500000  1
  Sb  Sb12  1  0.144380  0.644380  0.788759  1
  Sb  Sb13  1  0.855620  0.355620  0.211241  1
