# generated using pymatgen
data_Ce2Er5Tm3(Al2Ru3)2
_symmetry_space_group_name_H-M   'P 1'
_cell_length_a   8.40514733
_cell_length_b   8.31556057
_cell_length_c   8.29390878
_cell_angle_alpha   109.88748320
_cell_angle_beta   109.45675217
_cell_angle_gamma   110.19312388
_symmetry_Int_Tables_number   1
_chemical_formula_structural   Ce2Er5Tm3(Al2Ru3)2
_chemical_formula_sum   'Ce2 Er5 Tm3 Al4 Ru6'
_cell_volume   439.93492723
_cell_formula_units_Z   1
loop_
 _symmetry_equiv_pos_site_id
 _symmetry_equiv_pos_as_xyz
  1  'x, y, z'
loop_
 _atom_site_type_symbol
 _atom_site_label
 _atom_site_symmetry_multiplicity
 _atom_site_fract_x
 _atom_site_fract_y
 _atom_site_fract_z
 _atom_site_occupancy
  Ce  Ce0  1  0.943592  0.251032  0.194975  1
  Ce  Ce1  1  0.197069  0.941129  0.251691  1
  Er  Er2  1  0.780394  0.785208  0.777326  1
  Er  Er3  1  0.318172  0.567282  0.754658  1
  Er  Er4  1  0.751215  0.318119  0.569203  1
  Er  Er5  1  0.567916  0.747679  0.313418  1
  Er  Er6  1  0.720817  0.502861  0.999257  1
  Tm  Tm7  1  0.999594  0.718665  0.507361  1
  Tm  Tm8  1  0.501239  0.992629  0.715276  1
  Tm  Tm9  1  0.253881  0.186257  0.930776  1
  Al  Al10  1  0.415303  0.411581  0.408893  1
  Al  Al11  1  0.092895  0.491741  0.996689  1
  Al  Al12  1  0.997764  0.089470  0.503205  1
  Al  Al13  1  0.501983  0.010808  0.092711  1
  Ru  Ru14  1  0.867597  0.116404  0.741289  1
  Ru  Ru15  1  0.753264  0.901412  0.121422  1
  Ru  Ru16  1  0.125752  0.762166  0.904903  1
  Ru  Ru17  1  0.225408  0.595561  0.366622  1
  Ru  Ru18  1  0.359855  0.223151  0.598044  1
  Ru  Ru19  1  0.626289  0.386845  0.252282  1
