# generated using pymatgen
data_TaNb2TcF20
_symmetry_space_group_name_H-M   'P 1'
_cell_length_a   5.78209500
_cell_length_b   7.63131200
_cell_length_c   10.02578011
_cell_angle_alpha   88.36808809
_cell_angle_beta   105.95058388
_cell_angle_gamma   98.78141658
_symmetry_Int_Tables_number   1
_chemical_formula_structural   TaNb2TcF20
_chemical_formula_sum   'Ta1 Nb2 Tc1 F20'
_cell_volume   420.32663150
_cell_formula_units_Z   1
loop_
 _symmetry_equiv_pos_site_id
 _symmetry_equiv_pos_as_xyz
  1  'x, y, z'
loop_
 _atom_site_type_symbol
 _atom_site_label
 _atom_site_symmetry_multiplicity
 _atom_site_fract_x
 _atom_site_fract_y
 _atom_site_fract_z
 _atom_site_occupancy
  Ta  Ta0  1  0.035302  0.230266  0.684171  1
  Nb  Nb1  1  0.341000  0.388508  0.221804  1
  Nb  Nb2  1  0.658206  0.614872  0.778797  1
  Tc  Tc3  1  0.963499  0.764949  0.314730  1
  F  F4  1  0.031136  0.255675  0.169759  1
  F  F5  1  0.966945  0.749385  0.829707  1
  F  F6  1  0.498628  0.226249  0.159214  1
  F  F7  1  0.499943  0.775307  0.842403  1
  F  F8  1  0.116113  0.232271  0.880624  1
  F  F9  1  0.886609  0.756625  0.122272  1
  F  F10  1  0.962936  0.295384  0.495878  1
  F  F11  1  0.034633  0.696337  0.498543  1
  F  F12  1  0.766841  0.052802  0.662088  1
  F  F13  1  0.221615  0.949378  0.338662  1
  F  F14  1  0.252420  0.078772  0.671677  1
  F  F15  1  0.763468  0.926982  0.328476  1
  F  F16  1  0.317580  0.440692  0.712750  1
  F  F17  1  0.678186  0.561663  0.288281  1
  F  F18  1  0.825129  0.419241  0.702273  1
  F  F19  1  0.183724  0.585717  0.299861  1
  F  F20  1  0.693675  0.454267  0.927252  1
  F  F21  1  0.304561  0.545861  0.070446  1
  F  F22  1  0.571200  0.668483  0.588654  1
  F  F23  1  0.426649  0.330311  0.411681  1
