# generated using pymatgen
data_SmMnSb12Os2Ru
_symmetry_space_group_name_H-M   'P 1'
_cell_length_a   8.14114278
_cell_length_b   8.13369183
_cell_length_c   8.13217442
_cell_angle_alpha   109.44604456
_cell_angle_beta   109.48159204
_cell_angle_gamma   109.46220799
_symmetry_Int_Tables_number   1
_chemical_formula_structural   SmMnSb12Os2Ru
_chemical_formula_sum   'Sm1 Mn1 Sb12 Os2 Ru1'
_cell_volume   414.65359768
_cell_formula_units_Z   1
loop_
 _symmetry_equiv_pos_site_id
 _symmetry_equiv_pos_as_xyz
  1  'x, y, z'
loop_
 _atom_site_type_symbol
 _atom_site_label
 _atom_site_symmetry_multiplicity
 _atom_site_fract_x
 _atom_site_fract_y
 _atom_site_fract_z
 _atom_site_occupancy
  Sm  Sm0  1  0.000000  0.000000  0.000000  1
  Mn  Mn1  1  0.500000  0.000000  0.000000  1
  Sb  Sb2  1  0.338280  0.181347  0.843617  1
  Sb  Sb3  1  0.661720  0.818653  0.156383  1
  Sb  Sb4  1  0.661385  0.505149  0.842471  1
  Sb  Sb5  1  0.338615  0.494851  0.157529  1
  Sb  Sb6  1  0.181669  0.843406  0.338185  1
  Sb  Sb7  1  0.818331  0.156594  0.661815  1
  Sb  Sb8  1  0.505394  0.842852  0.662002  1
  Sb  Sb9  1  0.494606  0.157148  0.337998  1
  Sb  Sb10  1  0.842955  0.337570  0.181368  1
  Sb  Sb11  1  0.157045  0.662430  0.818632  1
  Sb  Sb12  1  0.842489  0.661398  0.505262  1
  Sb  Sb13  1  0.157511  0.338602  0.494738  1
  Os  Os14  1  0.000000  0.000000  0.500000  1
  Os  Os15  1  0.000000  0.500000  0.000000  1
  Ru  Ru16  1  0.500000  0.500000  0.500000  1
