# generated using pymatgen
data_LaPr4Nd5Ir4
_symmetry_space_group_name_H-M   'P 1'
_cell_length_a   9.06510814
_cell_length_b   9.07021262
_cell_length_c   7.37457155
_cell_angle_alpha   83.82216029
_cell_angle_beta   83.47307518
_cell_angle_gamma   43.63591184
_symmetry_Int_Tables_number   1
_chemical_formula_structural   LaPr4Nd5Ir4
_chemical_formula_sum   'La1 Pr4 Nd5 Ir4'
_cell_volume   415.43343535
_cell_formula_units_Z   1
loop_
 _symmetry_equiv_pos_site_id
 _symmetry_equiv_pos_as_xyz
  1  'x, y, z'
loop_
 _atom_site_type_symbol
 _atom_site_label
 _atom_site_symmetry_multiplicity
 _atom_site_fract_x
 _atom_site_fract_y
 _atom_site_fract_z
 _atom_site_occupancy
  La  La0  1  0.016428  0.797728  0.914197  1
  Pr  Pr1  1  0.205361  0.981266  0.580078  1
  Pr  Pr2  1  0.981663  0.204490  0.082077  1
  Pr  Pr3  1  0.795017  0.019173  0.418362  1
  Pr  Pr4  1  0.352583  0.210826  0.815526  1
  Nd  Nd5  1  0.786861  0.646970  0.683081  1
  Nd  Nd6  1  0.647301  0.786338  0.184900  1
  Nd  Nd7  1  0.212920  0.352540  0.317006  1
  Nd  Nd8  1  0.569233  0.432082  0.749596  1
  Nd  Nd9  1  0.432068  0.567862  0.250757  1
  Ir  Ir10  1  0.179714  0.598093  0.578136  1
  Ir  Ir11  1  0.405963  0.816094  0.926287  1
  Ir  Ir12  1  0.817523  0.406522  0.425582  1
  Ir  Ir13  1  0.597363  0.180018  0.074414  1
