# generated using pymatgen
data_TmU2(SnIr)3
_symmetry_space_group_name_H-M   'P 1'
_cell_length_a   7.44067039
_cell_length_b   7.44067057
_cell_length_c   4.00880100
_cell_angle_alpha   90.00000000
_cell_angle_beta   90.00000000
_cell_angle_gamma   121.01415528
_symmetry_Int_Tables_number   1
_chemical_formula_structural   TmU2(SnIr)3
_chemical_formula_sum   'Tm1 U2 Sn3 Ir3'
_cell_volume   190.21280452
_cell_formula_units_Z   1
loop_
 _symmetry_equiv_pos_site_id
 _symmetry_equiv_pos_as_xyz
  1  'x, y, z'
loop_
 _atom_site_type_symbol
 _atom_site_label
 _atom_site_symmetry_multiplicity
 _atom_site_fract_x
 _atom_site_fract_y
 _atom_site_fract_z
 _atom_site_occupancy
  Tm  Tm0  1  0.407300  0.407300  0.500000  1
  U  U1  1  0.588096  0.001095  0.500000  1
  U  U2  1  0.001095  0.588096  0.500000  1
  Sn  Sn3  1  0.734715  0.734715  0.000000  1
  Sn  Sn4  1  0.255894  0.008849  0.000000  1
  Sn  Sn5  1  0.008849  0.255894  0.000000  1
  Ir  Ir6  1  0.681736  0.331066  0.000000  1
  Ir  Ir7  1  0.331066  0.681736  0.000000  1
  Ir  Ir8  1  0.991249  0.991249  0.500000  1
