# generated using pymatgen
data_Nd4Si12Ni17Ru3
_symmetry_space_group_name_H-M   'P 1'
_cell_length_a   3.79927300
_cell_length_b   10.83288203
_cell_length_c   12.06633107
_cell_angle_alpha   89.80950651
_cell_angle_beta   90.00000000
_cell_angle_gamma   90.00000000
_symmetry_Int_Tables_number   1
_chemical_formula_structural   Nd4Si12Ni17Ru3
_chemical_formula_sum   'Nd4 Si12 Ni17 Ru3'
_cell_volume   496.61216245
_cell_formula_units_Z   1
loop_
 _symmetry_equiv_pos_site_id
 _symmetry_equiv_pos_as_xyz
  1  'x, y, z'
loop_
 _atom_site_type_symbol
 _atom_site_label
 _atom_site_symmetry_multiplicity
 _atom_site_fract_x
 _atom_site_fract_y
 _atom_site_fract_z
 _atom_site_occupancy
  Nd  Nd0  1  0.250000  0.589828  0.701457  1
  Nd  Nd1  1  0.250000  0.907295  0.203313  1
  Nd  Nd2  1  0.750000  0.407885  0.297229  1
  Nd  Nd3  1  0.750000  0.091820  0.796682  1
  Si  Si4  1  0.250000  0.404721  0.105942  1
  Si  Si5  1  0.250000  0.098527  0.604446  1
  Si  Si6  1  0.750000  0.594313  0.893530  1
  Si  Si7  1  0.750000  0.904090  0.393056  1
  Si  Si8  1  0.250000  0.278548  0.877962  1
  Si  Si9  1  0.250000  0.222118  0.381566  1
  Si  Si10  1  0.750000  0.720808  0.122413  1
  Si  Si11  1  0.750000  0.780731  0.621120  1
  Si  Si12  1  0.250000  0.597158  0.391040  1
  Si  Si13  1  0.250000  0.902073  0.889136  1
  Si  Si14  1  0.750000  0.396900  0.608111  1
  Si  Si15  1  0.750000  0.098263  0.112109  1
  Ni  Ni16  1  0.750000  0.212404  0.513023  1
  Ni  Ni17  1  0.250000  0.406809  0.491374  1
  Ni  Ni18  1  0.250000  0.090784  0.993155  1
  Ni  Ni19  1  0.750000  0.591495  0.507838  1
  Ni  Ni20  1  0.750000  0.908769  0.007435  1
  Ni  Ni21  1  0.250000  0.207488  0.183657  1
  Ni  Ni22  1  0.250000  0.290907  0.682386  1
  Ni  Ni23  1  0.750000  0.791846  0.817436  1
  Ni  Ni24  1  0.750000  0.708040  0.318141  1
  Ni  Ni25  1  0.250000  0.893596  0.693632  1
  Ni  Ni26  1  0.250000  0.607355  0.196353  1
  Ni  Ni27  1  0.750000  0.110016  0.308260  1
  Ni  Ni28  1  0.750000  0.391780  0.803952  1
  Ni  Ni29  1  0.250000  0.474836  0.929555  1
  Ni  Ni30  1  0.250000  0.024899  0.430166  1
  Ni  Ni31  1  0.750000  0.525137  0.070287  1
  Ni  Ni32  1  0.750000  0.979800  0.567422  1
  Ru  Ru33  1  0.250000  0.713156  0.987433  1
  Ru  Ru34  1  0.250000  0.788942  0.485650  1
  Ru  Ru35  1  0.750000  0.286862  0.013731  1
