# generated using pymatgen
data_DyHo3Np2O12
_symmetry_space_group_name_H-M   'P 1'
_cell_length_a   5.51449300
_cell_length_b   7.81552832
_cell_length_c   11.82527741
_cell_angle_alpha   73.70037206
_cell_angle_beta   90.00000000
_cell_angle_gamma   90.00000000
_symmetry_Int_Tables_number   1
_chemical_formula_structural   DyHo3Np2O12
_chemical_formula_sum   'Dy2 Ho6 Np4 O24'
_cell_volume   489.16934528
_cell_formula_units_Z   2
loop_
 _symmetry_equiv_pos_site_id
 _symmetry_equiv_pos_as_xyz
  1  'x, y, z'
loop_
 _atom_site_type_symbol
 _atom_site_label
 _atom_site_symmetry_multiplicity
 _atom_site_fract_x
 _atom_site_fract_y
 _atom_site_fract_z
 _atom_site_occupancy
  Dy  Dy0  1  0.698244  0.500000  0.750000  1
  Dy  Dy1  1  0.301756  0.500000  0.250000  1
  Ho  Ho2  1  0.744038  0.000000  0.750000  1
  Ho  Ho3  1  0.255962  0.000000  0.250000  1
  Ho  Ho4  1  0.187297  0.795395  0.579498  1
  Ho  Ho5  1  0.812703  0.795395  0.079498  1
  Ho  Ho6  1  0.187297  0.204605  0.920502  1
  Ho  Ho7  1  0.812703  0.204605  0.420502  1
  Np  Np8  1  0.255293  0.720264  0.887034  1
  Np  Np9  1  0.744707  0.720264  0.387034  1
  Np  Np10  1  0.255293  0.279736  0.612966  1
  Np  Np11  1  0.744707  0.279736  0.112966  1
  O  O12  1  0.043254  0.943993  0.896714  1
  O  O13  1  0.552634  0.850351  0.931433  1
  O  O14  1  0.956746  0.943993  0.396714  1
  O  O15  1  0.450218  0.800624  0.726664  1
  O  O16  1  0.447366  0.850351  0.431433  1
  O  O17  1  0.964176  0.714430  0.766391  1
  O  O18  1  0.549782  0.800624  0.226664  1
  O  O19  1  0.876440  0.626770  0.555303  1
  O  O20  1  0.388610  0.479890  0.884198  1
  O  O21  1  0.035824  0.714430  0.266391  1
  O  O22  1  0.388610  0.520110  0.615802  1
  O  O23  1  0.876440  0.373230  0.944697  1
  O  O24  1  0.123560  0.626770  0.055303  1
  O  O25  1  0.611390  0.479890  0.384198  1
  O  O26  1  0.964176  0.285570  0.733609  1
  O  O27  1  0.611390  0.520110  0.115802  1
  O  O28  1  0.123560  0.373230  0.444697  1
  O  O29  1  0.450218  0.199376  0.773336  1
  O  O30  1  0.035824  0.285570  0.233609  1
  O  O31  1  0.552634  0.149649  0.568567  1
  O  O32  1  0.549782  0.199376  0.273336  1
  O  O33  1  0.043254  0.056007  0.603286  1
  O  O34  1  0.447366  0.149649  0.068567  1
  O  O35  1  0.956746  0.056007  0.103286  1
