# generated using pymatgen
data_SmDy3Re3Os5
_symmetry_space_group_name_H-M   'P 1'
_cell_length_a   5.30675628
_cell_length_b   5.32330101
_cell_length_c   9.13335316
_cell_angle_alpha   89.99999727
_cell_angle_beta   90.01841598
_cell_angle_gamma   120.10317901
_symmetry_Int_Tables_number   1
_chemical_formula_structural   SmDy3Re3Os5
_chemical_formula_sum   'Sm1 Dy3 Re3 Os5'
_cell_volume   223.21251686
_cell_formula_units_Z   1
loop_
 _symmetry_equiv_pos_site_id
 _symmetry_equiv_pos_as_xyz
  1  'x, y, z'
loop_
 _atom_site_type_symbol
 _atom_site_label
 _atom_site_symmetry_multiplicity
 _atom_site_fract_x
 _atom_site_fract_y
 _atom_site_fract_z
 _atom_site_occupancy
  Sm  Sm0  1  0.339677  0.669840  0.062641  1
  Dy  Dy1  1  0.338946  0.669474  0.436798  1
  Dy  Dy2  1  0.668991  0.334495  0.561476  1
  Dy  Dy3  1  0.669456  0.334728  0.937962  1
  Re  Re4  1  0.160902  0.330368  0.748902  1
  Re  Re5  1  0.160902  0.830534  0.748902  1
  Re  Re6  1  0.324049  0.162025  0.251265  1
  Os  Os7  1  0.822768  0.652295  0.251776  1
  Os  Os8  1  0.646705  0.823352  0.748491  1
  Os  Os9  1  0.022839  0.011419  0.001270  1
  Os  Os10  1  0.822768  0.170473  0.251776  1
  Os  Os11  1  0.021997  0.010998  0.498740  1
