# generated using pymatgen
data_Cs3Ho(PO4)2
_symmetry_space_group_name_H-M   'P 1'
_cell_length_a   5.79522400
_cell_length_b   5.79522432
_cell_length_c   8.73858000
_cell_angle_alpha   90.00000000
_cell_angle_beta   90.00000000
_cell_angle_gamma   120.00000957
_symmetry_Int_Tables_number   1
_chemical_formula_structural   Cs3Ho(PO4)2
_chemical_formula_sum   'Cs3 Ho1 P2 O8'
_cell_volume   254.16276991
_cell_formula_units_Z   1
loop_
 _symmetry_equiv_pos_site_id
 _symmetry_equiv_pos_as_xyz
  1  'x, y, z'
loop_
 _atom_site_type_symbol
 _atom_site_label
 _atom_site_symmetry_multiplicity
 _atom_site_fract_x
 _atom_site_fract_y
 _atom_site_fract_z
 _atom_site_occupancy
  Cs  Cs0  1  0.333333  0.666667  0.774086  1
  Cs  Cs1  1  0.666667  0.333333  0.225914  1
  Cs  Cs2  1  0.000000  0.000000  0.000000  1
  Ho  Ho3  1  0.000000  0.000000  0.500000  1
  P  P4  1  0.333333  0.666667  0.294239  1
  P  P5  1  0.666667  0.333333  0.705761  1
  O  O6  1  0.333333  0.666667  0.117851  1
  O  O7  1  0.666667  0.333333  0.882149  1
  O  O8  1  0.186161  0.813839  0.353988  1
  O  O9  1  0.813839  0.186161  0.646012  1
  O  O10  1  0.186161  0.372322  0.353988  1
  O  O11  1  0.813839  0.627678  0.646012  1
  O  O12  1  0.627678  0.813839  0.353988  1
  O  O13  1  0.372322  0.186161  0.646012  1
