# generated using pymatgen
data_CdAg3Hg3NO11
_symmetry_space_group_name_H-M   'P 1'
_cell_length_a   7.54023506
_cell_length_b   7.10052833
_cell_length_c   7.10052651
_cell_angle_alpha   60.43436896
_cell_angle_beta   63.09276514
_cell_angle_gamma   63.09275864
_symmetry_Int_Tables_number   1
_chemical_formula_structural   CdAg3Hg3NO11
_chemical_formula_sum   'Cd1 Ag3 Hg3 N1 O11'
_cell_volume   281.68842959
_cell_formula_units_Z   1
loop_
 _symmetry_equiv_pos_site_id
 _symmetry_equiv_pos_as_xyz
  1  'x, y, z'
loop_
 _atom_site_type_symbol
 _atom_site_label
 _atom_site_symmetry_multiplicity
 _atom_site_fract_x
 _atom_site_fract_y
 _atom_site_fract_z
 _atom_site_occupancy
  Cd  Cd0  1  0.995351  0.999652  0.999652  1
  Ag  Ag1  1  0.996225  0.998906  0.501442  1
  Ag  Ag2  1  0.996362  0.499695  0.499695  1
  Ag  Ag3  1  0.996225  0.501442  0.998906  1
  Hg  Hg4  1  0.482980  0.009983  0.009983  1
  Hg  Hg5  1  0.494925  0.503872  0.001163  1
  Hg  Hg6  1  0.494925  0.001163  0.503872  1
  N  N7  1  0.518886  0.494899  0.494899  1
  O  O8  1  0.596051  0.139276  0.139276  1
  O  O9  1  0.106635  0.583107  0.156413  1
  O  O10  1  0.101805  0.154973  0.154973  1
  O  O11  1  0.106635  0.156413  0.583107  1
  O  O12  1  0.584709  0.586432  0.281017  1
  O  O13  1  0.584709  0.281017  0.586432  1
  O  O14  1  0.391573  0.614582  0.614582  1
  O  O15  1  0.886722  0.842420  0.417205  1
  O  O16  1  0.886722  0.417205  0.842420  1
  O  O17  1  0.886378  0.846303  0.846303  1
  O  O18  1  0.392179  0.868659  0.868659  1
