# generated using pymatgen
data_Er3Al10Fe3Si2Ru
_symmetry_space_group_name_H-M   'P 1'
_cell_length_a   8.55791021
_cell_length_b   8.55791178
_cell_length_c   9.43171200
_cell_angle_alpha   90.00000000
_cell_angle_beta   90.00000000
_cell_angle_gamma   120.36414643
_symmetry_Int_Tables_number   1
_chemical_formula_structural   Er3Al10Fe3Si2Ru
_chemical_formula_sum   'Er6 Al20 Fe6 Si4 Ru2'
_cell_volume   596.00702404
_cell_formula_units_Z   2
loop_
 _symmetry_equiv_pos_site_id
 _symmetry_equiv_pos_as_xyz
  1  'x, y, z'
loop_
 _atom_site_type_symbol
 _atom_site_label
 _atom_site_symmetry_multiplicity
 _atom_site_fract_x
 _atom_site_fract_y
 _atom_site_fract_z
 _atom_site_occupancy
  Er  Er0  1  0.196439  0.393565  0.250000  1
  Er  Er1  1  0.803561  0.606435  0.750000  1
  Er  Er2  1  0.606435  0.803561  0.250000  1
  Er  Er3  1  0.393565  0.196439  0.750000  1
  Er  Er4  1  0.195472  0.804528  0.250000  1
  Er  Er5  1  0.804528  0.195472  0.750000  1
  Al  Al6  1  0.158544  0.325858  0.574861  1
  Al  Al7  1  0.841456  0.674142  0.425139  1
  Al  Al8  1  0.674142  0.841456  0.574861  1
  Al  Al9  1  0.841456  0.674142  0.074861  1
  Al  Al10  1  0.325858  0.158544  0.425139  1
  Al  Al11  1  0.158544  0.325858  0.925139  1
  Al  Al12  1  0.163610  0.836390  0.574612  1
  Al  Al13  1  0.325858  0.158544  0.074861  1
  Al  Al14  1  0.836390  0.163610  0.425388  1
  Al  Al15  1  0.674142  0.841456  0.925139  1
  Al  Al16  1  0.836390  0.163610  0.074612  1
  Al  Al17  1  0.163610  0.836390  0.925388  1
  Al  Al18  1  0.561884  0.122357  0.250000  1
  Al  Al19  1  0.438116  0.877643  0.750000  1
  Al  Al20  1  0.877643  0.438116  0.250000  1
  Al  Al21  1  0.122357  0.561884  0.750000  1
  Al  Al22  1  0.564396  0.435604  0.250000  1
  Al  Al23  1  0.435604  0.564396  0.750000  1
  Al  Al24  1  0.999972  0.000028  0.250000  1
  Al  Al25  1  0.000028  0.999972  0.750000  1
  Fe  Fe26  1  0.500000  0.000000  0.000000  1
  Fe  Fe27  1  0.000000  0.500000  0.000000  1
  Fe  Fe28  1  0.500000  0.000000  0.500000  1
  Fe  Fe29  1  0.000000  0.500000  0.500000  1
  Fe  Fe30  1  0.000000  0.000000  0.000000  1
  Fe  Fe31  1  0.000000  0.000000  0.500000  1
  Si  Si32  1  0.329372  0.670628  0.030976  1
  Si  Si33  1  0.670628  0.329372  0.969024  1
  Si  Si34  1  0.670628  0.329372  0.530976  1
  Si  Si35  1  0.329372  0.670628  0.469024  1
  Ru  Ru36  1  0.500000  0.500000  0.000000  1
  Ru  Ru37  1  0.500000  0.500000  0.500000  1
