# generated using pymatgen
data_Er4Tm3CoSn23Os5
_symmetry_space_group_name_H-M   'P 1'
_cell_length_a   9.80603113
_cell_length_b   9.84588426
_cell_length_c   10.04111418
_cell_angle_alpha   89.99639970
_cell_angle_beta   89.96475123
_cell_angle_gamma   120.13822048
_symmetry_Int_Tables_number   1
_chemical_formula_structural   Er4Tm3CoSn23Os5
_chemical_formula_sum   'Er4 Tm3 Co1 Sn23 Os5'
_cell_volume   838.40495502
_cell_formula_units_Z   1
loop_
 _symmetry_equiv_pos_site_id
 _symmetry_equiv_pos_as_xyz
  1  'x, y, z'
loop_
 _atom_site_type_symbol
 _atom_site_label
 _atom_site_symmetry_multiplicity
 _atom_site_fract_x
 _atom_site_fract_y
 _atom_site_fract_z
 _atom_site_occupancy
  Er  Er0  1  0.513570  0.029175  0.695668  1
  Er  Er1  1  0.027473  0.513728  0.302057  1
  Er  Er2  1  0.968671  0.484293  0.696872  1
  Er  Er3  1  0.013914  0.006958  0.007510  1
  Tm  Tm4  1  0.485972  0.513580  0.302446  1
  Tm  Tm5  1  0.513328  0.484412  0.695737  1
  Tm  Tm6  1  0.485976  0.972381  0.302422  1
  Co  Co7  1  0.657137  0.828445  0.798328  1
  Sn  Sn8  1  0.115813  0.882391  0.282325  1
  Sn  Sn9  1  0.877840  0.109635  0.724736  1
  Sn  Sn10  1  0.115827  0.233435  0.282315  1
  Sn  Sn11  1  0.877693  0.768074  0.724711  1
  Sn  Sn12  1  0.760683  0.880336  0.275007  1
  Sn  Sn13  1  0.237682  0.118913  0.723457  1
  Sn  Sn14  1  0.779043  0.221527  0.464079  1
  Sn  Sn15  1  0.220481  0.777033  0.535761  1
  Sn  Sn16  1  0.778965  0.557498  0.464176  1
  Sn  Sn17  1  0.220602  0.443461  0.535813  1
  Sn  Sn18  1  0.443634  0.221885  0.463096  1
  Sn  Sn19  1  0.560644  0.780191  0.541034  1
  Sn  Sn20  1  0.352084  0.998850  0.999886  1
  Sn  Sn21  1  0.653515  0.996753  0.994033  1
  Sn  Sn22  1  0.000636  0.349813  0.000119  1
  Sn  Sn23  1  0.000606  0.650806  0.000124  1
  Sn  Sn24  1  0.653485  0.656714  0.993997  1
  Sn  Sn25  1  0.352120  0.353263  0.999874  1
  Sn  Sn26  1  0.334630  0.667323  0.130575  1
  Sn  Sn27  1  0.665069  0.332704  0.868188  1
  Sn  Sn28  1  0.335476  0.667700  0.823283  1
  Sn  Sn29  1  0.666021  0.333019  0.172763  1
  Sn  Sn30  1  0.997646  0.998813  0.502308  1
  Os  Os31  1  0.828091  0.168659  0.201488  1
  Os  Os32  1  0.169535  0.829890  0.796978  1
  Os  Os33  1  0.828089  0.659436  0.201502  1
  Os  Os34  1  0.169832  0.339797  0.796922  1
  Os  Os35  1  0.338216  0.169111  0.200415  1
