# generated using pymatgen
data_La3Ce6Dy7(CdRu)4
_symmetry_space_group_name_H-M   'P 1'
_cell_length_a   9.63432869
_cell_length_b   9.63432815
_cell_length_c   9.76296173
_cell_angle_alpha   60.52711700
_cell_angle_beta   60.52711784
_cell_angle_gamma   60.93800806
_symmetry_Int_Tables_number   1
_chemical_formula_structural   La3Ce6Dy7(CdRu)4
_chemical_formula_sum   'La3 Ce6 Dy7 Cd4 Ru4'
_cell_volume   650.36544620
_cell_formula_units_Z   1
loop_
 _symmetry_equiv_pos_site_id
 _symmetry_equiv_pos_as_xyz
  1  'x, y, z'
loop_
 _atom_site_type_symbol
 _atom_site_label
 _atom_site_symmetry_multiplicity
 _atom_site_fract_x
 _atom_site_fract_y
 _atom_site_fract_z
 _atom_site_occupancy
  La  La0  1  0.556460  0.556460  0.941574  1
  La  La1  1  0.942905  0.555734  0.938808  1
  La  La2  1  0.555734  0.942905  0.938808  1
  Ce  Ce3  1  0.184399  0.812677  0.184963  1
  Ce  Ce4  1  0.812677  0.184400  0.184964  1
  Ce  Ce5  1  0.346624  0.346624  0.961708  1
  Ce  Ce6  1  0.347308  0.959927  0.348901  1
  Ce  Ce7  1  0.959927  0.347308  0.348901  1
  Ce  Ce8  1  0.344041  0.344041  0.355484  1
  Dy  Dy9  1  0.941620  0.941620  0.555082  1
  Dy  Dy10  1  0.564119  0.940207  0.554464  1
  Dy  Dy11  1  0.940207  0.564119  0.554464  1
  Dy  Dy12  1  0.189050  0.189050  0.803766  1
  Dy  Dy13  1  0.815053  0.185430  0.808023  1
  Dy  Dy14  1  0.185429  0.815054  0.808023  1
  Dy  Dy15  1  0.810412  0.810413  0.188364  1
  Cd  Cd16  1  0.579326  0.579326  0.265223  1
  Cd  Cd17  1  0.581240  0.257686  0.579484  1
  Cd  Cd18  1  0.257686  0.581240  0.579484  1
  Cd  Cd19  1  0.581641  0.581641  0.577095  1
  Ru  Ru20  1  0.143732  0.143732  0.559379  1
  Ru  Ru21  1  0.149916  0.582678  0.154186  1
  Ru  Ru22  1  0.582678  0.149916  0.154186  1
  Ru  Ru23  1  0.127815  0.127815  0.154668  1
