# generated using pymatgen
data_Sc2Al8SiIr3
_symmetry_space_group_name_H-M   'P 1'
_cell_length_a   7.46304402
_cell_length_b   7.46304510
_cell_length_c   9.21966200
_cell_angle_alpha   90.00000000
_cell_angle_beta   90.00000000
_cell_angle_gamma   119.70553509
_symmetry_Int_Tables_number   1
_chemical_formula_structural   Sc2Al8SiIr3
_chemical_formula_sum   'Sc4 Al16 Si2 Ir6'
_cell_volume   446.02450225
_cell_formula_units_Z   2
loop_
 _symmetry_equiv_pos_site_id
 _symmetry_equiv_pos_as_xyz
  1  'x, y, z'
loop_
 _atom_site_type_symbol
 _atom_site_label
 _atom_site_symmetry_multiplicity
 _atom_site_fract_x
 _atom_site_fract_y
 _atom_site_fract_z
 _atom_site_occupancy
  Sc  Sc0  1  0.995138  0.676386  0.250000  1
  Sc  Sc1  1  0.004862  0.323614  0.750000  1
  Sc  Sc2  1  0.676386  0.995138  0.250000  1
  Sc  Sc3  1  0.323614  0.004862  0.750000  1
  Al  Al4  1  0.998319  0.336024  0.078671  1
  Al  Al5  1  0.001681  0.663976  0.921329  1
  Al  Al6  1  0.001681  0.663976  0.578671  1
  Al  Al7  1  0.336024  0.998319  0.421329  1
  Al  Al8  1  0.998319  0.336024  0.421329  1
  Al  Al9  1  0.663976  0.001681  0.578671  1
  Al  Al10  1  0.663976  0.001681  0.921329  1
  Al  Al11  1  0.336024  0.998319  0.078671  1
  Al  Al12  1  0.333038  0.333038  0.561781  1
  Al  Al13  1  0.666962  0.666962  0.438219  1
  Al  Al14  1  0.666962  0.666962  0.061781  1
  Al  Al15  1  0.333038  0.333038  0.938219  1
  Al  Al16  1  0.336037  0.552411  0.250000  1
  Al  Al17  1  0.663963  0.447589  0.750000  1
  Al  Al18  1  0.552411  0.336037  0.250000  1
  Al  Al19  1  0.447589  0.663963  0.750000  1
  Si  Si20  1  0.126290  0.126290  0.250000  1
  Si  Si21  1  0.873710  0.873710  0.750000  1
  Ir  Ir22  1  0.671988  0.328012  0.000000  1
  Ir  Ir23  1  0.328012  0.671988  0.000000  1
  Ir  Ir24  1  0.328012  0.671988  0.500000  1
  Ir  Ir25  1  0.671988  0.328012  0.500000  1
  Ir  Ir26  1  0.000000  0.000000  0.000000  1
  Ir  Ir27  1  0.000000  0.000000  0.500000  1
