# generated using pymatgen
data_LaDy3Y12(CdNi)4
_symmetry_space_group_name_H-M   'P 1'
_cell_length_a   9.61587141
_cell_length_b   9.61587088
_cell_length_c   9.61587057
_cell_angle_alpha   60.24585409
_cell_angle_beta   60.24584543
_cell_angle_gamma   60.24585013
_symmetry_Int_Tables_number   1
_chemical_formula_structural   LaDy3Y12(CdNi)4
_chemical_formula_sum   'La1 Dy3 Y12 Cd4 Ni4'
_cell_volume   632.20972423
_cell_formula_units_Z   1
loop_
 _symmetry_equiv_pos_site_id
 _symmetry_equiv_pos_as_xyz
  1  'x, y, z'
loop_
 _atom_site_type_symbol
 _atom_site_label
 _atom_site_symmetry_multiplicity
 _atom_site_fract_x
 _atom_site_fract_y
 _atom_site_fract_z
 _atom_site_occupancy
  La  La0  1  0.594913  0.594913  0.594913  1
  Dy  Dy1  1  0.599637  0.599637  0.199219  1
  Dy  Dy2  1  0.599637  0.199219  0.599637  1
  Dy  Dy3  1  0.199219  0.599637  0.599637  1
  Y  Y4  1  0.064056  0.439167  0.439167  1
  Y  Y5  1  0.439892  0.062213  0.062213  1
  Y  Y6  1  0.439167  0.064056  0.439167  1
  Y  Y7  1  0.062213  0.439892  0.062213  1
  Y  Y8  1  0.439167  0.439167  0.064056  1
  Y  Y9  1  0.062213  0.062213  0.439892  1
  Y  Y10  1  0.186212  0.814716  0.814716  1
  Y  Y11  1  0.812678  0.187434  0.187434  1
  Y  Y12  1  0.814716  0.186212  0.814716  1
  Y  Y13  1  0.187434  0.812678  0.187434  1
  Y  Y14  1  0.814716  0.814716  0.186212  1
  Y  Y15  1  0.187434  0.187434  0.812678  1
  Cd  Cd16  1  0.830498  0.830498  0.830498  1
  Cd  Cd17  1  0.832426  0.832426  0.505574  1
  Cd  Cd18  1  0.832426  0.505574  0.832426  1
  Cd  Cd19  1  0.505574  0.832426  0.832426  1
  Ni  Ni20  1  0.394566  0.394566  0.394566  1
  Ni  Ni21  1  0.389093  0.389093  0.823019  1
  Ni  Ni22  1  0.389093  0.823019  0.389093  1
  Ni  Ni23  1  0.823019  0.389093  0.389093  1
