# generated using pymatgen
data_Fe3Co3SiW6
_symmetry_space_group_name_H-M   'P 1'
_cell_length_a   8.99544538
_cell_length_b   8.99544554
_cell_length_c   8.99544466
_cell_angle_alpha   30.74389400
_cell_angle_beta   30.74389106
_cell_angle_gamma   30.74390018
_symmetry_Int_Tables_number   1
_chemical_formula_structural   Fe3Co3SiW6
_chemical_formula_sum   'Fe3 Co3 Si1 W6'
_cell_volume   168.67998536
_cell_formula_units_Z   1
loop_
 _symmetry_equiv_pos_site_id
 _symmetry_equiv_pos_as_xyz
  1  'x, y, z'
loop_
 _atom_site_type_symbol
 _atom_site_label
 _atom_site_symmetry_multiplicity
 _atom_site_fract_x
 _atom_site_fract_y
 _atom_site_fract_z
 _atom_site_occupancy
  Fe  Fe0  1  0.908516  0.411536  0.908516  1
  Fe  Fe1  1  0.411536  0.908516  0.908516  1
  Fe  Fe2  1  0.908516  0.908516  0.411536  1
  Co  Co3  1  0.587478  0.091756  0.091756  1
  Co  Co4  1  0.091756  0.091756  0.587478  1
  Co  Co5  1  0.091756  0.587478  0.091756  1
  Si  Si6  1  0.998419  0.998419  0.998419  1
  W  W7  1  0.169278  0.169278  0.169278  1
  W  W8  1  0.833682  0.833682  0.833682  1
  W  W9  1  0.348005  0.348005  0.348005  1
  W  W10  1  0.651539  0.651539  0.651539  1
  W  W11  1  0.450267  0.450267  0.450267  1
  W  W12  1  0.549252  0.549252  0.549252  1
