# generated using pymatgen
data_Fe8Si3Mo12AsC4
_symmetry_space_group_name_H-M   'P 1'
_cell_length_a   7.89424624
_cell_length_b   7.89424738
_cell_length_c   7.89424742
_cell_angle_alpha   60.18489267
_cell_angle_beta   60.18488960
_cell_angle_gamma   60.18489238
_symmetry_Int_Tables_number   1
_chemical_formula_structural   Fe8Si3Mo12AsC4
_chemical_formula_sum   'Fe8 Si3 Mo12 As1 C4'
_cell_volume   349.32667414
_cell_formula_units_Z   1
loop_
 _symmetry_equiv_pos_site_id
 _symmetry_equiv_pos_as_xyz
  1  'x, y, z'
loop_
 _atom_site_type_symbol
 _atom_site_label
 _atom_site_symmetry_multiplicity
 _atom_site_fract_x
 _atom_site_fract_y
 _atom_site_fract_z
 _atom_site_occupancy
  Fe  Fe0  1  0.504904  0.832951  0.832951  1
  Fe  Fe1  1  0.419497  0.419497  0.419497  1
  Fe  Fe2  1  0.745096  0.417049  0.417049  1
  Fe  Fe3  1  0.832951  0.832951  0.504904  1
  Fe  Fe4  1  0.417049  0.745096  0.417049  1
  Fe  Fe5  1  0.832951  0.504904  0.832951  1
  Fe  Fe6  1  0.417049  0.417049  0.745096  1
  Fe  Fe7  1  0.830503  0.830503  0.830503  1
  Si  Si8  1  0.625000  0.625000  0.125000  1
  Si  Si9  1  0.625000  0.125000  0.625000  1
  Si  Si10  1  0.125000  0.625000  0.625000  1
  Mo  Mo11  1  0.807189  0.807189  0.190662  1
  Mo  Mo12  1  0.807189  0.190662  0.807189  1
  Mo  Mo13  1  0.055486  0.055486  0.444126  1
  Mo  Mo14  1  0.805874  0.194514  0.194514  1
  Mo  Mo15  1  0.442811  0.442811  0.059338  1
  Mo  Mo16  1  0.055486  0.444126  0.055486  1
  Mo  Mo17  1  0.190662  0.807189  0.807189  1
  Mo  Mo18  1  0.442811  0.059338  0.442811  1
  Mo  Mo19  1  0.194514  0.805874  0.194514  1
  Mo  Mo20  1  0.194514  0.194514  0.805874  1
  Mo  Mo21  1  0.444126  0.055486  0.055486  1
  Mo  Mo22  1  0.059338  0.442811  0.442811  1
  As  As23  1  0.625000  0.625000  0.625000  1
  C  C24  1  0.625000  0.125000  0.125000  1
  C  C25  1  0.125000  0.125000  0.125000  1
  C  C26  1  0.125000  0.125000  0.625000  1
  C  C27  1  0.125000  0.625000  0.125000  1
