# generated using pymatgen
data_Er4Al2B4IrRh9
_symmetry_space_group_name_H-M   'P 1'
_cell_length_a   9.49257808
_cell_length_b   9.49257808
_cell_length_c   3.16570700
_cell_angle_alpha   90.00000000
_cell_angle_beta   90.00000000
_cell_angle_gamma   90.22362839
_symmetry_Int_Tables_number   1
_chemical_formula_structural   Er4Al2B4IrRh9
_chemical_formula_sum   'Er4 Al2 B4 Ir1 Rh9'
_cell_volume   285.25664125
_cell_formula_units_Z   1
loop_
 _symmetry_equiv_pos_site_id
 _symmetry_equiv_pos_as_xyz
  1  'x, y, z'
loop_
 _atom_site_type_symbol
 _atom_site_label
 _atom_site_symmetry_multiplicity
 _atom_site_fract_x
 _atom_site_fract_y
 _atom_site_fract_z
 _atom_site_occupancy
  Er  Er0  1  0.824926  0.324926  0.000000  1
  Er  Er1  1  0.322933  0.177067  0.000000  1
  Er  Er2  1  0.677067  0.822933  0.000000  1
  Er  Er3  1  0.175074  0.675074  0.000000  1
  Al  Al4  1  0.000000  0.000000  0.000000  1
  Al  Al5  1  0.500000  0.500000  0.000000  1
  B  B6  1  0.621654  0.121654  0.000000  1
  B  B7  1  0.121329  0.378671  0.000000  1
  B  B8  1  0.878671  0.621329  0.000000  1
  B  B9  1  0.378346  0.878346  0.000000  1
  Ir  Ir10  1  0.500000  0.000000  0.500000  1
  Rh  Rh11  1  0.069121  0.218862  0.500000  1
  Rh  Rh12  1  0.218006  0.929626  0.500000  1
  Rh  Rh13  1  0.781994  0.070374  0.500000  1
  Rh  Rh14  1  0.930879  0.781138  0.500000  1
  Rh  Rh15  1  0.429626  0.718006  0.500000  1
  Rh  Rh16  1  0.570374  0.281994  0.500000  1
  Rh  Rh17  1  0.718862  0.569121  0.500000  1
  Rh  Rh18  1  0.281138  0.430879  0.500000  1
  Rh  Rh19  1  0.000000  0.500000  0.500000  1
