# generated using pymatgen
data_SrCe(CdBi2)2
_symmetry_space_group_name_H-M   'P 1'
_cell_length_a   11.06869781
_cell_length_b   11.06869773
_cell_length_c   11.06869631
_cell_angle_alpha   155.10903303
_cell_angle_beta   155.10903356
_cell_angle_gamma   35.48961654
_symmetry_Int_Tables_number   1
_chemical_formula_structural   SrCe(CdBi2)2
_chemical_formula_sum   'Sr1 Ce1 Cd2 Bi4'
_cell_volume   239.94779351
_cell_formula_units_Z   1
loop_
 _symmetry_equiv_pos_site_id
 _symmetry_equiv_pos_as_xyz
  1  'x, y, z'
loop_
 _atom_site_type_symbol
 _atom_site_label
 _atom_site_symmetry_multiplicity
 _atom_site_fract_x
 _atom_site_fract_y
 _atom_site_fract_z
 _atom_site_occupancy
  Sr  Sr0  1  0.885599  0.885599  0.000000  1
  Ce  Ce1  1  0.121349  0.121349  0.000000  1
  Cd  Cd2  1  0.746755  0.246755  0.500000  1
  Cd  Cd3  1  0.246755  0.746755  0.500000  1
  Bi  Bi4  1  0.644353  0.644353  0.000000  1
  Bi  Bi5  1  0.006838  0.506838  0.500000  1
  Bi  Bi6  1  0.341514  0.341514  0.000000  1
  Bi  Bi7  1  0.506838  0.006838  0.500000  1
