# generated using pymatgen
data_Li4La16CoTc3
_symmetry_space_group_name_H-M   'P 1'
_cell_length_a   10.01693812
_cell_length_b   10.01693816
_cell_length_c   10.01693855
_cell_angle_alpha   60.75535684
_cell_angle_beta   60.75535378
_cell_angle_gamma   60.75535180
_symmetry_Int_Tables_number   1
_chemical_formula_structural   Li4La16CoTc3
_chemical_formula_sum   'Li4 La16 Co1 Tc3'
_cell_volume   722.81802354
_cell_formula_units_Z   1
loop_
 _symmetry_equiv_pos_site_id
 _symmetry_equiv_pos_as_xyz
  1  'x, y, z'
loop_
 _atom_site_type_symbol
 _atom_site_label
 _atom_site_symmetry_multiplicity
 _atom_site_fract_x
 _atom_site_fract_y
 _atom_site_fract_z
 _atom_site_occupancy
  Li  Li0  1  0.231989  0.922361  0.922361  1
  Li  Li1  1  0.922424  0.922424  0.922424  1
  Li  Li2  1  0.922361  0.922361  0.231989  1
  Li  Li3  1  0.922361  0.231989  0.922361  1
  La  La4  1  0.944421  0.944421  0.556261  1
  La  La5  1  0.556341  0.942171  0.556341  1
  La  La6  1  0.556261  0.944421  0.944421  1
  La  La7  1  0.685311  0.685311  0.314681  1
  La  La8  1  0.159197  0.159197  0.530803  1
  La  La9  1  0.314681  0.685311  0.685311  1
  La  La10  1  0.156104  0.156104  0.156104  1
  La  La11  1  0.530803  0.159197  0.159197  1
  La  La12  1  0.313144  0.684084  0.313144  1
  La  La13  1  0.313144  0.313144  0.684084  1
  La  La14  1  0.685311  0.314681  0.685311  1
  La  La15  1  0.942171  0.556341  0.556341  1
  La  La16  1  0.556341  0.556341  0.942171  1
  La  La17  1  0.159197  0.530803  0.159197  1
  La  La18  1  0.684084  0.313144  0.313144  1
  La  La19  1  0.944421  0.556261  0.944421  1
  Co  Co20  1  0.362477  0.362477  0.362477  1
  Tc  Tc21  1  0.905247  0.366102  0.366102  1
  Tc  Tc22  1  0.366102  0.366102  0.905247  1
  Tc  Tc23  1  0.366102  0.905247  0.366102  1
