# generated using pymatgen
data_La12Nd8Ir11Ru
_symmetry_space_group_name_H-M   'P 1'
_cell_length_a   11.38719600
_cell_length_b   11.38719600
_cell_length_c   6.63438500
_cell_angle_alpha   90.00000000
_cell_angle_beta   90.00000000
_cell_angle_gamma   90.00000000
_symmetry_Int_Tables_number   1
_chemical_formula_structural   La12Nd8Ir11Ru
_chemical_formula_sum   'La12 Nd8 Ir11 Ru1'
_cell_volume   860.26897828
_cell_formula_units_Z   1
loop_
 _symmetry_equiv_pos_site_id
 _symmetry_equiv_pos_as_xyz
  1  'x, y, z'
loop_
 _atom_site_type_symbol
 _atom_site_label
 _atom_site_symmetry_multiplicity
 _atom_site_fract_x
 _atom_site_fract_y
 _atom_site_fract_z
 _atom_site_occupancy
  La  La0  1  0.089910  0.292130  0.114993  1
  La  La1  1  0.792130  0.410090  0.114993  1
  La  La2  1  0.207870  0.589910  0.114993  1
  La  La3  1  0.910090  0.707870  0.114993  1
  La  La4  1  0.408701  0.790408  0.386585  1
  La  La5  1  0.591299  0.209592  0.386585  1
  La  La6  1  0.290408  0.091299  0.386585  1
  La  La7  1  0.709592  0.908701  0.386585  1
  La  La8  1  0.408326  0.210227  0.884840  1
  La  La9  1  0.710227  0.091674  0.884840  1
  La  La10  1  0.289773  0.908326  0.884840  1
  La  La11  1  0.591674  0.789773  0.884840  1
  Nd  Nd12  1  0.088190  0.706425  0.612632  1
  Nd  Nd13  1  0.911810  0.293575  0.612632  1
  Nd  Nd14  1  0.206425  0.411810  0.612632  1
  Nd  Nd15  1  0.793575  0.588190  0.612632  1
  Nd  Nd16  1  0.000000  0.000000  0.000158  1
  Nd  Nd17  1  0.500000  0.500000  0.000158  1
  Nd  Nd18  1  0.500000  0.500000  0.502105  1
  Nd  Nd19  1  0.000000  0.000000  0.502105  1
  Ir  Ir20  1  0.154182  0.847428  0.249719  1
  Ir  Ir21  1  0.347428  0.345818  0.249719  1
  Ir  Ir22  1  0.652572  0.654182  0.249719  1
  Ir  Ir23  1  0.845818  0.152572  0.249719  1
  Ir  Ir24  1  0.346216  0.653408  0.749491  1
  Ir  Ir25  1  0.153408  0.153784  0.749491  1
  Ir  Ir26  1  0.846592  0.846216  0.749491  1
  Ir  Ir27  1  0.653784  0.346592  0.749491  1
  Ir  Ir28  1  0.500000  0.000000  0.121027  1
  Ir  Ir29  1  0.500000  0.000000  0.621088  1
  Ir  Ir30  1  0.000000  0.500000  0.881521  1
  Ru  Ru31  1  0.000000  0.500000  0.378798  1
