# generated using pymatgen
data_SrLaPr5CoI12
_symmetry_space_group_name_H-M   'P 1'
_cell_length_a   10.14612861
_cell_length_b   10.14409468
_cell_length_c   9.99559907
_cell_angle_alpha   106.51467720
_cell_angle_beta   106.04403584
_cell_angle_gamma   106.19926170
_symmetry_Int_Tables_number   1
_chemical_formula_structural   SrLaPr5CoI12
_chemical_formula_sum   'Sr1 La1 Pr5 Co1 I12'
_cell_volume   873.64442400
_cell_formula_units_Z   1
loop_
 _symmetry_equiv_pos_site_id
 _symmetry_equiv_pos_as_xyz
  1  'x, y, z'
loop_
 _atom_site_type_symbol
 _atom_site_label
 _atom_site_symmetry_multiplicity
 _atom_site_fract_x
 _atom_site_fract_y
 _atom_site_fract_z
 _atom_site_occupancy
  Sr  Sr0  1  0.499471  0.499620  0.499991  1
  La  La1  1  0.980230  0.908259  0.714612  1
  Pr  Pr2  1  0.020275  0.091912  0.283655  1
  Pr  Pr3  1  0.096912  0.301383  0.020575  1
  Pr  Pr4  1  0.301220  0.021033  0.097974  1
  Pr  Pr5  1  0.903051  0.698726  0.979534  1
  Pr  Pr6  1  0.699225  0.979241  0.903337  1
  Co  Co7  1  0.000121  0.998648  0.995648  1
  I  I8  1  0.549007  0.630465  0.858176  1
  I  I9  1  0.451052  0.369494  0.142100  1
  I  I10  1  0.324147  0.926700  0.774812  1
  I  I11  1  0.370423  0.146141  0.455257  1
  I  I12  1  0.927769  0.778325  0.324111  1
  I  I13  1  0.679746  0.074328  0.227981  1
  I  I14  1  0.073284  0.225715  0.676654  1
  I  I15  1  0.776159  0.320991  0.927066  1
  I  I16  1  0.223783  0.679111  0.073304  1
  I  I17  1  0.853246  0.544334  0.626418  1
  I  I18  1  0.144926  0.452076  0.373914  1
  I  I19  1  0.625951  0.853497  0.544881  1
