# generated using pymatgen
data_Te14H
_symmetry_space_group_name_H-M   'P 1'
_cell_length_a   4.56691190
_cell_length_b   4.56691321
_cell_length_c   27.37032792
_cell_angle_alpha   86.31724772
_cell_angle_beta   86.31724655
_cell_angle_gamma   56.74037174
_symmetry_Int_Tables_number   1
_chemical_formula_structural   Te14H
_chemical_formula_sum   'Te14 H1'
_cell_volume   476.07150630
_cell_formula_units_Z   1
loop_
 _symmetry_equiv_pos_site_id
 _symmetry_equiv_pos_as_xyz
  1  'x, y, z'
loop_
 _atom_site_type_symbol
 _atom_site_label
 _atom_site_symmetry_multiplicity
 _atom_site_fract_x
 _atom_site_fract_y
 _atom_site_fract_z
 _atom_site_occupancy
  Te  Te0  1  0.703279  0.703279  0.058530  1
  Te  Te1  1  0.667639  0.667639  0.266183  1
  Te  Te2  1  0.658437  0.658437  0.472538  1
  Te  Te3  1  0.632352  0.632352  0.685228  1
  Te  Te4  1  0.788108  0.788108  0.842731  1
  Te  Te5  1  0.341563  0.341563  0.127462  1
  Te  Te6  1  0.332361  0.332361  0.333817  1
  Te  Te7  1  0.296721  0.296721  0.541470  1
  Te  Te8  1  0.211892  0.211892  0.757269  1
  Te  Te9  1  0.367648  0.367648  0.914772  1
  Te  Te10  1  0.995308  0.995308  0.986640  1
  Te  Te11  1  0.986862  0.986862  0.196691  1
  Te  Te12  1  0.013138  0.013138  0.403309  1
  Te  Te13  1  0.004692  0.004692  0.613360  1
  H  H14  1  0.000000  0.000000  0.800000  1
