# generated using pymatgen
data_Dy6Ho3ScCd3Ru
_symmetry_space_group_name_H-M   'P 1'
_cell_length_a   9.50958300
_cell_length_b   9.50958285
_cell_length_c   9.76139400
_cell_angle_alpha   90.00000000
_cell_angle_beta   90.00000000
_cell_angle_gamma   120.00000399
_symmetry_Int_Tables_number   1
_chemical_formula_structural   Dy6Ho3ScCd3Ru
_chemical_formula_sum   'Dy12 Ho6 Sc2 Cd6 Ru2'
_cell_volume   764.47871279
_cell_formula_units_Z   2
loop_
 _symmetry_equiv_pos_site_id
 _symmetry_equiv_pos_as_xyz
  1  'x, y, z'
loop_
 _atom_site_type_symbol
 _atom_site_label
 _atom_site_symmetry_multiplicity
 _atom_site_fract_x
 _atom_site_fract_y
 _atom_site_fract_z
 _atom_site_occupancy
  Dy  Dy0  1  0.791539  0.208461  0.940720  1
  Dy  Dy1  1  0.791539  0.583077  0.940720  1
  Dy  Dy2  1  0.416923  0.208461  0.940720  1
  Dy  Dy3  1  0.208461  0.791539  0.059280  1
  Dy  Dy4  1  0.208461  0.416923  0.059280  1
  Dy  Dy5  1  0.583077  0.791539  0.059280  1
  Dy  Dy6  1  0.540836  0.459164  0.250773  1
  Dy  Dy7  1  0.540836  0.081673  0.250773  1
  Dy  Dy8  1  0.918327  0.459164  0.250773  1
  Dy  Dy9  1  0.459164  0.540836  0.749227  1
  Dy  Dy10  1  0.459164  0.918327  0.749227  1
  Dy  Dy11  1  0.081673  0.540836  0.749227  1
  Ho  Ho12  1  0.208714  0.791286  0.441024  1
  Ho  Ho13  1  0.208714  0.417427  0.441024  1
  Ho  Ho14  1  0.582573  0.791286  0.441024  1
  Ho  Ho15  1  0.791286  0.208714  0.558976  1
  Ho  Ho16  1  0.791286  0.582573  0.558976  1
  Ho  Ho17  1  0.417427  0.208714  0.558976  1
  Sc  Sc18  1  0.000000  0.000000  0.500000  1
  Sc  Sc19  1  0.000000  0.000000  0.000000  1
  Cd  Cd20  1  0.889198  0.110802  0.250170  1
  Cd  Cd21  1  0.889198  0.778396  0.250170  1
  Cd  Cd22  1  0.221604  0.110802  0.250170  1
  Cd  Cd23  1  0.110802  0.889198  0.749830  1
  Cd  Cd24  1  0.110802  0.221604  0.749830  1
  Cd  Cd25  1  0.778396  0.889198  0.749830  1
  Ru  Ru26  1  0.333333  0.666667  0.250697  1
  Ru  Ru27  1  0.666667  0.333333  0.749303  1
