# generated using pymatgen
data_Hf4Sc6Co8Si19As
_symmetry_space_group_name_H-M   'P 1'
_cell_length_a   12.02080000
_cell_length_b   12.02080000
_cell_length_c   3.93837700
_cell_angle_alpha   90.00000000
_cell_angle_beta   90.00000000
_cell_angle_gamma   90.04668199
_symmetry_Int_Tables_number   1
_chemical_formula_structural   Hf4Sc6Co8Si19As
_chemical_formula_sum   'Hf4 Sc6 Co8 Si19 As1'
_cell_volume   569.09384057
_cell_formula_units_Z   1
loop_
 _symmetry_equiv_pos_site_id
 _symmetry_equiv_pos_as_xyz
  1  'x, y, z'
loop_
 _atom_site_type_symbol
 _atom_site_label
 _atom_site_symmetry_multiplicity
 _atom_site_fract_x
 _atom_site_fract_y
 _atom_site_fract_z
 _atom_site_occupancy
  Hf  Hf0  1  0.679308  0.179308  0.500000  1
  Hf  Hf1  1  0.176806  0.322866  0.500000  1
  Hf  Hf2  1  0.822866  0.676806  0.500000  1
  Hf  Hf3  1  0.322325  0.822325  0.500000  1
  Sc  Sc4  1  0.000056  0.000070  0.000000  1
  Sc  Sc5  1  0.500070  0.500056  0.000000  1
  Sc  Sc6  1  0.887487  0.387487  0.500000  1
  Sc  Sc7  1  0.384221  0.113372  0.500000  1
  Sc  Sc8  1  0.613372  0.884221  0.500000  1
  Sc  Sc9  1  0.112383  0.612383  0.500000  1
  Co  Co10  1  0.525879  0.256843  0.000000  1
  Co  Co11  1  0.255108  0.473752  0.000000  1
  Co  Co12  1  0.745043  0.526458  0.000000  1
  Co  Co13  1  0.474403  0.745471  0.000000  1
  Co  Co14  1  0.973752  0.755108  0.000000  1
  Co  Co15  1  0.026458  0.245043  0.000000  1
  Co  Co16  1  0.756843  0.025879  0.000000  1
  Co  Co17  1  0.245471  0.974403  0.000000  1
  Si  Si18  1  0.068344  0.431795  0.000000  1
  Si  Si19  1  0.931795  0.568344  0.000000  1
  Si  Si20  1  0.428442  0.928442  0.000000  1
  Si  Si21  1  0.198437  0.155230  0.000000  1
  Si  Si22  1  0.155111  0.801490  0.000000  1
  Si  Si23  1  0.845643  0.199058  0.000000  1
  Si  Si24  1  0.801560  0.844386  0.000000  1
  Si  Si25  1  0.301490  0.655111  0.000000  1
  Si  Si26  1  0.699058  0.345643  0.000000  1
  Si  Si27  1  0.655230  0.698437  0.000000  1
  Si  Si28  1  0.344386  0.301560  0.000000  1
  Si  Si29  1  0.002414  0.163138  0.500000  1
  Si  Si30  1  0.163106  0.997365  0.500000  1
  Si  Si31  1  0.838007  0.002838  0.500000  1
  Si  Si32  1  0.997313  0.836981  0.500000  1
  Si  Si33  1  0.497365  0.663106  0.500000  1
  Si  Si34  1  0.502838  0.338007  0.500000  1
  Si  Si35  1  0.663138  0.502414  0.500000  1
  Si  Si36  1  0.336981  0.497313  0.500000  1
  As  As37  1  0.567489  0.067489  0.000000  1
