# generated using pymatgen
data_Bi2Te2Mo2O13
_symmetry_space_group_name_H-M   'P 1'
_cell_length_a   6.69527772
_cell_length_b   7.09508419
_cell_length_c   12.02975831
_cell_angle_alpha   90.42031700
_cell_angle_beta   82.50170654
_cell_angle_gamma   84.99610207
_symmetry_Int_Tables_number   1
_chemical_formula_structural   Bi2Te2Mo2O13
_chemical_formula_sum   'Bi4 Te4 Mo4 O26'
_cell_volume   564.30896937
_cell_formula_units_Z   2
loop_
 _symmetry_equiv_pos_site_id
 _symmetry_equiv_pos_as_xyz
  1  'x, y, z'
loop_
 _atom_site_type_symbol
 _atom_site_label
 _atom_site_symmetry_multiplicity
 _atom_site_fract_x
 _atom_site_fract_y
 _atom_site_fract_z
 _atom_site_occupancy
  Bi  Bi0  1  0.779477  0.134833  0.116616  1
  Bi  Bi1  1  0.386330  0.412439  0.353912  1
  Bi  Bi2  1  0.613670  0.587562  0.646089  1
  Bi  Bi3  1  0.220524  0.865168  0.883384  1
  Te  Te4  1  0.248904  0.395502  0.051148  1
  Te  Te5  1  0.853983  0.194727  0.429679  1
  Te  Te6  1  0.146016  0.805273  0.570320  1
  Te  Te7  1  0.751097  0.604498  0.948852  1
  Mo  Mo8  1  0.251688  0.888102  0.182065  1
  Mo  Mo9  1  0.892458  0.644036  0.295550  1
  Mo  Mo10  1  0.107543  0.355964  0.704450  1
  Mo  Mo11  1  0.748311  0.111898  0.817935  1
  O  O12  1  0.277504  0.668018  0.046950  1
  O  O13  1  0.155251  0.045608  0.067265  1
  O  O14  1  0.987509  0.418769  0.140275  1
  O  O15  1  0.514472  0.907817  0.147010  1
  O  O16  1  0.427392  0.329297  0.159299  1
  O  O17  1  0.920320  0.831291  0.189280  1
  O  O18  1  0.648537  0.567677  0.280653  1
  O  O19  1  0.208715  0.658771  0.273898  1
  O  O20  1  0.184071  0.045716  0.298979  1
  O  O21  1  0.698982  0.169621  0.309627  1
  O  O22  1  0.999629  0.406681  0.373871  1
  O  O23  1  0.840345  0.776871  0.422078  1
  O  O24  1  0.367873  0.653661  0.491394  1
  O  O25  1  0.632128  0.346338  0.508606  1
  O  O26  1  0.159655  0.223130  0.577922  1
  O  O27  1  0.000372  0.593320  0.626129  1
  O  O28  1  0.301017  0.830378  0.690374  1
  O  O29  1  0.815930  0.954283  0.701020  1
  O  O30  1  0.791286  0.341228  0.726102  1
  O  O31  1  0.351464  0.432324  0.719347  1
  O  O32  1  0.079681  0.168710  0.810719  1
  O  O33  1  0.572608  0.670704  0.840701  1
  O  O34  1  0.485529  0.092182  0.852990  1
  O  O35  1  0.012491  0.581230  0.859724  1
  O  O36  1  0.844748  0.954392  0.932735  1
  O  O37  1  0.722497  0.331981  0.953050  1
