# generated using pymatgen
data_Li2Ac2Ni15
_symmetry_space_group_name_H-M   'P 1'
_cell_length_a   6.38938563
_cell_length_b   6.38938602
_cell_length_c   6.38938608
_cell_angle_alpha   83.68065186
_cell_angle_beta   83.68065700
_cell_angle_gamma   83.68066080
_symmetry_Int_Tables_number   1
_chemical_formula_structural   Li2Ac2Ni15
_chemical_formula_sum   'Li2 Ac2 Ni15'
_cell_volume   256.41182829
_cell_formula_units_Z   1
loop_
 _symmetry_equiv_pos_site_id
 _symmetry_equiv_pos_as_xyz
  1  'x, y, z'
loop_
 _atom_site_type_symbol
 _atom_site_label
 _atom_site_symmetry_multiplicity
 _atom_site_fract_x
 _atom_site_fract_y
 _atom_site_fract_z
 _atom_site_occupancy
  Li  Li0  1  0.908596  0.908596  0.908596  1
  Li  Li1  1  0.091404  0.091404  0.091404  1
  Ac  Ac2  1  0.658766  0.658766  0.658766  1
  Ac  Ac3  1  0.341234  0.341234  0.341234  1
  Ni  Ni4  1  0.000000  0.000000  0.500000  1
  Ni  Ni5  1  0.500000  0.000000  0.000000  1
  Ni  Ni6  1  0.000000  0.500000  0.000000  1
  Ni  Ni7  1  0.707219  0.292781  0.000000  1
  Ni  Ni8  1  0.000000  0.707219  0.292781  1
  Ni  Ni9  1  0.292781  0.000000  0.707219  1
  Ni  Ni10  1  0.000000  0.292781  0.707219  1
  Ni  Ni11  1  0.707219  0.000000  0.292781  1
  Ni  Ni12  1  0.292781  0.707219  0.000000  1
  Ni  Ni13  1  0.339385  0.339385  0.845779  1
  Ni  Ni14  1  0.845779  0.339385  0.339385  1
  Ni  Ni15  1  0.339385  0.845779  0.339385  1
  Ni  Ni16  1  0.660615  0.660615  0.154221  1
  Ni  Ni17  1  0.154221  0.660615  0.660615  1
  Ni  Ni18  1  0.660615  0.154221  0.660615  1
