# generated using pymatgen
data_Er4Tm12MgCd3Ni4
_symmetry_space_group_name_H-M   'P 1'
_cell_length_a   9.47248544
_cell_length_b   9.42682476
_cell_length_c   9.42682500
_cell_angle_alpha   60.00000268
_cell_angle_beta   60.15933079
_cell_angle_gamma   60.15933160
_symmetry_Int_Tables_number   1
_chemical_formula_structural   Er4Tm12MgCd3Ni4
_chemical_formula_sum   'Er4 Tm12 Mg1 Cd3 Ni4'
_cell_volume   596.65262548
_cell_formula_units_Z   1
loop_
 _symmetry_equiv_pos_site_id
 _symmetry_equiv_pos_as_xyz
  1  'x, y, z'
loop_
 _atom_site_type_symbol
 _atom_site_label
 _atom_site_symmetry_multiplicity
 _atom_site_fract_x
 _atom_site_fract_y
 _atom_site_fract_z
 _atom_site_occupancy
  Er  Er0  1  0.597833  0.597007  0.597007  1
  Er  Er1  1  0.597833  0.597007  0.208154  1
  Er  Er2  1  0.597833  0.208154  0.597007  1
  Er  Er3  1  0.203030  0.598991  0.598991  1
  Tm  Tm4  1  0.060995  0.438462  0.438462  1
  Tm  Tm5  1  0.436208  0.063385  0.063385  1
  Tm  Tm6  1  0.436208  0.063385  0.437023  1
  Tm  Tm7  1  0.060995  0.438462  0.062079  1
  Tm  Tm8  1  0.436208  0.437023  0.063385  1
  Tm  Tm9  1  0.060995  0.062079  0.438462  1
  Tm  Tm10  1  0.184134  0.814868  0.814868  1
  Tm  Tm11  1  0.814679  0.185415  0.185415  1
  Tm  Tm12  1  0.814679  0.185415  0.814490  1
  Tm  Tm13  1  0.184134  0.814868  0.186131  1
  Tm  Tm14  1  0.814679  0.814490  0.185415  1
  Tm  Tm15  1  0.184134  0.186131  0.814868  1
  Mg  Mg16  1  0.522966  0.825678  0.825678  1
  Cd  Cd17  1  0.832518  0.831759  0.831759  1
  Cd  Cd18  1  0.832518  0.831759  0.503962  1
  Cd  Cd19  1  0.832518  0.503962  0.831759  1
  Ni  Ni20  1  0.389979  0.392882  0.392882  1
  Ni  Ni21  1  0.389979  0.392882  0.824259  1
  Ni  Ni22  1  0.389979  0.824259  0.392882  1
  Ni  Ni23  1  0.824965  0.391678  0.391678  1
