# generated using pymatgen
data_Hf9ZrGa2(BiPb2)2
_symmetry_space_group_name_H-M   'P 1'
_cell_length_a   8.81519545
_cell_length_b   8.81092904
_cell_length_c   5.88325100
_cell_angle_alpha   90.00000000
_cell_angle_beta   90.00000000
_cell_angle_gamma   119.94206294
_symmetry_Int_Tables_number   1
_chemical_formula_structural   Hf9ZrGa2(BiPb2)2
_chemical_formula_sum   'Hf9 Zr1 Ga2 Bi2 Pb4'
_cell_volume   395.96327625
_cell_formula_units_Z   1
loop_
 _symmetry_equiv_pos_site_id
 _symmetry_equiv_pos_as_xyz
  1  'x, y, z'
loop_
 _atom_site_type_symbol
 _atom_site_label
 _atom_site_symmetry_multiplicity
 _atom_site_fract_x
 _atom_site_fract_y
 _atom_site_fract_z
 _atom_site_occupancy
  Hf  Hf0  1  0.332388  0.666168  0.999599  1
  Hf  Hf1  1  0.666795  0.333108  0.500500  1
  Hf  Hf2  1  0.666795  0.333108  0.999500  1
  Hf  Hf3  1  0.332388  0.666168  0.500401  1
  Hf  Hf4  1  0.263263  0.999165  0.250000  1
  Hf  Hf5  1  0.265316  0.265769  0.750000  1
  Hf  Hf6  1  0.003436  0.735952  0.750000  1
  Hf  Hf7  1  0.001181  0.264998  0.250000  1
  Hf  Hf8  1  0.735748  0.002914  0.750000  1
  Zr  Zr9  1  0.735298  0.734404  0.250000  1
  Ga  Ga10  1  0.000788  0.000632  0.997921  1
  Ga  Ga11  1  0.000788  0.000632  0.502079  1
  Bi  Bi12  1  0.609315  0.000496  0.250000  1
  Bi  Bi13  1  0.611084  0.610655  0.750000  1
  Pb  Pb14  1  0.000028  0.388864  0.750000  1
  Pb  Pb15  1  0.000068  0.609891  0.250000  1
  Pb  Pb16  1  0.387334  0.386663  0.250000  1
  Pb  Pb17  1  0.387986  0.000413  0.750000  1
