# generated using pymatgen
data_Pa3In(NiSb)3
_symmetry_space_group_name_H-M   'P 1'
_cell_length_a   8.15414715
_cell_length_b   8.16137291
_cell_length_c   8.15838200
_cell_angle_alpha   109.51674847
_cell_angle_beta   109.48088684
_cell_angle_gamma   109.41294335
_symmetry_Int_Tables_number   1
_chemical_formula_structural   Pa3In(NiSb)3
_chemical_formula_sum   'Pa6 In2 Ni6 Sb6'
_cell_volume   417.96523591
_cell_formula_units_Z   2
loop_
 _symmetry_equiv_pos_site_id
 _symmetry_equiv_pos_as_xyz
  1  'x, y, z'
loop_
 _atom_site_type_symbol
 _atom_site_label
 _atom_site_symmetry_multiplicity
 _atom_site_fract_x
 _atom_site_fract_y
 _atom_site_fract_z
 _atom_site_occupancy
  Pa  Pa0  1  0.623902  0.373251  0.248091  1
  Pa  Pa1  1  0.374199  0.247925  0.623562  1
  Pa  Pa2  1  0.126066  0.753011  0.876860  1
  Pa  Pa3  1  0.749206  0.876151  0.123140  1
  Pa  Pa4  1  0.250637  0.624364  0.376438  1
  Pa  Pa5  1  0.875812  0.125161  0.751909  1
  In  In6  1  0.500092  0.999908  0.830302  1
  In  In7  1  0.169790  0.169606  0.169698  1
  Ni  Ni8  1  0.875666  0.252582  0.126442  1
  Ni  Ni9  1  0.373830  0.622509  0.750431  1
  Ni  Ni10  1  0.626231  0.750878  0.374932  1
  Ni  Ni11  1  0.751299  0.375946  0.625068  1
  Ni  Ni12  1  0.249223  0.126141  0.873558  1
  Ni  Ni13  1  0.123399  0.872078  0.249569  1
  Sb  Sb14  1  0.832563  0.498352  0.999823  1
  Sb  Sb15  1  0.002034  0.834362  0.501832  1
  Sb  Sb16  1  0.332740  0.498529  0.000177  1
  Sb  Sb17  1  0.000203  0.332531  0.498168  1
  Sb  Sb18  1  0.498284  0.000085  0.333455  1
  Sb  Sb19  1  0.664828  0.666629  0.666545  1
