# generated using pymatgen
data_Tb5Dy11MgHg3Rh4
_symmetry_space_group_name_H-M   'P 1'
_cell_length_a   9.63327701
_cell_length_b   9.63566248
_cell_length_c   9.63712781
_cell_angle_alpha   59.88829733
_cell_angle_beta   59.91219182
_cell_angle_gamma   59.90975119
_symmetry_Int_Tables_number   1
_chemical_formula_structural   Tb5Dy11MgHg3Rh4
_chemical_formula_sum   'Tb5 Dy11 Mg1 Hg3 Rh4'
_cell_volume   631.15429031
_cell_formula_units_Z   1
loop_
 _symmetry_equiv_pos_site_id
 _symmetry_equiv_pos_as_xyz
  1  'x, y, z'
loop_
 _atom_site_type_symbol
 _atom_site_label
 _atom_site_symmetry_multiplicity
 _atom_site_fract_x
 _atom_site_fract_y
 _atom_site_fract_z
 _atom_site_occupancy
  Tb  Tb0  1  0.063027  0.436321  0.436927  1
  Tb  Tb1  1  0.648115  0.048400  0.650336  1
  Tb  Tb2  1  0.813666  0.811244  0.188874  1
  Tb  Tb3  1  0.437376  0.063245  0.063440  1
  Tb  Tb4  1  0.437688  0.436018  0.062209  1
  Dy  Dy5  1  0.190418  0.189881  0.810742  1
  Dy  Dy6  1  0.815300  0.187335  0.187008  1
  Dy  Dy7  1  0.064175  0.437223  0.061570  1
  Dy  Dy8  1  0.437418  0.062128  0.436421  1
  Dy  Dy9  1  0.058536  0.646530  0.646498  1
  Dy  Dy10  1  0.191833  0.810017  0.809404  1
  Dy  Dy11  1  0.648288  0.650422  0.047873  1
  Dy  Dy12  1  0.190783  0.810884  0.189900  1
  Dy  Dy13  1  0.064445  0.061803  0.437270  1
  Dy  Dy14  1  0.814009  0.189114  0.810987  1
  Dy  Dy15  1  0.649896  0.652492  0.652847  1
  Mg  Mg16  1  0.717156  0.428002  0.427821  1
  Hg  Hg17  1  0.417497  0.413226  0.756597  1
  Hg  Hg18  1  0.418190  0.413307  0.413389  1
  Hg  Hg19  1  0.417492  0.756957  0.413011  1
  Rh  Rh20  1  0.858404  0.428461  0.855456  1
  Rh  Rh21  1  0.427266  0.856323  0.856725  1
  Rh  Rh22  1  0.858463  0.855247  0.428677  1
  Rh  Rh23  1  0.860558  0.855422  0.856020  1
