# generated using pymatgen
data_LaThTc5(PRh)7
_symmetry_space_group_name_H-M   'P 1'
_cell_length_a   3.96475900
_cell_length_b   9.56470288
_cell_length_c   9.56834810
_cell_angle_alpha   119.65201529
_cell_angle_beta   90.00012831
_cell_angle_gamma   89.99842223
_symmetry_Int_Tables_number   1
_chemical_formula_structural   LaThTc5(PRh)7
_chemical_formula_sum   'La1 Th1 Tc5 P7 Rh7'
_cell_volume   315.33202871
_cell_formula_units_Z   1
loop_
 _symmetry_equiv_pos_site_id
 _symmetry_equiv_pos_as_xyz
  1  'x, y, z'
loop_
 _atom_site_type_symbol
 _atom_site_label
 _atom_site_symmetry_multiplicity
 _atom_site_fract_x
 _atom_site_fract_y
 _atom_site_fract_z
 _atom_site_occupancy
  La  La0  1  0.261877  0.668455  0.333858  1
  Th  Th1  1  0.761897  0.333321  0.665695  1
  Tc  Tc2  1  0.761904  0.093412  0.873399  1
  Tc  Tc3  1  0.761929  0.125876  0.220724  1
  Tc  Tc4  1  0.761891  0.778990  0.904213  1
  Tc  Tc5  1  0.261953  0.884509  0.155847  1
  Tc  Tc6  1  0.261937  0.844795  0.727914  1
  P  P7  1  0.262088  0.997278  0.997510  1
  P  P8  1  0.761881  0.886943  0.604414  1
  P  P9  1  0.761843  0.396456  0.286853  1
  P  P10  1  0.761907  0.718356  0.114933  1
  P  P11  1  0.261920  0.108602  0.404280  1
  P  P12  1  0.261910  0.594983  0.703767  1
  P  P13  1  0.261824  0.297322  0.889465  1
  Rh  Rh14  1  0.261885  0.271002  0.115209  1
  Rh  Rh15  1  0.761888  0.606982  0.560167  1
  Rh  Rh16  1  0.761868  0.437591  0.047828  1
  Rh  Rh17  1  0.761903  0.951642  0.393036  1
  Rh  Rh18  1  0.261905  0.366249  0.435604  1
  Rh  Rh19  1  0.261888  0.563437  0.929399  1
  Rh  Rh20  1  0.261903  0.073801  0.635887  1
