# generated using pymatgen
data_LaZnCuNi2Rh
_symmetry_space_group_name_H-M   'P 1'
_cell_length_a   5.30375500
_cell_length_b   4.97556111
_cell_length_c   4.07723100
_cell_angle_alpha   90.00000000
_cell_angle_beta   90.00000000
_cell_angle_gamma   118.66272809
_symmetry_Int_Tables_number   1
_chemical_formula_structural   LaZnCuNi2Rh
_chemical_formula_sum   'La1 Zn1 Cu1 Ni2 Rh1'
_cell_volume   94.40986095
_cell_formula_units_Z   1
loop_
 _symmetry_equiv_pos_site_id
 _symmetry_equiv_pos_as_xyz
  1  'x, y, z'
loop_
 _atom_site_type_symbol
 _atom_site_label
 _atom_site_symmetry_multiplicity
 _atom_site_fract_x
 _atom_site_fract_y
 _atom_site_fract_z
 _atom_site_occupancy
  La  La0  1  0.498169  0.500128  0.000000  1
  Zn  Zn1  1  0.000456  0.499155  0.500000  1
  Cu  Cu2  1  0.145745  0.838088  0.000000  1
  Ni  Ni3  1  0.851946  0.158476  0.000000  1
  Ni  Ni4  1  0.000991  0.002285  0.500000  1
  Rh  Rh5  1  0.502693  0.001869  0.500000  1
