# generated using pymatgen
data_Ca2YNi7B2
_symmetry_space_group_name_H-M   'P 1'
_cell_length_a   7.78305149
_cell_length_b   7.78305112
_cell_length_c   7.78305083
_cell_angle_alpha   38.28399334
_cell_angle_beta   38.28399759
_cell_angle_gamma   38.28399467
_symmetry_Int_Tables_number   1
_chemical_formula_structural   Ca2YNi7B2
_chemical_formula_sum   'Ca2 Y1 Ni7 B2'
_cell_volume   162.53548787
_cell_formula_units_Z   1
loop_
 _symmetry_equiv_pos_site_id
 _symmetry_equiv_pos_as_xyz
  1  'x, y, z'
loop_
 _atom_site_type_symbol
 _atom_site_label
 _atom_site_symmetry_multiplicity
 _atom_site_fract_x
 _atom_site_fract_y
 _atom_site_fract_z
 _atom_site_occupancy
  Ca  Ca0  1  0.646585  0.646585  0.646585  1
  Ca  Ca1  1  0.353415  0.353415  0.353415  1
  Y  Y2  1  0.500000  0.500000  0.500000  1
  Ni  Ni3  1  0.571836  0.062158  0.062158  1
  Ni  Ni4  1  0.062158  0.062158  0.571836  1
  Ni  Ni5  1  0.062158  0.571836  0.062158  1
  Ni  Ni6  1  0.937842  0.428164  0.937842  1
  Ni  Ni7  1  0.937842  0.937842  0.428164  1
  Ni  Ni8  1  0.428164  0.937842  0.937842  1
  Ni  Ni9  1  0.000000  0.000000  0.000000  1
  B  B10  1  0.831032  0.831032  0.831032  1
  B  B11  1  0.168968  0.168968  0.168968  1
