# generated using pymatgen
data_YCdGa3Ni
_symmetry_space_group_name_H-M   'P 1'
_cell_length_a   8.17376165
_cell_length_b   8.17376164
_cell_length_c   6.48907300
_cell_angle_alpha   90.00000000
_cell_angle_beta   90.00000000
_cell_angle_gamma   150.07592648
_symmetry_Int_Tables_number   1
_chemical_formula_structural   YCdGa3Ni
_chemical_formula_sum   'Y2 Cd2 Ga6 Ni2'
_cell_volume   216.27098451
_cell_formula_units_Z   2
loop_
 _symmetry_equiv_pos_site_id
 _symmetry_equiv_pos_as_xyz
  1  'x, y, z'
loop_
 _atom_site_type_symbol
 _atom_site_label
 _atom_site_symmetry_multiplicity
 _atom_site_fract_x
 _atom_site_fract_y
 _atom_site_fract_z
 _atom_site_occupancy
  Y  Y0  1  0.373303  0.626697  0.750000  1
  Y  Y1  1  0.626697  0.373303  0.250000  1
  Cd  Cd2  1  0.000000  0.000000  0.000000  1
  Cd  Cd3  1  0.000000  0.000000  0.500000  1
  Ga  Ga4  1  0.571321  0.428679  0.750000  1
  Ga  Ga5  1  0.428679  0.571321  0.250000  1
  Ga  Ga6  1  0.187963  0.812037  0.951044  1
  Ga  Ga7  1  0.812037  0.187963  0.048956  1
  Ga  Ga8  1  0.187963  0.812037  0.548956  1
  Ga  Ga9  1  0.812037  0.187963  0.451044  1
  Ni  Ni10  1  0.720228  0.279772  0.750000  1
  Ni  Ni11  1  0.279772  0.720228  0.250000  1
