# generated using pymatgen
data_Tm6CoTc
_symmetry_space_group_name_H-M   'P 1'
_cell_length_a   6.17264169
_cell_length_b   7.15715085
_cell_length_c   9.03001900
_cell_angle_alpha   90.00000000
_cell_angle_beta   90.00000000
_cell_angle_gamma   89.61363670
_symmetry_Int_Tables_number   1
_chemical_formula_structural   Tm6CoTc
_chemical_formula_sum   'Tm12 Co2 Tc2'
_cell_volume   398.92387460
_cell_formula_units_Z   2
loop_
 _symmetry_equiv_pos_site_id
 _symmetry_equiv_pos_as_xyz
  1  'x, y, z'
loop_
 _atom_site_type_symbol
 _atom_site_label
 _atom_site_symmetry_multiplicity
 _atom_site_fract_x
 _atom_site_fract_y
 _atom_site_fract_z
 _atom_site_occupancy
  Tm  Tm0  1  0.645095  0.038075  0.250000  1
  Tm  Tm1  1  0.354905  0.961925  0.750000  1
  Tm  Tm2  1  0.123507  0.452772  0.750000  1
  Tm  Tm3  1  0.876493  0.547228  0.250000  1
  Tm  Tm4  1  0.171597  0.173832  0.067289  1
  Tm  Tm5  1  0.828403  0.826168  0.932711  1
  Tm  Tm6  1  0.666171  0.322650  0.938054  1
  Tm  Tm7  1  0.828403  0.826168  0.567289  1
  Tm  Tm8  1  0.333829  0.677350  0.061946  1
  Tm  Tm9  1  0.171597  0.173832  0.432711  1
  Tm  Tm10  1  0.333829  0.677350  0.438054  1
  Tm  Tm11  1  0.666171  0.322650  0.561946  1
  Co  Co12  1  0.958302  0.114809  0.750000  1
  Co  Co13  1  0.041698  0.885191  0.250000  1
  Tc  Tc14  1  0.467687  0.385569  0.250000  1
  Tc  Tc15  1  0.532313  0.614431  0.750000  1
