# generated using pymatgen
data_Th10ZnBi3Pb4
_symmetry_space_group_name_H-M   'P 1'
_cell_length_a   9.72811984
_cell_length_b   9.73267077
_cell_length_c   6.70805700
_cell_angle_alpha   89.95230390
_cell_angle_beta   90.02385332
_cell_angle_gamma   120.01549015
_symmetry_Int_Tables_number   1
_chemical_formula_structural   Th10ZnBi3Pb4
_chemical_formula_sum   'Th10 Zn1 Bi3 Pb4'
_cell_volume   549.94639607
_cell_formula_units_Z   1
loop_
 _symmetry_equiv_pos_site_id
 _symmetry_equiv_pos_as_xyz
  1  'x, y, z'
loop_
 _atom_site_type_symbol
 _atom_site_label
 _atom_site_symmetry_multiplicity
 _atom_site_fract_x
 _atom_site_fract_y
 _atom_site_fract_z
 _atom_site_occupancy
  Th  Th0  1  0.667535  0.333680  0.501053  1
  Th  Th1  1  0.332465  0.666146  0.501053  1
  Th  Th2  1  0.332195  0.666825  0.998392  1
  Th  Th3  1  0.667805  0.334629  0.998392  1
  Th  Th4  1  0.723422  0.722150  0.264809  1
  Th  Th5  1  0.276578  0.998728  0.264809  1
  Th  Th6  1  0.000000  0.276859  0.264665  1
  Th  Th7  1  0.277597  0.277695  0.734917  1
  Th  Th8  1  0.722403  0.000098  0.734917  1
  Th  Th9  1  0.000000  0.722569  0.736049  1
  Zn  Zn10  1  0.000000  0.999972  0.501652  1
  Bi  Bi11  1  0.000000  0.000059  0.999845  1
  Bi  Bi12  1  0.381396  0.380933  0.246144  1
  Bi  Bi13  1  0.618604  0.999537  0.246144  1
  Pb  Pb14  1  0.000000  0.619978  0.246351  1
  Pb  Pb15  1  0.620679  0.620516  0.753592  1
  Pb  Pb16  1  0.379321  0.999837  0.753592  1
  Pb  Pb17  1  0.000000  0.379791  0.753622  1
