# generated using pymatgen
data_LuScNi2Pb
_symmetry_space_group_name_H-M   'P 1'
_cell_length_a   7.24595819
_cell_length_b   7.24595916
_cell_length_c   3.63025000
_cell_angle_alpha   90.00000000
_cell_angle_beta   90.00000000
_cell_angle_gamma   149.93066608
_symmetry_Int_Tables_number   1
_chemical_formula_structural   LuScNi2Pb
_chemical_formula_sum   'Lu1 Sc1 Ni2 Pb1'
_cell_volume   95.50085050
_cell_formula_units_Z   1
loop_
 _symmetry_equiv_pos_site_id
 _symmetry_equiv_pos_as_xyz
  1  'x, y, z'
loop_
 _atom_site_type_symbol
 _atom_site_label
 _atom_site_symmetry_multiplicity
 _atom_site_fract_x
 _atom_site_fract_y
 _atom_site_fract_z
 _atom_site_occupancy
  Lu  Lu0  1  0.358005  0.641995  0.500000  1
  Sc  Sc1  1  0.641223  0.358777  0.500000  1
  Ni  Ni2  1  0.801194  0.198806  0.000000  1
  Ni  Ni3  1  0.196676  0.803324  0.000000  1
  Pb  Pb4  1  0.002902  0.997098  0.000000  1
