# generated using pymatgen
data_Ba3Si2AgRh6
_symmetry_space_group_name_H-M   'P 1'
_cell_length_a   5.91417800
_cell_length_b   5.91417803
_cell_length_c   16.28047200
_cell_angle_alpha   90.00000000
_cell_angle_beta   90.00000000
_cell_angle_gamma   119.99998866
_symmetry_Int_Tables_number   1
_chemical_formula_structural   Ba3Si2AgRh6
_chemical_formula_sum   'Ba6 Si4 Ag2 Rh12'
_cell_volume   493.15842616
_cell_formula_units_Z   2
loop_
 _symmetry_equiv_pos_site_id
 _symmetry_equiv_pos_as_xyz
  1  'x, y, z'
loop_
 _atom_site_type_symbol
 _atom_site_label
 _atom_site_symmetry_multiplicity
 _atom_site_fract_x
 _atom_site_fract_y
 _atom_site_fract_z
 _atom_site_occupancy
  Ba  Ba0  1  0.666667  0.333333  0.958652  1
  Ba  Ba1  1  0.666667  0.333333  0.541348  1
  Ba  Ba2  1  0.333333  0.666667  0.041348  1
  Ba  Ba3  1  0.666667  0.333333  0.750000  1
  Ba  Ba4  1  0.333333  0.666667  0.458652  1
  Ba  Ba5  1  0.333333  0.666667  0.250000  1
  Si  Si6  1  0.666667  0.333333  0.250000  1
  Si  Si7  1  0.000000  0.000000  0.250000  1
  Si  Si8  1  0.000000  0.000000  0.750000  1
  Si  Si9  1  0.333333  0.666667  0.750000  1
  Ag  Ag10  1  0.000000  0.000000  0.500000  1
  Ag  Ag11  1  0.000000  0.000000  0.000000  1
  Rh  Rh12  1  0.165639  0.331277  0.852718  1
  Rh  Rh13  1  0.165639  0.331277  0.647282  1
  Rh  Rh14  1  0.668723  0.834361  0.852718  1
  Rh  Rh15  1  0.331277  0.165639  0.352718  1
  Rh  Rh16  1  0.834361  0.668723  0.352718  1
  Rh  Rh17  1  0.834361  0.165639  0.352718  1
  Rh  Rh18  1  0.834361  0.165639  0.147282  1
  Rh  Rh19  1  0.331277  0.165639  0.147282  1
  Rh  Rh20  1  0.668723  0.834361  0.647282  1
  Rh  Rh21  1  0.165639  0.834361  0.647282  1
  Rh  Rh22  1  0.834361  0.668723  0.147282  1
  Rh  Rh23  1  0.165639  0.834361  0.852718  1
