# generated using pymatgen
data_TmSc7(Si4Ru3)4
_symmetry_space_group_name_H-M   'P 1'
_cell_length_a   9.96333839
_cell_length_b   9.96613631
_cell_length_c   13.43380573
_cell_angle_alpha   53.77966628
_cell_angle_beta   53.80867317
_cell_angle_gamma   31.03478107
_symmetry_Int_Tables_number   1
_chemical_formula_structural   TmSc7(Si4Ru3)4
_chemical_formula_sum   'Tm1 Sc7 Si16 Ru12'
_cell_volume   543.33395439
_cell_formula_units_Z   1
loop_
 _symmetry_equiv_pos_site_id
 _symmetry_equiv_pos_as_xyz
  1  'x, y, z'
loop_
 _atom_site_type_symbol
 _atom_site_label
 _atom_site_symmetry_multiplicity
 _atom_site_fract_x
 _atom_site_fract_y
 _atom_site_fract_z
 _atom_site_occupancy
  Tm  Tm0  1  0.289369  0.037479  0.140709  1
  Sc  Sc1  1  0.294970  0.560273  0.643898  1
  Sc  Sc2  1  0.440276  0.704686  0.855351  1
  Sc  Sc3  1  0.704387  0.439834  0.356729  1
  Sc  Sc4  1  0.560188  0.294881  0.144552  1
  Sc  Sc5  1  0.037129  0.292346  0.638714  1
  Sc  Sc6  1  0.708832  0.962425  0.860588  1
  Sc  Sc7  1  0.961949  0.707505  0.361885  1
  Si  Si8  1  0.868122  0.127898  0.251293  1
  Si  Si9  1  0.128642  0.871615  0.749880  1
  Si  Si10  1  0.383277  0.612972  0.251167  1
  Si  Si11  1  0.617070  0.383245  0.749970  1
  Si  Si12  1  0.975425  0.252501  0.892904  1
  Si  Si13  1  0.747295  0.024774  0.607296  1
  Si  Si14  1  0.024926  0.748345  0.107019  1
  Si  Si15  1  0.253124  0.973504  0.395870  1
  Si  Si16  1  0.576772  0.082244  0.066497  1
  Si  Si17  1  0.918800  0.426096  0.433018  1
  Si  Si18  1  0.426640  0.918591  0.930245  1
  Si  Si19  1  0.079319  0.575391  0.566939  1
  Si  Si20  1  0.386177  0.141701  0.399217  1
  Si  Si21  1  0.859209  0.616172  0.100303  1
  Si  Si22  1  0.613642  0.857750  0.600982  1
  Si  Si23  1  0.141758  0.387906  0.896677  1
  Ru  Ru24  1  0.647229  0.831876  0.282437  1
  Ru  Ru25  1  0.169851  0.354721  0.217962  1
  Ru  Ru26  1  0.750399  0.493081  0.067227  1
  Ru  Ru27  1  0.832210  0.646930  0.781446  1
  Ru  Ru28  1  0.895739  0.141932  0.586736  1
  Ru  Ru29  1  0.860166  0.102896  0.913065  1
  Ru  Ru30  1  0.103369  0.858155  0.414071  1
  Ru  Ru31  1  0.141961  0.895937  0.086458  1
  Ru  Ru32  1  0.249668  0.506146  0.931940  1
  Ru  Ru33  1  0.492246  0.751334  0.568063  1
  Ru  Ru34  1  0.506789  0.248124  0.432548  1
  Ru  Ru35  1  0.353075  0.168737  0.716345  1
