# generated using pymatgen
data_AcTh3(ZnGe)4
_symmetry_space_group_name_H-M   'P 1'
_cell_length_a   4.24465100
_cell_length_b   4.24465197
_cell_length_c   17.10672400
_cell_angle_alpha   90.00000000
_cell_angle_beta   90.00000000
_cell_angle_gamma   119.99998468
_symmetry_Int_Tables_number   1
_chemical_formula_structural   AcTh3(ZnGe)4
_chemical_formula_sum   'Ac1 Th3 Zn4 Ge4'
_cell_volume   266.92031076
_cell_formula_units_Z   1
loop_
 _symmetry_equiv_pos_site_id
 _symmetry_equiv_pos_as_xyz
  1  'x, y, z'
loop_
 _atom_site_type_symbol
 _atom_site_label
 _atom_site_symmetry_multiplicity
 _atom_site_fract_x
 _atom_site_fract_y
 _atom_site_fract_z
 _atom_site_occupancy
  Ac  Ac0  1  0.000000  0.000000  0.500000  1
  Th  Th1  1  0.000000  0.000000  0.242605  1
  Th  Th2  1  0.000000  0.000000  0.757395  1
  Th  Th3  1  0.000000  0.000000  0.000000  1
  Zn  Zn4  1  0.333333  0.666667  0.124537  1
  Zn  Zn5  1  0.666667  0.333333  0.875463  1
  Zn  Zn6  1  0.666667  0.333333  0.643155  1
  Zn  Zn7  1  0.333333  0.666667  0.356845  1
  Ge  Ge8  1  0.333333  0.666667  0.631816  1
  Ge  Ge9  1  0.666667  0.333333  0.368184  1
  Ge  Ge10  1  0.666667  0.333333  0.119957  1
  Ge  Ge11  1  0.333333  0.666667  0.880043  1
