# generated using pymatgen
data_SrCdSn2Pt
_symmetry_space_group_name_H-M   'P 1'
_cell_length_a   4.69541300
_cell_length_b   4.69541300
_cell_length_c   11.73552400
_cell_angle_alpha   90.00000000
_cell_angle_beta   90.00000000
_cell_angle_gamma   90.00000000
_symmetry_Int_Tables_number   1
_chemical_formula_structural   SrCdSn2Pt
_chemical_formula_sum   'Sr2 Cd2 Sn4 Pt2'
_cell_volume   258.73196211
_cell_formula_units_Z   2
loop_
 _symmetry_equiv_pos_site_id
 _symmetry_equiv_pos_as_xyz
  1  'x, y, z'
loop_
 _atom_site_type_symbol
 _atom_site_label
 _atom_site_symmetry_multiplicity
 _atom_site_fract_x
 _atom_site_fract_y
 _atom_site_fract_z
 _atom_site_occupancy
  Sr  Sr0  1  0.000000  0.500000  0.238224  1
  Sr  Sr1  1  0.500000  0.000000  0.761776  1
  Cd  Cd2  1  0.000000  0.000000  0.500000  1
  Cd  Cd3  1  0.500000  0.500000  0.500000  1
  Sn  Sn4  1  0.000000  0.000000  0.000000  1
  Sn  Sn5  1  0.500000  0.500000  0.000000  1
  Sn  Sn6  1  0.000000  0.500000  0.655690  1
  Sn  Sn7  1  0.500000  0.000000  0.344310  1
  Pt  Pt8  1  0.000000  0.500000  0.880304  1
  Pt  Pt9  1  0.500000  0.000000  0.119696  1
