# generated using pymatgen
data_Ba4TbPr3Mn8O22
_symmetry_space_group_name_H-M   'P 1'
_cell_length_a   7.76745246
_cell_length_b   8.28805170
_cell_length_c   9.69916884
_cell_angle_alpha   115.49915875
_cell_angle_beta   113.60434443
_cell_angle_gamma   90.00000304
_symmetry_Int_Tables_number   1
_chemical_formula_structural   Ba4TbPr3Mn8O22
_chemical_formula_sum   'Ba4 Tb1 Pr3 Mn8 O22'
_cell_volume   505.08698922
_cell_formula_units_Z   1
loop_
 _symmetry_equiv_pos_site_id
 _symmetry_equiv_pos_as_xyz
  1  'x, y, z'
loop_
 _atom_site_type_symbol
 _atom_site_label
 _atom_site_symmetry_multiplicity
 _atom_site_fract_x
 _atom_site_fract_y
 _atom_site_fract_z
 _atom_site_occupancy
  Ba  Ba0  1  0.247936  0.498908  0.495872  1
  Ba  Ba1  1  0.749050  0.998813  0.498102  1
  Ba  Ba2  1  0.249679  0.001809  0.499358  1
  Ba  Ba3  1  0.750773  0.498497  0.501547  1
  Tb  Tb4  1  0.995075  0.273598  0.990152  1
  Pr  Pr5  1  0.003103  0.730653  0.006207  1
  Pr  Pr6  1  0.500722  0.269802  0.001446  1
  Pr  Pr7  1  0.496805  0.724557  0.993611  1
  Mn  Mn8  1  0.366114  0.117476  0.235213  1
  Mn  Mn9  1  0.869098  0.117476  0.235213  1
  Mn  Mn10  1  0.375094  0.622918  0.249615  1
  Mn  Mn11  1  0.874521  0.622918  0.249615  1
  Mn  Mn12  1  0.124277  0.374382  0.749545  1
  Mn  Mn13  1  0.625267  0.374382  0.749545  1
  Mn  Mn14  1  0.130755  0.885325  0.765380  1
  Mn  Mn15  1  0.634625  0.885325  0.765380  1
  O  O16  1  0.249118  0.501194  0.999544  1
  O  O17  1  0.750425  0.501194  0.999544  1
  O  O18  1  0.596788  0.130828  0.193576  1
  O  O19  1  0.101787  0.060583  0.203574  1
  O  O20  1  0.313481  0.325195  0.194288  1
  O  O21  1  0.880806  0.325195  0.194288  1
  O  O22  1  0.381309  0.873307  0.209779  1
  O  O23  1  0.828471  0.873307  0.209779  1
  O  O24  1  0.116223  0.634505  0.232445  1
  O  O25  1  0.616809  0.589962  0.233619  1
  O  O26  1  0.498766  0.746276  0.495709  1
  O  O27  1  0.996943  0.746276  0.495709  1
  O  O28  1  0.000124  0.255077  0.504606  1
  O  O29  1  0.504482  0.255077  0.504606  1
  O  O30  1  0.382646  0.402403  0.765293  1
  O  O31  1  0.885714  0.360765  0.771428  1
  O  O32  1  0.162232  0.127955  0.788552  1
  O  O33  1  0.626320  0.127955  0.788552  1
  O  O34  1  0.122086  0.665692  0.790266  1
  O  O35  1  0.668180  0.665692  0.790266  1
  O  O36  1  0.915129  0.947569  0.830259  1
  O  O37  1  0.409261  0.887155  0.818522  1
