# generated using pymatgen
data_Rb2Nb6SnBr18
_symmetry_space_group_name_H-M   'P 1'
_cell_length_a   10.94474101
_cell_length_b   10.94474044
_cell_length_c   10.94474018
_cell_angle_alpha   55.04539442
_cell_angle_beta   55.04539404
_cell_angle_gamma   55.04539270
_symmetry_Int_Tables_number   1
_chemical_formula_structural   Rb2Nb6SnBr18
_chemical_formula_sum   'Rb2 Nb6 Sn1 Br18'
_cell_volume   820.19741347
_cell_formula_units_Z   1
loop_
 _symmetry_equiv_pos_site_id
 _symmetry_equiv_pos_as_xyz
  1  'x, y, z'
loop_
 _atom_site_type_symbol
 _atom_site_label
 _atom_site_symmetry_multiplicity
 _atom_site_fract_x
 _atom_site_fract_y
 _atom_site_fract_z
 _atom_site_occupancy
  Rb  Rb0  1  0.722522  0.722522  0.722522  1
  Rb  Rb1  1  0.277478  0.277478  0.277478  1
  Nb  Nb2  1  0.579488  0.358447  0.693044  1
  Nb  Nb3  1  0.358447  0.693044  0.579488  1
  Nb  Nb4  1  0.693044  0.579488  0.358447  1
  Nb  Nb5  1  0.641553  0.306956  0.420512  1
  Nb  Nb6  1  0.420512  0.641553  0.306956  1
  Nb  Nb7  1  0.306956  0.420512  0.641553  1
  Sn  Sn8  1  0.000000  0.000000  0.000000  1
  Br  Br9  1  0.908560  0.361951  0.228245  1
  Br  Br10  1  0.834241  0.423970  0.563958  1
  Br  Br11  1  0.771755  0.091440  0.638049  1
  Br  Br12  1  0.091440  0.638049  0.771755  1
  Br  Br13  1  0.679223  0.170567  0.962525  1
  Br  Br14  1  0.228245  0.908560  0.361951  1
  Br  Br15  1  0.436042  0.165759  0.576030  1
  Br  Br16  1  0.638049  0.771755  0.091440  1
  Br  Br17  1  0.576030  0.436042  0.165759  1
  Br  Br18  1  0.037475  0.320777  0.829433  1
  Br  Br19  1  0.563958  0.834241  0.423970  1
  Br  Br20  1  0.361951  0.228245  0.908560  1
  Br  Br21  1  0.962525  0.679223  0.170567  1
  Br  Br22  1  0.165759  0.576030  0.436042  1
  Br  Br23  1  0.829433  0.037475  0.320777  1
  Br  Br24  1  0.423970  0.563958  0.834241  1
  Br  Br25  1  0.170567  0.962525  0.679223  1
  Br  Br26  1  0.320777  0.829433  0.037475  1
