# generated using pymatgen
data_HfZr3Ta4(Co4P3)4
_symmetry_space_group_name_H-M   'P 1'
_cell_length_a   11.98272939
_cell_length_b   11.98628256
_cell_length_c   3.65483300
_cell_angle_alpha   90.00000000
_cell_angle_beta   90.00000000
_cell_angle_gamma   119.99070084
_symmetry_Int_Tables_number   1
_chemical_formula_structural   HfZr3Ta4(Co4P3)4
_chemical_formula_sum   'Hf1 Zr3 Ta4 Co16 P12'
_cell_volume   454.65201481
_cell_formula_units_Z   1
loop_
 _symmetry_equiv_pos_site_id
 _symmetry_equiv_pos_as_xyz
  1  'x, y, z'
loop_
 _atom_site_type_symbol
 _atom_site_label
 _atom_site_symmetry_multiplicity
 _atom_site_fract_x
 _atom_site_fract_y
 _atom_site_fract_z
 _atom_site_occupancy
  Hf  Hf0  1  0.177405  0.999983  0.500000  1
  Zr  Zr1  1  0.666720  0.333094  0.000000  1
  Zr  Zr2  1  0.333083  0.666630  0.000000  1
  Zr  Zr3  1  0.000011  0.178169  0.500000  1
  Ta  Ta4  1  0.447037  0.446694  0.000000  1
  Ta  Ta5  1  0.553797  0.999261  0.000000  1
  Ta  Ta6  1  0.999543  0.554666  0.000000  1
  Ta  Ta7  1  0.822465  0.822455  0.500000  1
  Co  Co8  1  0.194196  0.373035  0.000000  1
  Co  Co9  1  0.178270  0.806953  0.000000  1
  Co  Co10  1  0.821186  0.630795  0.000000  1
  Co  Co11  1  0.805670  0.178194  0.000000  1
  Co  Co12  1  0.372280  0.193029  0.000000  1
  Co  Co13  1  0.127931  0.484758  0.500000  1
  Co  Co14  1  0.355988  0.872254  0.500000  1
  Co  Co15  1  0.517054  0.644454  0.500000  1
  Co  Co16  1  0.644644  0.517119  0.500000  1
  Co  Co17  1  0.872222  0.356254  0.500000  1
  Co  Co18  1  0.484558  0.127795  0.500000  1
  Co  Co19  1  0.998153  0.997327  0.000000  1
  Co  Co20  1  0.722351  0.997476  0.500000  1
  Co  Co21  1  0.998206  0.723227  0.500000  1
  Co  Co22  1  0.630244  0.820806  0.000000  1
  Co  Co23  1  0.278338  0.277601  0.500000  1
  P  P24  1  0.650354  0.650398  0.000000  1
  P  P25  1  0.350804  0.999942  0.000000  1
  P  P26  1  0.999890  0.352094  0.000000  1
  P  P27  1  0.480781  0.310697  0.500000  1
  P  P28  1  0.689964  0.169131  0.500000  1
  P  P29  1  0.829839  0.519411  0.500000  1
  P  P30  1  0.519038  0.829533  0.500000  1
  P  P31  1  0.169273  0.689999  0.500000  1
  P  P32  1  0.824031  0.998235  0.000000  1
  P  P33  1  0.999114  0.824226  0.000000  1
  P  P34  1  0.310704  0.480307  0.500000  1
  P  P35  1  0.174857  0.173997  0.000000  1
