# generated using pymatgen
data_Ho(ScCu6)2
_symmetry_space_group_name_H-M   'P 1'
_cell_length_a   4.89940463
_cell_length_b   4.89940428
_cell_length_c   10.47916400
_cell_angle_alpha   94.91404929
_cell_angle_beta   94.91404893
_cell_angle_gamma   119.75893676
_symmetry_Int_Tables_number   1
_chemical_formula_structural   Ho(ScCu6)2
_chemical_formula_sum   'Ho1 Sc2 Cu12'
_cell_volume   215.16531535
_cell_formula_units_Z   1
loop_
 _symmetry_equiv_pos_site_id
 _symmetry_equiv_pos_as_xyz
  1  'x, y, z'
loop_
 _atom_site_type_symbol
 _atom_site_label
 _atom_site_symmetry_multiplicity
 _atom_site_fract_x
 _atom_site_fract_y
 _atom_site_fract_z
 _atom_site_occupancy
  Ho  Ho0  1  0.000000  0.000000  0.000000  1
  Sc  Sc1  1  0.134978  0.134978  0.362711  1
  Sc  Sc2  1  0.865022  0.865022  0.637289  1
  Cu  Cu3  1  0.664033  0.335968  0.000000  1
  Cu  Cu4  1  0.335968  0.664033  0.000000  1
  Cu  Cu5  1  0.570441  0.069358  0.201205  1
  Cu  Cu6  1  0.069358  0.570441  0.201205  1
  Cu  Cu7  1  0.570660  0.570660  0.205641  1
  Cu  Cu8  1  0.808207  0.478912  0.408902  1
  Cu  Cu9  1  0.478912  0.808207  0.408902  1
  Cu  Cu10  1  0.521090  0.191794  0.591098  1
  Cu  Cu11  1  0.191794  0.521090  0.591098  1
  Cu  Cu12  1  0.429339  0.429339  0.794359  1
  Cu  Cu13  1  0.930641  0.429558  0.798796  1
  Cu  Cu14  1  0.429558  0.930641  0.798796  1
