# generated using pymatgen
data_YbDyReH6
_symmetry_space_group_name_H-M   'P 1'
_cell_length_a   5.05321117
_cell_length_b   5.05321184
_cell_length_c   5.05321100
_cell_angle_alpha   59.99999894
_cell_angle_beta   59.99999454
_cell_angle_gamma   59.99999320
_symmetry_Int_Tables_number   1
_chemical_formula_structural   YbDyReH6
_chemical_formula_sum   'Yb1 Dy1 Re1 H6'
_cell_volume   91.24043419
_cell_formula_units_Z   1
loop_
 _symmetry_equiv_pos_site_id
 _symmetry_equiv_pos_as_xyz
  1  'x, y, z'
loop_
 _atom_site_type_symbol
 _atom_site_label
 _atom_site_symmetry_multiplicity
 _atom_site_fract_x
 _atom_site_fract_y
 _atom_site_fract_z
 _atom_site_occupancy
  Yb  Yb0  1  0.749999  0.749999  0.749999  1
  Dy  Dy1  1  0.250000  0.250000  0.250000  1
  Re  Re2  1  0.000000  0.000000  0.000000  1
  H  H3  1  0.751596  0.248405  0.248405  1
  H  H4  1  0.248405  0.751596  0.248405  1
  H  H5  1  0.751595  0.751595  0.248406  1
  H  H6  1  0.248405  0.248405  0.751596  1
  H  H7  1  0.751595  0.248406  0.751595  1
  H  H8  1  0.248406  0.751595  0.751595  1
