# generated using pymatgen
data_DyY5(MoO7)2
_symmetry_space_group_name_H-M   'P 1'
_cell_length_a   6.49288934
_cell_length_b   6.51865949
_cell_length_c   7.49124600
_cell_angle_alpha   89.97255038
_cell_angle_beta   89.95140409
_cell_angle_gamma   108.63437692
_symmetry_Int_Tables_number   1
_chemical_formula_structural   DyY5(MoO7)2
_chemical_formula_sum   'Dy1 Y5 Mo2 O14'
_cell_volume   300.44467621
_cell_formula_units_Z   1
loop_
 _symmetry_equiv_pos_site_id
 _symmetry_equiv_pos_as_xyz
  1  'x, y, z'
loop_
 _atom_site_type_symbol
 _atom_site_label
 _atom_site_symmetry_multiplicity
 _atom_site_fract_x
 _atom_site_fract_y
 _atom_site_fract_z
 _atom_site_occupancy
  Dy  Dy0  1  0.538024  0.000751  0.760081  1
  Y  Y1  1  0.000807  0.533901  0.246084  1
  Y  Y2  1  0.464232  0.999603  0.254068  1
  Y  Y3  1  0.466991  0.466144  0.999228  1
  Y  Y4  1  0.532653  0.534807  0.499617  1
  Y  Y5  1  0.999471  0.465138  0.740476  1
  Mo  Mo6  1  0.001310  0.001153  0.499914  1
  Mo  Mo7  1  0.999149  0.998917  0.999528  1
  O  O8  1  0.925955  0.075057  0.750113  1
  O  O9  1  0.635737  0.360482  0.748538  1
  O  O10  1  0.302018  0.045215  0.543290  1
  O  O11  1  0.943200  0.693732  0.960050  1
  O  O12  1  0.629163  0.368156  0.250592  1
  O  O13  1  0.913149  0.668860  0.522952  1
  O  O14  1  0.329033  0.083425  0.974895  1
  O  O15  1  0.082010  0.324438  0.025827  1
  O  O16  1  0.677480  0.921739  0.474141  1
  O  O17  1  0.370761  0.632084  0.750825  1
  O  O18  1  0.688240  0.945806  0.037551  1
  O  O19  1  0.063538  0.314666  0.463596  1
  O  O20  1  0.363940  0.639419  0.248924  1
  O  O21  1  0.073137  0.926507  0.249710  1
