# generated using pymatgen
data_Ca13Pr(SnN4)2
_symmetry_space_group_name_H-M   'P 1'
_cell_length_a   3.61033500
_cell_length_b   12.07878617
_cell_length_c   11.59191021
_cell_angle_alpha   90.10054643
_cell_angle_beta   90.00000000
_cell_angle_gamma   90.00000000
_symmetry_Int_Tables_number   1
_chemical_formula_structural   Ca13Pr(SnN4)2
_chemical_formula_sum   'Ca13 Pr1 Sn2 N8'
_cell_volume   505.50462615
_cell_formula_units_Z   1
loop_
 _symmetry_equiv_pos_site_id
 _symmetry_equiv_pos_as_xyz
  1  'x, y, z'
loop_
 _atom_site_type_symbol
 _atom_site_label
 _atom_site_symmetry_multiplicity
 _atom_site_fract_x
 _atom_site_fract_y
 _atom_site_fract_z
 _atom_site_occupancy
  Ca  Ca0  1  0.500439  0.671183  0.241716  1
  Ca  Ca1  1  0.500439  0.328817  0.758284  1
  Ca  Ca2  1  0.499629  0.168147  0.263049  1
  Ca  Ca3  1  0.499629  0.831853  0.736951  1
  Ca  Ca4  1  0.500361  0.000000  0.500000  1
  Ca  Ca5  1  0.999567  0.929797  0.263094  1
  Ca  Ca6  1  0.999567  0.070203  0.736906  1
  Ca  Ca7  1  0.001351  0.425011  0.244769  1
  Ca  Ca8  1  0.001351  0.574989  0.755231  1
  Ca  Ca9  1  0.001047  0.765595  0.478767  1
  Ca  Ca10  1  0.001047  0.234405  0.521233  1
  Ca  Ca11  1  0.997751  0.256049  0.023041  1
  Ca  Ca12  1  0.997751  0.743951  0.976959  1
  Pr  Pr13  1  0.499240  0.500000  0.000000  1
  Sn  Sn14  1  0.534030  0.500000  0.500000  1
  Sn  Sn15  1  0.465653  0.000000  0.000000  1
  N  N16  1  0.000183  0.599668  0.125833  1
  N  N17  1  0.000183  0.400332  0.874167  1
  N  N18  1  0.000018  0.102661  0.369850  1
  N  N19  1  0.000018  0.897339  0.630150  1
  N  N20  1  0.499923  0.832440  0.356948  1
  N  N21  1  0.499923  0.167560  0.643052  1
  N  N22  1  0.500449  0.335356  0.140969  1
  N  N23  1  0.500449  0.664644  0.859031  1
