# generated using pymatgen
data_SmDy7GaPd24
_symmetry_space_group_name_H-M   'P 1'
_cell_length_a   8.36791018
_cell_length_b   8.36791136
_cell_length_c   8.36791000
_cell_angle_alpha   90.01191392
_cell_angle_beta   89.98807923
_cell_angle_gamma   89.98808856
_symmetry_Int_Tables_number   1
_chemical_formula_structural   SmDy7GaPd24
_chemical_formula_sum   'Sm1 Dy7 Ga1 Pd24'
_cell_volume   585.93717593
_cell_formula_units_Z   1
loop_
 _symmetry_equiv_pos_site_id
 _symmetry_equiv_pos_as_xyz
  1  'x, y, z'
loop_
 _atom_site_type_symbol
 _atom_site_label
 _atom_site_symmetry_multiplicity
 _atom_site_fract_x
 _atom_site_fract_y
 _atom_site_fract_z
 _atom_site_occupancy
  Sm  Sm0  1  0.748195  0.251805  0.251805  1
  Dy  Dy1  1  0.251717  0.251751  0.251751  1
  Dy  Dy2  1  0.748313  0.748332  0.748332  1
  Dy  Dy3  1  0.748249  0.748283  0.251751  1
  Dy  Dy4  1  0.748249  0.251751  0.748283  1
  Dy  Dy5  1  0.251668  0.251687  0.748332  1
  Dy  Dy6  1  0.251668  0.748332  0.251687  1
  Dy  Dy7  1  0.251960  0.748040  0.748040  1
  Ga  Ga8  1  0.000177  0.999823  0.999823  1
  Pd  Pd9  1  0.260743  0.500015  0.999984  1
  Pd  Pd10  1  0.739425  0.501167  0.998655  1
  Pd  Pd11  1  0.001345  0.260575  0.501167  1
  Pd  Pd12  1  0.498833  0.260575  0.998655  1
  Pd  Pd13  1  0.000016  0.739257  0.500015  1
  Pd  Pd14  1  0.499985  0.739257  0.999984  1
  Pd  Pd15  1  0.498833  0.998655  0.260575  1
  Pd  Pd16  1  0.260743  0.999984  0.500015  1
  Pd  Pd17  1  0.499985  0.999984  0.739257  1
  Pd  Pd18  1  0.739425  0.998655  0.501167  1
  Pd  Pd19  1  0.001345  0.501167  0.260575  1
  Pd  Pd20  1  0.000016  0.500015  0.739257  1
  Pd  Pd21  1  0.253129  0.499965  0.499965  1
  Pd  Pd22  1  0.746717  0.501560  0.501560  1
  Pd  Pd23  1  0.498440  0.253283  0.501560  1
  Pd  Pd24  1  0.500035  0.746871  0.499965  1
  Pd  Pd25  1  0.498440  0.501560  0.253283  1
  Pd  Pd26  1  0.500035  0.499965  0.746871  1
  Pd  Pd27  1  0.292193  0.999930  0.999930  1
  Pd  Pd28  1  0.707649  0.998834  0.998834  1
  Pd  Pd29  1  0.001166  0.292351  0.998834  1
  Pd  Pd30  1  0.000070  0.707807  0.999930  1
  Pd  Pd31  1  0.001166  0.998834  0.292351  1
  Pd  Pd32  1  0.000070  0.999930  0.707807  1
