# generated using pymatgen
data_Tb2ErTm7(CoSb2)2
_symmetry_space_group_name_H-M   'P 1'
_cell_length_a   7.79392400
_cell_length_b   8.73327100
_cell_length_c   12.07426400
_cell_angle_alpha   90.00000000
_cell_angle_beta   90.00000000
_cell_angle_gamma   90.00000000
_symmetry_Int_Tables_number   1
_chemical_formula_structural   Tb2ErTm7(CoSb2)2
_chemical_formula_sum   'Tb4 Er2 Tm14 Co4 Sb8'
_cell_volume   821.85229222
_cell_formula_units_Z   2
loop_
 _symmetry_equiv_pos_site_id
 _symmetry_equiv_pos_as_xyz
  1  'x, y, z'
loop_
 _atom_site_type_symbol
 _atom_site_label
 _atom_site_symmetry_multiplicity
 _atom_site_fract_x
 _atom_site_fract_y
 _atom_site_fract_z
 _atom_site_occupancy
  Tb  Tb0  1  0.622445  0.750000  0.306554  1
  Tb  Tb1  1  0.122445  0.250000  0.193446  1
  Tb  Tb2  1  0.377876  0.250000  0.693387  1
  Tb  Tb3  1  0.877876  0.750000  0.806613  1
  Er  Er4  1  0.155209  0.750000  0.203697  1
  Er  Er5  1  0.655209  0.250000  0.296303  1
  Tm  Tm6  1  0.844992  0.250000  0.796354  1
  Tm  Tm7  1  0.344992  0.750000  0.703646  1
  Tm  Tm8  1  0.449809  0.750000  0.997373  1
  Tm  Tm9  1  0.949809  0.250000  0.502627  1
  Tm  Tm10  1  0.550562  0.250000  0.002159  1
  Tm  Tm11  1  0.050562  0.750000  0.497841  1
  Tm  Tm12  1  0.822710  0.963564  0.065124  1
  Tm  Tm13  1  0.322710  0.036436  0.434876  1
  Tm  Tm14  1  0.177081  0.463295  0.934569  1
  Tm  Tm15  1  0.677081  0.536705  0.565431  1
  Tm  Tm16  1  0.177081  0.036705  0.934569  1
  Tm  Tm17  1  0.677081  0.963295  0.565431  1
  Tm  Tm18  1  0.822710  0.536436  0.065124  1
  Tm  Tm19  1  0.322710  0.463564  0.434876  1
  Co  Co20  1  0.432312  0.750000  0.491163  1
  Co  Co21  1  0.932312  0.250000  0.008837  1
  Co  Co22  1  0.567336  0.250000  0.509142  1
  Co  Co23  1  0.067336  0.750000  0.990858  1
  Sb  Sb24  1  0.929898  0.991495  0.328753  1
  Sb  Sb25  1  0.429898  0.008505  0.171247  1
  Sb  Sb26  1  0.070041  0.491449  0.671559  1
  Sb  Sb27  1  0.570041  0.508551  0.828441  1
  Sb  Sb28  1  0.070041  0.008551  0.671559  1
  Sb  Sb29  1  0.570041  0.991449  0.828441  1
  Sb  Sb30  1  0.929898  0.508505  0.328753  1
  Sb  Sb31  1  0.429898  0.491495  0.171247  1
