# generated using pymatgen
data_TbY11Tc3Ir
_symmetry_space_group_name_H-M   'P 1'
_cell_length_a   6.33120618
_cell_length_b   7.43463101
_cell_length_c   9.20007500
_cell_angle_alpha   90.00000000
_cell_angle_beta   90.00000000
_cell_angle_gamma   89.84943167
_symmetry_Int_Tables_number   1
_chemical_formula_structural   TbY11Tc3Ir
_chemical_formula_sum   'Tb1 Y11 Tc3 Ir1'
_cell_volume   433.04770763
_cell_formula_units_Z   1
loop_
 _symmetry_equiv_pos_site_id
 _symmetry_equiv_pos_as_xyz
  1  'x, y, z'
loop_
 _atom_site_type_symbol
 _atom_site_label
 _atom_site_symmetry_multiplicity
 _atom_site_fract_x
 _atom_site_fract_y
 _atom_site_fract_z
 _atom_site_occupancy
  Tb  Tb0  1  0.372855  0.956266  0.750000  1
  Y  Y1  1  0.632073  0.043310  0.250000  1
  Y  Y2  1  0.125479  0.460254  0.750000  1
  Y  Y3  1  0.869775  0.541288  0.250000  1
  Y  Y4  1  0.164338  0.177330  0.061820  1
  Y  Y5  1  0.834739  0.824136  0.935319  1
  Y  Y6  1  0.662081  0.323537  0.936076  1
  Y  Y7  1  0.834739  0.824136  0.564681  1
  Y  Y8  1  0.336346  0.675129  0.062382  1
  Y  Y9  1  0.164338  0.177330  0.438180  1
  Y  Y10  1  0.336346  0.675129  0.437618  1
  Y  Y11  1  0.662081  0.323537  0.563924  1
  Tc  Tc12  1  0.460869  0.383462  0.250000  1
  Tc  Tc13  1  0.536555  0.618466  0.750000  1
  Tc  Tc14  1  0.966013  0.112894  0.750000  1
  Ir  Ir15  1  0.041375  0.883795  0.250000  1
