# generated using pymatgen
data_Tb3DyGeS3
_symmetry_space_group_name_H-M   'P 1'
_cell_length_a   6.92321758
_cell_length_b   6.92321758
_cell_length_c   6.92321820
_cell_angle_alpha   131.88997856
_cell_angle_beta   131.88224062
_cell_angle_gamma   70.40896689
_symmetry_Int_Tables_number   1
_chemical_formula_structural   Tb3DyGeS3
_chemical_formula_sum   'Tb3 Dy1 Ge1 S3'
_cell_volume   180.22790080
_cell_formula_units_Z   1
loop_
 _symmetry_equiv_pos_site_id
 _symmetry_equiv_pos_as_xyz
  1  'x, y, z'
loop_
 _atom_site_type_symbol
 _atom_site_label
 _atom_site_symmetry_multiplicity
 _atom_site_fract_x
 _atom_site_fract_y
 _atom_site_fract_z
 _atom_site_occupancy
  Tb  Tb0  1  0.249917  0.249917  0.000000  1
  Tb  Tb1  1  0.750083  0.750083  0.000000  1
  Tb  Tb2  1  0.500001  0.000000  0.500001  1
  Dy  Dy3  1  0.000000  0.500001  0.500001  1
  Ge  Ge4  1  0.000000  0.000000  0.000000  1
  S  S5  1  0.500000  0.500000  0.000000  1
  S  S6  1  0.750103  0.250102  0.500001  1
  S  S7  1  0.249898  0.749899  0.500001  1
