# generated using pymatgen
data_CePr2Pa(Ga3Ir)6
_symmetry_space_group_name_H-M   'P 1'
_cell_length_a   7.66637809
_cell_length_b   7.66632865
_cell_length_c   9.49660400
_cell_angle_alpha   90.00000000
_cell_angle_beta   90.00000000
_cell_angle_gamma   119.74897362
_symmetry_Int_Tables_number   1
_chemical_formula_structural   CePr2Pa(Ga3Ir)6
_chemical_formula_sum   'Ce1 Pr2 Pa1 Ga18 Ir6'
_cell_volume   484.58462530
_cell_formula_units_Z   1
loop_
 _symmetry_equiv_pos_site_id
 _symmetry_equiv_pos_as_xyz
  1  'x, y, z'
loop_
 _atom_site_type_symbol
 _atom_site_label
 _atom_site_symmetry_multiplicity
 _atom_site_fract_x
 _atom_site_fract_y
 _atom_site_fract_z
 _atom_site_occupancy
  Ce  Ce0  1  0.670240  0.996956  0.250000  1
  Pr  Pr1  1  0.003969  0.331217  0.750000  1
  Pr  Pr2  1  0.331266  0.003898  0.750000  1
  Pa  Pa3  1  0.998671  0.670260  0.250000  1
  Ga  Ga4  1  0.132312  0.130892  0.250000  1
  Ga  Ga5  1  0.869809  0.870739  0.750000  1
  Ga  Ga6  1  0.000399  0.332858  0.081545  1
  Ga  Ga7  1  0.997937  0.665239  0.922566  1
  Ga  Ga8  1  0.997937  0.665239  0.577434  1
  Ga  Ga9  1  0.337257  0.002501  0.418327  1
  Ga  Ga10  1  0.000399  0.332858  0.418455  1
  Ga  Ga11  1  0.665440  0.998637  0.575932  1
  Ga  Ga12  1  0.665440  0.998637  0.924068  1
  Ga  Ga13  1  0.337257  0.002501  0.081673  1
  Ga  Ga14  1  0.333630  0.333585  0.561675  1
  Ga  Ga15  1  0.664157  0.665843  0.434304  1
  Ga  Ga16  1  0.664157  0.665843  0.065696  1
  Ga  Ga17  1  0.333630  0.333585  0.938325  1
  Ga  Ga18  1  0.338674  0.544233  0.250000  1
  Ga  Ga19  1  0.660825  0.455366  0.750000  1
  Ga  Ga20  1  0.545555  0.341995  0.250000  1
  Ga  Ga21  1  0.455032  0.661889  0.750000  1
  Ir  Ir22  1  0.673339  0.331622  0.004543  1
  Ir  Ir23  1  0.326585  0.670845  0.004596  1
  Ir  Ir24  1  0.326585  0.670845  0.495404  1
  Ir  Ir25  1  0.673339  0.331622  0.495457  1
  Ir  Ir26  1  0.998079  0.995147  0.005667  1
  Ir  Ir27  1  0.998079  0.995147  0.494333  1
