# generated using pymatgen
data_La10B2Cl15
_symmetry_space_group_name_H-M   'P 1'
_cell_length_a   9.22123674
_cell_length_b   10.14243258
_cell_length_c   10.90709709
_cell_angle_alpha   90.35686400
_cell_angle_beta   114.70259283
_cell_angle_gamma   111.37757153
_symmetry_Int_Tables_number   1
_chemical_formula_structural   La10B2Cl15
_chemical_formula_sum   'La10 B2 Cl15'
_cell_volume   847.69018029
_cell_formula_units_Z   1
loop_
 _symmetry_equiv_pos_site_id
 _symmetry_equiv_pos_as_xyz
  1  'x, y, z'
loop_
 _atom_site_type_symbol
 _atom_site_label
 _atom_site_symmetry_multiplicity
 _atom_site_fract_x
 _atom_site_fract_y
 _atom_site_fract_z
 _atom_site_occupancy
  La  La0  1  0.814646  0.421788  0.280913  1
  La  La1  1  0.185354  0.578212  0.719087  1
  La  La2  1  0.685719  0.742872  0.817896  1
  La  La3  1  0.314281  0.257128  0.182104  1
  La  La4  1  0.527090  0.699467  0.102172  1
  La  La5  1  0.472910  0.300533  0.897828  1
  La  La6  1  0.592282  0.037191  0.336094  1
  La  La7  1  0.407718  0.962809  0.663906  1
  La  La8  1  0.734469  0.077551  0.049436  1
  La  La9  1  0.265531  0.922449  0.950564  1
  B  B10  1  0.464822  0.811971  0.870364  1
  B  B11  1  0.535178  0.188029  0.129636  1
  Cl  Cl12  1  0.000000  0.000000  0.000000  1
  Cl  Cl13  1  0.634993  0.883623  0.586591  1
  Cl  Cl14  1  0.365007  0.116377  0.413409  1
  Cl  Cl15  1  0.881304  0.299744  0.523208  1
  Cl  Cl16  1  0.118696  0.700256  0.476792  1
  Cl  Cl17  1  0.296203  0.765812  0.180894  1
  Cl  Cl18  1  0.703797  0.234188  0.819106  1
  Cl  Cl19  1  0.054446  0.342791  0.227115  1
  Cl  Cl20  1  0.169754  0.058625  0.705678  1
  Cl  Cl21  1  0.830246  0.941375  0.294322  1
  Cl  Cl22  1  0.236536  0.411275  0.945500  1
  Cl  Cl23  1  0.763464  0.588725  0.054500  1
  Cl  Cl24  1  0.408411  0.468628  0.663325  1
  Cl  Cl25  1  0.591589  0.531372  0.336675  1
  Cl  Cl26  1  0.945554  0.657209  0.772885  1
