# generated using pymatgen
data_Re5Tc
_symmetry_space_group_name_H-M   'P 1'
_cell_length_a   4.81704600
_cell_length_b   4.81704582
_cell_length_c   4.48149800
_cell_angle_alpha   90.00000000
_cell_angle_beta   90.00000000
_cell_angle_gamma   120.00000123
_symmetry_Int_Tables_number   1
_chemical_formula_structural   Re5Tc
_chemical_formula_sum   'Re5 Tc1'
_cell_volume   90.05657049
_cell_formula_units_Z   1
loop_
 _symmetry_equiv_pos_site_id
 _symmetry_equiv_pos_as_xyz
  1  'x, y, z'
loop_
 _atom_site_type_symbol
 _atom_site_label
 _atom_site_symmetry_multiplicity
 _atom_site_fract_x
 _atom_site_fract_y
 _atom_site_fract_z
 _atom_site_occupancy
  Re  Re0  1  0.666667  0.333333  0.000000  1
  Re  Re1  1  0.333333  0.666667  0.000000  1
  Re  Re2  1  0.667003  0.000000  0.500000  1
  Re  Re3  1  0.332995  0.332996  0.500000  1
  Re  Re4  1  0.000000  0.667004  0.500000  1
  Tc  Tc5  1  0.000000  0.000000  0.000000  1
