# generated using pymatgen
data_La3PuZn4(InCu4)4
_symmetry_space_group_name_H-M   'P 1'
_cell_length_a   5.11843500
_cell_length_b   8.45707100
_cell_length_c   10.78541827
_cell_angle_alpha   89.98844069
_cell_angle_beta   90.00000000
_cell_angle_gamma   90.00000000
_symmetry_Int_Tables_number   1
_chemical_formula_structural   La3PuZn4(InCu4)4
_chemical_formula_sum   'La3 Pu1 Zn4 In4 Cu16'
_cell_volume   466.86804852
_cell_formula_units_Z   1
loop_
 _symmetry_equiv_pos_site_id
 _symmetry_equiv_pos_as_xyz
  1  'x, y, z'
loop_
 _atom_site_type_symbol
 _atom_site_label
 _atom_site_symmetry_multiplicity
 _atom_site_fract_x
 _atom_site_fract_y
 _atom_site_fract_z
 _atom_site_occupancy
  La  La0  1  0.250000  0.756169  0.059004  1
  La  La1  1  0.750000  0.244065  0.940817  1
  La  La2  1  0.750000  0.744635  0.558452  1
  Pu  Pu3  1  0.250000  0.255978  0.441433  1
  Zn  Zn4  1  0.250000  0.815622  0.739411  1
  Zn  Zn5  1  0.750000  0.184879  0.262724  1
  Zn  Zn6  1  0.750000  0.684055  0.242650  1
  Zn  Zn7  1  0.250000  0.315468  0.756109  1
  In  In8  1  0.250000  0.635024  0.366058  1
  In  In9  1  0.750000  0.360264  0.632823  1
  In  In10  1  0.750000  0.862229  0.863658  1
  In  In11  1  0.250000  0.138507  0.137635  1
  Cu  Cu12  1  0.502760  0.567087  0.810757  1
  Cu  Cu13  1  0.496702  0.431935  0.189809  1
  Cu  Cu14  1  0.496990  0.933896  0.313727  1
  Cu  Cu15  1  0.003298  0.431935  0.189809  1
  Cu  Cu16  1  0.502070  0.067833  0.686048  1
  Cu  Cu17  1  0.997240  0.567087  0.810757  1
  Cu  Cu18  1  0.997930  0.067833  0.686048  1
  Cu  Cu19  1  0.003010  0.933896  0.313727  1
  Cu  Cu20  1  0.250000  0.554959  0.605924  1
  Cu  Cu21  1  0.750000  0.440888  0.394186  1
  Cu  Cu22  1  0.750000  0.943566  0.107652  1
  Cu  Cu23  1  0.250000  0.056765  0.891897  1
  Cu  Cu24  1  0.250000  0.922673  0.514609  1
  Cu  Cu25  1  0.750000  0.082824  0.484914  1
  Cu  Cu26  1  0.750000  0.579831  0.014766  1
  Cu  Cu27  1  0.250000  0.420100  0.984599  1
