# generated using pymatgen
data_YLuCo9As7Ru3
_symmetry_space_group_name_H-M   'P 1'
_cell_length_a   3.80654200
_cell_length_b   9.37598681
_cell_length_c   9.37598600
_cell_angle_alpha   119.99999713
_cell_angle_beta   90.00000000
_cell_angle_gamma   90.00000000
_symmetry_Int_Tables_number   1
_chemical_formula_structural   YLuCo9As7Ru3
_chemical_formula_sum   'Y1 Lu1 Co9 As7 Ru3'
_cell_volume   289.79788280
_cell_formula_units_Z   1
loop_
 _symmetry_equiv_pos_site_id
 _symmetry_equiv_pos_as_xyz
  1  'x, y, z'
loop_
 _atom_site_type_symbol
 _atom_site_label
 _atom_site_symmetry_multiplicity
 _atom_site_fract_x
 _atom_site_fract_y
 _atom_site_fract_z
 _atom_site_occupancy
  Y  Y0  1  0.500000  0.333333  0.666667  1
  Lu  Lu1  1  0.000000  0.666667  0.333333  1
  Co  Co2  1  0.000000  0.569124  0.941289  1
  Co  Co3  1  0.000000  0.372165  0.430876  1
  Co  Co4  1  0.000000  0.058711  0.627835  1
  Co  Co5  1  0.000000  0.875430  0.158748  1
  Co  Co6  1  0.000000  0.283318  0.124570  1
  Co  Co7  1  0.000000  0.841252  0.716682  1
  Co  Co8  1  0.500000  0.945232  0.382810  1
  Co  Co9  1  0.500000  0.437577  0.054768  1
  Co  Co10  1  0.500000  0.617190  0.562423  1
  As  As11  1  0.000000  0.000000  0.000000  1
  As  As12  1  0.500000  0.707936  0.118863  1
  As  As13  1  0.500000  0.410927  0.292064  1
  As  As14  1  0.500000  0.881137  0.589073  1
  As  As15  1  0.000000  0.587887  0.701581  1
  As  As16  1  0.000000  0.113695  0.412113  1
  As  As17  1  0.000000  0.298419  0.886305  1
  Ru  Ru18  1  0.500000  0.780362  0.900264  1
  Ru  Ru19  1  0.500000  0.119902  0.219638  1
  Ru  Ru20  1  0.500000  0.099736  0.880098  1
