# generated using pymatgen
data_LiSc3Be2(B2Rh5)2
_symmetry_space_group_name_H-M   'P 1'
_cell_length_a   9.23168164
_cell_length_b   2.94477700
_cell_length_c   9.23168164
_cell_angle_alpha   90.00000000
_cell_angle_beta   91.44762608
_cell_angle_gamma   90.00000000
_symmetry_Int_Tables_number   1
_chemical_formula_structural   LiSc3Be2(B2Rh5)2
_chemical_formula_sum   'Li1 Sc3 Be2 B4 Rh10'
_cell_volume   250.88541624
_cell_formula_units_Z   1
loop_
 _symmetry_equiv_pos_site_id
 _symmetry_equiv_pos_as_xyz
  1  'x, y, z'
loop_
 _atom_site_type_symbol
 _atom_site_label
 _atom_site_symmetry_multiplicity
 _atom_site_fract_x
 _atom_site_fract_y
 _atom_site_fract_z
 _atom_site_occupancy
  Li  Li0  1  0.676035  0.000000  0.176034  1
  Sc  Sc1  1  0.173434  0.000000  0.320560  1
  Sc  Sc2  1  0.820561  0.000000  0.673435  1
  Sc  Sc3  1  0.328983  0.000000  0.828984  1
  Be  Be4  1  0.005703  0.000000  0.998052  1
  Be  Be5  1  0.498052  0.000000  0.505703  1
  B  B6  1  0.378198  0.000000  0.131067  1
  B  B7  1  0.861343  0.000000  0.361342  1
  B  B8  1  0.125836  0.000000  0.625835  1
  B  B9  1  0.631066  0.000000  0.878199  1
  Rh  Rh10  1  0.506394  0.500000  0.006394  1
  Rh  Rh11  1  0.211597  0.500000  0.067518  1
  Rh  Rh12  1  0.928668  0.500000  0.203646  1
  Rh  Rh13  1  0.430729  0.500000  0.295935  1
  Rh  Rh14  1  0.703647  0.500000  0.428668  1
  Rh  Rh15  1  0.996324  0.500000  0.496324  1
  Rh  Rh16  1  0.289758  0.500000  0.570214  1
  Rh  Rh17  1  0.567518  0.500000  0.711598  1
  Rh  Rh18  1  0.070214  0.500000  0.789758  1
  Rh  Rh19  1  0.795935  0.500000  0.930729  1
