# generated using pymatgen
data_Na3In2Pd
_symmetry_space_group_name_H-M   'P 1'
_cell_length_a   9.51496936
_cell_length_b   9.51496954
_cell_length_c   9.51496900
_cell_angle_alpha   59.99999841
_cell_angle_beta   59.99999778
_cell_angle_gamma   59.99999915
_symmetry_Int_Tables_number   1
_chemical_formula_structural   Na3In2Pd
_chemical_formula_sum   'Na12 In8 Pd4'
_cell_volume   609.12603354
_cell_formula_units_Z   4
loop_
 _symmetry_equiv_pos_site_id
 _symmetry_equiv_pos_as_xyz
  1  'x, y, z'
loop_
 _atom_site_type_symbol
 _atom_site_label
 _atom_site_symmetry_multiplicity
 _atom_site_fract_x
 _atom_site_fract_y
 _atom_site_fract_z
 _atom_site_occupancy
  Na  Na0  1  0.046794  0.453206  0.046794  1
  Na  Na1  1  0.796794  0.203206  0.203206  1
  Na  Na2  1  0.203206  0.796794  0.796794  1
  Na  Na3  1  0.796794  0.203206  0.796794  1
  Na  Na4  1  0.203206  0.203206  0.796794  1
  Na  Na5  1  0.796794  0.796794  0.203206  1
  Na  Na6  1  0.046794  0.046794  0.453206  1
  Na  Na7  1  0.453206  0.046794  0.046794  1
  Na  Na8  1  0.046794  0.453206  0.453206  1
  Na  Na9  1  0.453206  0.453206  0.046794  1
  Na  Na10  1  0.203206  0.796794  0.203206  1
  Na  Na11  1  0.453206  0.046794  0.453206  1
  In  In12  1  0.832310  0.832310  0.832310  1
  In  In13  1  0.746932  0.417690  0.417690  1
  In  In14  1  0.417690  0.746932  0.417690  1
  In  In15  1  0.417690  0.417690  0.746932  1
  In  In16  1  0.832310  0.503068  0.832310  1
  In  In17  1  0.832310  0.832310  0.503068  1
  In  In18  1  0.503068  0.832310  0.832310  1
  In  In19  1  0.417690  0.417690  0.417690  1
  Pd  Pd20  1  0.625000  0.625000  0.625000  1
  Pd  Pd21  1  0.125000  0.625000  0.625000  1
  Pd  Pd22  1  0.625000  0.125000  0.625000  1
  Pd  Pd23  1  0.625000  0.625000  0.125000  1
