# generated using pymatgen
data_Nb4SiB4PRu10
_symmetry_space_group_name_H-M   'P 1'
_cell_length_a   9.30454400
_cell_length_b   9.30454400
_cell_length_c   2.93987600
_cell_angle_alpha   90.00000000
_cell_angle_beta   90.00000000
_cell_angle_gamma   90.00000000
_symmetry_Int_Tables_number   1
_chemical_formula_structural   Nb4SiB4PRu10
_chemical_formula_sum   'Nb4 Si1 B4 P1 Ru10'
_cell_volume   254.51840956
_cell_formula_units_Z   1
loop_
 _symmetry_equiv_pos_site_id
 _symmetry_equiv_pos_as_xyz
  1  'x, y, z'
loop_
 _atom_site_type_symbol
 _atom_site_label
 _atom_site_symmetry_multiplicity
 _atom_site_fract_x
 _atom_site_fract_y
 _atom_site_fract_z
 _atom_site_occupancy
  Nb  Nb0  1  0.821384  0.675723  0.000000  1
  Nb  Nb1  1  0.178616  0.324277  0.000000  1
  Nb  Nb2  1  0.324277  0.821384  0.000000  1
  Nb  Nb3  1  0.675723  0.178616  0.000000  1
  Si  Si4  1  0.500000  0.500000  0.000000  1
  B  B5  1  0.624198  0.875121  0.000000  1
  B  B6  1  0.375802  0.124879  0.000000  1
  B  B7  1  0.124879  0.624198  0.000000  1
  B  B8  1  0.875121  0.375802  0.000000  1
  P  P9  1  0.000000  0.000000  0.000000  1
  Ru  Ru10  1  0.567206  0.711753  0.500000  1
  Ru  Ru11  1  0.432794  0.288247  0.500000  1
  Ru  Ru12  1  0.064595  0.791876  0.500000  1
  Ru  Ru13  1  0.935405  0.208124  0.500000  1
  Ru  Ru14  1  0.288247  0.567206  0.500000  1
  Ru  Ru15  1  0.711753  0.432794  0.500000  1
  Ru  Ru16  1  0.208124  0.064595  0.500000  1
  Ru  Ru17  1  0.791876  0.935405  0.500000  1
  Ru  Ru18  1  0.500000  0.000000  0.500000  1
  Ru  Ru19  1  0.000000  0.500000  0.500000  1
