# generated using pymatgen
data_SrHgP2O7
_symmetry_space_group_name_H-M   'P 1'
_cell_length_a   7.08226645
_cell_length_b   6.79610522
_cell_length_c   6.95060667
_cell_angle_alpha   65.95833237
_cell_angle_beta   83.86679266
_cell_angle_gamma   89.29582835
_symmetry_Int_Tables_number   1
_chemical_formula_structural   SrHgP2O7
_chemical_formula_sum   'Sr2 Hg2 P4 O14'
_cell_volume   303.59483594
_cell_formula_units_Z   2
loop_
 _symmetry_equiv_pos_site_id
 _symmetry_equiv_pos_as_xyz
  1  'x, y, z'
loop_
 _atom_site_type_symbol
 _atom_site_label
 _atom_site_symmetry_multiplicity
 _atom_site_fract_x
 _atom_site_fract_y
 _atom_site_fract_z
 _atom_site_occupancy
  Sr  Sr0  1  0.873577  0.707809  0.265298  1
  Sr  Sr1  1  0.126423  0.292191  0.734702  1
  Hg  Hg2  1  0.350524  0.731502  0.893899  1
  Hg  Hg3  1  0.649476  0.268498  0.106101  1
  P  P4  1  0.857873  0.772436  0.768526  1
  P  P5  1  0.142127  0.227564  0.231474  1
  P  P6  1  0.358942  0.824340  0.362602  1
  P  P7  1  0.641058  0.175660  0.637398  1
  O  O8  1  0.009890  0.859106  0.859940  1
  O  O9  1  0.990110  0.140894  0.140060  1
  O  O10  1  0.750181  0.974272  0.606877  1
  O  O11  1  0.249819  0.025728  0.393123  1
  O  O12  1  0.563858  0.906818  0.263592  1
  O  O13  1  0.436142  0.093182  0.736408  1
  O  O14  1  0.932445  0.650357  0.638122  1
  O  O15  1  0.067555  0.349643  0.361878  1
  O  O16  1  0.703304  0.644310  0.956916  1
  O  O17  1  0.296696  0.355690  0.043084  1
  O  O18  1  0.753923  0.236080  0.782397  1
  O  O19  1  0.246077  0.763920  0.217603  1
  O  O20  1  0.352936  0.647557  0.587923  1
  O  O21  1  0.647064  0.352443  0.412077  1
