# generated using pymatgen
data_Rb2Ca(SeO3)2
_symmetry_space_group_name_H-M   'P 1'
_cell_length_a   5.93871987
_cell_length_b   7.54888889
_cell_length_c   9.60224377
_cell_angle_alpha   72.56584100
_cell_angle_beta   90.14072585
_cell_angle_gamma   90.13071530
_symmetry_Int_Tables_number   1
_chemical_formula_structural   Rb2Ca(SeO3)2
_chemical_formula_sum   'Rb4 Ca2 Se4 O12'
_cell_volume   410.69863731
_cell_formula_units_Z   2
loop_
 _symmetry_equiv_pos_site_id
 _symmetry_equiv_pos_as_xyz
  1  'x, y, z'
loop_
 _atom_site_type_symbol
 _atom_site_label
 _atom_site_symmetry_multiplicity
 _atom_site_fract_x
 _atom_site_fract_y
 _atom_site_fract_z
 _atom_site_occupancy
  Rb  Rb0  1  0.999837  0.604781  0.802252  1
  Rb  Rb1  1  0.499834  0.104782  0.302251  1
  Rb  Rb2  1  0.000163  0.395220  0.197748  1
  Rb  Rb3  1  0.500166  0.895219  0.697749  1
  Ca  Ca4  1  0.500000  0.500000  0.500000  1
  Ca  Ca5  1  0.000000  0.000000  0.000000  1
  Se  Se6  1  0.000107  0.251549  0.625970  1
  Se  Se7  1  0.500102  0.751534  0.125978  1
  Se  Se8  1  0.999893  0.748451  0.374030  1
  Se  Se9  1  0.499898  0.248466  0.874022  1
  O  O10  1  0.230162  0.741397  0.485642  1
  O  O11  1  0.730165  0.241406  0.985640  1
  O  O12  1  0.769839  0.258604  0.514358  1
  O  O13  1  0.269835  0.758595  0.014360  1
  O  O14  1  0.230154  0.258768  0.514282  1
  O  O15  1  0.730143  0.758766  0.014282  1
  O  O16  1  0.769846  0.741232  0.485718  1
  O  O17  1  0.269857  0.241234  0.985717  1
  O  O18  1  0.999976  0.971760  0.255654  1
  O  O19  1  0.499982  0.471777  0.755651  1
  O  O20  1  0.000024  0.028241  0.744347  1
  O  O21  1  0.500018  0.528223  0.244350  1
