# generated using pymatgen
data_Ca9La(NbN5)2
_symmetry_space_group_name_H-M   'P 1'
_cell_length_a   6.96560992
_cell_length_b   6.94301828
_cell_length_c   8.92734300
_cell_angle_alpha   80.67519921
_cell_angle_beta   80.42633607
_cell_angle_gamma   59.82908796
_symmetry_Int_Tables_number   1
_chemical_formula_structural   Ca9La(NbN5)2
_chemical_formula_sum   'Ca9 La1 Nb2 N10'
_cell_volume   366.49850297
_cell_formula_units_Z   1
loop_
 _symmetry_equiv_pos_site_id
 _symmetry_equiv_pos_as_xyz
  1  'x, y, z'
loop_
 _atom_site_type_symbol
 _atom_site_label
 _atom_site_symmetry_multiplicity
 _atom_site_fract_x
 _atom_site_fract_y
 _atom_site_fract_z
 _atom_site_occupancy
  Ca  Ca0  1  0.871563  0.869446  0.826791  1
  Ca  Ca1  1  0.740551  0.743485  0.519507  1
  Ca  Ca2  1  0.754303  0.248273  0.501617  1
  Ca  Ca3  1  0.622392  0.135549  0.157079  1
  Ca  Ca4  1  0.362784  0.871623  0.837115  1
  Ca  Ca5  1  0.250533  0.755278  0.507004  1
  Ca  Ca6  1  0.245570  0.244670  0.488433  1
  Ca  Ca7  1  0.144453  0.136910  0.168486  1
  Ca  Ca8  1  0.136379  0.626912  0.154805  1
  La  La9  1  0.880071  0.347228  0.838734  1
  Nb  Nb10  1  0.629997  0.630995  0.221934  1
  Nb  Nb11  1  0.372769  0.367691  0.772435  1
  N  N12  1  0.915372  0.465415  0.320826  1
  N  N13  1  0.992505  0.002984  0.017581  1
  N  N14  1  0.676284  0.684569  0.000621  1
  N  N15  1  0.538177  0.536836  0.692161  1
  N  N16  1  0.464566  0.915959  0.324776  1
  N  N17  1  0.540937  0.083020  0.674978  1
  N  N18  1  0.463002  0.465879  0.301185  1
  N  N19  1  0.317654  0.318947  0.993084  1
  N  N20  1  0.054753  0.072507  0.650965  1
  N  N21  1  0.087669  0.538113  0.675685  1
