# generated using pymatgen
data_Ho6Ti5Al11Ir7
_symmetry_space_group_name_H-M   'P 1'
_cell_length_a   9.00323870
_cell_length_b   9.00323915
_cell_length_c   8.96992609
_cell_angle_alpha   59.87706759
_cell_angle_beta   59.87706272
_cell_angle_gamma   60.00000112
_symmetry_Int_Tables_number   1
_chemical_formula_structural   Ho6Ti5Al11Ir7
_chemical_formula_sum   'Ho6 Ti5 Al11 Ir7'
_cell_volume   513.17079029
_cell_formula_units_Z   1
loop_
 _symmetry_equiv_pos_site_id
 _symmetry_equiv_pos_as_xyz
  1  'x, y, z'
loop_
 _atom_site_type_symbol
 _atom_site_label
 _atom_site_symmetry_multiplicity
 _atom_site_fract_x
 _atom_site_fract_y
 _atom_site_fract_z
 _atom_site_occupancy
  Ho  Ho0  1  0.704128  0.704128  0.298039  1
  Ho  Ho1  1  0.293705  0.704128  0.298039  1
  Ho  Ho2  1  0.704128  0.293705  0.298039  1
  Ho  Ho3  1  0.298847  0.298847  0.704355  1
  Ho  Ho4  1  0.697951  0.298847  0.704355  1
  Ho  Ho5  1  0.298847  0.697951  0.704355  1
  Ti  Ti6  1  0.880745  0.880745  0.357767  1
  Ti  Ti7  1  0.878497  0.360672  0.882334  1
  Ti  Ti8  1  0.360672  0.878497  0.882334  1
  Ti  Ti9  1  0.878497  0.878497  0.882334  1
  Ti  Ti10  1  0.123270  0.123270  0.630190  1
  Al  Al11  1  0.118053  0.644455  0.119437  1
  Al  Al12  1  0.644455  0.118053  0.119437  1
  Al  Al13  1  0.118053  0.118053  0.119437  1
  Al  Al14  1  0.668430  0.668430  0.994709  1
  Al  Al15  1  0.669356  0.992488  0.668798  1
  Al  Al16  1  0.992488  0.669356  0.668798  1
  Al  Al17  1  0.669356  0.669356  0.668798  1
  Al  Al18  1  0.329374  0.329374  0.011877  1
  Al  Al19  1  0.329992  0.012457  0.327560  1
  Al  Al20  1  0.012457  0.329992  0.327560  1
  Al  Al21  1  0.329992  0.329992  0.327560  1
  Ir  Ir22  1  0.004322  0.004322  0.987035  1
  Ir  Ir23  1  0.998702  0.998702  0.504531  1
  Ir  Ir24  1  0.498065  0.998702  0.504531  1
  Ir  Ir25  1  0.998702  0.498065  0.504531  1
  Ir  Ir26  1  0.500138  0.500138  0.001087  1
  Ir  Ir27  1  0.998638  0.500138  0.001087  1
  Ir  Ir28  1  0.500138  0.998638  0.001087  1
