# generated using pymatgen
data_SrMnCo2(PO4)3
_symmetry_space_group_name_H-M   'P 1'
_cell_length_a   9.20717848
_cell_length_b   9.20717875
_cell_length_c   9.20717809
_cell_angle_alpha   138.11033345
_cell_angle_beta   111.34110570
_cell_angle_gamma   83.77970164
_symmetry_Int_Tables_number   1
_chemical_formula_structural   SrMnCo2(PO4)3
_chemical_formula_sum   'Sr2 Mn2 Co4 P6 O24'
_cell_volume   468.53573491
_cell_formula_units_Z   2
loop_
 _symmetry_equiv_pos_site_id
 _symmetry_equiv_pos_as_xyz
  1  'x, y, z'
loop_
 _atom_site_type_symbol
 _atom_site_label
 _atom_site_symmetry_multiplicity
 _atom_site_fract_x
 _atom_site_fract_y
 _atom_site_fract_z
 _atom_site_occupancy
  Sr  Sr0  1  0.250000  0.347015  0.097015  1
  Sr  Sr1  1  0.750000  0.652985  0.902985  1
  Mn  Mn2  1  0.000000  0.500000  0.500000  1
  Mn  Mn3  1  0.500000  0.000000  0.500000  1
  Co  Co4  1  0.116927  0.116927  0.500000  1
  Co  Co5  1  0.383073  0.883073  0.000000  1
  Co  Co6  1  0.616927  0.116927  0.000000  1
  Co  Co7  1  0.883073  0.883073  0.500000  1
  P  P8  1  0.250000  0.834582  0.584582  1
  P  P9  1  0.750000  0.165418  0.415418  1
  P  P10  1  0.321978  0.321978  0.500000  1
  P  P11  1  0.178022  0.678022  0.000000  1
  P  P12  1  0.821978  0.321978  0.000000  1
  P  P13  1  0.678022  0.678022  0.500000  1
  O  O14  1  0.340986  0.789853  0.448869  1
  O  O15  1  0.659014  0.210147  0.551131  1
  O  O16  1  0.840986  0.392117  0.551131  1
  O  O17  1  0.159014  0.607883  0.448869  1
  O  O18  1  0.131326  0.983438  0.614763  1
  O  O19  1  0.631326  0.016562  0.147889  1
  O  O20  1  0.868674  0.016562  0.385237  1
  O  O21  1  0.368674  0.983438  0.852111  1
  O  O22  1  0.342885  0.201508  0.276283  1
  O  O23  1  0.074775  0.798492  0.141377  1
  O  O24  1  0.842885  0.566603  0.141377  1
  O  O25  1  0.574775  0.433397  0.276283  1
  O  O26  1  0.657115  0.798492  0.723717  1
  O  O27  1  0.925225  0.201508  0.858623  1
  O  O28  1  0.157115  0.433397  0.858623  1
  O  O29  1  0.425225  0.566603  0.723717  1
  O  O30  1  0.133666  0.291595  0.434565  1
  O  O31  1  0.142971  0.708405  0.842072  1
  O  O32  1  0.633666  0.199101  0.842072  1
  O  O33  1  0.642971  0.800899  0.434565  1
  O  O34  1  0.866334  0.708405  0.565435  1
  O  O35  1  0.857029  0.291595  0.157928  1
  O  O36  1  0.366334  0.800899  0.157928  1
  O  O37  1  0.357029  0.199101  0.565435  1
