# generated using pymatgen
data_Dy7Sn23(IrRh)3
_symmetry_space_group_name_H-M   'P 1'
_cell_length_a   9.85755115
_cell_length_b   9.86173240
_cell_length_c   10.12016399
_cell_angle_alpha   90.09843733
_cell_angle_beta   89.78379501
_cell_angle_gamma   120.06466758
_symmetry_Int_Tables_number   1
_chemical_formula_structural   Dy7Sn23(IrRh)3
_chemical_formula_sum   'Dy7 Sn23 Ir3 Rh3'
_cell_volume   851.43983317
_cell_formula_units_Z   1
loop_
 _symmetry_equiv_pos_site_id
 _symmetry_equiv_pos_as_xyz
  1  'x, y, z'
loop_
 _atom_site_type_symbol
 _atom_site_label
 _atom_site_symmetry_multiplicity
 _atom_site_fract_x
 _atom_site_fract_y
 _atom_site_fract_z
 _atom_site_occupancy
  Dy  Dy0  1  0.997620  0.995317  0.003252  1
  Dy  Dy1  1  0.480437  0.521418  0.308064  1
  Dy  Dy2  1  0.521093  0.479111  0.690979  1
  Dy  Dy3  1  0.480146  0.958526  0.307387  1
  Dy  Dy4  1  0.519826  0.041859  0.692351  1
  Dy  Dy5  1  0.040685  0.520274  0.306207  1
  Dy  Dy6  1  0.958131  0.480102  0.692570  1
  Sn  Sn7  1  0.352401  0.001547  0.000508  1
  Sn  Sn8  1  0.647741  0.999074  0.999169  1
  Sn  Sn9  1  0.001711  0.351045  0.999083  1
  Sn  Sn10  1  0.999931  0.646475  0.999561  1
  Sn  Sn11  1  0.646649  0.647911  0.999140  1
  Sn  Sn12  1  0.349905  0.350070  0.999684  1
  Sn  Sn13  1  0.333748  0.666754  0.820842  1
  Sn  Sn14  1  0.666230  0.333362  0.176869  1
  Sn  Sn15  1  0.000070  0.999952  0.500344  1
  Sn  Sn16  1  0.779434  0.221071  0.457297  1
  Sn  Sn17  1  0.220686  0.778429  0.542430  1
  Sn  Sn18  1  0.779497  0.557445  0.457069  1
  Sn  Sn19  1  0.219536  0.440865  0.544000  1
  Sn  Sn20  1  0.441137  0.220011  0.455202  1
  Sn  Sn21  1  0.557923  0.779493  0.544817  1
  Sn  Sn22  1  0.334330  0.666319  0.119299  1
  Sn  Sn23  1  0.665765  0.333703  0.879757  1
  Sn  Sn24  1  0.120259  0.882376  0.280478  1
  Sn  Sn25  1  0.881843  0.119641  0.721963  1
  Sn  Sn26  1  0.119964  0.238926  0.280522  1
  Sn  Sn27  1  0.880887  0.762783  0.719459  1
  Sn  Sn28  1  0.761581  0.881536  0.284199  1
  Sn  Sn29  1  0.238472  0.120479  0.719121  1
  Ir  Ir30  1  0.831078  0.168925  0.198018  1
  Ir  Ir31  1  0.169738  0.832052  0.801400  1
  Ir  Ir32  1  0.830778  0.663053  0.198209  1
  Rh  Rh33  1  0.170364  0.338847  0.801255  1
  Rh  Rh34  1  0.338242  0.170084  0.198019  1
  Rh  Rh35  1  0.662158  0.831165  0.801481  1
