# generated using pymatgen
data_SrTb5DyNiI12
_symmetry_space_group_name_H-M   'P 1'
_cell_length_a   9.81589120
_cell_length_b   9.81308684
_cell_length_c   9.82029389
_cell_angle_alpha   106.23376992
_cell_angle_beta   106.16225602
_cell_angle_gamma   106.20591573
_symmetry_Int_Tables_number   1
_chemical_formula_structural   SrTb5DyNiI12
_chemical_formula_sum   'Sr1 Tb5 Dy1 Ni1 I12'
_cell_volume   804.34089776
_cell_formula_units_Z   1
loop_
 _symmetry_equiv_pos_site_id
 _symmetry_equiv_pos_as_xyz
  1  'x, y, z'
loop_
 _atom_site_type_symbol
 _atom_site_label
 _atom_site_symmetry_multiplicity
 _atom_site_fract_x
 _atom_site_fract_y
 _atom_site_fract_z
 _atom_site_occupancy
  Sr  Sr0  1  0.500010  0.500039  0.499915  1
  Tb  Tb1  1  0.709579  0.907438  0.980042  1
  Tb  Tb2  1  0.979884  0.709441  0.907256  1
  Tb  Tb3  1  0.092415  0.020023  0.290456  1
  Tb  Tb4  1  0.290281  0.092467  0.019870  1
  Tb  Tb5  1  0.019975  0.290338  0.092247  1
  Dy  Dy6  1  0.907926  0.979834  0.711056  1
  Ni  Ni7  1  0.000028  0.000467  0.000353  1
  I  I8  1  0.925998  0.322237  0.776756  1
  I  I9  1  0.777682  0.926382  0.323903  1
  I  I10  1  0.323435  0.777397  0.926100  1
  I  I11  1  0.073766  0.676521  0.222347  1
  I  I12  1  0.221193  0.073432  0.676368  1
  I  I13  1  0.676588  0.222597  0.073739  1
  I  I14  1  0.552848  0.864599  0.631684  1
  I  I15  1  0.631698  0.551498  0.863915  1
  I  I16  1  0.864128  0.632547  0.551674  1
  I  I17  1  0.448298  0.135939  0.368187  1
  I  I18  1  0.368321  0.448419  0.135891  1
  I  I19  1  0.135945  0.368386  0.448242  1
