# generated using pymatgen
data_HoU5(Cu2S7)2
_symmetry_space_group_name_H-M   'P 1'
_cell_length_a   9.68373453
_cell_length_b   9.66927443
_cell_length_c   5.68347173
_cell_angle_alpha   90.09860671
_cell_angle_beta   89.73275084
_cell_angle_gamma   119.95697482
_symmetry_Int_Tables_number   1
_chemical_formula_structural   HoU5(Cu2S7)2
_chemical_formula_sum   'Ho1 U5 Cu4 S14'
_cell_volume   461.06737391
_cell_formula_units_Z   1
loop_
 _symmetry_equiv_pos_site_id
 _symmetry_equiv_pos_as_xyz
  1  'x, y, z'
loop_
 _atom_site_type_symbol
 _atom_site_label
 _atom_site_symmetry_multiplicity
 _atom_site_fract_x
 _atom_site_fract_y
 _atom_site_fract_z
 _atom_site_occupancy
  Ho  Ho0  1  0.227726  0.848644  0.031758  1
  U  U1  1  0.148785  0.380273  0.028304  1
  U  U2  1  0.850048  0.621812  0.530420  1
  U  U3  1  0.619564  0.773102  0.027919  1
  U  U4  1  0.768731  0.150189  0.534715  1
  U  U5  1  0.379255  0.229607  0.530642  1
  Cu  Cu6  1  0.667384  0.333455  0.150171  1
  Cu  Cu7  1  0.334007  0.664932  0.648144  1
  Cu  Cu8  1  0.000279  0.000779  0.498468  1
  Cu  Cu9  1  0.000679  0.999025  0.000244  1
  S  S10  1  0.666596  0.334627  0.752412  1
  S  S11  1  0.568110  0.487274  0.284199  1
  S  S12  1  0.152913  0.891888  0.512654  1
  S  S13  1  0.516058  0.081894  0.285907  1
  S  S14  1  0.433847  0.513060  0.783666  1
  S  S15  1  0.489600  0.919032  0.780808  1
  S  S16  1  0.846670  0.107324  0.016661  1
  S  S17  1  0.078948  0.563886  0.780031  1
  S  S18  1  0.738820  0.846311  0.513090  1
  S  S19  1  0.335107  0.664722  0.250877  1
  S  S20  1  0.919543  0.432350  0.282744  1
  S  S21  1  0.262232  0.157456  0.014664  1
  S  S22  1  0.108379  0.262680  0.514871  1
  S  S23  1  0.886722  0.735676  0.013034  1
