# generated using pymatgen
data_LaPu5(Cu3Sb4)2
_symmetry_space_group_name_H-M   'P 1'
_cell_length_a   8.38492970
_cell_length_b   8.38492835
_cell_length_c   8.38492861
_cell_angle_alpha   109.54844753
_cell_angle_beta   109.54845043
_cell_angle_gamma   109.31687942
_symmetry_Int_Tables_number   1
_chemical_formula_structural   LaPu5(Cu3Sb4)2
_chemical_formula_sum   'La1 Pu5 Cu6 Sb8'
_cell_volume   453.80979883
_cell_formula_units_Z   1
loop_
 _symmetry_equiv_pos_site_id
 _symmetry_equiv_pos_as_xyz
  1  'x, y, z'
loop_
 _atom_site_type_symbol
 _atom_site_label
 _atom_site_symmetry_multiplicity
 _atom_site_fract_x
 _atom_site_fract_y
 _atom_site_fract_z
 _atom_site_occupancy
  La  La0  1  0.375000  0.625000  0.750000  1
  Pu  Pu1  1  0.874773  0.249483  0.125533  1
  Pu  Pu2  1  0.623950  0.749239  0.374467  1
  Pu  Pu3  1  0.250761  0.125227  0.874710  1
  Pu  Pu4  1  0.750517  0.376050  0.625290  1
  Pu  Pu5  1  0.125000  0.875000  0.250000  1
  Cu  Cu6  1  0.374303  0.247009  0.622315  1
  Cu  Cu7  1  0.124694  0.751988  0.877685  1
  Cu  Cu8  1  0.248012  0.625697  0.372706  1
  Cu  Cu9  1  0.752991  0.875306  0.127294  1
  Cu  Cu10  1  0.625000  0.375000  0.250000  1
  Cu  Cu11  1  0.875000  0.125000  0.750000  1
  Sb  Sb12  1  0.663780  0.497801  0.001606  1
  Sb  Sb13  1  0.501497  0.002700  0.660420  1
  Sb  Sb14  1  0.996196  0.662174  0.498394  1
  Sb  Sb15  1  0.842280  0.841077  0.839580  1
  Sb  Sb16  1  0.502199  0.003804  0.165978  1
  Sb  Sb17  1  0.158923  0.498503  0.001203  1
  Sb  Sb18  1  0.997300  0.157720  0.498797  1
  Sb  Sb19  1  0.337826  0.336220  0.334022  1
