# generated using pymatgen
data_Rb4PaS4
_symmetry_space_group_name_H-M   'P 1'
_cell_length_a   8.08033493
_cell_length_b   8.33896958
_cell_length_c   11.98724200
_cell_angle_alpha   72.77354719
_cell_angle_beta   80.51926649
_cell_angle_gamma   67.85563612
_symmetry_Int_Tables_number   1
_chemical_formula_structural   Rb4PaS4
_chemical_formula_sum   'Rb8 Pa2 S8'
_cell_volume   713.29263694
_cell_formula_units_Z   2
loop_
 _symmetry_equiv_pos_site_id
 _symmetry_equiv_pos_as_xyz
  1  'x, y, z'
loop_
 _atom_site_type_symbol
 _atom_site_label
 _atom_site_symmetry_multiplicity
 _atom_site_fract_x
 _atom_site_fract_y
 _atom_site_fract_z
 _atom_site_occupancy
  Rb  Rb0  1  0.270165  0.775403  0.036210  1
  Rb  Rb1  1  0.768602  0.568123  0.162436  1
  Rb  Rb2  1  0.776522  0.043069  0.377564  1
  Rb  Rb3  1  0.285799  0.504222  0.434923  1
  Rb  Rb4  1  0.714202  0.495772  0.565086  1
  Rb  Rb5  1  0.223475  0.956930  0.622446  1
  Rb  Rb6  1  0.231402  0.431874  0.837561  1
  Rb  Rb7  1  0.729839  0.224602  0.963783  1
  Pa  Pa8  1  0.274017  0.150950  0.245159  1
  Pa  Pa9  1  0.725981  0.849057  0.754841  1
  S  S10  1  0.089461  0.179825  0.079981  1
  S  S11  1  0.466368  0.353724  0.189287  1
  S  S12  1  0.472104  0.828436  0.346204  1
  S  S13  1  0.029859  0.287001  0.391304  1
  S  S14  1  0.970139  0.712998  0.608700  1
  S  S15  1  0.527888  0.171563  0.653784  1
  S  S16  1  0.533633  0.646279  0.810712  1
  S  S17  1  0.910545  0.820173  0.920016  1
