# generated using pymatgen
data_Sc3(MnAl2)2
_symmetry_space_group_name_H-M   'P 1'
_cell_length_a   9.11628906
_cell_length_b   9.22479397
_cell_length_c   8.60455900
_cell_angle_alpha   90.00000000
_cell_angle_beta   90.00000000
_cell_angle_gamma   120.72080002
_symmetry_Int_Tables_number   1
_chemical_formula_structural   Sc3(MnAl2)2
_chemical_formula_sum   'Sc12 Mn8 Al16'
_cell_volume   622.06185523
_cell_formula_units_Z   4
loop_
 _symmetry_equiv_pos_site_id
 _symmetry_equiv_pos_as_xyz
  1  'x, y, z'
loop_
 _atom_site_type_symbol
 _atom_site_label
 _atom_site_symmetry_multiplicity
 _atom_site_fract_x
 _atom_site_fract_y
 _atom_site_fract_z
 _atom_site_occupancy
  Sc  Sc0  1  0.337100  0.005525  0.063787  1
  Sc  Sc1  1  0.662900  0.994475  0.936213  1
  Sc  Sc2  1  0.000801  0.333851  0.059343  1
  Sc  Sc3  1  0.662900  0.994475  0.563787  1
  Sc  Sc4  1  0.000801  0.333851  0.440657  1
  Sc  Sc5  1  0.999199  0.666149  0.940657  1
  Sc  Sc6  1  0.337100  0.005525  0.436213  1
  Sc  Sc7  1  0.999199  0.666149  0.559343  1
  Sc  Sc8  1  0.663459  0.667012  0.060928  1
  Sc  Sc9  1  0.336541  0.332988  0.939072  1
  Sc  Sc10  1  0.336541  0.332988  0.560928  1
  Sc  Sc11  1  0.663459  0.667012  0.439072  1
  Mn  Mn12  1  0.174596  0.508235  0.750000  1
  Mn  Mn13  1  0.825404  0.491765  0.250000  1
  Mn  Mn14  1  0.480160  0.647617  0.750000  1
  Mn  Mn15  1  0.506196  0.162668  0.750000  1
  Mn  Mn16  1  0.519840  0.352383  0.250000  1
  Mn  Mn17  1  0.493804  0.837332  0.250000  1
  Mn  Mn18  1  0.000000  0.000000  0.500000  1
  Mn  Mn19  1  0.000000  0.000000  0.000000  1
  Al  Al20  1  0.342323  0.841010  0.750000  1
  Al  Al21  1  0.650229  0.497723  0.750000  1
  Al  Al22  1  0.657677  0.158990  0.250000  1
  Al  Al23  1  0.349771  0.502277  0.250000  1
  Al  Al24  1  0.843913  0.343288  0.750000  1
  Al  Al25  1  0.156087  0.656712  0.250000  1
  Al  Al26  1  0.337995  0.667570  0.500156  1
  Al  Al27  1  0.662005  0.332430  0.499844  1
  Al  Al28  1  0.662005  0.332430  0.000156  1
  Al  Al29  1  0.337995  0.667570  0.999844  1
  Al  Al30  1  0.175414  0.005159  0.750000  1
  Al  Al31  1  0.824586  0.994841  0.250000  1
  Al  Al32  1  0.010039  0.178626  0.750000  1
  Al  Al33  1  0.989961  0.821374  0.250000  1
  Al  Al34  1  0.818776  0.829067  0.750000  1
  Al  Al35  1  0.181224  0.170933  0.250000  1
