# generated using pymatgen
data_Er7Tm13(CoBi5)2
_symmetry_space_group_name_H-M   'P 1'
_cell_length_a   7.98658200
_cell_length_b   9.32369400
_cell_length_c   11.99798800
_cell_angle_alpha   90.00000000
_cell_angle_beta   90.00287939
_cell_angle_gamma   90.00000000
_symmetry_Int_Tables_number   1
_chemical_formula_structural   Er7Tm13(CoBi5)2
_chemical_formula_sum   'Er7 Tm13 Co2 Bi10'
_cell_volume   893.42353706
_cell_formula_units_Z   1
loop_
 _symmetry_equiv_pos_site_id
 _symmetry_equiv_pos_as_xyz
  1  'x, y, z'
loop_
 _atom_site_type_symbol
 _atom_site_label
 _atom_site_symmetry_multiplicity
 _atom_site_fract_x
 _atom_site_fract_y
 _atom_site_fract_z
 _atom_site_occupancy
  Er  Er0  1  0.572655  0.500000  0.772426  1
  Er  Er1  1  0.427338  0.500000  0.272421  1
  Er  Er2  1  0.260104  0.500000  0.993667  1
  Er  Er3  1  0.739908  0.500000  0.493614  1
  Er  Er4  1  0.090028  0.500000  0.718321  1
  Er  Er5  1  0.909919  0.500000  0.218375  1
  Er  Er6  1  0.628358  0.000000  0.808895  1
  Tm  Tm7  1  0.428016  0.175399  0.563064  1
  Tm  Tm8  1  0.571949  0.824551  0.063394  1
  Tm  Tm9  1  0.070458  0.729614  0.436373  1
  Tm  Tm10  1  0.929697  0.270535  0.936490  1
  Tm  Tm11  1  0.070458  0.270386  0.436373  1
  Tm  Tm12  1  0.929697  0.729465  0.936490  1
  Tm  Tm13  1  0.428016  0.824601  0.563064  1
  Tm  Tm14  1  0.571949  0.175449  0.063394  1
  Tm  Tm15  1  0.907656  0.000000  0.200580  1
  Tm  Tm16  1  0.092344  0.000000  0.700636  1
  Tm  Tm17  1  0.197599  0.000000  0.996533  1
  Tm  Tm18  1  0.802360  0.000000  0.496531  1
  Tm  Tm19  1  0.371398  0.000000  0.309103  1
  Co  Co20  1  0.171824  0.000000  0.488114  1
  Co  Co21  1  0.828334  0.000000  0.988364  1
  Bi  Bi22  1  0.813439  0.741412  0.672229  1
  Bi  Bi23  1  0.186758  0.258449  0.172230  1
  Bi  Bi24  1  0.680281  0.241483  0.325256  1
  Bi  Bi25  1  0.319545  0.758451  0.825267  1
  Bi  Bi26  1  0.680281  0.758517  0.325256  1
  Bi  Bi27  1  0.319545  0.241549  0.825267  1
  Bi  Bi28  1  0.813439  0.258588  0.672229  1
  Bi  Bi29  1  0.186758  0.741551  0.172230  1
  Bi  Bi30  1  0.346160  0.500000  0.526927  1
  Bi  Bi31  1  0.653731  0.500000  0.026892  1
