# generated using pymatgen
data_Sr11Yb(SmSn2)8
_symmetry_space_group_name_H-M   'P 1'
_cell_length_a   8.21583904
_cell_length_b   8.74927729
_cell_length_c   16.67496100
_cell_angle_alpha   90.00000000
_cell_angle_beta   90.00000000
_cell_angle_gamma   89.90102628
_symmetry_Int_Tables_number   1
_chemical_formula_structural   Sr11Yb(SmSn2)8
_chemical_formula_sum   'Sr11 Yb1 Sm8 Sn16'
_cell_volume   1198.63866247
_cell_formula_units_Z   1
loop_
 _symmetry_equiv_pos_site_id
 _symmetry_equiv_pos_as_xyz
  1  'x, y, z'
loop_
 _atom_site_type_symbol
 _atom_site_label
 _atom_site_symmetry_multiplicity
 _atom_site_fract_x
 _atom_site_fract_y
 _atom_site_fract_z
 _atom_site_occupancy
  Sr  Sr0  1  0.507726  0.682532  0.592026  1
  Sr  Sr1  1  0.008086  0.817419  0.907795  1
  Sr  Sr2  1  0.492895  0.315778  0.093714  1
  Sr  Sr3  1  0.990841  0.181582  0.405919  1
  Sr  Sr4  1  0.492895  0.315778  0.406286  1
  Sr  Sr5  1  0.990841  0.181582  0.094081  1
  Sr  Sr6  1  0.507726  0.682532  0.907974  1
  Sr  Sr7  1  0.008086  0.817419  0.592205  1
  Sr  Sr8  1  0.836921  0.514008  0.750000  1
  Sr  Sr9  1  0.337012  0.986076  0.750000  1
  Sr  Sr10  1  0.162403  0.486819  0.250000  1
  Yb  Yb11  1  0.660685  0.008682  0.250000  1
  Sm  Sm12  1  0.675433  0.169294  0.621210  1
  Sm  Sm13  1  0.175459  0.330695  0.878554  1
  Sm  Sm14  1  0.325187  0.831847  0.122642  1
  Sm  Sm15  1  0.824341  0.670202  0.377489  1
  Sm  Sm16  1  0.325187  0.831847  0.377358  1
  Sm  Sm17  1  0.824341  0.670202  0.122511  1
  Sm  Sm18  1  0.675433  0.169294  0.878790  1
  Sm  Sm19  1  0.175459  0.330695  0.621446  1
  Sn  Sn20  1  0.660917  0.960966  0.458396  1
  Sn  Sn21  1  0.161407  0.540863  0.039530  1
  Sn  Sn22  1  0.339232  0.040342  0.961546  1
  Sn  Sn23  1  0.839100  0.459617  0.538410  1
  Sn  Sn24  1  0.339232  0.040342  0.538454  1
  Sn  Sn25  1  0.839100  0.459617  0.961590  1
  Sn  Sn26  1  0.660917  0.960966  0.041604  1
  Sn  Sn27  1  0.161407  0.540863  0.460470  1
  Sn  Sn28  1  0.468220  0.368551  0.750000  1
  Sn  Sn29  1  0.967709  0.131469  0.750000  1
  Sn  Sn30  1  0.534104  0.632898  0.250000  1
  Sn  Sn31  1  0.025547  0.877443  0.250000  1
  Sn  Sn32  1  0.725630  0.886808  0.750000  1
  Sn  Sn33  1  0.225523  0.613260  0.750000  1
  Sn  Sn34  1  0.283784  0.112262  0.250000  1
  Sn  Sn35  1  0.771216  0.379454  0.250000  1
