# generated using pymatgen
data_Li2Nd2TmAgPb3
_symmetry_space_group_name_H-M   'P 1'
_cell_length_a   7.48673176
_cell_length_b   7.59037461
_cell_length_c   4.70319600
_cell_angle_alpha   90.00000000
_cell_angle_beta   90.00000000
_cell_angle_gamma   120.45902572
_symmetry_Int_Tables_number   1
_chemical_formula_structural   Li2Nd2TmAgPb3
_chemical_formula_sum   'Li2 Nd2 Tm1 Ag1 Pb3'
_cell_volume   230.38369834
_cell_formula_units_Z   1
loop_
 _symmetry_equiv_pos_site_id
 _symmetry_equiv_pos_as_xyz
  1  'x, y, z'
loop_
 _atom_site_type_symbol
 _atom_site_label
 _atom_site_symmetry_multiplicity
 _atom_site_fract_x
 _atom_site_fract_y
 _atom_site_fract_z
 _atom_site_occupancy
  Li  Li0  1  0.231759  0.004125  0.000000  1
  Li  Li1  1  0.768241  0.772368  0.000000  1
  Nd  Nd2  1  0.573593  0.004989  0.500000  1
  Nd  Nd3  1  0.426407  0.431395  0.500000  1
  Tm  Tm4  1  0.000000  0.555982  0.500000  1
  Ag  Ag5  1  0.000000  0.235952  0.000000  1
  Pb  Pb6  1  0.000000  0.980831  0.500000  1
  Pb  Pb7  1  0.331099  0.672731  0.000000  1
  Pb  Pb8  1  0.668901  0.341629  0.000000  1
