# generated using pymatgen
data_YTm11(TcOs)2
_symmetry_space_group_name_H-M   'P 1'
_cell_length_a   6.21554558
_cell_length_b   7.37978068
_cell_length_c   8.92391800
_cell_angle_alpha   90.00000000
_cell_angle_beta   90.00000000
_cell_angle_gamma   90.16601405
_symmetry_Int_Tables_number   1
_chemical_formula_structural   YTm11(TcOs)2
_chemical_formula_sum   'Y1 Tm11 Tc2 Os2'
_cell_volume   409.33271735
_cell_formula_units_Z   1
loop_
 _symmetry_equiv_pos_site_id
 _symmetry_equiv_pos_as_xyz
  1  'x, y, z'
loop_
 _atom_site_type_symbol
 _atom_site_label
 _atom_site_symmetry_multiplicity
 _atom_site_fract_x
 _atom_site_fract_y
 _atom_site_fract_z
 _atom_site_occupancy
  Y  Y0  1  0.621932  0.038247  0.250000  1
  Tm  Tm1  1  0.337665  0.674417  0.061242  1
  Tm  Tm2  1  0.160282  0.175633  0.438638  1
  Tm  Tm3  1  0.663889  0.325905  0.563203  1
  Tm  Tm4  1  0.837111  0.823631  0.936628  1
  Tm  Tm5  1  0.663889  0.325905  0.936797  1
  Tm  Tm6  1  0.837111  0.823631  0.563372  1
  Tm  Tm7  1  0.337665  0.674417  0.438758  1
  Tm  Tm8  1  0.160282  0.175633  0.061362  1
  Tm  Tm9  1  0.876518  0.539253  0.250000  1
  Tm  Tm10  1  0.130538  0.458865  0.750000  1
  Tm  Tm11  1  0.370023  0.959325  0.750000  1
  Tc  Tc12  1  0.043223  0.882271  0.250000  1
  Tc  Tc13  1  0.459972  0.385835  0.250000  1
  Os  Os14  1  0.960022  0.118450  0.750000  1
  Os  Os15  1  0.539876  0.618582  0.750000  1
