# generated using pymatgen
data_Zr10Zn2InSb5
_symmetry_space_group_name_H-M   'P 1'
_cell_length_a   8.68345000
_cell_length_b   8.69626076
_cell_length_c   5.86206900
_cell_angle_alpha   90.00000000
_cell_angle_beta   90.00000000
_cell_angle_gamma   119.95129100
_symmetry_Int_Tables_number   1
_chemical_formula_structural   Zr10Zn2InSb5
_chemical_formula_sum   'Zr10 Zn2 In1 Sb5'
_cell_volume   383.54769083
_cell_formula_units_Z   1
loop_
 _symmetry_equiv_pos_site_id
 _symmetry_equiv_pos_as_xyz
  1  'x, y, z'
loop_
 _atom_site_type_symbol
 _atom_site_label
 _atom_site_symmetry_multiplicity
 _atom_site_fract_x
 _atom_site_fract_y
 _atom_site_fract_z
 _atom_site_occupancy
  Zr  Zr0  1  0.270162  0.000000  0.250000  1
  Zr  Zr1  1  0.731602  0.000000  0.750001  1
  Zr  Zr2  1  0.002381  0.272887  0.250000  1
  Zr  Zr3  1  0.729495  0.727114  0.250000  1
  Zr  Zr4  1  0.268917  0.268933  0.750001  1
  Zr  Zr5  1  0.999983  0.731068  0.750001  1
  Zr  Zr6  1  0.331448  0.664079  0.000672  1
  Zr  Zr7  1  0.667368  0.335922  0.499330  1
  Zr  Zr8  1  0.667368  0.335922  0.000671  1
  Zr  Zr9  1  0.331448  0.664079  0.499329  1
  Zn  Zn10  1  0.997796  0.000001  0.003647  1
  Zn  Zn11  1  0.997796  0.000001  0.496354  1
  In  In12  1  0.618663  0.000000  0.250000  1
  Sb  Sb13  1  0.387699  0.999999  0.750001  1
  Sb  Sb14  1  0.000551  0.616307  0.250000  1
  Sb  Sb15  1  0.384244  0.383695  0.250000  1
  Sb  Sb16  1  0.614836  0.616595  0.750001  1
  Sb  Sb17  1  0.998242  0.383406  0.750001  1
