# generated using pymatgen
data_Hf4Be7BRu10
_symmetry_space_group_name_H-M   'P 1'
_cell_length_a   3.18191000
_cell_length_b   8.62216243
_cell_length_c   10.12614121
_cell_angle_alpha   90.10663969
_cell_angle_beta   90.00000000
_cell_angle_gamma   90.00000000
_symmetry_Int_Tables_number   1
_chemical_formula_structural   Hf4Be7BRu10
_chemical_formula_sum   'Hf4 Be7 B1 Ru10'
_cell_volume   277.80964447
_cell_formula_units_Z   1
loop_
 _symmetry_equiv_pos_site_id
 _symmetry_equiv_pos_as_xyz
  1  'x, y, z'
loop_
 _atom_site_type_symbol
 _atom_site_label
 _atom_site_symmetry_multiplicity
 _atom_site_fract_x
 _atom_site_fract_y
 _atom_site_fract_z
 _atom_site_occupancy
  Hf  Hf0  1  0.500000  0.843488  0.180002  1
  Hf  Hf1  1  0.500000  0.157215  0.815153  1
  Hf  Hf2  1  0.500000  0.655447  0.679527  1
  Hf  Hf3  1  0.500000  0.341375  0.318964  1
  Be  Be4  1  0.500000  0.961518  0.593434  1
  Be  Be5  1  0.500000  0.035165  0.406070  1
  Be  Be6  1  0.500000  0.846211  0.903019  1
  Be  Be7  1  0.500000  0.156612  0.097273  1
  Be  Be8  1  0.500000  0.655626  0.403757  1
  Be  Be9  1  0.500000  0.343307  0.596768  1
  Be  Be10  1  0.500000  0.466922  0.909419  1
  B  B11  1  0.500000  0.536261  0.093574  1
  Ru  Ru12  1  0.000000  0.658987  0.960509  1
  Ru  Ru13  1  0.000000  0.348498  0.051208  1
  Ru  Ru14  1  0.000000  0.839011  0.449972  1
  Ru  Ru15  1  0.000000  0.157733  0.548704  1
  Ru  Ru16  1  0.000000  0.003740  0.998957  1
  Ru  Ru17  1  0.000000  0.402936  0.760222  1
  Ru  Ru18  1  0.000000  0.595134  0.235605  1
  Ru  Ru19  1  0.000000  0.498362  0.497627  1
  Ru  Ru20  1  0.000000  0.898065  0.741631  1
  Ru  Ru21  1  0.000000  0.098386  0.258605  1
