# generated using pymatgen
data_Tm7Lu3In8PtRh3
_symmetry_space_group_name_H-M   'P 1'
_cell_length_a   3.57053700
_cell_length_b   7.99946745
_cell_length_c   18.07902625
_cell_angle_alpha   90.06999198
_cell_angle_beta   90.00000000
_cell_angle_gamma   90.00000000
_symmetry_Int_Tables_number   1
_chemical_formula_structural   Tm7Lu3In8PtRh3
_chemical_formula_sum   'Tm7 Lu3 In8 Pt1 Rh3'
_cell_volume   516.37989511
_cell_formula_units_Z   1
loop_
 _symmetry_equiv_pos_site_id
 _symmetry_equiv_pos_as_xyz
  1  'x, y, z'
loop_
 _atom_site_type_symbol
 _atom_site_label
 _atom_site_symmetry_multiplicity
 _atom_site_fract_x
 _atom_site_fract_y
 _atom_site_fract_z
 _atom_site_occupancy
  Tm  Tm0  1  0.000000  0.617463  0.085744  1
  Tm  Tm1  1  0.000000  0.240352  0.221357  1
  Tm  Tm2  1  0.000000  0.755920  0.778940  1
  Tm  Tm3  1  0.000000  0.255794  0.721360  1
  Tm  Tm4  1  0.000000  0.748283  0.279285  1
  Tm  Tm5  1  0.000000  0.999731  0.999903  1
  Tm  Tm6  1  0.000000  0.500296  0.500166  1
  Lu  Lu7  1  0.000000  0.115391  0.412760  1
  Lu  Lu8  1  0.000000  0.883492  0.587944  1
  Lu  Lu9  1  0.000000  0.383907  0.912005  1
  In  In10  1  0.500000  0.422866  0.352143  1
  In  In11  1  0.500000  0.573623  0.649878  1
  In  In12  1  0.500000  0.074680  0.850402  1
  In  In13  1  0.500000  0.928589  0.149047  1
  In  In14  1  0.500000  0.291954  0.065179  1
  In  In15  1  0.500000  0.706448  0.932648  1
  In  In16  1  0.500000  0.205962  0.566749  1
  In  In17  1  0.500000  0.793524  0.433117  1
  Pt  Pt18  1  0.500000  0.524349  0.196368  1
  Rh  Rh19  1  0.500000  0.024392  0.304651  1
  Rh  Rh20  1  0.500000  0.976867  0.695475  1
  Rh  Rh21  1  0.500000  0.476116  0.804883  1
