# generated using pymatgen
data_Cs4Zr6AsI18
_symmetry_space_group_name_H-M   'P 1'
_cell_length_a   11.68530157
_cell_length_b   11.96711004
_cell_length_c   12.10018075
_cell_angle_alpha   118.24172741
_cell_angle_beta   100.37964870
_cell_angle_gamma   104.34817403
_symmetry_Int_Tables_number   1
_chemical_formula_structural   Cs4Zr6AsI18
_chemical_formula_sum   'Cs4 Zr6 As1 I18'
_cell_volume   1353.62374453
_cell_formula_units_Z   1
loop_
 _symmetry_equiv_pos_site_id
 _symmetry_equiv_pos_as_xyz
  1  'x, y, z'
loop_
 _atom_site_type_symbol
 _atom_site_label
 _atom_site_symmetry_multiplicity
 _atom_site_fract_x
 _atom_site_fract_y
 _atom_site_fract_z
 _atom_site_occupancy
  Cs  Cs0  1  0.659598  0.537982  0.230370  1
  Cs  Cs1  1  0.340402  0.462018  0.769630  1
  Cs  Cs2  1  0.696116  0.228137  0.565730  1
  Cs  Cs3  1  0.303884  0.771863  0.434270  1
  Zr  Zr4  1  0.146680  0.055026  0.222557  1
  Zr  Zr5  1  0.853320  0.944974  0.777443  1
  Zr  Zr6  1  0.865059  0.119593  0.126255  1
  Zr  Zr7  1  0.134941  0.880407  0.873745  1
  Zr  Zr8  1  0.142506  0.231921  0.044676  1
  Zr  Zr9  1  0.857494  0.768079  0.955324  1
  As  As10  1  0.000000  0.000000  0.000000  1
  I  I11  1  0.007277  0.394655  0.188895  1
  I  I12  1  0.992723  0.605345  0.811105  1
  I  I13  1  0.323765  0.324615  0.302425  1
  I  I14  1  0.676235  0.675385  0.697575  1
  I  I15  1  0.310495  0.506056  0.097126  1
  I  I16  1  0.689505  0.493944  0.902874  1
  I  I17  1  0.003154  0.802006  0.201889  1
  I  I18  1  0.996846  0.197994  0.798111  1
  I  I19  1  0.708471  0.258487  0.271857  1
  I  I20  1  0.291529  0.741513  0.728143  1
  I  I21  1  0.311075  0.127227  0.909477  1
  I  I22  1  0.688925  0.872773  0.090523  1
  I  I23  1  0.014413  0.196854  0.393287  1
  I  I24  1  0.985587  0.803146  0.606713  1
  I  I25  1  0.314499  0.928763  0.109090  1
  I  I26  1  0.685501  0.071237  0.890910  1
  I  I27  1  0.322288  0.118621  0.484865  1
  I  I28  1  0.677712  0.881379  0.515135  1
