# generated using pymatgen
data_Y5Lu3(Co4P3)4
_symmetry_space_group_name_H-M   'P 1'
_cell_length_a   12.35982900
_cell_length_b   12.35982834
_cell_length_c   3.74915300
_cell_angle_alpha   90.00000000
_cell_angle_beta   90.00000000
_cell_angle_gamma   119.99999375
_symmetry_Int_Tables_number   1
_chemical_formula_structural   Y5Lu3(Co4P3)4
_chemical_formula_sum   'Y5 Lu3 Co16 P12'
_cell_volume   496.00804921
_cell_formula_units_Z   1
loop_
 _symmetry_equiv_pos_site_id
 _symmetry_equiv_pos_as_xyz
  1  'x, y, z'
loop_
 _atom_site_type_symbol
 _atom_site_label
 _atom_site_symmetry_multiplicity
 _atom_site_fract_x
 _atom_site_fract_y
 _atom_site_fract_z
 _atom_site_occupancy
  Y  Y0  1  0.817646  0.000000  0.500000  1
  Y  Y1  1  0.000000  0.817646  0.500000  1
  Y  Y2  1  0.182354  0.182354  0.500000  1
  Y  Y3  1  0.333333  0.666667  0.000000  1
  Y  Y4  1  0.666667  0.333333  0.000000  1
  Lu  Lu5  1  0.441154  0.000000  0.000000  1
  Lu  Lu6  1  0.000000  0.441154  0.000000  1
  Lu  Lu7  1  0.558846  0.558846  0.000000  1
  Co  Co8  1  0.276472  0.000000  0.500000  1
  Co  Co9  1  0.000000  0.276472  0.500000  1
  Co  Co10  1  0.723528  0.723528  0.500000  1
  Co  Co11  1  0.627190  0.806395  0.000000  1
  Co  Co12  1  0.193605  0.820795  0.000000  1
  Co  Co13  1  0.179205  0.372810  0.000000  1
  Co  Co14  1  0.372810  0.179205  0.000000  1
  Co  Co15  1  0.806395  0.627190  0.000000  1
  Co  Co16  1  0.820795  0.193605  0.000000  1
  Co  Co17  1  0.522672  0.876332  0.500000  1
  Co  Co18  1  0.123668  0.646340  0.500000  1
  Co  Co19  1  0.353660  0.477328  0.500000  1
  Co  Co20  1  0.477328  0.353660  0.500000  1
  Co  Co21  1  0.876332  0.522672  0.500000  1
  Co  Co22  1  0.646340  0.123668  0.500000  1
  Co  Co23  1  0.000000  0.000000  0.000000  1
  P  P24  1  0.179205  0.000000  0.000000  1
  P  P25  1  0.000000  0.179205  0.000000  1
  P  P26  1  0.820795  0.820795  0.000000  1
  P  P27  1  0.522756  0.696257  0.500000  1
  P  P28  1  0.303743  0.826498  0.500000  1
  P  P29  1  0.173502  0.477244  0.500000  1
  P  P30  1  0.477244  0.173502  0.500000  1
  P  P31  1  0.696257  0.522756  0.500000  1
  P  P32  1  0.826498  0.303743  0.500000  1
  P  P33  1  0.649830  0.000000  0.000000  1
  P  P34  1  0.000000  0.649830  0.000000  1
  P  P35  1  0.350170  0.350170  0.000000  1
