# generated using pymatgen
data_Tb2Y3IrPb3
_symmetry_space_group_name_H-M   'P 1'
_cell_length_a   9.24996700
_cell_length_b   9.25339780
_cell_length_c   6.89172400
_cell_angle_alpha   90.00000000
_cell_angle_beta   90.00000000
_cell_angle_gamma   119.98773249
_symmetry_Int_Tables_number   1
_chemical_formula_structural   Tb2Y3IrPb3
_chemical_formula_sum   'Tb4 Y6 Ir2 Pb6'
_cell_volume   510.92081547
_cell_formula_units_Z   2
loop_
 _symmetry_equiv_pos_site_id
 _symmetry_equiv_pos_as_xyz
  1  'x, y, z'
loop_
 _atom_site_type_symbol
 _atom_site_label
 _atom_site_symmetry_multiplicity
 _atom_site_fract_x
 _atom_site_fract_y
 _atom_site_fract_z
 _atom_site_occupancy
  Tb  Tb0  1  0.235915  0.000000  0.250000  1
  Tb  Tb1  1  0.764173  0.000000  0.750000  1
  Tb  Tb2  1  0.763935  0.764000  0.250000  1
  Tb  Tb3  1  0.999935  0.236000  0.250000  1
  Y  Y4  1  0.236705  0.236744  0.750000  1
  Y  Y5  1  0.999962  0.763256  0.750000  1
  Y  Y6  1  0.333267  0.666653  0.500036  1
  Y  Y7  1  0.666615  0.333347  0.500036  1
  Y  Y8  1  0.333267  0.666653  0.999964  1
  Y  Y9  1  0.666615  0.333347  0.999964  1
  Ir  Ir10  1  0.999879  0.000000  0.000245  1
  Ir  Ir11  1  0.999879  0.000000  0.499755  1
  Pb  Pb12  1  0.594158  0.000000  0.250000  1
  Pb  Pb13  1  0.000055  0.594279  0.250000  1
  Pb  Pb14  1  0.594282  0.594191  0.750000  1
  Pb  Pb15  1  0.405776  0.405721  0.250000  1
  Pb  Pb16  1  0.000091  0.405809  0.750000  1
  Pb  Pb17  1  0.405490  0.000000  0.750000  1
