# generated using pymatgen
data_Nd8TcHg3
_symmetry_space_group_name_H-M   'P 1'
_cell_length_a   10.58998000
_cell_length_b   10.58998162
_cell_length_c   7.39430000
_cell_angle_alpha   90.00000000
_cell_angle_beta   90.00000000
_cell_angle_gamma   120.00000118
_symmetry_Int_Tables_number   1
_chemical_formula_structural   Nd8TcHg3
_chemical_formula_sum   'Nd16 Tc2 Hg6'
_cell_volume   718.15475362
_cell_formula_units_Z   2
loop_
 _symmetry_equiv_pos_site_id
 _symmetry_equiv_pos_as_xyz
  1  'x, y, z'
loop_
 _atom_site_type_symbol
 _atom_site_label
 _atom_site_symmetry_multiplicity
 _atom_site_fract_x
 _atom_site_fract_y
 _atom_site_fract_z
 _atom_site_occupancy
  Nd  Nd0  1  0.828097  0.656193  0.481448  1
  Nd  Nd1  1  0.343807  0.171903  0.481448  1
  Nd  Nd2  1  0.828097  0.171903  0.481448  1
  Nd  Nd3  1  0.171903  0.343807  0.981448  1
  Nd  Nd4  1  0.656193  0.828097  0.981448  1
  Nd  Nd5  1  0.171903  0.828097  0.981448  1
  Nd  Nd6  1  0.666667  0.333333  0.179637  1
  Nd  Nd7  1  0.333333  0.666667  0.679637  1
  Nd  Nd8  1  0.538409  0.076818  0.794213  1
  Nd  Nd9  1  0.923182  0.461591  0.794213  1
  Nd  Nd10  1  0.538409  0.461591  0.794213  1
  Nd  Nd11  1  0.461591  0.923182  0.294213  1
  Nd  Nd12  1  0.076818  0.538409  0.294213  1
  Nd  Nd13  1  0.461591  0.538409  0.294213  1
  Nd  Nd14  1  0.000000  0.000000  0.776945  1
  Nd  Nd15  1  0.000000  0.000000  0.276945  1
  Tc  Tc16  1  0.666667  0.333333  0.554819  1
  Tc  Tc17  1  0.333333  0.666667  0.054819  1
  Hg  Hg18  1  0.832099  0.664198  0.041580  1
  Hg  Hg19  1  0.335802  0.167901  0.041580  1
  Hg  Hg20  1  0.832099  0.167901  0.041580  1
  Hg  Hg21  1  0.167901  0.335802  0.541580  1
  Hg  Hg22  1  0.664198  0.832099  0.541580  1
  Hg  Hg23  1  0.167901  0.832099  0.541580  1
