# generated using pymatgen
data_La4TbY3(SiO5)4
_symmetry_space_group_name_H-M   'P 1'
_cell_length_a   8.17962042
_cell_length_b   8.17783445
_cell_length_c   10.92842104
_cell_angle_alpha   61.18354861
_cell_angle_beta   61.19258859
_cell_angle_gamma   50.35973450
_symmetry_Int_Tables_number   1
_chemical_formula_structural   La4TbY3(SiO5)4
_chemical_formula_sum   'La4 Tb1 Y3 Si4 O20'
_cell_volume   476.46881840
_cell_formula_units_Z   1
loop_
 _symmetry_equiv_pos_site_id
 _symmetry_equiv_pos_as_xyz
  1  'x, y, z'
loop_
 _atom_site_type_symbol
 _atom_site_label
 _atom_site_symmetry_multiplicity
 _atom_site_fract_x
 _atom_site_fract_y
 _atom_site_fract_z
 _atom_site_occupancy
  La  La0  1  0.783850  0.292137  0.033926  1
  La  La1  1  0.708086  0.216155  0.466053  1
  La  La2  1  0.216285  0.707963  0.965879  1
  La  La3  1  0.292109  0.783808  0.534013  1
  Tb  Tb4  1  0.236297  0.476380  0.337487  1
  Y  Y5  1  0.523883  0.763096  0.162609  1
  Y  Y6  1  0.762982  0.523810  0.662724  1
  Y  Y7  1  0.476208  0.236895  0.837375  1
  Si  Si8  1  0.728017  0.902756  0.307198  1
  Si  Si9  1  0.097199  0.271876  0.192707  1
  Si  Si10  1  0.271946  0.097101  0.692996  1
  Si  Si11  1  0.902773  0.728063  0.807168  1
  O  O12  1  0.421502  0.610937  0.110224  1
  O  O13  1  0.389609  0.579101  0.389391  1
  O  O14  1  0.578864  0.389133  0.889474  1
  O  O15  1  0.610872  0.421133  0.610528  1
  O  O16  1  0.866078  0.723517  0.432279  1
  O  O17  1  0.276874  0.133051  0.068065  1
  O  O18  1  0.132996  0.276485  0.568455  1
  O  O19  1  0.723237  0.866831  0.931869  1
  O  O20  1  0.568008  0.840901  0.315339  1
  O  O21  1  0.159172  0.432099  0.184050  1
  O  O22  1  0.431962  0.159204  0.684607  1
  O  O23  1  0.840881  0.568008  0.815334  1
  O  O24  1  0.156684  0.585188  0.824724  1
  O  O25  1  0.414839  0.843267  0.675291  1
  O  O26  1  0.843279  0.414769  0.175266  1
  O  O27  1  0.585292  0.156591  0.324761  1
  O  O28  1  0.908621  0.905206  0.647495  1
  O  O29  1  0.094793  0.091336  0.852605  1
  O  O30  1  0.091407  0.094849  0.352480  1
  O  O31  1  0.905396  0.908352  0.147627  1
