# generated using pymatgen
data_Ca3Pr16DySn16
_symmetry_space_group_name_H-M   'P 1'
_cell_length_a   8.15538200
_cell_length_b   8.51437908
_cell_length_c   16.26629400
_cell_angle_alpha   90.00000000
_cell_angle_beta   90.00000000
_cell_angle_gamma   90.00761756
_symmetry_Int_Tables_number   1
_chemical_formula_structural   Ca3Pr16DySn16
_chemical_formula_sum   'Ca3 Pr16 Dy1 Sn16'
_cell_volume   1129.49913810
_cell_formula_units_Z   1
loop_
 _symmetry_equiv_pos_site_id
 _symmetry_equiv_pos_as_xyz
  1  'x, y, z'
loop_
 _atom_site_type_symbol
 _atom_site_label
 _atom_site_symmetry_multiplicity
 _atom_site_fract_x
 _atom_site_fract_y
 _atom_site_fract_z
 _atom_site_occupancy
  Ca  Ca0  1  0.825016  0.504391  0.750000  1
  Ca  Ca1  1  0.323668  0.995126  0.750000  1
  Ca  Ca2  1  0.175324  0.494794  0.250000  1
  Pr  Pr3  1  0.654799  0.167782  0.622275  1
  Pr  Pr4  1  0.154890  0.328425  0.875607  1
  Pr  Pr5  1  0.343154  0.829657  0.124456  1
  Pr  Pr6  1  0.844969  0.670196  0.374810  1
  Pr  Pr7  1  0.343154  0.829657  0.375544  1
  Pr  Pr8  1  0.844969  0.670196  0.125190  1
  Pr  Pr9  1  0.654799  0.167782  0.877725  1
  Pr  Pr10  1  0.154890  0.328425  0.624393  1
  Pr  Pr11  1  0.501317  0.684898  0.595943  1
  Pr  Pr12  1  0.999931  0.818682  0.903907  1
  Pr  Pr13  1  0.498437  0.318760  0.096915  1
  Pr  Pr14  1  0.002508  0.181067  0.402103  1
  Pr  Pr15  1  0.498437  0.318760  0.403085  1
  Pr  Pr16  1  0.002508  0.181067  0.097897  1
  Pr  Pr17  1  0.501317  0.684898  0.904057  1
  Pr  Pr18  1  0.999931  0.818682  0.596093  1
  Dy  Dy19  1  0.675510  0.003988  0.250000  1
  Sn  Sn20  1  0.684223  0.965372  0.457222  1
  Sn  Sn21  1  0.181896  0.537628  0.037205  1
  Sn  Sn22  1  0.313444  0.036793  0.962616  1
  Sn  Sn23  1  0.820225  0.461435  0.536449  1
  Sn  Sn24  1  0.313444  0.036793  0.537384  1
  Sn  Sn25  1  0.820225  0.461435  0.963551  1
  Sn  Sn26  1  0.684223  0.965372  0.042778  1
  Sn  Sn27  1  0.181896  0.537628  0.462795  1
  Sn  Sn28  1  0.457946  0.394569  0.750000  1
  Sn  Sn29  1  0.954856  0.105858  0.750000  1
  Sn  Sn30  1  0.542839  0.611028  0.250000  1
  Sn  Sn31  1  0.039775  0.896920  0.250000  1
  Sn  Sn32  1  0.697006  0.858968  0.750000  1
  Sn  Sn33  1  0.198176  0.640537  0.750000  1
  Sn  Sn34  1  0.310891  0.140308  0.250000  1
  Sn  Sn35  1  0.799405  0.352126  0.250000  1
