# generated using pymatgen
data_Er4LuCo2Rh
_symmetry_space_group_name_H-M   'P 1'
_cell_length_a   7.06678965
_cell_length_b   7.06678956
_cell_length_c   8.69096500
_cell_angle_alpha   113.98888659
_cell_angle_beta   113.98888627
_cell_angle_gamma   90.00000391
_symmetry_Int_Tables_number   1
_chemical_formula_structural   Er4LuCo2Rh
_chemical_formula_sum   'Er8 Lu2 Co4 Rh2'
_cell_volume   355.10867773
_cell_formula_units_Z   2
loop_
 _symmetry_equiv_pos_site_id
 _symmetry_equiv_pos_as_xyz
  1  'x, y, z'
loop_
 _atom_site_type_symbol
 _atom_site_label
 _atom_site_symmetry_multiplicity
 _atom_site_fract_x
 _atom_site_fract_y
 _atom_site_fract_z
 _atom_site_occupancy
  Er  Er0  1  0.462919  0.318175  0.281094  1
  Er  Er1  1  0.962920  0.462919  0.281094  1
  Er  Er2  1  0.318175  0.818174  0.281094  1
  Er  Er3  1  0.818174  0.962920  0.281094  1
  Er  Er4  1  0.181825  0.037081  0.718905  1
  Er  Er5  1  0.681824  0.181825  0.718905  1
  Er  Er6  1  0.037081  0.537080  0.718905  1
  Er  Er7  1  0.537080  0.681824  0.718905  1
  Lu  Lu8  1  0.000000  0.000000  0.000000  1
  Lu  Lu9  1  0.500000  0.500000  0.000000  1
  Co  Co10  1  0.613115  0.113115  0.000000  1
  Co  Co11  1  0.113115  0.386886  0.000000  1
  Co  Co12  1  0.886885  0.613115  0.000000  1
  Co  Co13  1  0.386886  0.886885  0.000000  1
  Rh  Rh14  1  0.250000  0.250000  0.500000  1
  Rh  Rh15  1  0.750000  0.750000  0.500000  1
