# generated using pymatgen
data_DyEr2Zr(Al3Rh)6
_symmetry_space_group_name_H-M   'P 1'
_cell_length_a   7.53503001
_cell_length_b   7.52318667
_cell_length_c   9.39773300
_cell_angle_alpha   90.00000000
_cell_angle_beta   90.00000000
_cell_angle_gamma   119.46599498
_symmetry_Int_Tables_number   1
_chemical_formula_structural   DyEr2Zr(Al3Rh)6
_chemical_formula_sum   'Dy1 Er2 Zr1 Al18 Rh6'
_cell_volume   463.82316046
_cell_formula_units_Z   1
loop_
 _symmetry_equiv_pos_site_id
 _symmetry_equiv_pos_as_xyz
  1  'x, y, z'
loop_
 _atom_site_type_symbol
 _atom_site_label
 _atom_site_symmetry_multiplicity
 _atom_site_fract_x
 _atom_site_fract_y
 _atom_site_fract_z
 _atom_site_occupancy
  Dy  Dy0  1  0.006465  0.326414  0.250000  1
  Er  Er1  1  0.672397  0.995855  0.750000  1
  Er  Er2  1  0.327550  0.006834  0.250000  1
  Zr  Zr3  1  0.996418  0.672316  0.750000  1
  Al  Al4  1  0.124445  0.122173  0.750000  1
  Al  Al5  1  0.870792  0.869420  0.250000  1
  Al  Al6  1  0.999821  0.338502  0.579857  1
  Al  Al7  1  0.999948  0.664587  0.427235  1
  Al  Al8  1  0.999948  0.664587  0.072765  1
  Al  Al9  1  0.332799  0.997659  0.920203  1
  Al  Al10  1  0.999821  0.338502  0.920143  1
  Al  Al11  1  0.663736  0.998641  0.076082  1
  Al  Al12  1  0.663736  0.998641  0.423918  1
  Al  Al13  1  0.332799  0.997659  0.579797  1
  Al  Al14  1  0.333665  0.333586  0.047979  1
  Al  Al15  1  0.669984  0.667985  0.944154  1
  Al  Al16  1  0.669984  0.667985  0.555846  1
  Al  Al17  1  0.333665  0.333586  0.452021  1
  Al  Al18  1  0.336704  0.552188  0.750000  1
  Al  Al19  1  0.659978  0.449589  0.250000  1
  Al  Al20  1  0.557144  0.344404  0.750000  1
  Al  Al21  1  0.448263  0.658450  0.250000  1
  Rh  Rh22  1  0.672763  0.327919  0.501083  1
  Rh  Rh23  1  0.327849  0.672942  0.501740  1
  Rh  Rh24  1  0.327849  0.672942  0.998260  1
  Rh  Rh25  1  0.672763  0.327919  0.998917  1
  Rh  Rh26  1  0.999357  0.999356  0.500988  1
  Rh  Rh27  1  0.999357  0.999356  0.999012  1
