# generated using pymatgen
data_Ho5P12Ir16Rh3
_symmetry_space_group_name_H-M   'P 1'
_cell_length_a   12.72274900
_cell_length_b   12.72274939
_cell_length_c   3.95447200
_cell_angle_alpha   90.00000000
_cell_angle_beta   90.00000000
_cell_angle_gamma   120.00000159
_symmetry_Int_Tables_number   1
_chemical_formula_structural   Ho5P12Ir16Rh3
_chemical_formula_sum   'Ho5 P12 Ir16 Rh3'
_cell_volume   554.34618294
_cell_formula_units_Z   1
loop_
 _symmetry_equiv_pos_site_id
 _symmetry_equiv_pos_as_xyz
  1  'x, y, z'
loop_
 _atom_site_type_symbol
 _atom_site_label
 _atom_site_symmetry_multiplicity
 _atom_site_fract_x
 _atom_site_fract_y
 _atom_site_fract_z
 _atom_site_occupancy
  Ho  Ho0  1  0.000000  0.187061  0.500000  1
  Ho  Ho1  1  0.812939  0.812939  0.500000  1
  Ho  Ho2  1  0.187061  0.000000  0.500000  1
  Ho  Ho3  1  0.666667  0.333333  0.000000  1
  Ho  Ho4  1  0.333333  0.666667  0.000000  1
  P  P5  1  0.000000  0.821805  0.000000  1
  P  P6  1  0.178195  0.178195  0.000000  1
  P  P7  1  0.821805  0.000000  0.000000  1
  P  P8  1  0.687508  0.170559  0.500000  1
  P  P9  1  0.829441  0.516948  0.500000  1
  P  P10  1  0.483052  0.312492  0.500000  1
  P  P11  1  0.170559  0.687508  0.500000  1
  P  P12  1  0.516948  0.829441  0.500000  1
  P  P13  1  0.312492  0.483052  0.500000  1
  P  P14  1  0.000000  0.360814  0.000000  1
  P  P15  1  0.639186  0.639186  0.000000  1
  P  P16  1  0.360814  0.000000  0.000000  1
  Ir  Ir17  1  0.000000  0.718564  0.500000  1
  Ir  Ir18  1  0.281436  0.281436  0.500000  1
  Ir  Ir19  1  0.718564  0.000000  0.500000  1
  Ir  Ir20  1  0.806795  0.180932  0.000000  1
  Ir  Ir21  1  0.819068  0.625863  0.000000  1
  Ir  Ir22  1  0.374137  0.193205  0.000000  1
  Ir  Ir23  1  0.180932  0.806795  0.000000  1
  Ir  Ir24  1  0.625863  0.819068  0.000000  1
  Ir  Ir25  1  0.193205  0.374137  0.000000  1
  Ir  Ir26  1  0.866853  0.360212  0.500000  1
  Ir  Ir27  1  0.639788  0.506641  0.500000  1
  Ir  Ir28  1  0.493359  0.133147  0.500000  1
  Ir  Ir29  1  0.360212  0.866853  0.500000  1
  Ir  Ir30  1  0.506641  0.639788  0.500000  1
  Ir  Ir31  1  0.133147  0.493359  0.500000  1
  Ir  Ir32  1  0.000000  0.000000  0.000000  1
  Rh  Rh33  1  0.000000  0.540708  0.000000  1
  Rh  Rh34  1  0.459292  0.459292  0.000000  1
  Rh  Rh35  1  0.540708  0.000000  0.000000  1
