# generated using pymatgen
data_Dy4ErGaSb2
_symmetry_space_group_name_H-M   'P 1'
_cell_length_a   8.83785316
_cell_length_b   8.82126016
_cell_length_c   6.41481200
_cell_angle_alpha   90.00150568
_cell_angle_beta   89.99924898
_cell_angle_gamma   119.93789899
_symmetry_Int_Tables_number   1
_chemical_formula_structural   Dy4ErGaSb2
_chemical_formula_sum   'Dy8 Er2 Ga2 Sb4'
_cell_volume   433.37455233
_cell_formula_units_Z   2
loop_
 _symmetry_equiv_pos_site_id
 _symmetry_equiv_pos_as_xyz
  1  'x, y, z'
loop_
 _atom_site_type_symbol
 _atom_site_label
 _atom_site_symmetry_multiplicity
 _atom_site_fract_x
 _atom_site_fract_y
 _atom_site_fract_z
 _atom_site_occupancy
  Dy  Dy0  1  0.011224  0.766951  0.749986  1
  Dy  Dy1  1  0.011224  0.244272  0.250014  1
  Dy  Dy2  1  0.752697  0.753441  0.249968  1
  Dy  Dy3  1  0.752697  0.999258  0.750032  1
  Dy  Dy4  1  0.244347  0.233171  0.749967  1
  Dy  Dy5  1  0.244347  0.011177  0.250033  1
  Dy  Dy6  1  0.335954  0.667978  0.500000  1
  Dy  Dy7  1  0.653192  0.326596  0.000000  1
  Er  Er8  1  0.652819  0.326409  0.500000  1
  Er  Er9  1  0.336094  0.668047  0.000000  1
  Ga  Ga10  1  0.394478  0.997356  0.750008  1
  Ga  Ga11  1  0.394478  0.397122  0.249992  1
  Sb  Sb12  1  0.998907  0.607425  0.250052  1
  Sb  Sb13  1  0.998907  0.391482  0.749948  1
  Sb  Sb14  1  0.609318  0.607721  0.750039  1
  Sb  Sb15  1  0.609318  0.001596  0.249961  1
