# generated using pymatgen
data_Nd6ScP12Rh17
_symmetry_space_group_name_H-M   'P 1'
_cell_length_a   3.98364100
_cell_length_b   11.33783100
_cell_length_c   13.01127400
_cell_angle_alpha   90.00000000
_cell_angle_beta   90.00000000
_cell_angle_gamma   90.00000000
_symmetry_Int_Tables_number   1
_chemical_formula_structural   Nd6ScP12Rh17
_chemical_formula_sum   'Nd6 Sc1 P12 Rh17'
_cell_volume   587.66522927
_cell_formula_units_Z   1
loop_
 _symmetry_equiv_pos_site_id
 _symmetry_equiv_pos_as_xyz
  1  'x, y, z'
loop_
 _atom_site_type_symbol
 _atom_site_label
 _atom_site_symmetry_multiplicity
 _atom_site_fract_x
 _atom_site_fract_y
 _atom_site_fract_z
 _atom_site_occupancy
  Nd  Nd0  1  0.000000  0.500000  0.520373  1
  Nd  Nd1  1  0.500000  0.000000  0.478601  1
  Nd  Nd2  1  0.500000  0.817821  0.205824  1
  Nd  Nd3  1  0.500000  0.182179  0.205824  1
  Nd  Nd4  1  0.000000  0.682081  0.796970  1
  Nd  Nd5  1  0.000000  0.317919  0.796970  1
  Sc  Sc6  1  0.500000  0.500000  0.154744  1
  P  P7  1  0.500000  0.500000  0.881438  1
  P  P8  1  0.000000  0.000000  0.117336  1
  P  P9  1  0.500000  0.500000  0.354558  1
  P  P10  1  0.000000  0.000000  0.652710  1
  P  P11  1  0.500000  0.312320  0.617025  1
  P  P12  1  0.500000  0.687680  0.617025  1
  P  P13  1  0.000000  0.189035  0.384370  1
  P  P14  1  0.000000  0.810965  0.384370  1
  P  P15  1  0.500000  0.849189  0.890475  1
  P  P16  1  0.500000  0.150811  0.890475  1
  P  P17  1  0.000000  0.658894  0.105626  1
  P  P18  1  0.000000  0.341106  0.105626  1
  Rh  Rh19  1  0.000000  0.000000  0.830729  1
  Rh  Rh20  1  0.500000  0.500000  0.702197  1
  Rh  Rh21  1  0.000000  0.000000  0.297252  1
  Rh  Rh22  1  0.000000  0.500000  0.985606  1
  Rh  Rh23  1  0.500000  0.000000  0.016514  1
  Rh  Rh24  1  0.500000  0.330266  0.992495  1
  Rh  Rh25  1  0.500000  0.669734  0.992495  1
  Rh  Rh26  1  0.000000  0.164191  0.004735  1
  Rh  Rh27  1  0.000000  0.835809  0.004735  1
  Rh  Rh28  1  0.500000  0.289764  0.433583  1
  Rh  Rh29  1  0.500000  0.710236  0.433583  1
  Rh  Rh30  1  0.000000  0.205083  0.571720  1
  Rh  Rh31  1  0.000000  0.794917  0.571720  1
  Rh  Rh32  1  0.500000  0.875899  0.709946  1
  Rh  Rh33  1  0.500000  0.124101  0.709946  1
  Rh  Rh34  1  0.000000  0.625374  0.291202  1
  Rh  Rh35  1  0.000000  0.374626  0.291202  1
