# generated using pymatgen
data_TmHf5(SnRu2)6
_symmetry_space_group_name_H-M   'P 1'
_cell_length_a   4.58129400
_cell_length_b   6.46778200
_cell_length_c   13.72054500
_cell_angle_alpha   90.00000000
_cell_angle_beta   89.99886929
_cell_angle_gamma   90.00000000
_symmetry_Int_Tables_number   1
_chemical_formula_structural   TmHf5(SnRu2)6
_chemical_formula_sum   'Tm1 Hf5 Sn6 Ru12'
_cell_volume   406.55087389
_cell_formula_units_Z   1
loop_
 _symmetry_equiv_pos_site_id
 _symmetry_equiv_pos_as_xyz
  1  'x, y, z'
loop_
 _atom_site_type_symbol
 _atom_site_label
 _atom_site_symmetry_multiplicity
 _atom_site_fract_x
 _atom_site_fract_y
 _atom_site_fract_z
 _atom_site_occupancy
  Tm  Tm0  1  0.000000  0.000000  0.000000  1
  Hf  Hf1  1  0.499943  0.500000  0.166728  1
  Hf  Hf2  1  0.999931  0.000000  0.333230  1
  Hf  Hf3  1  0.500001  0.500000  0.500000  1
  Hf  Hf4  1  0.000069  0.000000  0.666770  1
  Hf  Hf5  1  0.500055  0.500000  0.833272  1
  Sn  Sn6  1  0.000000  0.500000  0.000000  1
  Sn  Sn7  1  0.499931  0.000000  0.166140  1
  Sn  Sn8  1  0.999934  0.500000  0.334019  1
  Sn  Sn9  1  0.500001  0.000000  0.500000  1
  Sn  Sn10  1  0.000066  0.500000  0.665980  1
  Sn  Sn11  1  0.500070  0.000000  0.833860  1
  Ru  Ru12  1  0.500001  0.258732  0.000000  1
  Ru  Ru13  1  0.500001  0.741268  0.000000  1
  Ru  Ru14  1  0.999906  0.253793  0.170436  1
  Ru  Ru15  1  0.999906  0.746206  0.170436  1
  Ru  Ru16  1  0.499940  0.249342  0.334119  1
  Ru  Ru17  1  0.499940  0.750657  0.334119  1
  Ru  Ru18  1  0.000000  0.250340  0.500000  1
  Ru  Ru19  1  0.000000  0.749661  0.500000  1
  Ru  Ru20  1  0.500061  0.249342  0.665881  1
  Ru  Ru21  1  0.500061  0.750657  0.665881  1
  Ru  Ru22  1  0.000094  0.253793  0.829564  1
  Ru  Ru23  1  0.000094  0.746206  0.829564  1
