# generated using pymatgen
data_Hf16FeCo4Pd3
_symmetry_space_group_name_H-M   'P 1'
_cell_length_a   8.61607567
_cell_length_b   8.60780922
_cell_length_c   8.60780900
_cell_angle_alpha   60.00000470
_cell_angle_beta   60.03173703
_cell_angle_gamma   60.03173576
_symmetry_Int_Tables_number   1
_chemical_formula_structural   Hf16FeCo4Pd3
_chemical_formula_sum   'Hf16 Fe1 Co4 Pd3'
_cell_volume   451.63536279
_cell_formula_units_Z   1
loop_
 _symmetry_equiv_pos_site_id
 _symmetry_equiv_pos_as_xyz
  1  'x, y, z'
loop_
 _atom_site_type_symbol
 _atom_site_label
 _atom_site_symmetry_multiplicity
 _atom_site_fract_x
 _atom_site_fract_y
 _atom_site_fract_z
 _atom_site_occupancy
  Hf  Hf0  1  0.181286  0.606238  0.606238  1
  Hf  Hf1  1  0.605595  0.174683  0.609861  1
  Hf  Hf2  1  0.605595  0.609861  0.174683  1
  Hf  Hf3  1  0.605595  0.609861  0.609861  1
  Hf  Hf4  1  0.811759  0.810426  0.188907  1
  Hf  Hf5  1  0.194820  0.179195  0.812993  1
  Hf  Hf6  1  0.811759  0.188907  0.810426  1
  Hf  Hf7  1  0.194820  0.812993  0.179195  1
  Hf  Hf8  1  0.194820  0.812993  0.812993  1
  Hf  Hf9  1  0.811759  0.188907  0.188907  1
  Hf  Hf10  1  0.438955  0.441757  0.059644  1
  Hf  Hf11  1  0.059239  0.062770  0.438995  1
  Hf  Hf12  1  0.438955  0.059644  0.441757  1
  Hf  Hf13  1  0.059239  0.438995  0.062770  1
  Hf  Hf14  1  0.059239  0.438995  0.438995  1
  Hf  Hf15  1  0.438955  0.059644  0.059644  1
  Fe  Fe16  1  0.814966  0.395011  0.395011  1
  Co  Co17  1  0.398676  0.814425  0.393449  1
  Co  Co18  1  0.398676  0.393449  0.814425  1
  Co  Co19  1  0.398676  0.393449  0.393449  1
  Co  Co20  1  0.457708  0.847431  0.847431  1
  Pd  Pd21  1  0.839638  0.490458  0.834953  1
  Pd  Pd22  1  0.839638  0.834953  0.490458  1
  Pd  Pd23  1  0.839638  0.834953  0.834953  1
