# generated using pymatgen
data_Nd10Al4IrOs5
_symmetry_space_group_name_H-M   'P 1'
_cell_length_a   8.59328757
_cell_length_b   8.59328714
_cell_length_c   8.60101301
_cell_angle_alpha   109.50911703
_cell_angle_beta   109.43468026
_cell_angle_gamma   109.43345031
_symmetry_Int_Tables_number   1
_chemical_formula_structural   Nd10Al4IrOs5
_chemical_formula_sum   'Nd10 Al4 Ir1 Os5'
_cell_volume   489.14905161
_cell_formula_units_Z   1
loop_
 _symmetry_equiv_pos_site_id
 _symmetry_equiv_pos_as_xyz
  1  'x, y, z'
loop_
 _atom_site_type_symbol
 _atom_site_label
 _atom_site_symmetry_multiplicity
 _atom_site_fract_x
 _atom_site_fract_y
 _atom_site_fract_z
 _atom_site_occupancy
  Nd  Nd0  1  0.248459  0.680073  0.427147  1
  Nd  Nd1  1  0.752926  0.821312  0.072853  1
  Nd  Nd2  1  0.429340  0.248755  0.679111  1
  Nd  Nd3  1  0.680597  0.430597  0.250000  1
  Nd  Nd4  1  0.069643  0.750228  0.820889  1
  Nd  Nd5  1  0.820675  0.070675  0.750000  1
  Nd  Nd6  1  0.212787  0.211868  0.212329  1
  Nd  Nd7  1  0.499540  0.000458  0.287671  1
  Nd  Nd8  1  0.286392  0.498194  0.000814  1
  Nd  Nd9  1  0.997380  0.285578  0.499186  1
  Al  Al10  1  0.591860  0.591436  0.589896  1
  Al  Al11  1  0.501540  0.001964  0.910104  1
  Al  Al12  1  0.909219  0.500124  0.999902  1
  Al  Al13  1  0.000222  0.909317  0.500098  1
  Ir  Ir14  1  0.384232  0.634232  0.750000  1
  Os  Os15  1  0.250280  0.115824  0.866453  1
  Os  Os16  1  0.749371  0.383827  0.633547  1
  Os  Os17  1  0.867977  0.249402  0.118554  1
  Os  Os18  1  0.116711  0.866710  0.250000  1
  Os  Os19  1  0.630848  0.749424  0.381446  1
