# generated using pymatgen
data_Er11Lu9(Cd3Fe)2
_symmetry_space_group_name_H-M   'P 1'
_cell_length_a   9.44473922
_cell_length_b   9.44988117
_cell_length_c   9.72895200
_cell_angle_alpha   89.99488273
_cell_angle_beta   90.02914310
_cell_angle_gamma   120.00767512
_symmetry_Int_Tables_number   1
_chemical_formula_structural   Er11Lu9(Cd3Fe)2
_chemical_formula_sum   'Er11 Lu9 Cd6 Fe2'
_cell_volume   751.93336095
_cell_formula_units_Z   1
loop_
 _symmetry_equiv_pos_site_id
 _symmetry_equiv_pos_as_xyz
  1  'x, y, z'
loop_
 _atom_site_type_symbol
 _atom_site_label
 _atom_site_symmetry_multiplicity
 _atom_site_fract_x
 _atom_site_fract_y
 _atom_site_fract_z
 _atom_site_occupancy
  Er  Er0  1  0.211601  0.788782  0.437420  1
  Er  Er1  1  0.211783  0.422907  0.437437  1
  Er  Er2  1  0.577284  0.788647  0.437187  1
  Er  Er3  1  0.787574  0.211624  0.562749  1
  Er  Er4  1  0.787714  0.576147  0.562861  1
  Er  Er5  1  0.539635  0.460054  0.248538  1
  Er  Er6  1  0.539323  0.079498  0.248525  1
  Er  Er7  1  0.921037  0.460434  0.248223  1
  Er  Er8  1  0.460556  0.538891  0.751467  1
  Er  Er9  1  0.460308  0.921477  0.751397  1
  Er  Er10  1  0.079472  0.539691  0.751883  1
  Lu  Lu11  1  0.000892  0.000704  0.500128  1
  Lu  Lu12  1  0.999819  0.999694  0.000280  1
  Lu  Lu13  1  0.423248  0.211671  0.562482  1
  Lu  Lu14  1  0.787777  0.212085  0.938555  1
  Lu  Lu15  1  0.787820  0.575535  0.938629  1
  Lu  Lu16  1  0.424706  0.212310  0.937815  1
  Lu  Lu17  1  0.212196  0.787764  0.061434  1
  Lu  Lu18  1  0.212262  0.424221  0.061435  1
  Lu  Lu19  1  0.575581  0.787784  0.061429  1
  Cd  Cd20  1  0.886766  0.113936  0.249436  1
  Cd  Cd21  1  0.886997  0.772948  0.249885  1
  Cd  Cd22  1  0.227190  0.113851  0.249592  1
  Cd  Cd23  1  0.113033  0.886119  0.750505  1
  Cd  Cd24  1  0.113277  0.227113  0.750704  1
  Cd  Cd25  1  0.772717  0.886494  0.750375  1
  Fe  Fe26  1  0.333224  0.666463  0.248754  1
  Fe  Fe27  1  0.666206  0.333155  0.750873  1
