# generated using pymatgen
data_CaLaAl20Ir3Ru
_symmetry_space_group_name_H-M   'P 1'
_cell_length_a   6.89868057
_cell_length_b   6.90369391
_cell_length_c   9.17939667
_cell_angle_alpha   90.08266768
_cell_angle_beta   89.93000165
_cell_angle_gamma   96.94533985
_symmetry_Int_Tables_number   1
_chemical_formula_structural   CaLaAl20Ir3Ru
_chemical_formula_sum   'Ca1 La1 Al20 Ir3 Ru1'
_cell_volume   433.97267852
_cell_formula_units_Z   1
loop_
 _symmetry_equiv_pos_site_id
 _symmetry_equiv_pos_as_xyz
  1  'x, y, z'
loop_
 _atom_site_type_symbol
 _atom_site_label
 _atom_site_symmetry_multiplicity
 _atom_site_fract_x
 _atom_site_fract_y
 _atom_site_fract_z
 _atom_site_occupancy
  Ca  Ca0  1  0.872909  0.125923  0.749948  1
  La  La1  1  0.124091  0.876975  0.250191  1
  Al  Al2  1  0.620847  0.375957  0.551501  1
  Al  Al3  1  0.380907  0.622195  0.448818  1
  Al  Al4  1  0.380051  0.620549  0.052293  1
  Al  Al5  1  0.621493  0.377888  0.947869  1
  Al  Al6  1  0.225173  0.224349  0.501338  1
  Al  Al7  1  0.773203  0.777747  0.503858  1
  Al  Al8  1  0.773690  0.776288  0.997816  1
  Al  Al9  1  0.224212  0.225435  0.996945  1
  Al  Al10  1  0.840955  0.159438  0.101736  1
  Al  Al11  1  0.158779  0.840554  0.894690  1
  Al  Al12  1  0.161022  0.841966  0.603988  1
  Al  Al13  1  0.839832  0.157910  0.399486  1
  Al  Al14  1  0.854960  0.584524  0.749838  1
  Al  Al15  1  0.142351  0.408085  0.250342  1
  Al  Al16  1  0.416356  0.143909  0.748631  1
  Al  Al17  1  0.590872  0.858332  0.251221  1
  Al  Al18  1  0.223949  0.480463  0.750233  1
  Al  Al19  1  0.773904  0.517546  0.249441  1
  Al  Al20  1  0.519532  0.777732  0.748026  1
  Al  Al21  1  0.482633  0.224389  0.252265  1
  Ir  Ir22  1  0.000338  0.501433  0.500294  1
  Ir  Ir23  1  0.000183  0.501020  0.999745  1
  Ir  Ir24  1  0.498975  0.999886  0.999566  1
  Ru  Ru25  1  0.498784  0.999508  0.499924  1
