# generated using pymatgen
data_BaMn2(Sb6Pt)2
_symmetry_space_group_name_H-M   'P 1'
_cell_length_a   8.14584689
_cell_length_b   8.14584806
_cell_length_c   8.16470422
_cell_angle_alpha   109.37410691
_cell_angle_beta   109.42858026
_cell_angle_gamma   109.51755107
_symmetry_Int_Tables_number   1
_chemical_formula_structural   BaMn2(Sb6Pt)2
_chemical_formula_sum   'Ba1 Mn2 Sb12 Pt2'
_cell_volume   417.53252783
_cell_formula_units_Z   1
loop_
 _symmetry_equiv_pos_site_id
 _symmetry_equiv_pos_as_xyz
  1  'x, y, z'
loop_
 _atom_site_type_symbol
 _atom_site_label
 _atom_site_symmetry_multiplicity
 _atom_site_fract_x
 _atom_site_fract_y
 _atom_site_fract_z
 _atom_site_occupancy
  Ba  Ba0  1  0.000000  0.000000  0.000000  1
  Mn  Mn1  1  0.000000  0.000000  0.500000  1
  Mn  Mn2  1  0.500000  0.500000  0.500000  1
  Sb  Sb3  1  0.331290  0.182012  0.831354  1
  Sb  Sb4  1  0.668710  0.817988  0.168646  1
  Sb  Sb5  1  0.649343  0.500064  0.831354  1
  Sb  Sb6  1  0.350657  0.499936  0.168646  1
  Sb  Sb7  1  0.182055  0.851288  0.352830  1
  Sb  Sb8  1  0.817945  0.148712  0.647170  1
  Sb  Sb9  1  0.498457  0.829225  0.647170  1
  Sb  Sb10  1  0.501543  0.170775  0.352830  1
  Sb  Sb11  1  0.847399  0.350515  0.197914  1
  Sb  Sb12  1  0.152601  0.649485  0.802086  1
  Sb  Sb13  1  0.833983  0.669069  0.503050  1
  Sb  Sb14  1  0.166017  0.330931  0.496950  1
  Pt  Pt15  1  0.500000  0.000000  0.000000  1
  Pt  Pt16  1  0.000000  0.500000  0.000000  1
