# generated using pymatgen
data_Nd2MnFe4(PIr)7
_symmetry_space_group_name_H-M   'P 1'
_cell_length_a   9.40410085
_cell_length_b   9.40349073
_cell_length_c   3.88334600
_cell_angle_alpha   90.00000000
_cell_angle_beta   90.00000000
_cell_angle_gamma   119.92295927
_symmetry_Int_Tables_number   1
_chemical_formula_structural   Nd2MnFe4(PIr)7
_chemical_formula_sum   'Nd2 Mn1 Fe4 P7 Ir7'
_cell_volume   297.63206872
_cell_formula_units_Z   1
loop_
 _symmetry_equiv_pos_site_id
 _symmetry_equiv_pos_as_xyz
  1  'x, y, z'
loop_
 _atom_site_type_symbol
 _atom_site_label
 _atom_site_symmetry_multiplicity
 _atom_site_fract_x
 _atom_site_fract_y
 _atom_site_fract_z
 _atom_site_occupancy
  Nd  Nd0  1  0.662780  0.330205  0.000000  1
  Nd  Nd1  1  0.333373  0.666472  0.500000  1
  Mn  Mn2  1  0.784470  0.908835  0.500000  1
  Fe  Fe3  1  0.262461  0.102862  0.000000  1
  Fe  Fe4  1  0.844362  0.736499  0.000000  1
  Fe  Fe5  1  0.891787  0.160214  0.000000  1
  Fe  Fe6  1  0.125288  0.214905  0.500000  1
  P  P7  1  0.301375  0.893476  0.000000  1
  P  P8  1  0.597085  0.704254  0.000000  1
  P  P9  1  0.109798  0.403638  0.000000  1
  P  P10  1  0.387440  0.277785  0.500000  1
  P  P11  1  0.880063  0.601018  0.500000  1
  P  P12  1  0.725717  0.113952  0.500000  1
  P  P13  1  0.998295  0.003761  0.000000  1
  Ir  Ir14  1  0.062396  0.637775  0.000000  1
  Ir  Ir15  1  0.576059  0.937863  0.000000  1
  Ir  Ir16  1  0.366214  0.427078  0.000000  1
  Ir  Ir17  1  0.437757  0.053674  0.500000  1
  Ir  Ir18  1  0.617485  0.565579  0.500000  1
  Ir  Ir19  1  0.949839  0.387310  0.500000  1
  Ir  Ir20  1  0.085959  0.872845  0.500000  1
