# generated using pymatgen
data_Sb6PdRu
_symmetry_space_group_name_H-M   'P 1'
_cell_length_a   8.17049867
_cell_length_b   8.17049963
_cell_length_c   9.44001422
_cell_angle_alpha   54.72178055
_cell_angle_beta   54.72177797
_cell_angle_gamma   70.51163103
_symmetry_Int_Tables_number   1
_chemical_formula_structural   Sb6PdRu
_chemical_formula_sum   'Sb12 Pd2 Ru2'
_cell_volume   419.98160188
_cell_formula_units_Z   2
loop_
 _symmetry_equiv_pos_site_id
 _symmetry_equiv_pos_as_xyz
  1  'x, y, z'
loop_
 _atom_site_type_symbol
 _atom_site_label
 _atom_site_symmetry_multiplicity
 _atom_site_fract_x
 _atom_site_fract_y
 _atom_site_fract_z
 _atom_site_occupancy
  Sb  Sb0  1  0.156943  0.156943  0.176397  1
  Sb  Sb1  1  0.843057  0.843057  0.823603  1
  Sb  Sb2  1  0.847787  0.847787  0.499566  1
  Sb  Sb3  1  0.152213  0.152213  0.500434  1
  Sb  Sb4  1  0.813874  0.504093  0.336033  1
  Sb  Sb5  1  0.186126  0.495907  0.663967  1
  Sb  Sb6  1  0.504093  0.813874  0.336033  1
  Sb  Sb7  1  0.495907  0.186126  0.663967  1
  Sb  Sb8  1  0.654675  0.336328  0.850169  1
  Sb  Sb9  1  0.345325  0.663672  0.149831  1
  Sb  Sb10  1  0.663672  0.345325  0.149831  1
  Sb  Sb11  1  0.336328  0.654675  0.850169  1
  Pd  Pd12  1  0.000000  0.500000  0.500000  1
  Pd  Pd13  1  0.500000  0.000000  0.500000  1
  Ru  Ru14  1  0.000000  0.500000  0.000000  1
  Ru  Ru15  1  0.500000  0.000000  0.000000  1
