# generated using pymatgen
data_Yb19ScSb16
_symmetry_space_group_name_H-M   'P 1'
_cell_length_a   8.21030111
_cell_length_b   16.00239100
_cell_length_c   8.22288100
_cell_angle_alpha   90.00000000
_cell_angle_beta   90.06991087
_cell_angle_gamma   90.00000000
_symmetry_Int_Tables_number   1
_chemical_formula_structural   Yb19ScSb16
_chemical_formula_sum   'Yb19 Sc1 Sb16'
_cell_volume   1080.35788202
_cell_formula_units_Z   1
loop_
 _symmetry_equiv_pos_site_id
 _symmetry_equiv_pos_as_xyz
  1  'x, y, z'
loop_
 _atom_site_type_symbol
 _atom_site_label
 _atom_site_symmetry_multiplicity
 _atom_site_fract_x
 _atom_site_fract_y
 _atom_site_fract_z
 _atom_site_occupancy
  Yb  Yb0  1  0.739352  0.750000  0.001160  1
  Yb  Yb1  1  0.925081  0.106847  0.167117  1
  Yb  Yb2  1  0.925081  0.393153  0.167117  1
  Yb  Yb3  1  0.407452  0.603414  0.162656  1
  Yb  Yb4  1  0.407452  0.896586  0.162656  1
  Yb  Yb5  1  0.908059  0.605977  0.336098  1
  Yb  Yb6  1  0.908059  0.894023  0.336098  1
  Yb  Yb7  1  0.426644  0.107230  0.336146  1
  Yb  Yb8  1  0.426644  0.392770  0.336146  1
  Yb  Yb9  1  0.239909  0.750000  0.498296  1
  Yb  Yb10  1  0.759507  0.250000  0.501027  1
  Yb  Yb11  1  0.571397  0.601087  0.668542  1
  Yb  Yb12  1  0.571397  0.898913  0.668542  1
  Yb  Yb13  1  0.095029  0.112210  0.658941  1
  Yb  Yb14  1  0.095029  0.387790  0.658941  1
  Yb  Yb15  1  0.596999  0.111557  0.838701  1
  Yb  Yb16  1  0.596999  0.388443  0.838701  1
  Yb  Yb17  1  0.069524  0.598391  0.829543  1
  Yb  Yb18  1  0.069524  0.901609  0.829543  1
  Sc  Sc19  1  0.259850  0.250000  0.999957  1
  Sb  Sb20  1  0.742613  0.549277  0.006723  1
  Sb  Sb21  1  0.742613  0.950723  0.006723  1
  Sb  Sb22  1  0.115304  0.750000  0.120272  1
  Sb  Sb23  1  0.614402  0.250000  0.128559  1
  Sb  Sb24  1  0.136787  0.250000  0.351334  1
  Sb  Sb25  1  0.615274  0.750000  0.378139  1
  Sb  Sb26  1  0.243252  0.549072  0.493241  1
  Sb  Sb27  1  0.243252  0.950928  0.493241  1
  Sb  Sb28  1  0.757871  0.050597  0.507387  1
  Sb  Sb29  1  0.757871  0.449403  0.507387  1
  Sb  Sb30  1  0.385519  0.250000  0.644311  1
  Sb  Sb31  1  0.864016  0.750000  0.628029  1
  Sb  Sb32  1  0.363546  0.750000  0.872091  1
  Sb  Sb33  1  0.904686  0.250000  0.879325  1
  Sb  Sb34  1  0.257011  0.057388  0.993658  1
  Sb  Sb35  1  0.257011  0.442612  0.993658  1
