# generated using pymatgen
data_Ca8Tl4Cu3N5
_symmetry_space_group_name_H-M   'P 1'
_cell_length_a   10.92773211
_cell_length_b   10.92813486
_cell_length_c   10.92793879
_cell_angle_alpha   160.33646992
_cell_angle_beta   112.71705074
_cell_angle_gamma   70.86086257
_symmetry_Int_Tables_number   1
_chemical_formula_structural   Ca8Tl4Cu3N5
_chemical_formula_sum   'Ca8 Tl4 Cu3 N5'
_cell_volume   402.36182393
_cell_formula_units_Z   1
loop_
 _symmetry_equiv_pos_site_id
 _symmetry_equiv_pos_as_xyz
  1  'x, y, z'
loop_
 _atom_site_type_symbol
 _atom_site_label
 _atom_site_symmetry_multiplicity
 _atom_site_fract_x
 _atom_site_fract_y
 _atom_site_fract_z
 _atom_site_occupancy
  Ca  Ca0  1  0.559993  0.712592  0.847431  1
  Ca  Ca1  1  0.749918  0.899994  0.849904  1
  Ca  Ca2  1  0.440206  0.287378  0.152786  1
  Ca  Ca3  1  0.865148  0.712566  0.152572  1
  Ca  Ca4  1  0.134603  0.287400  0.847196  1
  Ca  Ca5  1  0.250144  0.100257  0.150005  1
  Ca  Ca6  1  0.050100  0.900052  0.150145  1
  Ca  Ca7  1  0.950240  0.100200  0.850037  1
  Tl  Tl8  1  0.664450  0.500014  0.164032  1
  Tl  Tl9  1  0.335960  0.500402  0.835956  1
  Tl  Tl10  1  0.406094  0.906036  0.499918  1
  Tl  Tl11  1  0.592689  0.092757  0.500085  1
  Cu  Cu12  1  0.193132  0.693028  0.500089  1
  Cu  Cu13  1  0.806935  0.306877  0.499805  1
  Cu  Cu14  1  0.000106  0.500241  0.500099  1
  N  N15  1  0.348985  0.693638  0.655394  1
  N  N16  1  0.961747  0.306489  0.655276  1
  N  N17  1  0.038236  0.693589  0.344614  1
  N  N18  1  0.000108  0.000046  0.999946  1
  N  N19  1  0.651208  0.306444  0.344711  1
