# generated using pymatgen
data_PrTe13
_symmetry_space_group_name_H-M   'P 1'
_cell_length_a   24.05827937
_cell_length_b   24.05827946
_cell_length_c   3.22792900
_cell_angle_alpha   90.00000000
_cell_angle_beta   90.00000000
_cell_angle_gamma   166.90307971
_symmetry_Int_Tables_number   1
_chemical_formula_structural   PrTe13
_chemical_formula_sum   'Pr1 Te13'
_cell_volume   423.36115263
_cell_formula_units_Z   1
loop_
 _symmetry_equiv_pos_site_id
 _symmetry_equiv_pos_as_xyz
  1  'x, y, z'
loop_
 _atom_site_type_symbol
 _atom_site_label
 _atom_site_symmetry_multiplicity
 _atom_site_fract_x
 _atom_site_fract_y
 _atom_site_fract_z
 _atom_site_occupancy
  Pr  Pr0  1  0.685322  0.314678  0.750000  1
  Te  Te1  1  0.105515  0.894485  0.250000  1
  Te  Te2  1  0.889786  0.110214  0.750000  1
  Te  Te3  1  0.326970  0.673030  0.250000  1
  Te  Te4  1  0.968818  0.031182  0.250000  1
  Te  Te5  1  0.038412  0.961588  0.750000  1
  Te  Te6  1  0.537825  0.462175  0.250000  1
  Te  Te7  1  0.470218  0.529782  0.750000  1
  Te  Te8  1  0.742261  0.257739  0.250000  1
  Te  Te9  1  0.238578  0.761422  0.750000  1
  Te  Te10  1  0.165199  0.834801  0.250000  1
  Te  Te11  1  0.827504  0.172496  0.750000  1
  Te  Te12  1  0.389809  0.610191  0.250000  1
  Te  Te13  1  0.613782  0.386218  0.750000  1
