# generated using pymatgen
data_CrSi3Cl16
_symmetry_space_group_name_H-M   'P 1'
_cell_length_a   6.89323001
_cell_length_b   10.45718208
_cell_length_c   10.54509902
_cell_angle_alpha   77.11483604
_cell_angle_beta   89.99584705
_cell_angle_gamma   90.00211396
_symmetry_Int_Tables_number   1
_chemical_formula_structural   CrSi3Cl16
_chemical_formula_sum   'Cr1 Si3 Cl16'
_cell_volume   740.98953032
_cell_formula_units_Z   1
loop_
 _symmetry_equiv_pos_site_id
 _symmetry_equiv_pos_as_xyz
  1  'x, y, z'
loop_
 _atom_site_type_symbol
 _atom_site_label
 _atom_site_symmetry_multiplicity
 _atom_site_fract_x
 _atom_site_fract_y
 _atom_site_fract_z
 _atom_site_occupancy
  Cr  Cr0  1  0.928213  0.249887  0.642987  1
  Si  Si1  1  0.428322  0.750289  0.856923  1
  Si  Si2  1  0.071711  0.750346  0.356903  1
  Si  Si3  1  0.571643  0.249655  0.143117  1
  Cl  Cl4  1  0.073878  0.407209  0.697766  1
  Cl  Cl5  1  0.568322  0.598762  0.804312  1
  Cl  Cl6  1  0.931690  0.598725  0.304356  1
  Cl  Cl7  1  0.431707  0.401216  0.195702  1
  Cl  Cl8  1  0.930955  0.084504  0.800773  1
  Cl  Cl9  1  0.430827  0.909282  0.705174  1
  Cl  Cl10  1  0.069178  0.909236  0.205189  1
  Cl  Cl11  1  0.569220  0.090735  0.294843  1
  Cl  Cl12  1  0.070731  0.202667  0.481856  1
  Cl  Cl13  1  0.565322  0.795511  0.012042  1
  Cl  Cl14  1  0.934690  0.795492  0.512067  1
  Cl  Cl15  1  0.434717  0.204474  0.987927  1
  Cl  Cl16  1  0.638257  0.304648  0.592339  1
  Cl  Cl17  1  0.149396  0.697420  0.905714  1
  Cl  Cl18  1  0.350599  0.697389  0.405741  1
  Cl  Cl19  1  0.850622  0.302551  0.094269  1
