# generated using pymatgen
data_Ho2Lu3Sn4
_symmetry_space_group_name_H-M   'P 1'
_cell_length_a   7.93341800
_cell_length_b   8.06225800
_cell_length_c   15.23076100
_cell_angle_alpha   90.00000000
_cell_angle_beta   90.00000000
_cell_angle_gamma   90.00000000
_symmetry_Int_Tables_number   1
_chemical_formula_structural   Ho2Lu3Sn4
_chemical_formula_sum   'Ho8 Lu12 Sn16'
_cell_volume   974.17870602
_cell_formula_units_Z   4
loop_
 _symmetry_equiv_pos_site_id
 _symmetry_equiv_pos_as_xyz
  1  'x, y, z'
loop_
 _atom_site_type_symbol
 _atom_site_label
 _atom_site_symmetry_multiplicity
 _atom_site_fract_x
 _atom_site_fract_y
 _atom_site_fract_z
 _atom_site_occupancy
  Ho  Ho0  1  0.521947  0.320426  0.902892  1
  Ho  Ho1  1  0.021947  0.179574  0.597108  1
  Ho  Ho2  1  0.478053  0.679574  0.402892  1
  Ho  Ho3  1  0.978053  0.820426  0.097108  1
  Ho  Ho4  1  0.478053  0.679574  0.097108  1
  Ho  Ho5  1  0.978053  0.820426  0.402892  1
  Ho  Ho6  1  0.521947  0.320426  0.597108  1
  Ho  Ho7  1  0.021947  0.179574  0.902892  1
  Lu  Lu8  1  0.367518  0.836256  0.877359  1
  Lu  Lu9  1  0.867518  0.663744  0.622641  1
  Lu  Lu10  1  0.632482  0.163744  0.377359  1
  Lu  Lu11  1  0.132482  0.336256  0.122641  1
  Lu  Lu12  1  0.632482  0.163744  0.122641  1
  Lu  Lu13  1  0.132482  0.336256  0.377359  1
  Lu  Lu14  1  0.367518  0.836256  0.622641  1
  Lu  Lu15  1  0.867518  0.663744  0.877359  1
  Lu  Lu16  1  0.197616  0.504453  0.750000  1
  Lu  Lu17  1  0.697616  0.995547  0.750000  1
  Lu  Lu18  1  0.802384  0.495547  0.250000  1
  Lu  Lu19  1  0.302384  0.004453  0.250000  1
  Sn  Sn20  1  0.294124  0.036867  0.041629  1
  Sn  Sn21  1  0.794124  0.463133  0.458371  1
  Sn  Sn22  1  0.705876  0.963133  0.541629  1
  Sn  Sn23  1  0.205876  0.536867  0.958371  1
  Sn  Sn24  1  0.705876  0.963133  0.958371  1
  Sn  Sn25  1  0.205876  0.536867  0.541629  1
  Sn  Sn26  1  0.294124  0.036867  0.458371  1
  Sn  Sn27  1  0.794124  0.463133  0.041629  1
  Sn  Sn28  1  0.563964  0.621214  0.750000  1
  Sn  Sn29  1  0.063964  0.878786  0.750000  1
  Sn  Sn30  1  0.436036  0.378786  0.250000  1
  Sn  Sn31  1  0.936036  0.121214  0.250000  1
  Sn  Sn32  1  0.330761  0.147707  0.750000  1
  Sn  Sn33  1  0.830761  0.352293  0.750000  1
  Sn  Sn34  1  0.669239  0.852293  0.250000  1
  Sn  Sn35  1  0.169239  0.647707  0.250000  1
