# generated using pymatgen
data_Li2HoPaPt2
_symmetry_space_group_name_H-M   'P 1'
_cell_length_a   3.98802600
_cell_length_b   7.03097800
_cell_length_c   8.40868200
_cell_angle_alpha   90.00000000
_cell_angle_beta   90.00000000
_cell_angle_gamma   90.00000000
_symmetry_Int_Tables_number   1
_chemical_formula_structural   Li2HoPaPt2
_chemical_formula_sum   'Li4 Ho2 Pa2 Pt4'
_cell_volume   235.77711466
_cell_formula_units_Z   2
loop_
 _symmetry_equiv_pos_site_id
 _symmetry_equiv_pos_as_xyz
  1  'x, y, z'
loop_
 _atom_site_type_symbol
 _atom_site_label
 _atom_site_symmetry_multiplicity
 _atom_site_fract_x
 _atom_site_fract_y
 _atom_site_fract_z
 _atom_site_occupancy
  Li  Li0  1  0.250000  0.124037  0.060380  1
  Li  Li1  1  0.250000  0.624037  0.439620  1
  Li  Li2  1  0.750000  0.880132  0.946155  1
  Li  Li3  1  0.750000  0.380132  0.553845  1
  Ho  Ho4  1  0.750000  0.945417  0.312611  1
  Ho  Ho5  1  0.750000  0.445417  0.187389  1
  Pa  Pa6  1  0.250000  0.049543  0.683984  1
  Pa  Pa7  1  0.250000  0.549543  0.816016  1
  Pt  Pt8  1  0.250000  0.235720  0.385905  1
  Pt  Pt9  1  0.250000  0.735720  0.114095  1
  Pt  Pt10  1  0.750000  0.765150  0.637402  1
  Pt  Pt11  1  0.750000  0.265150  0.862598  1
