# generated using pymatgen
data_EuMgSi14Ir5Pt
_symmetry_space_group_name_H-M   'P 1'
_cell_length_a   8.03262963
_cell_length_b   8.04930131
_cell_length_c   8.04603688
_cell_angle_alpha   56.67724547
_cell_angle_beta   56.72518310
_cell_angle_gamma   56.76804843
_symmetry_Int_Tables_number   1
_chemical_formula_structural   EuMgSi14Ir5Pt
_chemical_formula_sum   'Eu1 Mg1 Si14 Ir5 Pt1'
_cell_volume   340.03087602
_cell_formula_units_Z   1
loop_
 _symmetry_equiv_pos_site_id
 _symmetry_equiv_pos_as_xyz
  1  'x, y, z'
loop_
 _atom_site_type_symbol
 _atom_site_label
 _atom_site_symmetry_multiplicity
 _atom_site_fract_x
 _atom_site_fract_y
 _atom_site_fract_z
 _atom_site_occupancy
  Eu  Eu0  1  0.000822  0.999291  0.001044  1
  Mg  Mg1  1  0.496342  0.504809  0.501134  1
  Si  Si2  1  0.849851  0.065611  0.676193  1
  Si  Si3  1  0.672088  0.848549  0.067447  1
  Si  Si4  1  0.067736  0.671846  0.848441  1
  Si  Si5  1  0.646811  0.820493  0.437435  1
  Si  Si6  1  0.248821  0.250099  0.248173  1
  Si  Si7  1  0.751308  0.746066  0.754956  1
  Si  Si8  1  0.173292  0.565693  0.350923  1
  Si  Si9  1  0.561822  0.354152  0.172777  1
  Si  Si10  1  0.345008  0.177949  0.562131  1
  Si  Si11  1  0.935079  0.329407  0.148053  1
  Si  Si12  1  0.329980  0.152621  0.929787  1
  Si  Si13  1  0.159042  0.932985  0.324485  1
  Si  Si14  1  0.825781  0.435447  0.648352  1
  Si  Si15  1  0.435894  0.648737  0.825556  1
  Ir  Ir16  1  0.432269  0.747357  0.072577  1
  Ir  Ir17  1  0.073840  0.432599  0.745684  1
  Ir  Ir18  1  0.252268  0.927730  0.568156  1
  Ir  Ir19  1  0.568713  0.252498  0.927668  1
  Ir  Ir20  1  0.926304  0.566726  0.253603  1
  Pt  Pt21  1  0.746930  0.069336  0.435426  1
