# generated using pymatgen
data_Tm16Sc4Bi11Te
_symmetry_space_group_name_H-M   'P 1'
_cell_length_a   8.03743803
_cell_length_b   9.34177400
_cell_length_c   11.79960500
_cell_angle_alpha   90.00000000
_cell_angle_beta   89.99494581
_cell_angle_gamma   90.00000000
_symmetry_Int_Tables_number   1
_chemical_formula_structural   Tm16Sc4Bi11Te
_chemical_formula_sum   'Tm16 Sc4 Bi11 Te1'
_cell_volume   885.96070800
_cell_formula_units_Z   1
loop_
 _symmetry_equiv_pos_site_id
 _symmetry_equiv_pos_as_xyz
  1  'x, y, z'
loop_
 _atom_site_type_symbol
 _atom_site_label
 _atom_site_symmetry_multiplicity
 _atom_site_fract_x
 _atom_site_fract_y
 _atom_site_fract_z
 _atom_site_occupancy
  Tm  Tm0  1  0.356009  0.250000  0.286024  1
  Tm  Tm1  1  0.645176  0.750000  0.716437  1
  Tm  Tm2  1  0.145136  0.750000  0.782278  1
  Tm  Tm3  1  0.854344  0.250000  0.217125  1
  Tm  Tm4  1  0.186546  0.250000  0.779755  1
  Tm  Tm5  1  0.813872  0.750000  0.218736  1
  Tm  Tm6  1  0.314516  0.750000  0.281490  1
  Tm  Tm7  1  0.680877  0.250000  0.716124  1
  Tm  Tm8  1  0.195905  0.066689  0.059251  1
  Tm  Tm9  1  0.804032  0.933979  0.941157  1
  Tm  Tm10  1  0.305821  0.936625  0.558421  1
  Tm  Tm11  1  0.804032  0.566021  0.941157  1
  Tm  Tm12  1  0.693672  0.068415  0.442450  1
  Tm  Tm13  1  0.195905  0.433311  0.059251  1
  Tm  Tm14  1  0.693672  0.431585  0.442450  1
  Tm  Tm15  1  0.305821  0.563375  0.558421  1
  Sc  Sc16  1  0.025947  0.250000  0.512344  1
  Sc  Sc17  1  0.977359  0.750000  0.488605  1
  Sc  Sc18  1  0.475923  0.750000  0.012436  1
  Sc  Sc19  1  0.524829  0.250000  0.987578  1
  Bi  Bi20  1  0.599265  0.750000  0.457064  1
  Bi  Bi21  1  0.098412  0.750000  0.042704  1
  Bi  Bi22  1  0.902447  0.250000  0.956236  1
  Bi  Bi23  1  0.065758  0.003881  0.330137  1
  Bi  Bi24  1  0.933789  0.997038  0.670485  1
  Bi  Bi25  1  0.433804  0.996277  0.829290  1
  Bi  Bi26  1  0.933789  0.502962  0.670485  1
  Bi  Bi27  1  0.566116  0.003920  0.170445  1
  Bi  Bi28  1  0.065758  0.496119  0.330137  1
  Bi  Bi29  1  0.566116  0.496080  0.170445  1
  Bi  Bi30  1  0.433804  0.503723  0.829290  1
  Te  Te31  1  0.401549  0.250000  0.541788  1
