# generated using pymatgen
data_La27Te40
_symmetry_space_group_name_H-M   'P 1'
_cell_length_a   8.38838395
_cell_length_b   13.70437408
_cell_length_c   21.11887600
_cell_angle_alpha   108.92936096
_cell_angle_beta   97.65621706
_cell_angle_gamma   89.84674928
_symmetry_Int_Tables_number   1
_chemical_formula_structural   La27Te40
_chemical_formula_sum   'La27 Te40'
_cell_volume   2273.87641978
_cell_formula_units_Z   1
loop_
 _symmetry_equiv_pos_site_id
 _symmetry_equiv_pos_as_xyz
  1  'x, y, z'
loop_
 _atom_site_type_symbol
 _atom_site_label
 _atom_site_symmetry_multiplicity
 _atom_site_fract_x
 _atom_site_fract_y
 _atom_site_fract_z
 _atom_site_occupancy
  La  La0  1  0.653475  0.474262  0.199471  1
  La  La1  1  0.922156  0.324917  0.023583  1
  La  La2  1  0.051778  0.069637  0.396121  1
  La  La3  1  0.153897  0.219067  0.200332  1
  La  La4  1  0.277436  0.603579  0.073492  1
  La  La5  1  0.426178  0.203344  0.022793  1
  La  La6  1  0.545560  0.824839  0.396333  1
  La  La7  1  0.849695  0.280032  0.802820  1
  La  La8  1  0.716556  0.529574  0.429639  1
  La  La9  1  0.664966  0.193204  0.274667  1
  La  La10  1  0.825651  0.804857  0.225062  1
  La  La11  1  0.773669  0.971892  0.074747  1
  La  La12  1  0.949483  0.425492  0.602025  1
  La  La13  1  0.253756  0.876970  0.005708  1
  La  La14  1  0.127299  0.125941  0.626733  1
  La  La15  1  0.078781  0.798729  0.477521  1
  La  La16  1  0.231563  0.406391  0.429075  1
  La  La17  1  0.177436  0.575905  0.274224  1
  La  La18  1  0.350445  0.031122  0.800518  1
  La  La19  1  0.522585  0.722350  0.820319  1
  La  La20  1  0.472098  0.404269  0.677339  1
  La  La21  1  0.578142  0.177150  0.474413  1
  La  La22  1  0.620737  0.993084  0.624419  1
  La  La23  1  0.741207  0.621771  0.995760  1
  La  La24  1  0.878791  0.001346  0.876047  1
  La  La25  1  0.974117  0.770986  0.671912  1
  La  La26  1  0.029801  0.591976  0.824018  1
  Te  Te27  1  0.562583  0.438601  0.033388  1
  Te  Te28  1  0.762886  0.238829  0.130064  1
  Te  Te29  1  0.932044  0.572276  0.140544  1
  Te  Te30  1  0.952534  0.042110  0.230101  1
  Te  Te31  1  0.059221  0.090904  0.032146  1
  Te  Te32  1  0.328057  0.176912  0.342766  1
  Te  Te33  1  0.258261  0.388281  0.130481  1
  Te  Te34  1  0.358635  0.639264  0.427380  1
  Te  Te35  1  0.433681  0.069917  0.136269  1
  Te  Te36  1  0.463684  0.684859  0.228802  1
  Te  Te37  1  0.552749  0.797080  0.098614  1
  Te  Te38  1  0.756711  0.238148  0.629840  1
  Te  Te39  1  0.730511  0.769517  0.535540  1
  Te  Te40  1  0.662906  0.993733  0.332178  1
  Te  Te41  1  0.829947  0.668829  0.340143  1
  Te  Te42  1  0.957743  0.042255  0.730704  1
  Te  Te43  1  0.864850  0.289230  0.429111  1
  Te  Te44  1  0.952058  0.399126  0.300103  1
  Te  Te45  1  0.129308  0.364193  0.736953  1
  Te  Te46  1  0.051294  0.588159  0.529172  1
  Te  Te47  1  0.163032  0.840980  0.829016  1
  Te  Te48  1  0.040239  0.798711  0.099073  1
  Te  Te49  1  0.230327  0.269180  0.539411  1
  Te  Te50  1  0.160375  0.835469  0.331333  1
  Te  Te51  1  0.360261  0.647334  0.930541  1
  Te  Te52  1  0.259796  0.894638  0.632448  1
  Te  Te53  1  0.350702  0.000767  0.499726  1
  Te  Te54  1  0.528284  0.970107  0.940020  1
  Te  Te55  1  0.466076  0.187432  0.726727  1
  Te  Te56  1  0.450444  0.399436  0.299348  1
  Te  Te57  1  0.564562  0.436604  0.532718  1
  Te  Te58  1  0.634173  0.875344  0.743342  1
  Te  Te59  1  0.661297  0.494065  0.830679  1
  Te  Te60  1  0.755758  0.600116  0.702085  1
  Te  Te61  1  0.860268  0.790488  0.927653  1
  Te  Te62  1  0.853156  0.001447  0.500260  1
  Te  Te63  1  0.026599  0.472247  0.942270  1
  Te  Te64  1  0.142648  0.199869  0.900666  1
  Te  Te65  1  0.242022  0.598751  0.698804  1
  Te  Te66  1  0.653063  0.197102  0.900494  1
