# generated using pymatgen
data_Lu2CoSi5Rh2
_symmetry_space_group_name_H-M   'P 1'
_cell_length_a   8.00400424
_cell_length_b   7.97022391
_cell_length_c   7.97022470
_cell_angle_alpha   138.42709733
_cell_angle_beta   105.10564635
_cell_angle_gamma   89.43994078
_symmetry_Int_Tables_number   1
_chemical_formula_structural   Lu2CoSi5Rh2
_chemical_formula_sum   'Lu4 Co2 Si10 Rh4'
_cell_volume   311.83047255
_cell_formula_units_Z   2
loop_
 _symmetry_equiv_pos_site_id
 _symmetry_equiv_pos_as_xyz
  1  'x, y, z'
loop_
 _atom_site_type_symbol
 _atom_site_label
 _atom_site_symmetry_multiplicity
 _atom_site_fract_x
 _atom_site_fract_y
 _atom_site_fract_z
 _atom_site_occupancy
  Lu  Lu0  1  0.363110  0.632674  0.730435  1
  Lu  Lu1  1  0.901486  0.134231  0.767254  1
  Lu  Lu2  1  0.098514  0.865769  0.232746  1
  Lu  Lu3  1  0.636890  0.367326  0.269565  1
  Co  Co4  1  0.252101  0.140170  0.111933  1
  Co  Co5  1  0.747899  0.859830  0.888067  1
  Si  Si6  1  0.278984  0.513033  0.244654  1
  Si  Si7  1  0.721016  0.965670  0.234049  1
  Si  Si8  1  0.000000  0.777570  0.777570  1
  Si  Si9  1  0.234280  0.393803  0.840476  1
  Si  Si10  1  0.765720  0.606197  0.159524  1
  Si  Si11  1  0.441914  0.106869  0.335045  1
  Si  Si12  1  0.000000  0.222430  0.222430  1
  Si  Si13  1  0.558086  0.893131  0.664955  1
  Si  Si14  1  0.721016  0.486967  0.755346  1
  Si  Si15  1  0.278984  0.034330  0.765951  1
  Rh  Rh16  1  0.031607  0.636917  0.394690  1
  Rh  Rh17  1  0.968393  0.363083  0.605310  1
  Rh  Rh18  1  0.500000  0.750421  0.250421  1
  Rh  Rh19  1  0.500000  0.249579  0.749579  1
