# generated using pymatgen
data_Tb2Y2Cu2PtRh
_symmetry_space_group_name_H-M   'P 1'
_cell_length_a   4.38592400
_cell_length_b   5.60268064
_cell_length_c   7.13753100
_cell_angle_alpha   90.08827216
_cell_angle_beta   90.00000000
_cell_angle_gamma   90.00000000
_symmetry_Int_Tables_number   1
_chemical_formula_structural   Tb2Y2Cu2PtRh
_chemical_formula_sum   'Tb2 Y2 Cu2 Pt1 Rh1'
_cell_volume   175.38985213
_cell_formula_units_Z   1
loop_
 _symmetry_equiv_pos_site_id
 _symmetry_equiv_pos_as_xyz
  1  'x, y, z'
loop_
 _atom_site_type_symbol
 _atom_site_label
 _atom_site_symmetry_multiplicity
 _atom_site_fract_x
 _atom_site_fract_y
 _atom_site_fract_z
 _atom_site_occupancy
  Tb  Tb0  1  0.500000  0.395592  0.320896  1
  Tb  Tb1  1  0.500000  0.607465  0.813447  1
  Y  Y2  1  0.000000  0.116828  0.679537  1
  Y  Y3  1  0.000000  0.883887  0.184901  1
  Cu  Cu4  1  0.500000  0.888462  0.463390  1
  Cu  Cu5  1  0.500000  0.111119  0.963506  1
  Pt  Pt6  1  0.000000  0.384047  0.037258  1
  Rh  Rh7  1  0.000000  0.612598  0.537068  1
