# generated using pymatgen
data_La7Nd7Ho2Cd4Ru3Pt
_symmetry_space_group_name_H-M   'P 1'
_cell_length_a   9.94524087
_cell_length_b   10.00212250
_cell_length_c   10.01294618
_cell_angle_alpha   59.63307511
_cell_angle_beta   59.81653386
_cell_angle_gamma   60.24266068
_symmetry_Int_Tables_number   1
_chemical_formula_structural   La7Nd7Ho2Cd4Ru3Pt
_chemical_formula_sum   'La7 Nd7 Ho2 Cd4 Ru3 Pt1'
_cell_volume   702.61349296
_cell_formula_units_Z   1
loop_
 _symmetry_equiv_pos_site_id
 _symmetry_equiv_pos_as_xyz
  1  'x, y, z'
loop_
 _atom_site_type_symbol
 _atom_site_label
 _atom_site_symmetry_multiplicity
 _atom_site_fract_x
 _atom_site_fract_y
 _atom_site_fract_z
 _atom_site_occupancy
  La  La0  1  0.343284  0.348507  0.353341  1
  La  La1  1  0.344715  0.347590  0.953329  1
  La  La2  1  0.345738  0.953469  0.348880  1
  La  La3  1  0.960978  0.346947  0.349724  1
  La  La4  1  0.822806  0.190630  0.182741  1
  La  La5  1  0.183870  0.819317  0.812108  1
  La  La6  1  0.188586  0.812318  0.184677  1
  Nd  Nd7  1  0.810634  0.805016  0.190006  1
  Nd  Nd8  1  0.932419  0.563047  0.569625  1
  Nd  Nd9  1  0.561178  0.938699  0.933975  1
  Nd  Nd10  1  0.557598  0.939667  0.567671  1
  Nd  Nd11  1  0.937287  0.563395  0.935993  1
  Nd  Nd12  1  0.559917  0.561567  0.937711  1
  Nd  Nd13  1  0.935343  0.941596  0.565052  1
  Ho  Ho14  1  0.815364  0.191561  0.806185  1
  Ho  Ho15  1  0.187020  0.193516  0.807053  1
  Cd  Cd16  1  0.582860  0.577518  0.579609  1
  Cd  Cd17  1  0.581424  0.580245  0.259750  1
  Cd  Cd18  1  0.578779  0.258632  0.583375  1
  Cd  Cd19  1  0.258430  0.577034  0.581942  1
  Ru  Ru20  1  0.136673  0.132963  0.143548  1
  Ru  Ru21  1  0.145591  0.129359  0.583473  1
  Ru  Ru22  1  0.149467  0.582949  0.134975  1
  Pt  Pt23  1  0.580039  0.144461  0.135259  1
