# generated using pymatgen
data_Hf2Zr2Fe3Si4Ni
_symmetry_space_group_name_H-M   'P 1'
_cell_length_a   3.91385800
_cell_length_b   6.42462056
_cell_length_c   7.05883188
_cell_angle_alpha   89.79473039
_cell_angle_beta   90.00000000
_cell_angle_gamma   90.00000000
_symmetry_Int_Tables_number   1
_chemical_formula_structural   Hf2Zr2Fe3Si4Ni
_chemical_formula_sum   'Hf2 Zr2 Fe3 Si4 Ni1'
_cell_volume   177.49355956
_cell_formula_units_Z   1
loop_
 _symmetry_equiv_pos_site_id
 _symmetry_equiv_pos_as_xyz
  1  'x, y, z'
loop_
 _atom_site_type_symbol
 _atom_site_label
 _atom_site_symmetry_multiplicity
 _atom_site_fract_x
 _atom_site_fract_y
 _atom_site_fract_z
 _atom_site_occupancy
  Hf  Hf0  1  0.250000  0.996713  0.302344  1
  Hf  Hf1  1  0.250000  0.505243  0.198512  1
  Zr  Zr2  1  0.750000  0.992548  0.691141  1
  Zr  Zr3  1  0.750000  0.501248  0.803191  1
  Fe  Fe4  1  0.250000  0.652952  0.567487  1
  Fe  Fe5  1  0.750000  0.851406  0.071511  1
  Fe  Fe6  1  0.750000  0.347894  0.432264  1
  Si  Si7  1  0.250000  0.286380  0.596792  1
  Si  Si8  1  0.250000  0.784739  0.896887  1
  Si  Si9  1  0.750000  0.710670  0.392249  1
  Si  Si10  1  0.750000  0.215624  0.113465  1
  Ni  Ni11  1  0.250000  0.154585  0.934157  1
