# generated using pymatgen
data_Rb3AgSn4
_symmetry_space_group_name_H-M   'P 1'
_cell_length_a   6.82437900
_cell_length_b   7.13312600
_cell_length_c   13.49191400
_cell_angle_alpha   90.00000000
_cell_angle_beta   90.00000000
_cell_angle_gamma   90.00000000
_symmetry_Int_Tables_number   1
_chemical_formula_structural   Rb3AgSn4
_chemical_formula_sum   'Rb6 Ag2 Sn8'
_cell_volume   656.77497661
_cell_formula_units_Z   2
loop_
 _symmetry_equiv_pos_site_id
 _symmetry_equiv_pos_as_xyz
  1  'x, y, z'
loop_
 _atom_site_type_symbol
 _atom_site_label
 _atom_site_symmetry_multiplicity
 _atom_site_fract_x
 _atom_site_fract_y
 _atom_site_fract_z
 _atom_site_occupancy
  Rb  Rb0  1  0.548543  0.000000  0.000000  1
  Rb  Rb1  1  0.451457  0.500000  0.500000  1
  Rb  Rb2  1  0.823475  0.500000  0.745534  1
  Rb  Rb3  1  0.823475  0.500000  0.254466  1
  Rb  Rb4  1  0.176525  0.000000  0.754466  1
  Rb  Rb5  1  0.176525  0.000000  0.245534  1
  Ag  Ag6  1  0.679278  0.500000  0.000000  1
  Ag  Ag7  1  0.320722  0.000000  0.500000  1
  Sn  Sn8  1  0.321616  0.500000  0.884624  1
  Sn  Sn9  1  0.321616  0.500000  0.115376  1
  Sn  Sn10  1  0.034545  0.276078  0.000000  1
  Sn  Sn11  1  0.034545  0.723922  0.000000  1
  Sn  Sn12  1  0.965455  0.776078  0.500000  1
  Sn  Sn13  1  0.965455  0.223922  0.500000  1
  Sn  Sn14  1  0.678384  0.000000  0.384624  1
  Sn  Sn15  1  0.678384  0.000000  0.615376  1
