# generated using pymatgen
data_Ho12Ir3Pt
_symmetry_space_group_name_H-M   'P 1'
_cell_length_a   6.38406300
_cell_length_b   7.18258900
_cell_length_c   9.30020000
_cell_angle_alpha   90.00000000
_cell_angle_beta   90.00000000
_cell_angle_gamma   89.99678615
_symmetry_Int_Tables_number   1
_chemical_formula_structural   Ho12Ir3Pt
_chemical_formula_sum   'Ho12 Ir3 Pt1'
_cell_volume   426.45230681
_cell_formula_units_Z   1
loop_
 _symmetry_equiv_pos_site_id
 _symmetry_equiv_pos_as_xyz
  1  'x, y, z'
loop_
 _atom_site_type_symbol
 _atom_site_label
 _atom_site_symmetry_multiplicity
 _atom_site_fract_x
 _atom_site_fract_y
 _atom_site_fract_z
 _atom_site_occupancy
  Ho  Ho0  1  0.331630  0.675880  0.060879  1
  Ho  Ho1  1  0.173213  0.181390  0.439533  1
  Ho  Ho2  1  0.673036  0.321942  0.563126  1
  Ho  Ho3  1  0.825494  0.822397  0.934928  1
  Ho  Ho4  1  0.673036  0.321942  0.936874  1
  Ho  Ho5  1  0.825494  0.822397  0.565072  1
  Ho  Ho6  1  0.331630  0.675880  0.439121  1
  Ho  Ho7  1  0.173213  0.181390  0.060467  1
  Ho  Ho8  1  0.865396  0.528535  0.250000  1
  Ho  Ho9  1  0.628633  0.035984  0.250000  1
  Ho  Ho10  1  0.130853  0.465563  0.750000  1
  Ho  Ho11  1  0.368290  0.965440  0.750000  1
  Ir  Ir12  1  0.450642  0.383340  0.250000  1
  Ir  Ir13  1  0.953560  0.116876  0.750000  1
  Ir  Ir14  1  0.546372  0.616936  0.750000  1
  Pt  Pt15  1  0.049508  0.884106  0.250000  1
