# generated using pymatgen
data_Ba2P(Pt3Au)2
_symmetry_space_group_name_H-M   'P 1'
_cell_length_a   9.58402396
_cell_length_b   9.58402177
_cell_length_c   4.39605200
_cell_angle_alpha   90.00000000
_cell_angle_beta   90.00000000
_cell_angle_gamma   145.86951051
_symmetry_Int_Tables_number   1
_chemical_formula_structural   Ba2P(Pt3Au)2
_chemical_formula_sum   'Ba2 P1 Pt6 Au2'
_cell_volume   226.55985156
_cell_formula_units_Z   1
loop_
 _symmetry_equiv_pos_site_id
 _symmetry_equiv_pos_as_xyz
  1  'x, y, z'
loop_
 _atom_site_type_symbol
 _atom_site_label
 _atom_site_symmetry_multiplicity
 _atom_site_fract_x
 _atom_site_fract_y
 _atom_site_fract_z
 _atom_site_occupancy
  Ba  Ba0  1  0.616303  0.378233  0.500000  1
  Ba  Ba1  1  0.378233  0.616303  0.500000  1
  P  P2  1  0.207649  0.207649  0.000000  1
  Pt  Pt3  1  0.109803  0.891808  0.000000  1
  Pt  Pt4  1  0.891808  0.109803  0.000000  1
  Pt  Pt5  1  0.494674  0.992579  0.000000  1
  Pt  Pt6  1  0.992579  0.494674  0.000000  1
  Pt  Pt7  1  0.013317  0.013317  0.500000  1
  Pt  Pt8  1  0.620599  0.620599  0.000000  1
  Au  Au9  1  0.195185  0.793453  0.500000  1
  Au  Au10  1  0.793453  0.195185  0.500000  1
