# generated using pymatgen
data_Rb3NaZrO4
_symmetry_space_group_name_H-M   'P 1'
_cell_length_a   6.70162900
_cell_length_b   11.19276742
_cell_length_c   11.20857982
_cell_angle_alpha   67.70707263
_cell_angle_beta   90.00000000
_cell_angle_gamma   90.00000000
_symmetry_Int_Tables_number   1
_chemical_formula_structural   Rb3NaZrO4
_chemical_formula_sum   'Rb12 Na4 Zr4 O16'
_cell_volume   777.91226562
_cell_formula_units_Z   4
loop_
 _symmetry_equiv_pos_site_id
 _symmetry_equiv_pos_as_xyz
  1  'x, y, z'
loop_
 _atom_site_type_symbol
 _atom_site_label
 _atom_site_symmetry_multiplicity
 _atom_site_fract_x
 _atom_site_fract_y
 _atom_site_fract_z
 _atom_site_occupancy
  Rb  Rb0  1  0.669242  0.035013  0.327313  1
  Rb  Rb1  1  0.122565  0.322391  0.610087  1
  Rb  Rb2  1  0.397839  0.547300  0.309021  1
  Rb  Rb3  1  0.102161  0.547300  0.809021  1
  Rb  Rb4  1  0.830758  0.035013  0.827313  1
  Rb  Rb5  1  0.602161  0.452700  0.690979  1
  Rb  Rb6  1  0.877435  0.677609  0.389913  1
  Rb  Rb7  1  0.169242  0.964987  0.172687  1
  Rb  Rb8  1  0.622565  0.677609  0.889913  1
  Rb  Rb9  1  0.377435  0.322391  0.110087  1
  Rb  Rb10  1  0.330758  0.964987  0.672687  1
  Rb  Rb11  1  0.897839  0.452700  0.190979  1
  Na  Na12  1  0.615916  0.875863  0.107744  1
  Na  Na13  1  0.384084  0.124137  0.892256  1
  Na  Na14  1  0.884084  0.875863  0.607744  1
  Na  Na15  1  0.115916  0.124137  0.392256  1
  Zr  Zr16  1  0.361758  0.759359  0.489023  1
  Zr  Zr17  1  0.638242  0.240641  0.510977  1
  Zr  Zr18  1  0.861758  0.240641  0.010977  1
  Zr  Zr19  1  0.138242  0.759359  0.989023  1
  O  O20  1  0.987123  0.206433  0.182479  1
  O  O21  1  0.487123  0.793567  0.317521  1
  O  O22  1  0.252795  0.580930  0.051204  1
  O  O23  1  0.144601  0.891515  0.459325  1
  O  O24  1  0.747205  0.419070  0.948796  1
  O  O25  1  0.426652  0.227621  0.389685  1
  O  O26  1  0.644601  0.108485  0.040675  1
  O  O27  1  0.012877  0.793567  0.817521  1
  O  O28  1  0.752795  0.419070  0.448796  1
  O  O29  1  0.073348  0.227621  0.889685  1
  O  O30  1  0.355399  0.891515  0.959325  1
  O  O31  1  0.855399  0.108485  0.540675  1
  O  O32  1  0.573348  0.772379  0.610315  1
  O  O33  1  0.247205  0.580930  0.551204  1
  O  O34  1  0.512877  0.206433  0.682479  1
  O  O35  1  0.926652  0.772379  0.110315  1
