# generated using pymatgen
data_LuHf3Si6Ir7
_symmetry_space_group_name_H-M   'P 1'
_cell_length_a   7.01940628
_cell_length_b   7.01336064
_cell_length_c   7.01940725
_cell_angle_alpha   109.45377755
_cell_angle_beta   109.48864808
_cell_angle_gamma   109.45378909
_symmetry_Int_Tables_number   1
_chemical_formula_structural   LuHf3Si6Ir7
_chemical_formula_sum   'Lu1 Hf3 Si6 Ir7'
_cell_volume   266.07161041
_cell_formula_units_Z   1
loop_
 _symmetry_equiv_pos_site_id
 _symmetry_equiv_pos_as_xyz
  1  'x, y, z'
loop_
 _atom_site_type_symbol
 _atom_site_label
 _atom_site_symmetry_multiplicity
 _atom_site_fract_x
 _atom_site_fract_y
 _atom_site_fract_z
 _atom_site_occupancy
  Lu  Lu0  1  0.000000  0.500000  0.000000  1
  Hf  Hf1  1  0.000000  0.000000  0.500000  1
  Hf  Hf2  1  0.500000  0.000000  0.000000  1
  Hf  Hf3  1  0.500000  0.500000  0.500000  1
  Si  Si4  1  0.680246  0.680568  0.000000  1
  Si  Si5  1  0.319754  0.000322  0.319754  1
  Si  Si6  1  0.000000  0.319432  0.319754  1
  Si  Si7  1  0.319754  0.319432  0.000000  1
  Si  Si8  1  0.680246  0.999678  0.680246  1
  Si  Si9  1  0.000000  0.680568  0.680246  1
  Ir  Ir10  1  0.747831  0.247831  0.495663  1
  Ir  Ir11  1  0.747831  0.500000  0.252169  1
  Ir  Ir12  1  0.495663  0.247831  0.747831  1
  Ir  Ir13  1  0.252169  0.500000  0.747831  1
  Ir  Ir14  1  0.252169  0.752169  0.504337  1
  Ir  Ir15  1  0.504337  0.752169  0.252169  1
  Ir  Ir16  1  0.000000  0.000000  0.000000  1
