# generated using pymatgen
data_TbHoTh(AlNi)3
_symmetry_space_group_name_H-M   'P 1'
_cell_length_a   7.14201932
_cell_length_b   7.01903962
_cell_length_c   3.84861000
_cell_angle_alpha   90.00000000
_cell_angle_beta   90.00000000
_cell_angle_gamma   120.48869361
_symmetry_Int_Tables_number   1
_chemical_formula_structural   TbHoTh(AlNi)3
_chemical_formula_sum   'Tb1 Ho1 Th1 Al3 Ni3'
_cell_volume   166.25452621
_cell_formula_units_Z   1
loop_
 _symmetry_equiv_pos_site_id
 _symmetry_equiv_pos_as_xyz
  1  'x, y, z'
loop_
 _atom_site_type_symbol
 _atom_site_label
 _atom_site_symmetry_multiplicity
 _atom_site_fract_x
 _atom_site_fract_y
 _atom_site_fract_z
 _atom_site_occupancy
  Tb  Tb0  1  0.582072  0.582835  0.500000  1
  Ho  Ho1  1  0.998985  0.416527  0.500000  1
  Th  Th2  1  0.422100  0.999731  0.500000  1
  Al  Al3  1  0.775575  0.001201  0.000000  1
  Al  Al4  1  0.991755  0.756442  0.000000  1
  Al  Al5  1  0.233701  0.243184  0.000000  1
  Ni  Ni6  1  0.331844  0.675629  0.000000  1
  Ni  Ni7  1  0.657847  0.323550  0.000000  1
  Ni  Ni8  1  0.006123  0.000901  0.500000  1
