# generated using pymatgen
data_Nb3Ni2SnC
_symmetry_space_group_name_H-M   'P 1'
_cell_length_a   8.33543183
_cell_length_b   8.34423333
_cell_length_c   8.34573000
_cell_angle_alpha   59.99406646
_cell_angle_beta   59.95912256
_cell_angle_gamma   59.96821315
_symmetry_Int_Tables_number   1
_chemical_formula_structural   Nb3Ni2SnC
_chemical_formula_sum   'Nb12 Ni8 Sn4 C4'
_cell_volume   410.20948484
_cell_formula_units_Z   4
loop_
 _symmetry_equiv_pos_site_id
 _symmetry_equiv_pos_as_xyz
  1  'x, y, z'
loop_
 _atom_site_type_symbol
 _atom_site_label
 _atom_site_symmetry_multiplicity
 _atom_site_fract_x
 _atom_site_fract_y
 _atom_site_fract_z
 _atom_site_occupancy
  Nb  Nb0  1  0.432255  0.067631  0.067934  1
  Nb  Nb1  1  0.067625  0.432306  0.432303  1
  Nb  Nb2  1  0.067625  0.432306  0.067768  1
  Nb  Nb3  1  0.067797  0.067704  0.432249  1
  Nb  Nb4  1  0.432255  0.067631  0.432180  1
  Nb  Nb5  1  0.432298  0.432233  0.067735  1
  Nb  Nb6  1  0.182375  0.817694  0.182232  1
  Nb  Nb7  1  0.817745  0.182369  0.817820  1
  Nb  Nb8  1  0.817745  0.182369  0.182066  1
  Nb  Nb9  1  0.182203  0.182296  0.817751  1
  Nb  Nb10  1  0.182375  0.817694  0.817697  1
  Nb  Nb11  1  0.817702  0.817767  0.182265  1
  Ni  Ni12  1  0.838680  0.838742  0.838458  1
  Ni  Ni13  1  0.838680  0.838742  0.484122  1
  Ni  Ni14  1  0.484584  0.838505  0.838456  1
  Ni  Ni15  1  0.838532  0.484980  0.838244  1
  Ni  Ni16  1  0.411320  0.411258  0.411542  1
  Ni  Ni17  1  0.411320  0.411258  0.765878  1
  Ni  Ni18  1  0.411468  0.765020  0.411756  1
  Ni  Ni19  1  0.765416  0.411495  0.411544  1
  Sn  Sn20  1  0.625000  0.625000  0.625000  1
  Sn  Sn21  1  0.625000  0.625000  0.125000  1
  Sn  Sn22  1  0.125000  0.625000  0.625000  1
  Sn  Sn23  1  0.625000  0.125000  0.625000  1
  C  C24  1  0.125000  0.125000  0.125000  1
  C  C25  1  0.125000  0.125000  0.625000  1
  C  C26  1  0.625000  0.125000  0.125000  1
  C  C27  1  0.125000  0.625000  0.125000  1
