# generated using pymatgen
data_La7Pr3Nd2(SiBr3)4
_symmetry_space_group_name_H-M   'P 1'
_cell_length_a   10.62636203
_cell_length_b   10.56804628
_cell_length_c   10.62328053
_cell_angle_alpha   109.40517727
_cell_angle_beta   109.70040477
_cell_angle_gamma   109.42076397
_symmetry_Int_Tables_number   1
_chemical_formula_structural   La7Pr3Nd2(SiBr3)4
_chemical_formula_sum   'La7 Pr3 Nd2 Si4 Br12'
_cell_volume   917.08143067
_cell_formula_units_Z   1
loop_
 _symmetry_equiv_pos_site_id
 _symmetry_equiv_pos_as_xyz
  1  'x, y, z'
loop_
 _atom_site_type_symbol
 _atom_site_label
 _atom_site_symmetry_multiplicity
 _atom_site_fract_x
 _atom_site_fract_y
 _atom_site_fract_z
 _atom_site_occupancy
  La  La0  1  0.240526  0.479984  0.489746  1
  La  La1  1  0.010164  0.020180  0.259402  1
  La  La2  1  0.011571  0.491812  0.750440  1
  La  La3  1  0.491192  0.239916  0.478764  1
  La  La4  1  0.749647  0.008270  0.488507  1
  La  La5  1  0.021112  0.260208  0.008742  1
  La  La6  1  0.260975  0.750154  0.239272  1
  Pr  Pr7  1  0.238036  0.263714  0.751217  1
  Pr  Pr8  1  0.475279  0.486849  0.234658  1
  Pr  Pr9  1  0.265334  0.013287  0.024669  1
  Nd  Nd10  1  0.486581  0.749847  0.013179  1
  Nd  Nd11  1  0.748726  0.235797  0.262358  1
  Si  Si12  1  0.249820  0.249948  0.250255  1
  Si  Si13  1  0.999421  0.250013  0.499042  1
  Si  Si14  1  0.249199  0.500254  0.999192  1
  Si  Si15  1  0.501550  0.000570  0.250810  1
  Br  Br16  1  0.000469  0.992843  0.747035  1
  Br  Br17  1  0.750188  0.743486  0.245983  1
  Br  Br18  1  0.993326  0.748088  0.994490  1
  Br  Br19  1  0.250582  0.997671  0.505837  1
  Br  Br20  1  0.742943  0.996195  0.993784  1
  Br  Br21  1  0.504312  0.250082  0.997541  1
  Br  Br22  1  0.745942  0.249983  0.753973  1
  Br  Br23  1  0.505534  0.751918  0.506663  1
  Br  Br24  1  0.752985  0.506040  0.498294  1
  Br  Br25  1  0.254048  0.756585  0.749839  1
  Br  Br26  1  0.507317  0.504929  0.757011  1
  Br  Br27  1  0.993219  0.501377  0.249301  1
