# generated using pymatgen
data_Ba6Sn8BiS
_symmetry_space_group_name_H-M   'P 1'
_cell_length_a   9.26513406
_cell_length_b   9.26513419
_cell_length_c   9.30485759
_cell_angle_alpha   119.85888352
_cell_angle_beta   119.85888264
_cell_angle_gamma   90.00000303
_symmetry_Int_Tables_number   1
_chemical_formula_structural   Ba6Sn8BiS
_chemical_formula_sum   'Ba6 Sn8 Bi1 S1'
_cell_volume   567.20538930
_cell_formula_units_Z   1
loop_
 _symmetry_equiv_pos_site_id
 _symmetry_equiv_pos_as_xyz
  1  'x, y, z'
loop_
 _atom_site_type_symbol
 _atom_site_label
 _atom_site_symmetry_multiplicity
 _atom_site_fract_x
 _atom_site_fract_y
 _atom_site_fract_z
 _atom_site_occupancy
  Ba  Ba0  1  0.266250  0.266250  0.532501  1
  Ba  Ba1  1  0.733750  0.733750  0.467499  1
  Ba  Ba2  1  0.657597  0.178980  0.000000  1
  Ba  Ba3  1  0.342403  0.821020  0.000000  1
  Ba  Ba4  1  0.821020  0.657597  0.000000  1
  Ba  Ba5  1  0.178980  0.342403  0.000000  1
  Sn  Sn6  1  0.333009  0.837981  0.389295  1
  Sn  Sn7  1  0.666991  0.162019  0.610705  1
  Sn  Sn8  1  0.056288  0.551315  0.389295  1
  Sn  Sn9  1  0.551315  0.333009  0.389295  1
  Sn  Sn10  1  0.162019  0.943712  0.610705  1
  Sn  Sn11  1  0.943712  0.448685  0.610705  1
  Sn  Sn12  1  0.448685  0.666991  0.610705  1
  Sn  Sn13  1  0.837981  0.056288  0.389295  1
  Bi  Bi14  1  0.000000  0.000000  0.000000  1
  S  S15  1  0.500000  0.500000  0.000000  1
