# generated using pymatgen
data_Zr10GaAg(SnBi)3
_symmetry_space_group_name_H-M   'P 1'
_cell_length_a   8.80874038
_cell_length_b   8.78526285
_cell_length_c   5.97287893
_cell_angle_alpha   90.21185479
_cell_angle_beta   89.88605138
_cell_angle_gamma   119.79703364
_symmetry_Int_Tables_number   1
_chemical_formula_structural   Zr10GaAg(SnBi)3
_chemical_formula_sum   'Zr10 Ga1 Ag1 Sn3 Bi3'
_cell_volume   401.11096982
_cell_formula_units_Z   1
loop_
 _symmetry_equiv_pos_site_id
 _symmetry_equiv_pos_as_xyz
  1  'x, y, z'
loop_
 _atom_site_type_symbol
 _atom_site_label
 _atom_site_symmetry_multiplicity
 _atom_site_fract_x
 _atom_site_fract_y
 _atom_site_fract_z
 _atom_site_occupancy
  Zr  Zr0  1  0.002417  0.274149  0.260131  1
  Zr  Zr1  1  0.730085  0.999660  0.739405  1
  Zr  Zr2  1  0.734245  0.727142  0.259791  1
  Zr  Zr3  1  0.672155  0.337258  0.501886  1
  Zr  Zr4  1  0.992272  0.722433  0.740406  1
  Zr  Zr5  1  0.269507  0.276574  0.740077  1
  Zr  Zr6  1  0.330240  0.662355  0.998517  1
  Zr  Zr7  1  0.672320  0.340121  0.998361  1
  Zr  Zr8  1  0.329698  0.664218  0.501649  1
  Zr  Zr9  1  0.266494  0.995303  0.261070  1
  Ga  Ga10  1  0.000164  0.000327  0.502317  1
  Ag  Ag11  1  0.000155  0.000320  0.997028  1
  Sn  Sn12  1  0.001849  0.613969  0.245514  1
  Sn  Sn13  1  0.998536  0.384571  0.754796  1
  Sn  Sn14  1  0.615148  0.617301  0.754441  1
  Bi  Bi15  1  0.616253  0.999440  0.245408  1
  Bi  Bi16  1  0.382042  0.000277  0.755007  1
  Bi  Bi17  1  0.386424  0.384581  0.244198  1
