# generated using pymatgen
data_Tb10Nd6Cd4TcPd3
_symmetry_space_group_name_H-M   'P 1'
_cell_length_a   9.86916243
_cell_length_b   9.86916261
_cell_length_c   9.86916314
_cell_angle_alpha   59.43603754
_cell_angle_beta   59.43603633
_cell_angle_gamma   59.43603701
_symmetry_Int_Tables_number   1
_chemical_formula_structural   Tb10Nd6Cd4TcPd3
_chemical_formula_sum   'Tb10 Nd6 Cd4 Tc1 Pd3'
_cell_volume   670.99215282
_cell_formula_units_Z   1
loop_
 _symmetry_equiv_pos_site_id
 _symmetry_equiv_pos_as_xyz
  1  'x, y, z'
loop_
 _atom_site_type_symbol
 _atom_site_label
 _atom_site_symmetry_multiplicity
 _atom_site_fract_x
 _atom_site_fract_y
 _atom_site_fract_z
 _atom_site_occupancy
  Tb  Tb0  1  0.352930  0.352930  0.352930  1
  Tb  Tb1  1  0.348469  0.348469  0.950737  1
  Tb  Tb2  1  0.348469  0.950737  0.348469  1
  Tb  Tb3  1  0.950737  0.348469  0.348469  1
  Tb  Tb4  1  0.818746  0.186291  0.186291  1
  Tb  Tb5  1  0.186291  0.811245  0.811245  1
  Tb  Tb6  1  0.186291  0.818746  0.186291  1
  Tb  Tb7  1  0.811245  0.186291  0.811245  1
  Tb  Tb8  1  0.186291  0.186291  0.818746  1
  Tb  Tb9  1  0.811245  0.811245  0.186291  1
  Nd  Nd10  1  0.935886  0.563124  0.563124  1
  Nd  Nd11  1  0.554779  0.939417  0.939417  1
  Nd  Nd12  1  0.563124  0.935886  0.563124  1
  Nd  Nd13  1  0.939417  0.554779  0.939417  1
  Nd  Nd14  1  0.563124  0.563124  0.935886  1
  Nd  Nd15  1  0.939417  0.939417  0.554779  1
  Cd  Cd16  1  0.579071  0.579071  0.579071  1
  Cd  Cd17  1  0.579787  0.579787  0.259258  1
  Cd  Cd18  1  0.579787  0.259258  0.579787  1
  Cd  Cd19  1  0.259258  0.579787  0.579787  1
  Tc  Tc20  1  0.143901  0.143901  0.143901  1
  Pd  Pd21  1  0.145285  0.145285  0.571162  1
  Pd  Pd22  1  0.145285  0.571162  0.145285  1
  Pd  Pd23  1  0.571162  0.145285  0.145285  1
