# generated using pymatgen
data_Y6Zn16AsPt7
_symmetry_space_group_name_H-M   'P 1'
_cell_length_a   9.01657388
_cell_length_b   9.01657474
_cell_length_c   9.01657500
_cell_angle_alpha   60.00000271
_cell_angle_beta   59.99999956
_cell_angle_gamma   60.00000710
_symmetry_Int_Tables_number   1
_chemical_formula_structural   Y6Zn16AsPt7
_chemical_formula_sum   'Y6 Zn16 As1 Pt7'
_cell_volume   518.33408077
_cell_formula_units_Z   1
loop_
 _symmetry_equiv_pos_site_id
 _symmetry_equiv_pos_as_xyz
  1  'x, y, z'
loop_
 _atom_site_type_symbol
 _atom_site_label
 _atom_site_symmetry_multiplicity
 _atom_site_fract_x
 _atom_site_fract_y
 _atom_site_fract_z
 _atom_site_occupancy
  Y  Y0  1  0.719575  0.280425  0.280441  1
  Y  Y1  1  0.719577  0.280421  0.719561  1
  Y  Y2  1  0.719572  0.719579  0.280426  1
  Y  Y3  1  0.280425  0.719575  0.719559  1
  Y  Y4  1  0.280423  0.719579  0.280439  1
  Y  Y5  1  0.280428  0.280421  0.719574  1
  Zn  Zn6  1  0.632714  0.122447  0.122420  1
  Zn  Zn7  1  0.122443  0.632717  0.122420  1
  Zn  Zn8  1  0.122430  0.122431  0.632714  1
  Zn  Zn9  1  0.122428  0.122432  0.122426  1
  Zn  Zn10  1  0.367286  0.877553  0.877580  1
  Zn  Zn11  1  0.877557  0.367283  0.877580  1
  Zn  Zn12  1  0.877570  0.877569  0.367286  1
  Zn  Zn13  1  0.877572  0.877568  0.877574  1
  Zn  Zn14  1  0.002753  0.332419  0.332414  1
  Zn  Zn15  1  0.332416  0.002754  0.332414  1
  Zn  Zn16  1  0.332421  0.332422  0.002747  1
  Zn  Zn17  1  0.332421  0.332422  0.332408  1
  Zn  Zn18  1  0.997247  0.667581  0.667586  1
  Zn  Zn19  1  0.667584  0.997246  0.667586  1
  Zn  Zn20  1  0.667579  0.667578  0.997253  1
  Zn  Zn21  1  0.667579  0.667578  0.667592  1
  As  As22  1  0.500000  0.500000  0.500000  1
  Pt  Pt23  1  0.500000  0.000000  0.000000  1
  Pt  Pt24  1  0.500000  0.000000  0.500000  1
  Pt  Pt25  1  0.500000  0.500000  0.000000  1
  Pt  Pt26  1  0.000000  0.500000  0.500000  1
  Pt  Pt27  1  0.000000  0.500000  0.000000  1
  Pt  Pt28  1  0.000000  0.000000  0.500000  1
  Pt  Pt29  1  0.000000  0.000000  0.000000  1
