# generated using pymatgen
data_Tb4Al3ZnRu4
_symmetry_space_group_name_H-M   'P 1'
_cell_length_a   4.05560100
_cell_length_b   7.01787017
_cell_length_c   8.10697963
_cell_angle_alpha   89.86981977
_cell_angle_beta   90.00000000
_cell_angle_gamma   90.00000000
_symmetry_Int_Tables_number   1
_chemical_formula_structural   Tb4Al3ZnRu4
_chemical_formula_sum   'Tb4 Al3 Zn1 Ru4'
_cell_volume   230.73767467
_cell_formula_units_Z   1
loop_
 _symmetry_equiv_pos_site_id
 _symmetry_equiv_pos_as_xyz
  1  'x, y, z'
loop_
 _atom_site_type_symbol
 _atom_site_label
 _atom_site_symmetry_multiplicity
 _atom_site_fract_x
 _atom_site_fract_y
 _atom_site_fract_z
 _atom_site_occupancy
  Tb  Tb0  1  0.250000  0.031903  0.680730  1
  Tb  Tb1  1  0.250000  0.525189  0.821127  1
  Tb  Tb2  1  0.750000  0.972578  0.318509  1
  Tb  Tb3  1  0.750000  0.468506  0.177447  1
  Al  Al4  1  0.250000  0.639813  0.441768  1
  Al  Al5  1  0.750000  0.858469  0.941906  1
  Al  Al6  1  0.750000  0.362469  0.559764  1
  Zn  Zn7  1  0.250000  0.141554  0.060780  1
  Ru  Ru8  1  0.250000  0.274727  0.377979  1
  Ru  Ru9  1  0.250000  0.766437  0.128375  1
  Ru  Ru10  1  0.750000  0.730259  0.626939  1
  Ru  Ru11  1  0.750000  0.228097  0.864676  1
