# generated using pymatgen
data_Tb15TmMgCo4Ag3
_symmetry_space_group_name_H-M   'P 1'
_cell_length_a   9.47252454
_cell_length_b   9.47311557
_cell_length_c   9.47311604
_cell_angle_alpha   60.28787150
_cell_angle_beta   60.20684283
_cell_angle_gamma   60.20683826
_symmetry_Int_Tables_number   1
_chemical_formula_structural   Tb15TmMgCo4Ag3
_chemical_formula_sum   'Tb15 Tm1 Mg1 Co4 Ag3'
_cell_volume   604.26716714
_cell_formula_units_Z   1
loop_
 _symmetry_equiv_pos_site_id
 _symmetry_equiv_pos_as_xyz
  1  'x, y, z'
loop_
 _atom_site_type_symbol
 _atom_site_label
 _atom_site_symmetry_multiplicity
 _atom_site_fract_x
 _atom_site_fract_y
 _atom_site_fract_z
 _atom_site_occupancy
  Tb  Tb0  1  0.185402  0.813173  0.813173  1
  Tb  Tb1  1  0.183948  0.814895  0.186184  1
  Tb  Tb2  1  0.808931  0.188917  0.812420  1
  Tb  Tb3  1  0.183948  0.186184  0.814895  1
  Tb  Tb4  1  0.808931  0.812420  0.188917  1
  Tb  Tb5  1  0.935255  0.561996  0.561997  1
  Tb  Tb6  1  0.563060  0.937626  0.937627  1
  Tb  Tb7  1  0.562591  0.937933  0.561944  1
  Tb  Tb8  1  0.936467  0.561703  0.938607  1
  Tb  Tb9  1  0.562591  0.561943  0.937934  1
  Tb  Tb10  1  0.936467  0.938606  0.561704  1
  Tb  Tb11  1  0.346311  0.344989  0.344989  1
  Tb  Tb12  1  0.345680  0.345683  0.964014  1
  Tb  Tb13  1  0.345680  0.964014  0.345683  1
  Tb  Tb14  1  0.951365  0.349581  0.349581  1
  Tm  Tm15  1  0.809272  0.188812  0.188812  1
  Mg  Mg16  1  0.290788  0.569427  0.569427  1
  Co  Co17  1  0.137922  0.142011  0.142011  1
  Co  Co18  1  0.139473  0.143231  0.577146  1
  Co  Co19  1  0.139473  0.577146  0.143231  1
  Co  Co20  1  0.577588  0.141795  0.141795  1
  Ag  Ag21  1  0.582596  0.583603  0.583603  1
  Ag  Ag22  1  0.583132  0.582036  0.252272  1
  Ag  Ag23  1  0.583132  0.252272  0.582036  1
