# generated using pymatgen
data_Yb2TmAl3Ge2Pt
_symmetry_space_group_name_H-M   'P 1'
_cell_length_a   6.96480528
_cell_length_b   6.96480660
_cell_length_c   4.25997600
_cell_angle_alpha   90.00000000
_cell_angle_beta   90.00000000
_cell_angle_gamma   120.23202097
_symmetry_Int_Tables_number   1
_chemical_formula_structural   Yb2TmAl3Ge2Pt
_chemical_formula_sum   'Yb2 Tm1 Al3 Ge2 Pt1'
_cell_volume   178.54006549
_cell_formula_units_Z   1
loop_
 _symmetry_equiv_pos_site_id
 _symmetry_equiv_pos_as_xyz
  1  'x, y, z'
loop_
 _atom_site_type_symbol
 _atom_site_label
 _atom_site_symmetry_multiplicity
 _atom_site_fract_x
 _atom_site_fract_y
 _atom_site_fract_z
 _atom_site_occupancy
  Yb  Yb0  1  0.421522  0.000920  0.000000  1
  Yb  Yb1  1  0.000920  0.421522  0.000000  1
  Tm  Tm2  1  0.581387  0.581387  0.000000  1
  Al  Al3  1  0.766477  0.998131  0.499999  1
  Al  Al4  1  0.233600  0.233599  0.499999  1
  Al  Al5  1  0.998131  0.766478  0.499999  1
  Ge  Ge6  1  0.665539  0.338152  0.499999  1
  Ge  Ge7  1  0.338152  0.665540  0.499999  1
  Pt  Pt8  1  0.994270  0.994270  0.000000  1
