# generated using pymatgen
data_YbSm3(B4Ru)4
_symmetry_space_group_name_H-M   'P 1'
_cell_length_a   3.58993100
_cell_length_b   6.01138638
_cell_length_c   11.62409473
_cell_angle_alpha   90.04052209
_cell_angle_beta   90.00000000
_cell_angle_gamma   90.00000000
_symmetry_Int_Tables_number   1
_chemical_formula_structural   YbSm3(B4Ru)4
_chemical_formula_sum   'Yb1 Sm3 B16 Ru4'
_cell_volume   250.85327533
_cell_formula_units_Z   1
loop_
 _symmetry_equiv_pos_site_id
 _symmetry_equiv_pos_as_xyz
  1  'x, y, z'
loop_
 _atom_site_type_symbol
 _atom_site_label
 _atom_site_symmetry_multiplicity
 _atom_site_fract_x
 _atom_site_fract_y
 _atom_site_fract_z
 _atom_site_occupancy
  Yb  Yb0  1  0.500000  0.870749  0.649385  1
  Sm  Sm1  1  0.500000  0.627633  0.150157  1
  Sm  Sm2  1  0.500000  0.371766  0.847960  1
  Sm  Sm3  1  0.500000  0.127429  0.351410  1
  B  B4  1  0.000000  0.976063  0.190404  1
  B  B5  1  0.000000  0.023556  0.807786  1
  B  B6  1  0.000000  0.475454  0.310749  1
  B  B7  1  0.000000  0.525692  0.689828  1
  B  B8  1  0.000000  0.785999  0.316680  1
  B  B9  1  0.000000  0.211587  0.683903  1
  B  B10  1  0.000000  0.285917  0.184992  1
  B  B11  1  0.000000  0.715392  0.813479  1
  B  B12  1  0.000000  0.862904  0.471044  1
  B  B13  1  0.000000  0.136839  0.531886  1
  B  B14  1  0.000000  0.361747  0.030405  1
  B  B15  1  0.000000  0.638086  0.968629  1
  B  B16  1  0.000000  0.888823  0.045571  1
  B  B17  1  0.000000  0.109968  0.953046  1
  B  B18  1  0.000000  0.389994  0.455826  1
  B  B19  1  0.000000  0.614545  0.547387  1
  Ru  Ru20  1  0.500000  0.638939  0.409496  1
  Ru  Ru21  1  0.500000  0.361626  0.590857  1
  Ru  Ru22  1  0.500000  0.138303  0.091417  1
  Ru  Ru23  1  0.500000  0.860988  0.907701  1
