# generated using pymatgen
data_Pr7Th(Si3Rh)4
_symmetry_space_group_name_H-M   'P 1'
_cell_length_a   8.27063192
_cell_length_b   8.32536050
_cell_length_c   8.48240400
_cell_angle_alpha   90.00000000
_cell_angle_beta   90.00000000
_cell_angle_gamma   120.21913382
_symmetry_Int_Tables_number   1
_chemical_formula_structural   Pr7Th(Si3Rh)4
_chemical_formula_sum   'Pr7 Th1 Si12 Rh4'
_cell_volume   504.69395508
_cell_formula_units_Z   1
loop_
 _symmetry_equiv_pos_site_id
 _symmetry_equiv_pos_as_xyz
  1  'x, y, z'
loop_
 _atom_site_type_symbol
 _atom_site_label
 _atom_site_symmetry_multiplicity
 _atom_site_fract_x
 _atom_site_fract_y
 _atom_site_fract_z
 _atom_site_occupancy
  Pr  Pr0  1  0.999305  0.999652  0.250000  1
  Pr  Pr1  1  0.000050  0.000025  0.750000  1
  Pr  Pr2  1  0.501298  0.499280  0.250000  1
  Pr  Pr3  1  0.501298  0.002019  0.250000  1
  Pr  Pr4  1  0.996321  0.498160  0.250000  1
  Pr  Pr5  1  0.499248  0.501434  0.750000  1
  Pr  Pr6  1  0.499248  0.997812  0.750000  1
  Th  Th7  1  0.004308  0.502154  0.750000  1
  Si  Si8  1  0.166686  0.836102  0.500673  1
  Si  Si9  1  0.166686  0.330586  0.500673  1
  Si  Si10  1  0.663033  0.831517  0.501165  1
  Si  Si11  1  0.833166  0.164263  0.499574  1
  Si  Si12  1  0.833166  0.668902  0.499574  1
  Si  Si13  1  0.336970  0.168484  0.499687  1
  Si  Si14  1  0.833166  0.164263  0.000426  1
  Si  Si15  1  0.833166  0.668902  0.000426  1
  Si  Si16  1  0.336970  0.168484  0.000313  1
  Si  Si17  1  0.166686  0.836102  0.999327  1
  Si  Si18  1  0.166686  0.330586  0.999327  1
  Si  Si19  1  0.663033  0.831517  0.998835  1
  Rh  Rh20  1  0.325539  0.662771  0.501201  1
  Rh  Rh21  1  0.674215  0.337107  0.510813  1
  Rh  Rh22  1  0.674215  0.337107  0.989187  1
  Rh  Rh23  1  0.325539  0.662771  0.998799  1
