# generated using pymatgen
data_Y4Er2Lu6Co5Bi
_symmetry_space_group_name_H-M   'P 1'
_cell_length_a   8.21028379
_cell_length_b   8.20644619
_cell_length_c   8.21028341
_cell_angle_alpha   111.04011872
_cell_angle_beta   110.59246197
_cell_angle_gamma   106.83180278
_symmetry_Int_Tables_number   1
_chemical_formula_structural   Y4Er2Lu6Co5Bi
_chemical_formula_sum   'Y4 Er2 Lu6 Co5 Bi1'
_cell_volume   425.06239343
_cell_formula_units_Z   1
loop_
 _symmetry_equiv_pos_site_id
 _symmetry_equiv_pos_as_xyz
  1  'x, y, z'
loop_
 _atom_site_type_symbol
 _atom_site_label
 _atom_site_symmetry_multiplicity
 _atom_site_fract_x
 _atom_site_fract_y
 _atom_site_fract_z
 _atom_site_occupancy
  Y  Y0  1  0.288109  0.187066  0.474094  1
  Y  Y1  1  0.711891  0.812934  0.525906  1
  Y  Y2  1  0.287029  0.812934  0.101043  1
  Y  Y3  1  0.712971  0.187066  0.898957  1
  Er  Er4  1  0.207904  0.013987  0.806084  1
  Er  Er5  1  0.792096  0.986013  0.193916  1
  Lu  Lu6  1  0.623078  0.312499  0.312400  1
  Lu  Lu7  1  0.376922  0.687501  0.687600  1
  Lu  Lu8  1  0.000099  0.312499  0.689421  1
  Lu  Lu9  1  0.999901  0.687501  0.310579  1
  Lu  Lu10  1  0.208027  0.402619  0.194591  1
  Lu  Lu11  1  0.791973  0.597381  0.805409  1
  Co  Co12  1  0.000717  0.376328  0.375612  1
  Co  Co13  1  0.999283  0.623672  0.624388  1
  Co  Co14  1  0.387329  0.886629  0.499299  1
  Co  Co15  1  0.612671  0.113371  0.500701  1
  Co  Co16  1  0.000000  0.000000  0.000000  1
  Bi  Bi17  1  0.500000  0.500000  0.000000  1
