# generated using pymatgen
data_Ho2Er3IrPb3
_symmetry_space_group_name_H-M   'P 1'
_cell_length_a   9.16161700
_cell_length_b   9.16161756
_cell_length_c   6.81360200
_cell_angle_alpha   90.00000000
_cell_angle_beta   90.00000000
_cell_angle_gamma   119.99999436
_symmetry_Int_Tables_number   1
_chemical_formula_structural   Ho2Er3IrPb3
_chemical_formula_sum   'Ho4 Er6 Ir2 Pb6'
_cell_volume   495.28104711
_cell_formula_units_Z   2
loop_
 _symmetry_equiv_pos_site_id
 _symmetry_equiv_pos_as_xyz
  1  'x, y, z'
loop_
 _atom_site_type_symbol
 _atom_site_label
 _atom_site_symmetry_multiplicity
 _atom_site_fract_x
 _atom_site_fract_y
 _atom_site_fract_z
 _atom_site_occupancy
  Ho  Ho0  1  0.333333  0.666667  0.500000  1
  Ho  Ho1  1  0.666667  0.333333  0.500000  1
  Ho  Ho2  1  0.333333  0.666667  0.000000  1
  Ho  Ho3  1  0.666667  0.333333  0.000000  1
  Er  Er4  1  0.000000  0.764480  0.750000  1
  Er  Er5  1  0.235520  0.000000  0.250000  1
  Er  Er6  1  0.764480  0.000000  0.750000  1
  Er  Er7  1  0.000000  0.235520  0.250000  1
  Er  Er8  1  0.764480  0.764480  0.250000  1
  Er  Er9  1  0.235520  0.235520  0.750000  1
  Ir  Ir10  1  0.000000  0.000000  0.000000  1
  Ir  Ir11  1  0.000000  0.000000  0.500000  1
  Pb  Pb12  1  0.404850  0.404850  0.250000  1
  Pb  Pb13  1  0.000000  0.404850  0.750000  1
  Pb  Pb14  1  0.000000  0.595150  0.250000  1
  Pb  Pb15  1  0.595150  0.000000  0.250000  1
  Pb  Pb16  1  0.404850  0.000000  0.750000  1
  Pb  Pb17  1  0.595150  0.595150  0.750000  1
