# generated using pymatgen
data_YbTm3(B6Os)2
_symmetry_space_group_name_H-M   'P 1'
_cell_length_a   3.61701500
_cell_length_b   9.09682456
_cell_length_c   11.48062624
_cell_angle_alpha   89.86254839
_cell_angle_beta   90.00000000
_cell_angle_gamma   90.00000000
_symmetry_Int_Tables_number   1
_chemical_formula_structural   YbTm3(B6Os)2
_chemical_formula_sum   'Yb2 Tm6 B24 Os4'
_cell_volume   377.74998653
_cell_formula_units_Z   2
loop_
 _symmetry_equiv_pos_site_id
 _symmetry_equiv_pos_as_xyz
  1  'x, y, z'
loop_
 _atom_site_type_symbol
 _atom_site_label
 _atom_site_symmetry_multiplicity
 _atom_site_fract_x
 _atom_site_fract_y
 _atom_site_fract_z
 _atom_site_occupancy
  Yb  Yb0  1  0.000000  0.324377  0.414403  1
  Yb  Yb1  1  0.000000  0.675623  0.585597  1
  Tm  Tm2  1  0.000000  0.821791  0.086432  1
  Tm  Tm3  1  0.000000  0.178209  0.913568  1
  Tm  Tm4  1  0.000000  0.942385  0.370378  1
  Tm  Tm5  1  0.000000  0.057615  0.629623  1
  Tm  Tm6  1  0.000000  0.443004  0.129676  1
  Tm  Tm7  1  0.000000  0.556996  0.870323  1
  B  B8  1  0.500000  0.554029  0.432413  1
  B  B9  1  0.500000  0.445971  0.567587  1
  B  B10  1  0.500000  0.053379  0.066226  1
  B  B11  1  0.500000  0.946621  0.933774  1
  B  B12  1  0.500000  0.748829  0.418061  1
  B  B13  1  0.500000  0.251171  0.581939  1
  B  B14  1  0.500000  0.248771  0.080539  1
  B  B15  1  0.500000  0.751229  0.919461  1
  B  B16  1  0.500000  0.791896  0.264319  1
  B  B17  1  0.500000  0.208104  0.735681  1
  B  B18  1  0.500000  0.290644  0.234005  1
  B  B19  1  0.500000  0.709355  0.765995  1
  B  B20  1  0.500000  0.631439  0.184591  1
  B  B21  1  0.500000  0.368561  0.815409  1
  B  B22  1  0.500000  0.130538  0.314033  1
  B  B23  1  0.500000  0.869462  0.685967  1
  B  B24  1  0.500000  0.982226  0.211628  1
  B  B25  1  0.500000  0.017774  0.788372  1
  B  B26  1  0.500000  0.483355  0.287517  1
  B  B27  1  0.500000  0.516645  0.712483  1
  B  B28  1  0.500000  0.603332  0.028481  1
  B  B29  1  0.500000  0.396668  0.971519  1
  B  B30  1  0.500000  0.099081  0.472601  1
  B  B31  1  0.500000  0.900919  0.527399  1
  Os  Os32  1  0.000000  0.640079  0.318536  1
  Os  Os33  1  0.000000  0.359921  0.681464  1
  Os  Os34  1  0.000000  0.136643  0.177561  1
  Os  Os35  1  0.000000  0.863357  0.822439  1
