# generated using pymatgen
data_Er12Th4Cd4Ir3Ru
_symmetry_space_group_name_H-M   'P 1'
_cell_length_a   9.70683795
_cell_length_b   9.70683858
_cell_length_c   9.70683845
_cell_angle_alpha   59.74349582
_cell_angle_beta   59.74349329
_cell_angle_gamma   59.74350046
_symmetry_Int_Tables_number   1
_chemical_formula_structural   Er12Th4Cd4Ir3Ru
_chemical_formula_sum   'Er12 Th4 Cd4 Ir3 Ru1'
_cell_volume   642.95603684
_cell_formula_units_Z   1
loop_
 _symmetry_equiv_pos_site_id
 _symmetry_equiv_pos_as_xyz
  1  'x, y, z'
loop_
 _atom_site_type_symbol
 _atom_site_label
 _atom_site_symmetry_multiplicity
 _atom_site_fract_x
 _atom_site_fract_y
 _atom_site_fract_z
 _atom_site_occupancy
  Er  Er0  1  0.062919  0.437821  0.437821  1
  Er  Er1  1  0.436648  0.062570  0.062570  1
  Er  Er2  1  0.437821  0.062919  0.437821  1
  Er  Er3  1  0.062570  0.436648  0.062570  1
  Er  Er4  1  0.437821  0.437821  0.062919  1
  Er  Er5  1  0.062570  0.062570  0.436648  1
  Er  Er6  1  0.185235  0.815503  0.815503  1
  Er  Er7  1  0.814741  0.184886  0.184886  1
  Er  Er8  1  0.815503  0.185235  0.815503  1
  Er  Er9  1  0.184886  0.814741  0.184886  1
  Er  Er10  1  0.815503  0.815503  0.185235  1
  Er  Er11  1  0.184886  0.184886  0.814741  1
  Th  Th12  1  0.599829  0.599829  0.599829  1
  Th  Th13  1  0.598645  0.598645  0.201505  1
  Th  Th14  1  0.598645  0.201505  0.598645  1
  Th  Th15  1  0.201505  0.598645  0.598645  1
  Cd  Cd16  1  0.832465  0.832465  0.832465  1
  Cd  Cd17  1  0.832108  0.832108  0.501095  1
  Cd  Cd18  1  0.832108  0.501095  0.832108  1
  Cd  Cd19  1  0.501095  0.832108  0.832108  1
  Ir  Ir20  1  0.392783  0.392783  0.823103  1
  Ir  Ir21  1  0.392783  0.823103  0.392783  1
  Ir  Ir22  1  0.823103  0.392783  0.392783  1
  Ru  Ru23  1  0.393825  0.393825  0.393825  1
