# generated using pymatgen
data_K2LiHoAs2
_symmetry_space_group_name_H-M   'P 1'
_cell_length_a   10.31457253
_cell_length_b   10.31457264
_cell_length_c   6.75241600
_cell_angle_alpha   90.00000000
_cell_angle_beta   90.00000000
_cell_angle_gamma   98.17721057
_symmetry_Int_Tables_number   1
_chemical_formula_structural   K2LiHoAs2
_chemical_formula_sum   'K8 Li4 Ho4 As8'
_cell_volume   711.08831262
_cell_formula_units_Z   4
loop_
 _symmetry_equiv_pos_site_id
 _symmetry_equiv_pos_as_xyz
  1  'x, y, z'
loop_
 _atom_site_type_symbol
 _atom_site_label
 _atom_site_symmetry_multiplicity
 _atom_site_fract_x
 _atom_site_fract_y
 _atom_site_fract_z
 _atom_site_occupancy
  K  K0  1  0.565340  0.934660  0.750000  1
  K  K1  1  0.934660  0.565340  0.250000  1
  K  K2  1  0.434660  0.065340  0.250000  1
  K  K3  1  0.065340  0.434660  0.750000  1
  K  K4  1  0.680298  0.319702  0.792949  1
  K  K5  1  0.819702  0.180298  0.292949  1
  K  K6  1  0.319702  0.680298  0.207051  1
  K  K7  1  0.180298  0.819702  0.707051  1
  Li  Li8  1  0.617132  0.617132  0.000000  1
  Li  Li9  1  0.882868  0.882868  0.500000  1
  Li  Li10  1  0.382868  0.382868  0.000000  1
  Li  Li11  1  0.117132  0.117132  0.500000  1
  Ho  Ho12  1  0.867644  0.867644  0.000000  1
  Ho  Ho13  1  0.632356  0.632356  0.500000  1
  Ho  Ho14  1  0.132356  0.132356  0.000000  1
  Ho  Ho15  1  0.367644  0.367644  0.500000  1
  As  As16  1  0.348947  0.151053  0.750000  1
  As  As17  1  0.151053  0.348947  0.250000  1
  As  As18  1  0.651053  0.848947  0.250000  1
  As  As19  1  0.848947  0.651053  0.750000  1
  As  As20  1  0.905679  0.094321  0.761776  1
  As  As21  1  0.594321  0.405679  0.261776  1
  As  As22  1  0.094321  0.905679  0.238224  1
  As  As23  1  0.405679  0.594321  0.738224  1
