# generated using pymatgen
data_NpMnI6
_symmetry_space_group_name_H-M   'P 1'
_cell_length_a   8.67881968
_cell_length_b   8.67882062
_cell_length_c   8.67882025
_cell_angle_alpha   50.74000751
_cell_angle_beta   50.74000236
_cell_angle_gamma   50.74000478
_symmetry_Int_Tables_number   1
_chemical_formula_structural   NpMnI6
_chemical_formula_sum   'Np1 Mn1 I6'
_cell_volume   361.27367001
_cell_formula_units_Z   1
loop_
 _symmetry_equiv_pos_site_id
 _symmetry_equiv_pos_as_xyz
  1  'x, y, z'
loop_
 _atom_site_type_symbol
 _atom_site_label
 _atom_site_symmetry_multiplicity
 _atom_site_fract_x
 _atom_site_fract_y
 _atom_site_fract_z
 _atom_site_occupancy
  Np  Np0  1  0.333518  0.333518  0.333518  1
  Mn  Mn1  1  0.666467  0.666467  0.666467  1
  I  I2  1  0.432057  0.730519  0.065656  1
  I  I3  1  0.730519  0.065656  0.432057  1
  I  I4  1  0.065656  0.432057  0.730519  1
  I  I5  1  0.577685  0.280012  0.914087  1
  I  I6  1  0.280012  0.914087  0.577685  1
  I  I7  1  0.914087  0.577685  0.280012  1
