# generated using pymatgen
data_La4DyIrOs
_symmetry_space_group_name_H-M   'P 1'
_cell_length_a   6.67096935
_cell_length_b   7.32547169
_cell_length_c   9.07583847
_cell_angle_alpha   95.27851958
_cell_angle_beta   111.56229385
_cell_angle_gamma   90.00000304
_symmetry_Int_Tables_number   1
_chemical_formula_structural   La4DyIrOs
_chemical_formula_sum   'La8 Dy2 Ir2 Os2'
_cell_volume   410.45696213
_cell_formula_units_Z   2
loop_
 _symmetry_equiv_pos_site_id
 _symmetry_equiv_pos_as_xyz
  1  'x, y, z'
loop_
 _atom_site_type_symbol
 _atom_site_label
 _atom_site_symmetry_multiplicity
 _atom_site_fract_x
 _atom_site_fract_y
 _atom_site_fract_z
 _atom_site_occupancy
  La  La0  1  0.798506  0.087760  0.819320  1
  La  La1  1  0.979186  0.412240  0.180680  1
  La  La2  1  0.195211  0.917361  0.181866  1
  La  La3  1  0.013346  0.582639  0.818134  1
  La  La4  1  0.215314  0.185400  0.571216  1
  La  La5  1  0.644099  0.314600  0.428784  1
  La  La6  1  0.784331  0.817260  0.423725  1
  La  La7  1  0.360605  0.682740  0.576275  1
  Dy  Dy8  1  0.436247  0.250000  0.000000  1
  Dy  Dy9  1  0.564573  0.750000  0.000000  1
  Ir  Ir10  1  0.399718  0.575339  0.212237  1
  Ir  Ir11  1  0.187481  0.924661  0.787763  1
  Os  Os12  1  0.602889  0.427316  0.784396  1
  Os  Os13  1  0.818493  0.072684  0.215604  1
