# generated using pymatgen
data_Gd12Cd11AgC4
_symmetry_space_group_name_H-M   'P 1'
_cell_length_a   9.65754950
_cell_length_b   9.65754988
_cell_length_c   9.65755000
_cell_angle_alpha   59.92924934
_cell_angle_beta   59.92924805
_cell_angle_gamma   59.92925413
_symmetry_Int_Tables_number   1
_chemical_formula_structural   Gd12Cd11AgC4
_chemical_formula_sum   'Gd12 Cd11 Ag1 C4'
_cell_volume   635.89932413
_cell_formula_units_Z   1
loop_
 _symmetry_equiv_pos_site_id
 _symmetry_equiv_pos_as_xyz
  1  'x, y, z'
loop_
 _atom_site_type_symbol
 _atom_site_label
 _atom_site_symmetry_multiplicity
 _atom_site_fract_x
 _atom_site_fract_y
 _atom_site_fract_z
 _atom_site_occupancy
  Gd  Gd0  1  0.440919  0.440919  0.058275  1
  Gd  Gd1  1  0.059639  0.440508  0.059639  1
  Gd  Gd2  1  0.440508  0.059639  0.059639  1
  Gd  Gd3  1  0.059639  0.059639  0.440508  1
  Gd  Gd4  1  0.440919  0.058275  0.440919  1
  Gd  Gd5  1  0.058275  0.440919  0.440919  1
  Gd  Gd6  1  0.809081  0.809081  0.191725  1
  Gd  Gd7  1  0.190361  0.809492  0.190361  1
  Gd  Gd8  1  0.809492  0.190361  0.190361  1
  Gd  Gd9  1  0.190361  0.190361  0.809492  1
  Gd  Gd10  1  0.809081  0.191725  0.809081  1
  Gd  Gd11  1  0.191725  0.809081  0.809081  1
  Cd  Cd12  1  0.830441  0.830441  0.505831  1
  Cd  Cd13  1  0.830441  0.505831  0.830441  1
  Cd  Cd14  1  0.505831  0.830441  0.830441  1
  Cd  Cd15  1  0.832940  0.832940  0.832940  1
  Cd  Cd16  1  0.419559  0.419559  0.744169  1
  Cd  Cd17  1  0.419559  0.744169  0.419559  1
  Cd  Cd18  1  0.744169  0.419559  0.419559  1
  Cd  Cd19  1  0.417060  0.417060  0.417060  1
  Cd  Cd20  1  0.625000  0.625000  0.125000  1
  Cd  Cd21  1  0.625000  0.125000  0.625000  1
  Cd  Cd22  1  0.125000  0.625000  0.625000  1
  Ag  Ag23  1  0.625000  0.625000  0.625000  1
  C  C24  1  0.125000  0.125000  0.625000  1
  C  C25  1  0.125000  0.625000  0.125000  1
  C  C26  1  0.625000  0.125000  0.125000  1
  C  C27  1  0.125000  0.125000  0.125000  1
