# generated using pymatgen
data_CeHo5Fe2
_symmetry_space_group_name_H-M   'P 1'
_cell_length_a   6.22352102
_cell_length_b   6.95626455
_cell_length_c   9.34453200
_cell_angle_alpha   90.00000000
_cell_angle_beta   90.00000000
_cell_angle_gamma   85.56840208
_symmetry_Int_Tables_number   1
_chemical_formula_structural   CeHo5Fe2
_chemical_formula_sum   'Ce2 Ho10 Fe4'
_cell_volume   403.33828503
_cell_formula_units_Z   2
loop_
 _symmetry_equiv_pos_site_id
 _symmetry_equiv_pos_as_xyz
  1  'x, y, z'
loop_
 _atom_site_type_symbol
 _atom_site_label
 _atom_site_symmetry_multiplicity
 _atom_site_fract_x
 _atom_site_fract_y
 _atom_site_fract_z
 _atom_site_occupancy
  Ce  Ce0  1  0.839015  0.933894  0.750000  1
  Ce  Ce1  1  0.160985  0.066106  0.250000  1
  Ho  Ho2  1  0.679881  0.171745  0.064859  1
  Ho  Ho3  1  0.364531  0.544570  0.250000  1
  Ho  Ho4  1  0.828288  0.670452  0.070891  1
  Ho  Ho5  1  0.171712  0.329548  0.929109  1
  Ho  Ho6  1  0.320119  0.828255  0.935141  1
  Ho  Ho7  1  0.635469  0.455430  0.750000  1
  Ho  Ho8  1  0.320119  0.828255  0.564859  1
  Ho  Ho9  1  0.171712  0.329548  0.570891  1
  Ho  Ho10  1  0.828288  0.670452  0.429109  1
  Ho  Ho11  1  0.679881  0.171745  0.435141  1
  Fe  Fe12  1  0.982386  0.353363  0.250000  1
  Fe  Fe13  1  0.506427  0.096921  0.750000  1
  Fe  Fe14  1  0.493573  0.903079  0.250000  1
  Fe  Fe15  1  0.017614  0.646637  0.750000  1
