# generated using pymatgen
data_Ho(Zr3Sn2)3
_symmetry_space_group_name_H-M   'P 1'
_cell_length_a   8.62717615
_cell_length_b   8.53985563
_cell_length_c   5.85431200
_cell_angle_alpha   90.00000000
_cell_angle_beta   90.00000000
_cell_angle_gamma   119.66575108
_symmetry_Int_Tables_number   1
_chemical_formula_structural   Ho(Zr3Sn2)3
_chemical_formula_sum   'Ho1 Zr9 Sn6'
_cell_volume   374.78190272
_cell_formula_units_Z   1
loop_
 _symmetry_equiv_pos_site_id
 _symmetry_equiv_pos_as_xyz
  1  'x, y, z'
loop_
 _atom_site_type_symbol
 _atom_site_label
 _atom_site_symmetry_multiplicity
 _atom_site_fract_x
 _atom_site_fract_y
 _atom_site_fract_z
 _atom_site_occupancy
  Ho  Ho0  1  0.000000  0.764263  0.250000  1
  Zr  Zr1  1  0.667380  0.332814  0.999303  1
  Zr  Zr2  1  0.332620  0.665435  0.999303  1
  Zr  Zr3  1  0.332620  0.665435  0.500697  1
  Zr  Zr4  1  0.667380  0.332814  0.500697  1
  Zr  Zr5  1  0.749807  0.749925  0.750000  1
  Zr  Zr6  1  0.250193  0.000118  0.750000  1
  Zr  Zr7  1  0.000000  0.241061  0.750000  1
  Zr  Zr8  1  0.249951  0.251080  0.250000  1
  Zr  Zr9  1  0.750049  0.001129  0.250000  1
  Sn  Sn10  1  0.390731  0.390115  0.750000  1
  Sn  Sn11  1  0.609269  0.999385  0.750000  1
  Sn  Sn12  1  0.000000  0.607191  0.750000  1
  Sn  Sn13  1  0.603812  0.606423  0.250000  1
  Sn  Sn14  1  0.396188  0.002611  0.250000  1
  Sn  Sn15  1  0.000000  0.390201  0.250000  1
