# generated using pymatgen
data_Lu2Al6Si3Os2Rh
_symmetry_space_group_name_H-M   'P 1'
_cell_length_a   7.44576103
_cell_length_b   7.42271576
_cell_length_c   9.32233894
_cell_angle_alpha   90.08691770
_cell_angle_beta   90.07989416
_cell_angle_gamma   120.06618473
_symmetry_Int_Tables_number   1
_chemical_formula_structural   Lu2Al6Si3Os2Rh
_chemical_formula_sum   'Lu4 Al12 Si6 Os4 Rh2'
_cell_volume   445.89804972
_cell_formula_units_Z   2
loop_
 _symmetry_equiv_pos_site_id
 _symmetry_equiv_pos_as_xyz
  1  'x, y, z'
loop_
 _atom_site_type_symbol
 _atom_site_label
 _atom_site_symmetry_multiplicity
 _atom_site_fract_x
 _atom_site_fract_y
 _atom_site_fract_z
 _atom_site_occupancy
  Lu  Lu0  1  0.999822  0.663474  0.252729  1
  Lu  Lu1  1  0.000178  0.336526  0.747271  1
  Lu  Lu2  1  0.674171  0.007637  0.256102  1
  Lu  Lu3  1  0.325829  0.992363  0.743898  1
  Al  Al4  1  0.126242  0.126444  0.250159  1
  Al  Al5  1  0.873758  0.873556  0.749841  1
  Al  Al6  1  0.661140  0.996005  0.927589  1
  Al  Al7  1  0.338860  0.003995  0.072411  1
  Al  Al8  1  0.336743  0.335407  0.561151  1
  Al  Al9  1  0.663257  0.664593  0.438849  1
  Al  Al10  1  0.663310  0.666893  0.060842  1
  Al  Al11  1  0.336690  0.333107  0.939158  1
  Al  Al12  1  0.339062  0.549998  0.249965  1
  Al  Al13  1  0.660938  0.450002  0.750035  1
  Al  Al14  1  0.548304  0.342143  0.250471  1
  Al  Al15  1  0.451696  0.657857  0.749529  1
  Si  Si16  1  0.002170  0.330019  0.068214  1
  Si  Si17  1  0.997830  0.669981  0.931786  1
  Si  Si18  1  0.990933  0.663446  0.572809  1
  Si  Si19  1  0.336584  0.007115  0.421897  1
  Si  Si20  1  0.009067  0.336554  0.427191  1
  Si  Si21  1  0.663416  0.992885  0.578103  1
  Os  Os22  1  0.689243  0.335500  0.002196  1
  Os  Os23  1  0.310757  0.664500  0.997804  1
  Os  Os24  1  0.317692  0.681551  0.500406  1
  Os  Os25  1  0.682308  0.318449  0.499594  1
  Rh  Rh26  1  0.000000  0.000000  0.000000  1
  Rh  Rh27  1  0.000000  0.000000  0.500000  1
