# generated using pymatgen
data_Dy6B14OsW
_symmetry_space_group_name_H-M   'P 1'
_cell_length_a   8.12145455
_cell_length_b   8.12145444
_cell_length_c   9.39743900
_cell_angle_alpha   90.00000000
_cell_angle_beta   90.00000000
_cell_angle_gamma   155.11153705
_symmetry_Int_Tables_number   1
_chemical_formula_structural   Dy6B14OsW
_chemical_formula_sum   'Dy6 B14 Os1 W1'
_cell_volume   260.86015115
_cell_formula_units_Z   1
loop_
 _symmetry_equiv_pos_site_id
 _symmetry_equiv_pos_as_xyz
  1  'x, y, z'
loop_
 _atom_site_type_symbol
 _atom_site_label
 _atom_site_symmetry_multiplicity
 _atom_site_fract_x
 _atom_site_fract_y
 _atom_site_fract_z
 _atom_site_occupancy
  Dy  Dy0  1  0.894097  0.105903  0.437528  1
  Dy  Dy1  1  0.107060  0.892940  0.558718  1
  Dy  Dy2  1  0.894097  0.105903  0.062472  1
  Dy  Dy3  1  0.107060  0.892940  0.941282  1
  Dy  Dy4  1  0.243384  0.756616  0.250000  1
  Dy  Dy5  1  0.755055  0.244945  0.750000  1
  B  B6  1  0.726527  0.273473  0.465470  1
  B  B7  1  0.272005  0.727995  0.532017  1
  B  B8  1  0.726527  0.273473  0.034530  1
  B  B9  1  0.272005  0.727995  0.967983  1
  B  B10  1  0.631873  0.368127  0.151179  1
  B  B11  1  0.365226  0.634774  0.852749  1
  B  B12  1  0.631873  0.368127  0.348821  1
  B  B13  1  0.365226  0.634774  0.647251  1
  B  B14  1  0.521296  0.478704  0.096532  1
  B  B15  1  0.480213  0.519787  0.909008  1
  B  B16  1  0.521296  0.478704  0.403468  1
  B  B17  1  0.480213  0.519787  0.590992  1
  B  B18  1  0.458381  0.541619  0.250000  1
  B  B19  1  0.544962  0.455038  0.750000  1
  Os  Os20  1  0.054260  0.945740  0.250000  1
  W  W21  1  0.947365  0.052635  0.750000  1
