# generated using pymatgen
data_Pr3PaAl16(GaIr3)2
_symmetry_space_group_name_H-M   'P 1'
_cell_length_a   7.63252687
_cell_length_b   7.61951252
_cell_length_c   9.56997500
_cell_angle_alpha   90.00000000
_cell_angle_beta   90.00000000
_cell_angle_gamma   119.53640831
_symmetry_Int_Tables_number   1
_chemical_formula_structural   Pr3PaAl16(GaIr3)2
_chemical_formula_sum   'Pr3 Pa1 Al16 Ga2 Ir6'
_cell_volume   484.22460757
_cell_formula_units_Z   1
loop_
 _symmetry_equiv_pos_site_id
 _symmetry_equiv_pos_as_xyz
  1  'x, y, z'
loop_
 _atom_site_type_symbol
 _atom_site_label
 _atom_site_symmetry_multiplicity
 _atom_site_fract_x
 _atom_site_fract_y
 _atom_site_fract_z
 _atom_site_occupancy
  Pr  Pr0  1  0.001783  0.326485  0.750000  1
  Pr  Pr1  1  0.671262  0.995486  0.250000  1
  Pr  Pr2  1  0.330936  0.007931  0.750000  1
  Pa  Pa3  1  0.996019  0.672182  0.250000  1
  Al  Al4  1  0.134019  0.131159  0.250000  1
  Al  Al5  1  0.002603  0.334749  0.075593  1
  Al  Al6  1  0.997501  0.664979  0.927834  1
  Al  Al7  1  0.997501  0.664979  0.572166  1
  Al  Al8  1  0.336998  0.003367  0.424573  1
  Al  Al9  1  0.002603  0.334749  0.424407  1
  Al  Al10  1  0.664560  0.996130  0.571858  1
  Al  Al11  1  0.664560  0.996130  0.928142  1
  Al  Al12  1  0.336998  0.003367  0.075427  1
  Al  Al13  1  0.333921  0.334609  0.545908  1
  Al  Al14  1  0.663793  0.664580  0.445879  1
  Al  Al15  1  0.663793  0.664580  0.054121  1
  Al  Al16  1  0.333921  0.334609  0.954092  1
  Al  Al17  1  0.336069  0.545142  0.250000  1
  Al  Al18  1  0.548094  0.345225  0.250000  1
  Al  Al19  1  0.451804  0.659501  0.750000  1
  Ga  Ga20  1  0.868859  0.868480  0.750000  1
  Ga  Ga21  1  0.659736  0.455473  0.750000  1
  Ir  Ir22  1  0.673944  0.331404  0.005596  1
  Ir  Ir23  1  0.327808  0.670878  0.002782  1
  Ir  Ir24  1  0.327808  0.670878  0.497218  1
  Ir  Ir25  1  0.673944  0.331404  0.494404  1
  Ir  Ir26  1  0.999581  0.995773  0.007283  1
  Ir  Ir27  1  0.999581  0.995773  0.492717  1
