# generated using pymatgen
data_EuNi(As4Ru)3
_symmetry_space_group_name_H-M   'P 1'
_cell_length_a   7.53076477
_cell_length_b   7.49052735
_cell_length_c   7.49052600
_cell_angle_alpha   109.36214062
_cell_angle_beta   109.58007840
_cell_angle_gamma   109.58007730
_symmetry_Int_Tables_number   1
_chemical_formula_structural   EuNi(As4Ru)3
_chemical_formula_sum   'Eu1 Ni1 As12 Ru3'
_cell_volume   324.83042997
_cell_formula_units_Z   1
loop_
 _symmetry_equiv_pos_site_id
 _symmetry_equiv_pos_as_xyz
  1  'x, y, z'
loop_
 _atom_site_type_symbol
 _atom_site_label
 _atom_site_symmetry_multiplicity
 _atom_site_fract_x
 _atom_site_fract_y
 _atom_site_fract_z
 _atom_site_occupancy
  Eu  Eu0  1  0.000000  0.000000  0.000000  1
  Ni  Ni1  1  0.500000  0.000000  0.000000  1
  As  As2  1  0.348579  0.197010  0.850769  1
  As  As3  1  0.651421  0.802990  0.149231  1
  As  As4  1  0.652720  0.501846  0.850124  1
  As  As5  1  0.347280  0.498154  0.149876  1
  As  As6  1  0.197406  0.850124  0.348278  1
  As  As7  1  0.802594  0.149876  0.651722  1
  As  As8  1  0.502189  0.850769  0.653759  1
  As  As9  1  0.497811  0.149231  0.346241  1
  As  As10  1  0.848430  0.346241  0.197010  1
  As  As11  1  0.151570  0.653759  0.802990  1
  As  As12  1  0.849126  0.651722  0.501846  1
  As  As13  1  0.150874  0.348278  0.498154  1
  Ru  Ru14  1  0.000000  0.000000  0.500000  1
  Ru  Ru15  1  0.000000  0.500000  0.000000  1
  Ru  Ru16  1  0.500000  0.500000  0.500000  1
