# generated using pymatgen
data_Rb8Mo6PbO24
_symmetry_space_group_name_H-M   'P 1'
_cell_length_a   10.95808379
_cell_length_b   10.95808352
_cell_length_c   8.12335475
_cell_angle_alpha   81.42495716
_cell_angle_beta   81.42495184
_cell_angle_gamma   124.00783392
_symmetry_Int_Tables_number   1
_chemical_formula_structural   Rb8Mo6PbO24
_chemical_formula_sum   'Rb8 Mo6 Pb1 O24'
_cell_volume   766.73213309
_cell_formula_units_Z   1
loop_
 _symmetry_equiv_pos_site_id
 _symmetry_equiv_pos_as_xyz
  1  'x, y, z'
loop_
 _atom_site_type_symbol
 _atom_site_label
 _atom_site_symmetry_multiplicity
 _atom_site_fract_x
 _atom_site_fract_y
 _atom_site_fract_z
 _atom_site_occupancy
  Rb  Rb0  1  0.210187  0.210187  0.354231  1
  Rb  Rb1  1  0.789813  0.789813  0.645769  1
  Rb  Rb2  1  0.663319  0.336681  0.500000  1
  Rb  Rb3  1  0.336681  0.663319  0.500000  1
  Rb  Rb4  1  0.865443  0.518480  0.893627  1
  Rb  Rb5  1  0.518480  0.865443  0.893627  1
  Rb  Rb6  1  0.134557  0.481520  0.106373  1
  Rb  Rb7  1  0.481520  0.134557  0.106373  1
  Mo  Mo8  1  0.944990  0.259935  0.707162  1
  Mo  Mo9  1  0.259935  0.944990  0.707162  1
  Mo  Mo10  1  0.055010  0.740065  0.292838  1
  Mo  Mo11  1  0.740065  0.055010  0.292838  1
  Mo  Mo12  1  0.389782  0.389782  0.792780  1
  Mo  Mo13  1  0.610218  0.610218  0.207220  1
  Pb  Pb14  1  0.000000  0.000000  0.000000  1
  O  O15  1  0.928870  0.082258  0.798527  1
  O  O16  1  0.082258  0.928870  0.798527  1
  O  O17  1  0.071130  0.917742  0.201473  1
  O  O18  1  0.917742  0.071130  0.201473  1
  O  O19  1  0.762731  0.224807  0.768074  1
  O  O20  1  0.224807  0.762731  0.768074  1
  O  O21  1  0.237269  0.775193  0.231926  1
  O  O22  1  0.775193  0.237269  0.231926  1
  O  O23  1  0.066835  0.409418  0.793297  1
  O  O24  1  0.409418  0.066835  0.793297  1
  O  O25  1  0.933165  0.590582  0.206703  1
  O  O26  1  0.590582  0.933165  0.206703  1
  O  O27  1  0.023602  0.323297  0.477037  1
  O  O28  1  0.323297  0.023602  0.477037  1
  O  O29  1  0.976398  0.676703  0.522963  1
  O  O30  1  0.676703  0.976398  0.522963  1
  O  O31  1  0.415440  0.564267  0.802564  1
  O  O32  1  0.564267  0.415440  0.802564  1
  O  O33  1  0.584560  0.435733  0.197436  1
  O  O34  1  0.435733  0.584560  0.197436  1
  O  O35  1  0.223196  0.223196  0.976913  1
  O  O36  1  0.776804  0.776804  0.023087  1
  O  O37  1  0.348959  0.348959  0.597096  1
  O  O38  1  0.651041  0.651041  0.402904  1
