# generated using pymatgen
data_Dy8ZnSi11Pt4
_symmetry_space_group_name_H-M   'P 1'
_cell_length_a   8.19250000
_cell_length_b   8.20599541
_cell_length_c   8.05165801
_cell_angle_alpha   89.99637717
_cell_angle_beta   90.00000000
_cell_angle_gamma   119.94561266
_symmetry_Int_Tables_number   1
_chemical_formula_structural   Dy8ZnSi11Pt4
_chemical_formula_sum   'Dy8 Zn1 Si11 Pt4'
_cell_volume   469.03086333
_cell_formula_units_Z   1
loop_
 _symmetry_equiv_pos_site_id
 _symmetry_equiv_pos_as_xyz
  1  'x, y, z'
loop_
 _atom_site_type_symbol
 _atom_site_label
 _atom_site_symmetry_multiplicity
 _atom_site_fract_x
 _atom_site_fract_y
 _atom_site_fract_z
 _atom_site_occupancy
  Dy  Dy0  1  0.997167  0.994335  0.251155  1
  Dy  Dy1  1  0.997331  0.994662  0.748563  1
  Dy  Dy2  1  0.004183  0.502452  0.246467  1
  Dy  Dy3  1  0.498269  0.502452  0.246467  1
  Dy  Dy4  1  0.502584  0.005167  0.751980  1
  Dy  Dy5  1  0.499520  0.999039  0.248011  1
  Dy  Dy6  1  0.501103  0.499142  0.753503  1
  Dy  Dy7  1  0.998039  0.499142  0.753503  1
  Zn  Zn8  1  0.162216  0.324433  0.999514  1
  Si  Si9  1  0.669628  0.836221  0.999563  1
  Si  Si10  1  0.164837  0.329673  0.500668  1
  Si  Si11  1  0.330597  0.164682  0.000492  1
  Si  Si12  1  0.166592  0.836221  0.999563  1
  Si  Si13  1  0.669213  0.835155  0.500352  1
  Si  Si14  1  0.834574  0.669148  0.000392  1
  Si  Si15  1  0.330578  0.164945  0.499423  1
  Si  Si16  1  0.165942  0.835155  0.500352  1
  Si  Si17  1  0.834822  0.669645  0.499646  1
  Si  Si18  1  0.834085  0.164682  0.000492  1
  Si  Si19  1  0.834367  0.164945  0.499423  1
  Pt  Pt20  1  0.337314  0.674630  0.995600  1
  Pt  Pt21  1  0.333020  0.666041  0.504278  1
  Pt  Pt22  1  0.667015  0.334029  0.004304  1
  Pt  Pt23  1  0.667002  0.334004  0.496290  1
