# generated using pymatgen
data_Li3NdSm2Pt3
_symmetry_space_group_name_H-M   'P 1'
_cell_length_a   7.30653800
_cell_length_b   7.31645869
_cell_length_c   4.13090000
_cell_angle_alpha   90.00000000
_cell_angle_beta   90.00000000
_cell_angle_gamma   120.04492139
_symmetry_Int_Tables_number   1
_chemical_formula_structural   Li3NdSm2Pt3
_chemical_formula_sum   'Li3 Nd1 Sm2 Pt3'
_cell_volume   191.15740273
_cell_formula_units_Z   1
loop_
 _symmetry_equiv_pos_site_id
 _symmetry_equiv_pos_as_xyz
  1  'x, y, z'
loop_
 _atom_site_type_symbol
 _atom_site_label
 _atom_site_symmetry_multiplicity
 _atom_site_fract_x
 _atom_site_fract_y
 _atom_site_fract_z
 _atom_site_occupancy
  Li  Li0  1  0.000000  0.230217  0.000000  1
  Li  Li1  1  0.231589  0.000680  0.000000  1
  Li  Li2  1  0.768411  0.769091  0.000000  1
  Nd  Nd3  1  0.000000  0.591359  0.500000  1
  Sm  Sm4  1  0.591366  0.999795  0.500000  1
  Sm  Sm5  1  0.408634  0.408428  0.500000  1
  Pt  Pt6  1  0.000000  0.003085  0.500000  1
  Pt  Pt7  1  0.662472  0.329909  0.000000  1
  Pt  Pt8  1  0.337528  0.667437  0.000000  1
