# generated using pymatgen
data_AcZn12Pd
_symmetry_space_group_name_H-M   'P 1'
_cell_length_a   8.71732085
_cell_length_b   8.75881658
_cell_length_c   8.69160424
_cell_angle_alpha   59.93869569
_cell_angle_beta   60.10796905
_cell_angle_gamma   59.64793177
_symmetry_Int_Tables_number   1
_chemical_formula_structural   AcZn12Pd
_chemical_formula_sum   'Ac2 Zn24 Pd2'
_cell_volume   468.16060591
_cell_formula_units_Z   2
loop_
 _symmetry_equiv_pos_site_id
 _symmetry_equiv_pos_as_xyz
  1  'x, y, z'
loop_
 _atom_site_type_symbol
 _atom_site_label
 _atom_site_symmetry_multiplicity
 _atom_site_fract_x
 _atom_site_fract_y
 _atom_site_fract_z
 _atom_site_occupancy
  Ac  Ac0  1  0.247393  0.252607  0.247393  1
  Ac  Ac1  1  0.752607  0.747393  0.752607  1
  Zn  Zn2  1  0.500000  0.500000  0.500000  1
  Zn  Zn3  1  0.000000  0.000000  0.000000  1
  Zn  Zn4  1  0.562276  0.796219  0.437724  1
  Zn  Zn5  1  0.437724  0.203781  0.562276  1
  Zn  Zn6  1  0.304339  0.941053  0.695661  1
  Zn  Zn7  1  0.695661  0.058947  0.304339  1
  Zn  Zn8  1  0.942252  0.303869  0.057748  1
  Zn  Zn9  1  0.057748  0.696131  0.942252  1
  Zn  Zn10  1  0.199514  0.798835  0.560006  1
  Zn  Zn11  1  0.800486  0.201165  0.439994  1
  Zn  Zn12  1  0.439994  0.558355  0.800486  1
  Zn  Zn13  1  0.560006  0.441645  0.199514  1
  Zn  Zn14  1  0.700745  0.296310  0.941989  1
  Zn  Zn15  1  0.299255  0.703690  0.058011  1
  Zn  Zn16  1  0.058011  0.939045  0.299255  1
  Zn  Zn17  1  0.941989  0.060955  0.700745  1
  Zn  Zn18  1  0.558107  0.197453  0.804312  1
  Zn  Zn19  1  0.441893  0.802547  0.195688  1
  Zn  Zn20  1  0.804312  0.440128  0.558107  1
  Zn  Zn21  1  0.195688  0.559872  0.441893  1
  Zn  Zn22  1  0.940291  0.701011  0.296077  1
  Zn  Zn23  1  0.059709  0.298989  0.703923  1
  Zn  Zn24  1  0.296077  0.062622  0.940291  1
  Zn  Zn25  1  0.703923  0.937378  0.059709  1
  Pd  Pd26  1  0.792570  0.559946  0.207430  1
  Pd  Pd27  1  0.207430  0.440054  0.792570  1
