# generated using pymatgen
data_DyHo7(Er3Pb4)4
_symmetry_space_group_name_H-M   'P 1'
_cell_length_a   8.16595802
_cell_length_b   8.23928300
_cell_length_c   15.55886604
_cell_angle_alpha   90.00385218
_cell_angle_beta   89.99289608
_cell_angle_gamma   89.99917587
_symmetry_Int_Tables_number   1
_chemical_formula_structural   DyHo7(Er3Pb4)4
_chemical_formula_sum   'Dy1 Ho7 Er12 Pb16'
_cell_volume   1046.82599908
_cell_formula_units_Z   1
loop_
 _symmetry_equiv_pos_site_id
 _symmetry_equiv_pos_as_xyz
  1  'x, y, z'
loop_
 _atom_site_type_symbol
 _atom_site_label
 _atom_site_symmetry_multiplicity
 _atom_site_fract_x
 _atom_site_fract_y
 _atom_site_fract_z
 _atom_site_occupancy
  Dy  Dy0  1  0.036465  0.176815  0.899947  1
  Ho  Ho1  1  0.536485  0.323212  0.899926  1
  Ho  Ho2  1  0.036484  0.176804  0.600082  1
  Ho  Ho3  1  0.463511  0.676799  0.399929  1
  Ho  Ho4  1  0.963516  0.823197  0.100079  1
  Ho  Ho5  1  0.463520  0.676812  0.100071  1
  Ho  Ho6  1  0.963511  0.823201  0.399927  1
  Ho  Ho7  1  0.536493  0.323204  0.600071  1
  Er  Er8  1  0.376490  0.841162  0.879155  1
  Er  Er9  1  0.876478  0.658816  0.620830  1
  Er  Er10  1  0.623535  0.158805  0.379156  1
  Er  Er11  1  0.123528  0.341205  0.120874  1
  Er  Er12  1  0.623536  0.158796  0.120851  1
  Er  Er13  1  0.123526  0.341191  0.379155  1
  Er  Er14  1  0.376488  0.841203  0.620838  1
  Er  Er15  1  0.876473  0.658825  0.879157  1
  Er  Er16  1  0.208272  0.504412  0.749978  1
  Er  Er17  1  0.708220  0.995574  0.749976  1
  Er  Er18  1  0.791747  0.495591  0.250016  1
  Er  Er19  1  0.291748  0.004406  0.250010  1
  Pb  Pb20  1  0.281498  0.033070  0.042864  1
  Pb  Pb21  1  0.781438  0.466900  0.457162  1
  Pb  Pb22  1  0.718545  0.966883  0.542838  1
  Pb  Pb23  1  0.218580  0.533139  0.957158  1
  Pb  Pb24  1  0.718482  0.966843  0.957179  1
  Pb  Pb25  1  0.218548  0.533091  0.542833  1
  Pb  Pb26  1  0.281470  0.033114  0.457158  1
  Pb  Pb27  1  0.781465  0.466900  0.042838  1
  Pb  Pb28  1  0.571073  0.627078  0.750006  1
  Pb  Pb29  1  0.071084  0.872903  0.749990  1
  Pb  Pb30  1  0.428911  0.372914  0.249994  1
  Pb  Pb31  1  0.928920  0.127075  0.249997  1
  Pb  Pb32  1  0.347474  0.153512  0.749994  1
  Pb  Pb33  1  0.847382  0.346551  0.749959  1
  Pb  Pb34  1  0.652557  0.846492  0.250002  1
  Pb  Pb35  1  0.152548  0.653506  0.249999  1
