# generated using pymatgen
data_LaTb(Eu2Ir)4
_symmetry_space_group_name_H-M   'P 1'
_cell_length_a   6.70467883
_cell_length_b   7.54603674
_cell_length_c   8.86628372
_cell_angle_alpha   96.71326877
_cell_angle_beta   112.21602200
_cell_angle_gamma   90.00000491
_symmetry_Int_Tables_number   1
_chemical_formula_structural   LaTb(Eu2Ir)4
_chemical_formula_sum   'La1 Tb1 Eu8 Ir4'
_cell_volume   411.95410968
_cell_formula_units_Z   1
loop_
 _symmetry_equiv_pos_site_id
 _symmetry_equiv_pos_as_xyz
  1  'x, y, z'
loop_
 _atom_site_type_symbol
 _atom_site_label
 _atom_site_symmetry_multiplicity
 _atom_site_fract_x
 _atom_site_fract_y
 _atom_site_fract_z
 _atom_site_occupancy
  La  La0  1  0.430288  0.750000  0.000000  1
  Tb  Tb1  1  0.564688  0.250000  0.000000  1
  Eu  Eu2  1  0.978191  0.922369  0.178796  1
  Eu  Eu3  1  0.799395  0.577631  0.821204  1
  Eu  Eu4  1  0.018512  0.083523  0.820418  1
  Eu  Eu5  1  0.198094  0.416477  0.179582  1
  Eu  Eu6  1  0.639784  0.816884  0.437758  1
  Eu  Eu7  1  0.202026  0.683116  0.562242  1
  Eu  Eu8  1  0.363686  0.183092  0.566712  1
  Eu  Eu9  1  0.796974  0.316908  0.433288  1
  Ir  Ir10  1  0.808564  0.571766  0.207572  1
  Ir  Ir11  1  0.600992  0.928234  0.792428  1
  Ir  Ir12  1  0.193990  0.423073  0.789175  1
  Ir  Ir13  1  0.404815  0.076927  0.210825  1
