# generated using pymatgen
data_Tm4Mn5Co4P12Ir11
_symmetry_space_group_name_H-M   'P 1'
_cell_length_a   3.82527300
_cell_length_b   10.72011648
_cell_length_c   12.29596458
_cell_angle_alpha   90.03479229
_cell_angle_beta   90.00000000
_cell_angle_gamma   90.00000000
_symmetry_Int_Tables_number   1
_chemical_formula_structural   Tm4Mn5Co4P12Ir11
_chemical_formula_sum   'Tm4 Mn5 Co4 P12 Ir11'
_cell_volume   504.22510237
_cell_formula_units_Z   1
loop_
 _symmetry_equiv_pos_site_id
 _symmetry_equiv_pos_as_xyz
  1  'x, y, z'
loop_
 _atom_site_type_symbol
 _atom_site_label
 _atom_site_symmetry_multiplicity
 _atom_site_fract_x
 _atom_site_fract_y
 _atom_site_fract_z
 _atom_site_occupancy
  Tm  Tm0  1  0.250000  0.582148  0.707988  1
  Tm  Tm1  1  0.250000  0.917452  0.209334  1
  Tm  Tm2  1  0.750000  0.415918  0.295072  1
  Tm  Tm3  1  0.750000  0.083910  0.790601  1
  Mn  Mn4  1  0.250000  0.714184  0.982895  1
  Mn  Mn5  1  0.250000  0.791348  0.481355  1
  Mn  Mn6  1  0.750000  0.286300  0.016900  1
  Mn  Mn7  1  0.750000  0.207543  0.514110  1
  Mn  Mn8  1  0.250000  0.405294  0.490106  1
  Co  Co9  1  0.250000  0.465092  0.935472  1
  Co  Co10  1  0.250000  0.038728  0.435694  1
  Co  Co11  1  0.750000  0.534117  0.064992  1
  Co  Co12  1  0.750000  0.963475  0.563965  1
  P  P13  1  0.250000  0.423257  0.106457  1
  P  P14  1  0.250000  0.075582  0.607424  1
  P  P15  1  0.750000  0.575802  0.894280  1
  P  P16  1  0.750000  0.925876  0.392200  1
  P  P17  1  0.250000  0.271562  0.872926  1
  P  P18  1  0.250000  0.238359  0.377804  1
  P  P19  1  0.750000  0.728675  0.126318  1
  P  P20  1  0.750000  0.768703  0.626516  1
  P  P21  1  0.250000  0.587196  0.391614  1
  P  P22  1  0.250000  0.899166  0.890247  1
  P  P23  1  0.750000  0.402050  0.605659  1
  P  P24  1  0.750000  0.101591  0.110084  1
  Ir  Ir25  1  0.250000  0.095718  0.980754  1
  Ir  Ir26  1  0.750000  0.594154  0.513893  1
  Ir  Ir27  1  0.750000  0.905253  0.018882  1
  Ir  Ir28  1  0.250000  0.232525  0.180881  1
  Ir  Ir29  1  0.250000  0.268321  0.678160  1
  Ir  Ir30  1  0.750000  0.767020  0.820017  1
  Ir  Ir31  1  0.750000  0.734474  0.318401  1
  Ir  Ir32  1  0.250000  0.887065  0.697611  1
  Ir  Ir33  1  0.250000  0.610065  0.199505  1
  Ir  Ir34  1  0.750000  0.112882  0.301811  1
  Ir  Ir35  1  0.750000  0.389193  0.800070  1
