# generated using pymatgen
data_Er3Ag(Rh2O7)2
_symmetry_space_group_name_H-M   'P 1'
_cell_length_a   7.26829561
_cell_length_b   7.26829525
_cell_length_c   7.10068285
_cell_angle_alpha   59.21602016
_cell_angle_beta   59.21602382
_cell_angle_gamma   60.00000203
_symmetry_Int_Tables_number   1
_chemical_formula_structural   Er3Ag(Rh2O7)2
_chemical_formula_sum   'Er3 Ag1 Rh4 O14'
_cell_volume   262.06016181
_cell_formula_units_Z   1
loop_
 _symmetry_equiv_pos_site_id
 _symmetry_equiv_pos_as_xyz
  1  'x, y, z'
loop_
 _atom_site_type_symbol
 _atom_site_label
 _atom_site_symmetry_multiplicity
 _atom_site_fract_x
 _atom_site_fract_y
 _atom_site_fract_z
 _atom_site_occupancy
  Er  Er0  1  0.625000  0.625000  0.625000  1
  Er  Er1  1  0.625000  0.125000  0.625000  1
  Er  Er2  1  0.125000  0.625000  0.625000  1
  Ag  Ag3  1  0.625000  0.625000  0.125000  1
  Rh  Rh4  1  0.625000  0.125000  0.125000  1
  Rh  Rh5  1  0.125000  0.125000  0.125000  1
  Rh  Rh6  1  0.125000  0.625000  0.125000  1
  Rh  Rh7  1  0.125000  0.125000  0.625000  1
  O  O8  1  0.035424  0.462168  0.466985  1
  O  O9  1  0.796349  0.796349  0.211623  1
  O  O10  1  0.796349  0.195681  0.211623  1
  O  O11  1  0.748021  0.748021  0.755935  1
  O  O12  1  0.054319  0.453651  0.038377  1
  O  O13  1  0.462168  0.035424  0.466985  1
  O  O14  1  0.035424  0.035424  0.466985  1
  O  O15  1  0.501979  0.501979  0.494065  1
  O  O16  1  0.214576  0.214576  0.783015  1
  O  O17  1  0.195681  0.796349  0.211623  1
  O  O18  1  0.787832  0.214576  0.783015  1
  O  O19  1  0.453651  0.054319  0.038377  1
  O  O20  1  0.453651  0.453651  0.038377  1
  O  O21  1  0.214576  0.787832  0.783015  1
