# generated using pymatgen
data_TbHoMoRu3
_symmetry_space_group_name_H-M   'P 1'
_cell_length_a   5.20859603
_cell_length_b   5.20859640
_cell_length_c   5.20859700
_cell_angle_alpha   64.88228289
_cell_angle_beta   64.88229313
_cell_angle_gamma   64.88229069
_symmetry_Int_Tables_number   1
_chemical_formula_structural   TbHoMoRu3
_chemical_formula_sum   'Tb1 Ho1 Mo1 Ru3'
_cell_volume   110.58256653
_cell_formula_units_Z   1
loop_
 _symmetry_equiv_pos_site_id
 _symmetry_equiv_pos_as_xyz
  1  'x, y, z'
loop_
 _atom_site_type_symbol
 _atom_site_label
 _atom_site_symmetry_multiplicity
 _atom_site_fract_x
 _atom_site_fract_y
 _atom_site_fract_z
 _atom_site_occupancy
  Tb  Tb0  1  0.872829  0.872829  0.872829  1
  Ho  Ho1  1  0.127598  0.127598  0.127598  1
  Mo  Mo2  1  0.500013  0.500013  0.500013  1
  Ru  Ru3  1  0.499660  0.000241  0.499660  1
  Ru  Ru4  1  0.000241  0.499660  0.499660  1
  Ru  Ru5  1  0.499660  0.499660  0.000241  1
