# generated using pymatgen
data_Y4LuPd15
_symmetry_space_group_name_H-M   'P 1'
_cell_length_a   4.11751500
_cell_length_b   4.11751500
_cell_length_c   20.75265500
_cell_angle_alpha   90.00000000
_cell_angle_beta   90.00000000
_cell_angle_gamma   90.00000000
_symmetry_Int_Tables_number   1
_chemical_formula_structural   Y4LuPd15
_chemical_formula_sum   'Y4 Lu1 Pd15'
_cell_volume   351.83905552
_cell_formula_units_Z   1
loop_
 _symmetry_equiv_pos_site_id
 _symmetry_equiv_pos_as_xyz
  1  'x, y, z'
loop_
 _atom_site_type_symbol
 _atom_site_label
 _atom_site_symmetry_multiplicity
 _atom_site_fract_x
 _atom_site_fract_y
 _atom_site_fract_z
 _atom_site_occupancy
  Y  Y0  1  0.000000  0.000000  0.198632  1
  Y  Y1  1  0.000000  0.000000  0.399980  1
  Y  Y2  1  0.000000  0.000000  0.600020  1
  Y  Y3  1  0.000000  0.000000  0.801368  1
  Lu  Lu4  1  0.000000  0.000000  0.000000  1
  Pd  Pd5  1  0.500000  0.500000  0.000000  1
  Pd  Pd6  1  0.500000  0.500000  0.199173  1
  Pd  Pd7  1  0.500000  0.500000  0.399778  1
  Pd  Pd8  1  0.500000  0.500000  0.600222  1
  Pd  Pd9  1  0.500000  0.500000  0.800827  1
  Pd  Pd10  1  0.500000  0.000000  0.097618  1
  Pd  Pd11  1  0.500000  0.000000  0.299559  1
  Pd  Pd12  1  0.500000  0.000000  0.500000  1
  Pd  Pd13  1  0.500000  0.000000  0.700441  1
  Pd  Pd14  1  0.500000  0.000000  0.902382  1
  Pd  Pd15  1  0.000000  0.500000  0.097618  1
  Pd  Pd16  1  0.000000  0.500000  0.299559  1
  Pd  Pd17  1  0.000000  0.500000  0.500000  1
  Pd  Pd18  1  0.000000  0.500000  0.700441  1
  Pd  Pd19  1  0.000000  0.500000  0.902382  1
