# generated using pymatgen
data_Ho9Sc(Pt2Rh)2
_symmetry_space_group_name_H-M   'P 1'
_cell_length_a   10.95898900
_cell_length_b   10.95898900
_cell_length_c   6.28272800
_cell_angle_alpha   90.00000000
_cell_angle_beta   90.00000000
_cell_angle_gamma   90.00000000
_symmetry_Int_Tables_number   1
_chemical_formula_structural   Ho9Sc(Pt2Rh)2
_chemical_formula_sum   'Ho18 Sc2 Pt8 Rh4'
_cell_volume   754.55211386
_cell_formula_units_Z   2
loop_
 _symmetry_equiv_pos_site_id
 _symmetry_equiv_pos_as_xyz
  1  'x, y, z'
loop_
 _atom_site_type_symbol
 _atom_site_label
 _atom_site_symmetry_multiplicity
 _atom_site_fract_x
 _atom_site_fract_y
 _atom_site_fract_z
 _atom_site_occupancy
  Ho  Ho0  1  0.289409  0.086534  0.375412  1
  Ho  Ho1  1  0.289409  0.913466  0.875412  1
  Ho  Ho2  1  0.710591  0.086534  0.875412  1
  Ho  Ho3  1  0.710591  0.913466  0.375412  1
  Ho  Ho4  1  0.588154  0.795061  0.872709  1
  Ho  Ho5  1  0.588154  0.204939  0.372709  1
  Ho  Ho6  1  0.411846  0.795061  0.372709  1
  Ho  Ho7  1  0.411846  0.204939  0.872709  1
  Ho  Ho8  1  0.204939  0.411846  0.627291  1
  Ho  Ho9  1  0.204939  0.588154  0.127291  1
  Ho  Ho10  1  0.795061  0.411846  0.127291  1
  Ho  Ho11  1  0.795061  0.588154  0.627291  1
  Ho  Ho12  1  0.913466  0.710591  0.124588  1
  Ho  Ho13  1  0.913466  0.289409  0.624588  1
  Ho  Ho14  1  0.086534  0.710591  0.624588  1
  Ho  Ho15  1  0.086534  0.289409  0.124588  1
  Ho  Ho16  1  0.500000  0.500000  0.000000  1
  Ho  Ho17  1  0.500000  0.500000  0.500000  1
  Sc  Sc18  1  0.000000  0.000000  0.500000  1
  Sc  Sc19  1  0.000000  0.000000  0.000000  1
  Pt  Pt20  1  0.852300  0.147700  0.250000  1
  Pt  Pt21  1  0.852300  0.852300  0.750000  1
  Pt  Pt22  1  0.147700  0.147700  0.750000  1
  Pt  Pt23  1  0.147700  0.852300  0.250000  1
  Pt  Pt24  1  0.655373  0.344627  0.750000  1
  Pt  Pt25  1  0.655373  0.655373  0.250000  1
  Pt  Pt26  1  0.344627  0.344627  0.250000  1
  Pt  Pt27  1  0.344627  0.655373  0.750000  1
  Rh  Rh28  1  0.500000  0.000000  0.119072  1
  Rh  Rh29  1  0.500000  0.000000  0.619072  1
  Rh  Rh30  1  0.000000  0.500000  0.880928  1
  Rh  Rh31  1  0.000000  0.500000  0.380928  1
