# generated using pymatgen
data_Li2PrNd7(Sc5Si8)2
_symmetry_space_group_name_H-M   'P 1'
_cell_length_a   7.15798604
_cell_length_b   7.54826121
_cell_length_c   14.25476731
_cell_angle_alpha   90.02388084
_cell_angle_beta   90.00110027
_cell_angle_gamma   89.98726784
_symmetry_Int_Tables_number   1
_chemical_formula_structural   Li2PrNd7(Sc5Si8)2
_chemical_formula_sum   'Li2 Pr1 Nd7 Sc10 Si16'
_cell_volume   770.18995815
_cell_formula_units_Z   1
loop_
 _symmetry_equiv_pos_site_id
 _symmetry_equiv_pos_as_xyz
  1  'x, y, z'
loop_
 _atom_site_type_symbol
 _atom_site_label
 _atom_site_symmetry_multiplicity
 _atom_site_fract_x
 _atom_site_fract_y
 _atom_site_fract_z
 _atom_site_occupancy
  Li  Li0  1  0.654554  0.003852  0.749995  1
  Li  Li1  1  0.845391  0.504001  0.250064  1
  Pr  Pr2  1  0.009741  0.181276  0.099580  1
  Nd  Nd3  1  0.009901  0.181626  0.400175  1
  Nd  Nd4  1  0.518999  0.328513  0.398817  1
  Nd  Nd5  1  0.490127  0.681631  0.900103  1
  Nd  Nd6  1  0.490098  0.681624  0.599802  1
  Nd  Nd7  1  0.981030  0.828479  0.601266  1
  Nd  Nd8  1  0.981010  0.828509  0.898621  1
  Nd  Nd9  1  0.518957  0.328595  0.101195  1
  Sc  Sc10  1  0.334780  0.173304  0.625056  1
  Sc  Sc11  1  0.673866  0.814791  0.374379  1
  Sc  Sc12  1  0.165233  0.673379  0.374996  1
  Sc  Sc13  1  0.825931  0.314866  0.874269  1
  Sc  Sc14  1  0.826092  0.314798  0.625710  1
  Sc  Sc15  1  0.340728  0.996690  0.250152  1
  Sc  Sc16  1  0.334938  0.173305  0.874898  1
  Sc  Sc17  1  0.165246  0.673304  0.125082  1
  Sc  Sc18  1  0.673860  0.814671  0.125678  1
  Sc  Sc19  1  0.159471  0.496929  0.749984  1
  Si  Si20  1  0.280874  0.884950  0.750000  1
  Si  Si21  1  0.459811  0.622636  0.250034  1
  Si  Si22  1  0.040191  0.122554  0.749982  1
  Si  Si23  1  0.531182  0.384522  0.749998  1
  Si  Si24  1  0.153677  0.465571  0.540759  1
  Si  Si25  1  0.968669  0.884057  0.250217  1
  Si  Si26  1  0.709772  0.100257  0.250296  1
  Si  Si27  1  0.847876  0.540127  0.031549  1
  Si  Si28  1  0.346984  0.965226  0.040621  1
  Si  Si29  1  0.153806  0.466060  0.959054  1
  Si  Si30  1  0.651950  0.039481  0.531729  1
  Si  Si31  1  0.346331  0.965595  0.459256  1
  Si  Si32  1  0.848041  0.539483  0.468275  1
  Si  Si33  1  0.789783  0.600588  0.749982  1
  Si  Si34  1  0.219467  0.385369  0.250247  1
  Si  Si35  1  0.651632  0.039379  0.968179  1
