# generated using pymatgen
data_NdBiAuO5
_symmetry_space_group_name_H-M   'P 1'
_cell_length_a   8.73052700
_cell_length_b   8.73052700
_cell_length_c   5.90033500
_cell_angle_alpha   90.00000000
_cell_angle_beta   90.00000000
_cell_angle_gamma   90.00000000
_symmetry_Int_Tables_number   1
_chemical_formula_structural   NdBiAuO5
_chemical_formula_sum   'Nd4 Bi4 Au4 O20'
_cell_volume   449.73593442
_cell_formula_units_Z   4
loop_
 _symmetry_equiv_pos_site_id
 _symmetry_equiv_pos_as_xyz
  1  'x, y, z'
loop_
 _atom_site_type_symbol
 _atom_site_label
 _atom_site_symmetry_multiplicity
 _atom_site_fract_x
 _atom_site_fract_y
 _atom_site_fract_z
 _atom_site_occupancy
  Nd  Nd0  1  0.598148  0.098148  0.250000  1
  Nd  Nd1  1  0.901852  0.401853  0.250000  1
  Nd  Nd2  1  0.401853  0.598148  0.250000  1
  Nd  Nd3  1  0.098148  0.901852  0.250000  1
  Bi  Bi4  1  0.894874  0.105126  0.750000  1
  Bi  Bi5  1  0.605126  0.394875  0.750000  1
  Bi  Bi6  1  0.105126  0.605126  0.750000  1
  Bi  Bi7  1  0.394875  0.894874  0.750000  1
  Au  Au8  1  0.250000  0.250000  0.090732  1
  Au  Au9  1  0.750000  0.750000  0.409268  1
  Au  Au10  1  0.250000  0.250000  0.598432  1
  Au  Au11  1  0.750000  0.750000  0.901568  1
  O  O12  1  0.750000  0.250000  0.988459  1
  O  O13  1  0.250000  0.750000  0.988459  1
  O  O14  1  0.339577  0.035075  0.102042  1
  O  O15  1  0.035075  0.160423  0.102042  1
  O  O16  1  0.464925  0.339577  0.102042  1
  O  O17  1  0.160423  0.464925  0.102042  1
  O  O18  1  0.660423  0.535076  0.397958  1
  O  O19  1  0.964925  0.660423  0.397958  1
  O  O20  1  0.535076  0.839577  0.397958  1
  O  O21  1  0.839577  0.964925  0.397958  1
  O  O22  1  0.750000  0.250000  0.511541  1
  O  O23  1  0.250000  0.750000  0.511541  1
  O  O24  1  0.167928  0.036477  0.612578  1
  O  O25  1  0.463523  0.167928  0.612578  1
  O  O26  1  0.036477  0.332072  0.612578  1
  O  O27  1  0.332072  0.463523  0.612578  1
  O  O28  1  0.832072  0.536478  0.887422  1
  O  O29  1  0.536478  0.667928  0.887422  1
  O  O30  1  0.963523  0.832072  0.887422  1
  O  O31  1  0.667928  0.963523  0.887422  1
