# generated using pymatgen
data_Ca2LuZn3(GaNi)6
_symmetry_space_group_name_H-M   'P 1'
_cell_length_a   8.88327300
_cell_length_b   8.88327354
_cell_length_c   4.19411800
_cell_angle_alpha   90.00000000
_cell_angle_beta   90.00000000
_cell_angle_gamma   119.99999426
_symmetry_Int_Tables_number   1
_chemical_formula_structural   Ca2LuZn3(GaNi)6
_chemical_formula_sum   'Ca2 Lu1 Zn3 Ga6 Ni6'
_cell_volume   286.62716379
_cell_formula_units_Z   1
loop_
 _symmetry_equiv_pos_site_id
 _symmetry_equiv_pos_as_xyz
  1  'x, y, z'
loop_
 _atom_site_type_symbol
 _atom_site_label
 _atom_site_symmetry_multiplicity
 _atom_site_fract_x
 _atom_site_fract_y
 _atom_site_fract_z
 _atom_site_occupancy
  Ca  Ca0  1  0.666667  0.333333  0.500000  1
  Ca  Ca1  1  0.333333  0.666667  0.500000  1
  Lu  Lu2  1  0.000000  0.000000  0.000000  1
  Zn  Zn3  1  0.289243  0.289243  0.500000  1
  Zn  Zn4  1  0.710757  0.000000  0.500000  1
  Zn  Zn5  1  0.000000  0.710757  0.500000  1
  Ga  Ga6  1  0.492898  0.492898  0.000000  1
  Ga  Ga7  1  0.507102  0.000000  0.000000  1
  Ga  Ga8  1  0.000000  0.507102  0.000000  1
  Ga  Ga9  1  0.712481  0.712481  0.500000  1
  Ga  Ga10  1  0.287519  0.000000  0.500000  1
  Ga  Ga11  1  0.000000  0.287519  0.500000  1
  Ni  Ni12  1  0.825104  0.186106  0.000000  1
  Ni  Ni13  1  0.813894  0.638998  0.000000  1
  Ni  Ni14  1  0.361002  0.174896  0.000000  1
  Ni  Ni15  1  0.186106  0.825104  0.000000  1
  Ni  Ni16  1  0.638998  0.813894  0.000000  1
  Ni  Ni17  1  0.174896  0.361002  0.000000  1
