# generated using pymatgen
data_Er2Tm2Ga4Ir3Pt
_symmetry_space_group_name_H-M   'P 1'
_cell_length_a   4.34089300
_cell_length_b   6.75098263
_cell_length_c   7.74631304
_cell_angle_alpha   89.73270903
_cell_angle_beta   90.00000000
_cell_angle_gamma   90.00000000
_symmetry_Int_Tables_number   1
_chemical_formula_structural   Er2Tm2Ga4Ir3Pt
_chemical_formula_sum   'Er2 Tm2 Ga4 Ir3 Pt1'
_cell_volume   227.00550476
_cell_formula_units_Z   1
loop_
 _symmetry_equiv_pos_site_id
 _symmetry_equiv_pos_as_xyz
  1  'x, y, z'
loop_
 _atom_site_type_symbol
 _atom_site_label
 _atom_site_symmetry_multiplicity
 _atom_site_fract_x
 _atom_site_fract_y
 _atom_site_fract_z
 _atom_site_occupancy
  Er  Er0  1  0.250000  0.972922  0.310257  1
  Er  Er1  1  0.750000  0.021141  0.692519  1
  Tm  Tm2  1  0.250000  0.478335  0.186052  1
  Tm  Tm3  1  0.750000  0.522260  0.811942  1
  Ga  Ga4  1  0.250000  0.345865  0.570186  1
  Ga  Ga5  1  0.250000  0.842958  0.930673  1
  Ga  Ga6  1  0.750000  0.660353  0.431411  1
  Ga  Ga7  1  0.750000  0.154935  0.066773  1
  Ir  Ir8  1  0.250000  0.234663  0.889775  1
  Ir  Ir9  1  0.250000  0.734364  0.610531  1
  Ir  Ir10  1  0.750000  0.765000  0.110642  1
  Pt  Pt11  1  0.750000  0.267205  0.389239  1
