# generated using pymatgen
data_CaNd6RhI12
_symmetry_space_group_name_H-M   'P 1'
_cell_length_a   10.06597645
_cell_length_b   10.06597658
_cell_length_c   10.06597749
_cell_angle_alpha   107.17019674
_cell_angle_beta   107.17020177
_cell_angle_gamma   107.17020407
_symmetry_Int_Tables_number   1
_chemical_formula_structural   CaNd6RhI12
_chemical_formula_sum   'Ca1 Nd6 Rh1 I12'
_cell_volume   845.42772719
_cell_formula_units_Z   1
loop_
 _symmetry_equiv_pos_site_id
 _symmetry_equiv_pos_as_xyz
  1  'x, y, z'
loop_
 _atom_site_type_symbol
 _atom_site_label
 _atom_site_symmetry_multiplicity
 _atom_site_fract_x
 _atom_site_fract_y
 _atom_site_fract_z
 _atom_site_occupancy
  Ca  Ca0  1  0.500000  0.500000  0.500000  1
  Nd  Nd1  1  0.900698  0.975135  0.696081  1
  Nd  Nd2  1  0.975135  0.696081  0.900698  1
  Nd  Nd3  1  0.696081  0.900698  0.975135  1
  Nd  Nd4  1  0.099302  0.024865  0.303919  1
  Nd  Nd5  1  0.024865  0.303919  0.099302  1
  Nd  Nd6  1  0.303919  0.099302  0.024865  1
  Rh  Rh7  1  0.000000  0.000000  0.000000  1
  I  I8  1  0.538182  0.840582  0.616817  1
  I  I9  1  0.840582  0.616817  0.538182  1
  I  I10  1  0.616817  0.538182  0.840582  1
  I  I11  1  0.461818  0.159418  0.383183  1
  I  I12  1  0.159418  0.383183  0.461818  1
  I  I13  1  0.383183  0.461818  0.159418  1
  I  I14  1  0.679547  0.224329  0.070701  1
  I  I15  1  0.224329  0.070701  0.679547  1
  I  I16  1  0.070701  0.679547  0.224329  1
  I  I17  1  0.320453  0.775671  0.929299  1
  I  I18  1  0.775671  0.929299  0.320453  1
  I  I19  1  0.929299  0.320453  0.775671  1
