# generated using pymatgen
data_Ca10Pt3Au
_symmetry_space_group_name_H-M   'P 1'
_cell_length_a   8.83496556
_cell_length_b   8.83077694
_cell_length_c   7.73216987
_cell_angle_alpha   82.71863396
_cell_angle_beta   82.94561227
_cell_angle_gamma   44.88254587
_symmetry_Int_Tables_number   1
_chemical_formula_structural   Ca10Pt3Au
_chemical_formula_sum   'Ca10 Pt3 Au1'
_cell_volume   421.79183161
_cell_formula_units_Z   1
loop_
 _symmetry_equiv_pos_site_id
 _symmetry_equiv_pos_as_xyz
  1  'x, y, z'
loop_
 _atom_site_type_symbol
 _atom_site_label
 _atom_site_symmetry_multiplicity
 _atom_site_fract_x
 _atom_site_fract_y
 _atom_site_fract_z
 _atom_site_occupancy
  Ca  Ca0  1  0.358658  0.201414  0.813007  1
  Ca  Ca1  1  0.796484  0.638531  0.681155  1
  Ca  Ca2  1  0.637417  0.792682  0.181163  1
  Ca  Ca3  1  0.193937  0.367459  0.324223  1
  Ca  Ca4  1  0.421094  0.581682  0.253686  1
  Ca  Ca5  1  0.575164  0.429462  0.742711  1
  Ca  Ca6  1  0.805885  0.015475  0.426396  1
  Ca  Ca7  1  0.985626  0.197951  0.082141  1
  Ca  Ca8  1  0.197500  0.983308  0.582952  1
  Ca  Ca9  1  0.027903  0.793113  0.915179  1
  Pt  Pt10  1  0.180087  0.597338  0.583312  1
  Pt  Pt11  1  0.400357  0.821414  0.916583  1
  Pt  Pt12  1  0.822704  0.398677  0.416238  1
  Au  Au13  1  0.597185  0.181493  0.081252  1
