# generated using pymatgen
data_TbY5Ho10(CdPt)4
_symmetry_space_group_name_H-M   'P 1'
_cell_length_a   9.67381205
_cell_length_b   9.68169330
_cell_length_c   9.68169378
_cell_angle_alpha   59.95360119
_cell_angle_beta   60.02692087
_cell_angle_gamma   60.02692627
_symmetry_Int_Tables_number   1
_chemical_formula_structural   TbY5Ho10(CdPt)4
_chemical_formula_sum   'Tb1 Y5 Ho10 Cd4 Pt4'
_cell_volume   641.22328164
_cell_formula_units_Z   1
loop_
 _symmetry_equiv_pos_site_id
 _symmetry_equiv_pos_as_xyz
  1  'x, y, z'
loop_
 _atom_site_type_symbol
 _atom_site_label
 _atom_site_symmetry_multiplicity
 _atom_site_fract_x
 _atom_site_fract_y
 _atom_site_fract_z
 _atom_site_occupancy
  Tb  Tb0  1  0.935809  0.564191  0.564191  1
  Y  Y1  1  0.564200  0.935800  0.935800  1
  Y  Y2  1  0.564247  0.935785  0.564199  1
  Y  Y3  1  0.935769  0.564199  0.935785  1
  Y  Y4  1  0.564247  0.564199  0.935785  1
  Y  Y5  1  0.935769  0.935785  0.564199  1
  Ho  Ho6  1  0.352162  0.352270  0.352270  1
  Ho  Ho7  1  0.352216  0.352221  0.943347  1
  Ho  Ho8  1  0.352216  0.943347  0.352221  1
  Ho  Ho9  1  0.943299  0.352270  0.352270  1
  Ho  Ho10  1  0.810694  0.189306  0.189306  1
  Ho  Ho11  1  0.189328  0.810672  0.810672  1
  Ho  Ho12  1  0.189149  0.810826  0.189175  1
  Ho  Ho13  1  0.810850  0.189175  0.810826  1
  Ho  Ho14  1  0.189149  0.189175  0.810826  1
  Ho  Ho15  1  0.810850  0.810826  0.189175  1
  Cd  Cd16  1  0.581661  0.581911  0.581911  1
  Cd  Cd17  1  0.581892  0.581721  0.254493  1
  Cd  Cd18  1  0.581892  0.254493  0.581721  1
  Cd  Cd19  1  0.254516  0.581911  0.581911  1
  Pt  Pt20  1  0.143421  0.143207  0.143207  1
  Pt  Pt21  1  0.143249  0.143347  0.570157  1
  Pt  Pt22  1  0.143249  0.570157  0.143347  1
  Pt  Pt23  1  0.570166  0.143207  0.143207  1
