# generated using pymatgen
data_Sr2(RuO3)3
_symmetry_space_group_name_H-M   'P 1'
_cell_length_a   8.01266276
_cell_length_b   8.01292472
_cell_length_c   8.01184020
_cell_angle_alpha   109.48997038
_cell_angle_beta   109.44669272
_cell_angle_gamma   109.48874459
_symmetry_Int_Tables_number   1
_chemical_formula_structural   Sr2(RuO3)3
_chemical_formula_sum   'Sr4 Ru6 O18'
_cell_volume   395.92714987
_cell_formula_units_Z   2
loop_
 _symmetry_equiv_pos_site_id
 _symmetry_equiv_pos_as_xyz
  1  'x, y, z'
loop_
 _atom_site_type_symbol
 _atom_site_label
 _atom_site_symmetry_multiplicity
 _atom_site_fract_x
 _atom_site_fract_y
 _atom_site_fract_z
 _atom_site_occupancy
  Sr  Sr0  1  0.000004  0.999852  0.406112  1
  Sr  Sr1  1  0.999891  0.406225  0.000131  1
  Sr  Sr2  1  0.593871  0.593841  0.593836  1
  Sr  Sr3  1  0.406137  0.999970  0.999859  1
  Ru  Ru4  1  0.365863  0.499995  0.865860  1
  Ru  Ru5  1  0.865891  0.365854  0.500027  1
  Ru  Ru6  1  0.500029  0.134205  0.634179  1
  Ru  Ru7  1  0.134229  0.634195  0.500049  1
  Ru  Ru8  1  0.500003  0.865839  0.365818  1
  Ru  Ru9  1  0.634157  0.500020  0.134176  1
  O  O10  1  0.332953  0.999932  0.332898  1
  O  O11  1  0.332795  0.332910  0.999852  1
  O  O12  1  0.999968  0.666889  0.667019  1
  O  O13  1  0.667042  0.667153  0.999912  1
  O  O14  1  0.999911  0.332976  0.333074  1
  O  O15  1  0.667024  0.000022  0.667016  1
  O  O16  1  0.364111  0.300119  0.637706  1
  O  O17  1  0.063956  0.337539  0.699841  1
  O  O18  1  0.726636  0.362439  0.662444  1
  O  O19  1  0.362433  0.662475  0.726550  1
  O  O20  1  0.273417  0.935951  0.635910  1
  O  O21  1  0.637550  0.364042  0.300162  1
  O  O22  1  0.300108  0.637545  0.364097  1
  O  O23  1  0.699958  0.064112  0.337558  1
  O  O24  1  0.936036  0.635952  0.273399  1
  O  O25  1  0.662523  0.726542  0.362417  1
  O  O26  1  0.635903  0.273532  0.936089  1
  O  O27  1  0.337603  0.699871  0.064008  1
