# generated using pymatgen
data_Tm4Tc3PtF28
_symmetry_space_group_name_H-M   'P 1'
_cell_length_a   5.52425778
_cell_length_b   8.80750503
_cell_length_c   11.90199123
_cell_angle_alpha   62.59293010
_cell_angle_beta   90.03707559
_cell_angle_gamma   90.03229642
_symmetry_Int_Tables_number   1
_chemical_formula_structural   Tm4Tc3PtF28
_chemical_formula_sum   'Tm4 Tc3 Pt1 F28'
_cell_volume   514.09246236
_cell_formula_units_Z   1
loop_
 _symmetry_equiv_pos_site_id
 _symmetry_equiv_pos_as_xyz
  1  'x, y, z'
loop_
 _atom_site_type_symbol
 _atom_site_label
 _atom_site_symmetry_multiplicity
 _atom_site_fract_x
 _atom_site_fract_y
 _atom_site_fract_z
 _atom_site_occupancy
  Tm  Tm0  1  0.259488  0.815790  0.264101  1
  Tm  Tm1  1  0.741404  0.185556  0.735255  1
  Tm  Tm2  1  0.759203  0.184721  0.235668  1
  Tm  Tm3  1  0.239990  0.816193  0.762902  1
  Tc  Tc4  1  0.758608  0.726835  0.042757  1
  Tc  Tc5  1  0.241683  0.273987  0.956516  1
  Tc  Tc6  1  0.258467  0.273776  0.456757  1
  Pt  Pt7  1  0.740092  0.727478  0.542927  1
  F  F8  1  0.938283  0.703675  0.414699  1
  F  F9  1  0.055150  0.292062  0.584263  1
  F  F10  1  0.445401  0.292446  0.084152  1
  F  F11  1  0.554093  0.708023  0.915648  1
  F  F12  1  0.472488  0.729809  0.139613  1
  F  F13  1  0.528105  0.270410  0.860326  1
  F  F14  1  0.971771  0.270535  0.360227  1
  F  F15  1  0.033232  0.726198  0.637353  1
  F  F16  1  0.957941  0.745825  0.173411  1
  F  F17  1  0.043489  0.254406  0.825999  1
  F  F18  1  0.457329  0.254552  0.326197  1
  F  F19  1  0.547577  0.743939  0.676467  1
  F  F20  1  0.773089  0.476691  0.141367  1
  F  F21  1  0.227019  0.524079  0.858012  1
  F  F22  1  0.272061  0.524031  0.358460  1
  F  F23  1  0.727304  0.476677  0.642616  1
  F  F24  1  0.943424  0.277414  0.046890  1
  F  F25  1  0.056493  0.723292  0.952223  1
  F  F26  1  0.439071  0.721315  0.455452  1
  F  F27  1  0.556692  0.277627  0.546797  1
  F  F28  1  0.741728  0.978273  0.448459  1
  F  F29  1  0.258843  0.024457  0.554019  1
  F  F30  1  0.241380  0.024647  0.054287  1
  F  F31  1  0.759117  0.976047  0.945486  1
  F  F32  1  0.582477  0.970196  0.232639  1
  F  F33  1  0.417920  0.029202  0.767904  1
  F  F34  1  0.082072  0.028907  0.268568  1
  F  F35  1  0.917520  0.970930  0.731586  1
