# generated using pymatgen
data_Rb4DyEr11S20
_symmetry_space_group_name_H-M   'P 1'
_cell_length_a   3.95864400
_cell_length_b   11.74735019
_cell_length_c   21.16029000
_cell_angle_alpha   90.01039360
_cell_angle_beta   90.00000000
_cell_angle_gamma   90.00000000
_symmetry_Int_Tables_number   1
_chemical_formula_structural   Rb4DyEr11S20
_chemical_formula_sum   'Rb4 Dy1 Er11 S20'
_cell_volume   984.02916675
_cell_formula_units_Z   1
loop_
 _symmetry_equiv_pos_site_id
 _symmetry_equiv_pos_as_xyz
  1  'x, y, z'
loop_
 _atom_site_type_symbol
 _atom_site_label
 _atom_site_symmetry_multiplicity
 _atom_site_fract_x
 _atom_site_fract_y
 _atom_site_fract_z
 _atom_site_occupancy
  Rb  Rb0  1  0.250000  0.847992  0.096471  1
  Rb  Rb1  1  0.750000  0.152125  0.903410  1
  Rb  Rb2  1  0.750000  0.348245  0.403415  1
  Rb  Rb3  1  0.250000  0.652188  0.596530  1
  Dy  Dy4  1  0.750000  0.111913  0.551740  1
  Er  Er5  1  0.750000  0.804005  0.828406  1
  Er  Er6  1  0.250000  0.195962  0.171588  1
  Er  Er7  1  0.250000  0.304336  0.671825  1
  Er  Er8  1  0.750000  0.695959  0.328362  1
  Er  Er9  1  0.250000  0.961042  0.698493  1
  Er  Er10  1  0.750000  0.038710  0.301414  1
  Er  Er11  1  0.750000  0.461205  0.801710  1
  Er  Er12  1  0.250000  0.538817  0.198317  1
  Er  Er13  1  0.750000  0.388386  0.051886  1
  Er  Er14  1  0.250000  0.611621  0.948113  1
  Er  Er15  1  0.250000  0.887841  0.447908  1
  S  S16  1  0.250000  0.949804  0.569591  1
  S  S17  1  0.750000  0.047397  0.429783  1
  S  S18  1  0.750000  0.451931  0.930562  1
  S  S19  1  0.250000  0.548056  0.069444  1
  S  S20  1  0.750000  0.766668  0.954468  1
  S  S21  1  0.250000  0.233334  0.045540  1
  S  S22  1  0.250000  0.269388  0.545582  1
  S  S23  1  0.750000  0.733218  0.454446  1
  S  S24  1  0.250000  0.955572  0.826240  1
  S  S25  1  0.750000  0.044373  0.173706  1
  S  S26  1  0.750000  0.455662  0.673875  1
  S  S27  1  0.250000  0.544400  0.326195  1
  S  S28  1  0.750000  0.131074  0.682370  1
  S  S29  1  0.250000  0.868832  0.318512  1
  S  S30  1  0.250000  0.630976  0.818567  1
  S  S31  1  0.750000  0.369003  0.181429  1
  S  S32  1  0.750000  0.688460  0.201149  1
  S  S33  1  0.250000  0.311582  0.798903  1
  S  S34  1  0.250000  0.188463  0.298842  1
  S  S35  1  0.750000  0.811459  0.701206  1
