# generated using pymatgen
data_In(IBr4)3
_symmetry_space_group_name_H-M   'P 1'
_cell_length_a   6.21780679
_cell_length_b   12.63749650
_cell_length_c   15.97208075
_cell_angle_alpha   56.97654927
_cell_angle_beta   113.06198586
_cell_angle_gamma   110.54905057
_symmetry_Int_Tables_number   1
_chemical_formula_structural   In(IBr4)3
_chemical_formula_sum   'In1 I3 Br12'
_cell_volume   952.68422508
_cell_formula_units_Z   1
loop_
 _symmetry_equiv_pos_site_id
 _symmetry_equiv_pos_as_xyz
  1  'x, y, z'
loop_
 _atom_site_type_symbol
 _atom_site_label
 _atom_site_symmetry_multiplicity
 _atom_site_fract_x
 _atom_site_fract_y
 _atom_site_fract_z
 _atom_site_occupancy
  In  In0  1  0.028776  0.431706  0.990139  1
  I  I1  1  0.979696  0.432214  0.494852  1
  I  I2  1  0.381077  0.011158  0.508078  1
  I  I3  1  0.774198  0.063757  0.023090  1
  Br  Br4  1  0.022670  0.325920  0.402915  1
  Br  Br5  1  0.819353  0.211812  0.641915  1
  Br  Br6  1  0.933433  0.854885  0.185653  1
  Br  Br7  1  0.325077  0.612840  0.902080  1
  Br  Br8  1  0.919917  0.429321  0.125533  1
  Br  Br9  1  0.384695  0.961876  0.938902  1
  Br  Br10  1  0.299174  0.112337  0.311297  1
  Br  Br11  1  0.905100  0.537536  0.602366  1
  Br  Br12  1  0.684524  0.361306  0.866172  1
  Br  Br13  1  0.227594  0.215197  0.093794  1
  Br  Br14  1  0.137868  0.768263  0.553798  1
  Br  Br15  1  0.176845  0.669872  0.359417  1
