# generated using pymatgen
data_P8IrRh3
_symmetry_space_group_name_H-M   'P 1'
_cell_length_a   5.85095802
_cell_length_b   5.78981042
_cell_length_c   5.88826847
_cell_angle_alpha   67.88985455
_cell_angle_beta   89.99901531
_cell_angle_gamma   89.99096139
_symmetry_Int_Tables_number   1
_chemical_formula_structural   P8IrRh3
_chemical_formula_sum   'P8 Ir1 Rh3'
_cell_volume   184.80194291
_cell_formula_units_Z   1
loop_
 _symmetry_equiv_pos_site_id
 _symmetry_equiv_pos_as_xyz
  1  'x, y, z'
loop_
 _atom_site_type_symbol
 _atom_site_label
 _atom_site_symmetry_multiplicity
 _atom_site_fract_x
 _atom_site_fract_y
 _atom_site_fract_z
 _atom_site_occupancy
  P  P0  1  0.120656  0.838710  0.868596  1
  P  P1  1  0.619556  0.159635  0.631449  1
  P  P2  1  0.879644  0.159657  0.132416  1
  P  P3  1  0.379894  0.842082  0.367692  1
  P  P4  1  0.623087  0.667917  0.187430  1
  P  P5  1  0.122317  0.333620  0.312469  1
  P  P6  1  0.376779  0.334271  0.811302  1
  P  P7  1  0.877495  0.664490  0.688628  1
  Ir  Ir8  1  0.501225  0.728155  0.790017  1
  Rh  Rh9  1  0.001288  0.270440  0.710352  1
  Rh  Rh10  1  0.498597  0.272756  0.209128  1
  Rh  Rh11  1  0.999460  0.728268  0.290521  1
