# generated using pymatgen
data_Hf5Sc4Ti3Sn10
_symmetry_space_group_name_H-M   'P 1'
_cell_length_a   10.85575219
_cell_length_b   10.84694185
_cell_length_c   10.83903479
_cell_angle_alpha   149.17519473
_cell_angle_beta   131.90663618
_cell_angle_gamma   58.28929336
_symmetry_Int_Tables_number   1
_chemical_formula_structural   Hf5Sc4Ti3Sn10
_chemical_formula_sum   'Hf5 Sc4 Ti3 Sn10'
_cell_volume   482.87039618
_cell_formula_units_Z   1
loop_
 _symmetry_equiv_pos_site_id
 _symmetry_equiv_pos_as_xyz
  1  'x, y, z'
loop_
 _atom_site_type_symbol
 _atom_site_label
 _atom_site_symmetry_multiplicity
 _atom_site_fract_x
 _atom_site_fract_y
 _atom_site_fract_z
 _atom_site_occupancy
  Hf  Hf0  1  0.308798  0.058809  0.749990  1
  Hf  Hf1  1  0.672762  0.432338  0.234672  1
  Hf  Hf2  1  0.327634  0.563945  0.761618  1
  Hf  Hf3  1  0.197685  0.938127  0.265356  1
  Hf  Hf4  1  0.802346  0.065999  0.738397  1
  Sc  Sc5  1  0.251813  0.142881  0.105765  1
  Sc  Sc6  1  0.746734  0.856210  0.891477  1
  Sc  Sc7  1  0.037091  0.646038  0.394158  1
  Sc  Sc8  1  0.964718  0.355221  0.608553  1
  Ti  Ti9  1  0.310190  0.560235  0.250010  1
  Ti  Ti10  1  0.689133  0.439089  0.750007  1
  Ti  Ti11  1  0.689454  0.939429  0.250005  1
  Sn  Sn12  1  0.590277  0.289681  0.306937  1
  Sn  Sn13  1  0.416091  0.705810  0.696748  1
  Sn  Sn14  1  0.982732  0.783411  0.193087  1
  Sn  Sn15  1  0.009057  0.219319  0.803242  1
  Sn  Sn16  1  0.999979  0.250169  0.250172  1
  Sn  Sn17  1  0.000132  0.749928  0.749832  1
  Sn  Sn18  1  0.468093  0.071058  0.395805  1
  Sn  Sn19  1  0.534119  0.923849  0.597894  1
  Sn  Sn20  1  0.675227  0.572229  0.104118  1
  Sn  Sn21  1  0.325936  0.436225  0.902158  1
