# generated using pymatgen
data_K4Al7SiAu12
_symmetry_space_group_name_H-M   'P 1'
_cell_length_a   5.58593166
_cell_length_b   7.12258862
_cell_length_c   13.40391628
_cell_angle_alpha   90.04170896
_cell_angle_beta   89.49878168
_cell_angle_gamma   90.12438815
_symmetry_Int_Tables_number   1
_chemical_formula_structural   K4Al7SiAu12
_chemical_formula_sum   'K4 Al7 Si1 Au12'
_cell_volume   533.27034831
_cell_formula_units_Z   1
loop_
 _symmetry_equiv_pos_site_id
 _symmetry_equiv_pos_as_xyz
  1  'x, y, z'
loop_
 _atom_site_type_symbol
 _atom_site_label
 _atom_site_symmetry_multiplicity
 _atom_site_fract_x
 _atom_site_fract_y
 _atom_site_fract_z
 _atom_site_occupancy
  K  K0  1  0.250376  0.106649  0.075866  1
  K  K1  1  0.250631  0.393499  0.575411  1
  K  K2  1  0.749701  0.893493  0.924306  1
  K  K3  1  0.750240  0.606392  0.424285  1
  Al  Al4  1  0.500707  0.601892  0.155232  1
  Al  Al5  1  0.496392  0.099915  0.345944  1
  Al  Al6  1  0.999365  0.399837  0.844744  1
  Al  Al7  1  0.000841  0.101051  0.342695  1
  Al  Al8  1  0.501693  0.399562  0.840912  1
  Al  Al9  1  0.501534  0.899624  0.656277  1
  Al  Al10  1  0.000575  0.601798  0.156625  1
  Si  Si11  1  0.000366  0.899558  0.658900  1
  Au  Au12  1  0.247751  0.114544  0.784976  1
  Au  Au13  1  0.250186  0.388967  0.288867  1
  Au  Au14  1  0.749738  0.888033  0.211689  1
  Au  Au15  1  0.757178  0.615472  0.710879  1
  Au  Au16  1  0.249974  0.692829  0.785750  1
  Au  Au17  1  0.250604  0.802957  0.289223  1
  Au  Au18  1  0.750894  0.303128  0.211957  1
  Au  Au19  1  0.756289  0.193067  0.712854  1
  Au  Au20  1  0.251277  0.580017  0.994403  1
  Au  Au21  1  0.239713  0.920155  0.498979  1
  Au  Au22  1  0.747140  0.418547  0.005216  1
  Au  Au23  1  0.746833  0.079015  0.504009  1
