# generated using pymatgen
data_Ho20Cd6RePd
_symmetry_space_group_name_H-M   'P 1'
_cell_length_a   9.56634000
_cell_length_b   9.56634047
_cell_length_c   9.85891800
_cell_angle_alpha   90.00000000
_cell_angle_beta   90.00000000
_cell_angle_gamma   119.99999839
_symmetry_Int_Tables_number   1
_chemical_formula_structural   Ho20Cd6RePd
_chemical_formula_sum   'Ho20 Cd6 Re1 Pd1'
_cell_volume   781.36065501
_cell_formula_units_Z   1
loop_
 _symmetry_equiv_pos_site_id
 _symmetry_equiv_pos_as_xyz
  1  'x, y, z'
loop_
 _atom_site_type_symbol
 _atom_site_label
 _atom_site_symmetry_multiplicity
 _atom_site_fract_x
 _atom_site_fract_y
 _atom_site_fract_z
 _atom_site_occupancy
  Ho  Ho0  1  0.209405  0.790595  0.941755  1
  Ho  Ho1  1  0.209405  0.418811  0.941755  1
  Ho  Ho2  1  0.581189  0.790595  0.941755  1
  Ho  Ho3  1  0.791649  0.208351  0.056514  1
  Ho  Ho4  1  0.791649  0.583299  0.056514  1
  Ho  Ho5  1  0.416701  0.208351  0.056514  1
  Ho  Ho6  1  0.791649  0.208351  0.443486  1
  Ho  Ho7  1  0.791649  0.583299  0.443486  1
  Ho  Ho8  1  0.416701  0.208351  0.443486  1
  Ho  Ho9  1  0.209405  0.790595  0.558245  1
  Ho  Ho10  1  0.209405  0.418811  0.558245  1
  Ho  Ho11  1  0.581189  0.790595  0.558245  1
  Ho  Ho12  1  0.537795  0.462205  0.750000  1
  Ho  Ho13  1  0.537795  0.075591  0.750000  1
  Ho  Ho14  1  0.924409  0.462205  0.750000  1
  Ho  Ho15  1  0.457208  0.542792  0.250000  1
  Ho  Ho16  1  0.457208  0.914416  0.250000  1
  Ho  Ho17  1  0.085584  0.542792  0.250000  1
  Ho  Ho18  1  0.000000  0.000000  0.001205  1
  Ho  Ho19  1  0.000000  0.000000  0.498795  1
  Cd  Cd20  1  0.885464  0.114536  0.750000  1
  Cd  Cd21  1  0.885464  0.770928  0.750000  1
  Cd  Cd22  1  0.229072  0.114536  0.750000  1
  Cd  Cd23  1  0.114508  0.885492  0.250000  1
  Cd  Cd24  1  0.114508  0.229014  0.250000  1
  Cd  Cd25  1  0.770986  0.885492  0.250000  1
  Re  Re26  1  0.333333  0.666667  0.750000  1
  Pd  Pd27  1  0.666667  0.333333  0.250000  1
