# generated using pymatgen
data_Tb8HfZr3Ga20
_symmetry_space_group_name_H-M   'P 1'
_cell_length_a   6.00405929
_cell_length_b   9.45481700
_cell_length_c   11.37392205
_cell_angle_alpha   90.00000000
_cell_angle_beta   90.04459875
_cell_angle_gamma   90.00000000
_symmetry_Int_Tables_number   1
_chemical_formula_structural   Tb8HfZr3Ga20
_chemical_formula_sum   'Tb8 Hf1 Zr3 Ga20'
_cell_volume   645.66644285
_cell_formula_units_Z   1
loop_
 _symmetry_equiv_pos_site_id
 _symmetry_equiv_pos_as_xyz
  1  'x, y, z'
loop_
 _atom_site_type_symbol
 _atom_site_label
 _atom_site_symmetry_multiplicity
 _atom_site_fract_x
 _atom_site_fract_y
 _atom_site_fract_z
 _atom_site_occupancy
  Tb  Tb0  1  0.886721  0.508666  0.352456  1
  Tb  Tb1  1  0.614592  0.991084  0.852354  1
  Tb  Tb2  1  0.114529  0.009566  0.647086  1
  Tb  Tb3  1  0.385733  0.490712  0.147942  1
  Tb  Tb4  1  0.114529  0.490434  0.647086  1
  Tb  Tb5  1  0.385733  0.009288  0.147942  1
  Tb  Tb6  1  0.886721  0.991334  0.352456  1
  Tb  Tb7  1  0.614592  0.508916  0.852354  1
  Hf  Hf8  1  0.354541  0.250000  0.423183  1
  Zr  Zr9  1  0.858400  0.750000  0.075918  1
  Zr  Zr10  1  0.641717  0.750000  0.576123  1
  Zr  Zr11  1  0.141527  0.250000  0.923930  1
  Ga  Ga12  1  0.874829  0.052819  0.088109  1
  Ga  Ga13  1  0.624366  0.446579  0.587819  1
  Ga  Ga14  1  0.125351  0.553124  0.911869  1
  Ga  Ga15  1  0.375609  0.947614  0.412142  1
  Ga  Ga16  1  0.125351  0.946876  0.911869  1
  Ga  Ga17  1  0.375609  0.552386  0.412142  1
  Ga  Ga18  1  0.874829  0.447181  0.088109  1
  Ga  Ga19  1  0.624366  0.053421  0.587819  1
  Ga  Ga20  1  0.163303  0.750000  0.253642  1
  Ga  Ga21  1  0.336571  0.750000  0.753417  1
  Ga  Ga22  1  0.836726  0.250000  0.746336  1
  Ga  Ga23  1  0.662028  0.250000  0.247764  1
  Ga  Ga24  1  0.388617  0.750000  0.002851  1
  Ga  Ga25  1  0.111757  0.750000  0.502638  1
  Ga  Ga26  1  0.612307  0.250000  0.997189  1
  Ga  Ga27  1  0.888604  0.250000  0.497562  1
  Ga  Ga28  1  0.600663  0.750000  0.292775  1
  Ga  Ga29  1  0.899904  0.750000  0.792755  1
  Ga  Ga30  1  0.400236  0.250000  0.707516  1
  Ga  Ga31  1  0.099638  0.250000  0.206848  1
