# generated using pymatgen
data_Er3Mg2InPdPb2
_symmetry_space_group_name_H-M   'P 1'
_cell_length_a   7.48503417
_cell_length_b   7.48503412
_cell_length_c   4.52860800
_cell_angle_alpha   90.00000000
_cell_angle_beta   90.00000000
_cell_angle_gamma   119.89445599
_symmetry_Int_Tables_number   1
_chemical_formula_structural   Er3Mg2InPdPb2
_chemical_formula_sum   'Er3 Mg2 In1 Pd1 Pb2'
_cell_volume   219.96006386
_cell_formula_units_Z   1
loop_
 _symmetry_equiv_pos_site_id
 _symmetry_equiv_pos_as_xyz
  1  'x, y, z'
loop_
 _atom_site_type_symbol
 _atom_site_label
 _atom_site_symmetry_multiplicity
 _atom_site_fract_x
 _atom_site_fract_y
 _atom_site_fract_z
 _atom_site_occupancy
  Er  Er0  1  0.400541  0.400541  0.500000  1
  Er  Er1  1  0.600542  0.998603  0.500000  1
  Er  Er2  1  0.998603  0.600542  0.500000  1
  Mg  Mg3  1  0.229821  0.001276  0.000000  1
  Mg  Mg4  1  0.001276  0.229821  0.000000  1
  In  In5  1  0.771836  0.771836  0.000000  1
  Pd  Pd6  1  0.004572  0.004572  0.500000  1
  Pb  Pb7  1  0.665117  0.327693  0.000000  1
  Pb  Pb8  1  0.327693  0.665117  0.000000  1
