# generated using pymatgen
data_DyEr3Sn6Rh7
_symmetry_space_group_name_H-M   'P 1'
_cell_length_a   7.59230334
_cell_length_b   7.59230374
_cell_length_c   7.58834900
_cell_angle_alpha   109.46067196
_cell_angle_beta   109.46067303
_cell_angle_gamma   109.48177264
_symmetry_Int_Tables_number   1
_chemical_formula_structural   DyEr3Sn6Rh7
_chemical_formula_sum   'Dy1 Er3 Sn6 Rh7'
_cell_volume   336.76660486
_cell_formula_units_Z   1
loop_
 _symmetry_equiv_pos_site_id
 _symmetry_equiv_pos_as_xyz
  1  'x, y, z'
loop_
 _atom_site_type_symbol
 _atom_site_label
 _atom_site_symmetry_multiplicity
 _atom_site_fract_x
 _atom_site_fract_y
 _atom_site_fract_z
 _atom_site_occupancy
  Dy  Dy0  1  0.000000  0.000000  0.500000  1
  Er  Er1  1  0.000000  0.500000  0.000000  1
  Er  Er2  1  0.500000  0.000000  0.000000  1
  Er  Er3  1  0.500000  0.500000  0.500000  1
  Sn  Sn4  1  0.684787  0.684787  0.999779  1
  Sn  Sn5  1  0.315213  0.000000  0.314992  1
  Sn  Sn6  1  0.000000  0.315213  0.314992  1
  Sn  Sn7  1  0.315213  0.315213  0.000221  1
  Sn  Sn8  1  0.684787  0.000000  0.685008  1
  Sn  Sn9  1  0.000000  0.684787  0.685008  1
  Rh  Rh10  1  0.749883  0.250117  0.500000  1
  Rh  Rh11  1  0.749883  0.499765  0.249883  1
  Rh  Rh12  1  0.500235  0.250117  0.750117  1
  Rh  Rh13  1  0.250117  0.500235  0.750117  1
  Rh  Rh14  1  0.250117  0.749883  0.500000  1
  Rh  Rh15  1  0.499765  0.749883  0.249883  1
  Rh  Rh16  1  0.000000  0.000000  0.000000  1
