# generated using pymatgen
data_TbEr9Os4
_symmetry_space_group_name_H-M   'P 1'
_cell_length_a   6.31037791
_cell_length_b   7.32761767
_cell_length_c   8.36543896
_cell_angle_alpha   96.91210855
_cell_angle_beta   112.21298729
_cell_angle_gamma   90.09766073
_symmetry_Int_Tables_number   1
_chemical_formula_structural   TbEr9Os4
_chemical_formula_sum   'Tb1 Er9 Os4'
_cell_volume   355.03851130
_cell_formula_units_Z   1
loop_
 _symmetry_equiv_pos_site_id
 _symmetry_equiv_pos_as_xyz
  1  'x, y, z'
loop_
 _atom_site_type_symbol
 _atom_site_label
 _atom_site_symmetry_multiplicity
 _atom_site_fract_x
 _atom_site_fract_y
 _atom_site_fract_z
 _atom_site_occupancy
  Tb  Tb0  1  0.791716  0.583520  0.815718  1
  Er  Er1  1  0.976583  0.916109  0.183676  1
  Er  Er2  1  0.207629  0.415755  0.184039  1
  Er  Er3  1  0.024297  0.084018  0.816998  1
  Er  Er4  1  0.202869  0.683130  0.564042  1
  Er  Er5  1  0.639571  0.817161  0.435552  1
  Er  Er6  1  0.796198  0.316361  0.435008  1
  Er  Er7  1  0.360114  0.183166  0.564077  1
  Er  Er8  1  0.420820  0.750072  0.000319  1
  Er  Er9  1  0.579122  0.249835  0.000340  1
  Os  Os10  1  0.601992  0.923865  0.780100  1
  Os  Os11  1  0.822490  0.577864  0.220141  1
  Os  Os12  1  0.397128  0.077227  0.219644  1
  Os  Os13  1  0.179472  0.421918  0.780346  1
