# generated using pymatgen
data_TbYRuC4
_symmetry_space_group_name_H-M   'P 1'
_cell_length_a   5.30768954
_cell_length_b   6.66456503
_cell_length_c   6.67413761
_cell_angle_alpha   71.39871946
_cell_angle_beta   66.56982936
_cell_angle_gamma   66.53417016
_symmetry_Int_Tables_number   1
_chemical_formula_structural   TbYRuC4
_chemical_formula_sum   'Tb2 Y2 Ru2 C8'
_cell_volume   195.05280124
_cell_formula_units_Z   2
loop_
 _symmetry_equiv_pos_site_id
 _symmetry_equiv_pos_as_xyz
  1  'x, y, z'
loop_
 _atom_site_type_symbol
 _atom_site_label
 _atom_site_symmetry_multiplicity
 _atom_site_fract_x
 _atom_site_fract_y
 _atom_site_fract_z
 _atom_site_occupancy
  Tb  Tb0  1  0.150932  0.494570  0.203566  1
  Tb  Tb1  1  0.849068  0.505430  0.796434  1
  Y  Y2  1  0.650838  0.203761  0.494563  1
  Y  Y3  1  0.349162  0.796239  0.505437  1
  Ru  Ru4  1  0.249944  0.000000  0.000000  1
  Ru  Ru5  1  0.750056  0.000000  0.000000  1
  C  C6  1  0.872303  0.787807  0.467588  1
  C  C7  1  0.127697  0.212193  0.532412  1
  C  C8  1  0.372784  0.468002  0.786433  1
  C  C9  1  0.627216  0.531998  0.213567  1
  C  C10  1  0.924853  0.898433  0.251862  1
  C  C11  1  0.075147  0.101567  0.748138  1
  C  C12  1  0.425398  0.252135  0.897070  1
  C  C13  1  0.574602  0.747865  0.102930  1
