# generated using pymatgen
data_Dy3YTmBi3
_symmetry_space_group_name_H-M   'P 1'
_cell_length_a   8.25424700
_cell_length_b   9.53592700
_cell_length_c   12.05936200
_cell_angle_alpha   90.00000000
_cell_angle_beta   90.00000000
_cell_angle_gamma   90.00000000
_symmetry_Int_Tables_number   1
_chemical_formula_structural   Dy3YTmBi3
_chemical_formula_sum   'Dy12 Y4 Tm4 Bi12'
_cell_volume   949.21525760
_cell_formula_units_Z   4
loop_
 _symmetry_equiv_pos_site_id
 _symmetry_equiv_pos_as_xyz
  1  'x, y, z'
loop_
 _atom_site_type_symbol
 _atom_site_label
 _atom_site_symmetry_multiplicity
 _atom_site_fract_x
 _atom_site_fract_y
 _atom_site_fract_z
 _atom_site_occupancy
  Dy  Dy0  1  0.186858  0.750000  0.718822  1
  Dy  Dy1  1  0.686858  0.750000  0.781178  1
  Dy  Dy2  1  0.813142  0.250000  0.281178  1
  Dy  Dy3  1  0.313142  0.250000  0.218822  1
  Dy  Dy4  1  0.305890  0.436192  0.940606  1
  Dy  Dy5  1  0.805890  0.063808  0.559394  1
  Dy  Dy6  1  0.694110  0.936192  0.059394  1
  Dy  Dy7  1  0.194110  0.563808  0.440606  1
  Dy  Dy8  1  0.694110  0.563808  0.059394  1
  Dy  Dy9  1  0.194110  0.936192  0.440606  1
  Dy  Dy10  1  0.305890  0.063808  0.940606  1
  Dy  Dy11  1  0.805890  0.436192  0.559394  1
  Y  Y12  1  0.354399  0.750000  0.215480  1
  Y  Y13  1  0.854399  0.750000  0.284520  1
  Y  Y14  1  0.645601  0.250000  0.784520  1
  Y  Y15  1  0.145601  0.250000  0.715480  1
  Tm  Tm16  1  0.025381  0.750000  0.988406  1
  Tm  Tm17  1  0.525381  0.750000  0.511594  1
  Tm  Tm18  1  0.974619  0.250000  0.011594  1
  Tm  Tm19  1  0.474619  0.250000  0.488406  1
  Bi  Bi20  1  0.433885  0.003580  0.672864  1
  Bi  Bi21  1  0.933885  0.496420  0.827136  1
  Bi  Bi22  1  0.566115  0.503580  0.327136  1
  Bi  Bi23  1  0.066115  0.996420  0.172864  1
  Bi  Bi24  1  0.566115  0.996420  0.327136  1
  Bi  Bi25  1  0.066115  0.503580  0.172864  1
  Bi  Bi26  1  0.433885  0.496420  0.672864  1
  Bi  Bi27  1  0.933885  0.003580  0.827136  1
  Bi  Bi28  1  0.407762  0.750000  0.957617  1
  Bi  Bi29  1  0.907762  0.750000  0.542383  1
  Bi  Bi30  1  0.592238  0.250000  0.042383  1
  Bi  Bi31  1  0.092238  0.250000  0.457617  1
