# generated using pymatgen
data_Ho11Tm3(Lu3Pt8)2
_symmetry_space_group_name_H-M   'P 1'
_cell_length_a   7.41172201
_cell_length_b   7.50896932
_cell_length_c   14.58261201
_cell_angle_alpha   90.05175519
_cell_angle_beta   90.00094710
_cell_angle_gamma   90.00714200
_symmetry_Int_Tables_number   1
_chemical_formula_structural   Ho11Tm3(Lu3Pt8)2
_chemical_formula_sum   'Ho11 Tm3 Lu6 Pt16'
_cell_volume   811.58608552
_cell_formula_units_Z   1
loop_
 _symmetry_equiv_pos_site_id
 _symmetry_equiv_pos_as_xyz
  1  'x, y, z'
loop_
 _atom_site_type_symbol
 _atom_site_label
 _atom_site_symmetry_multiplicity
 _atom_site_fract_x
 _atom_site_fract_y
 _atom_site_fract_z
 _atom_site_occupancy
  Ho  Ho0  1  0.843303  0.667954  0.122565  1
  Ho  Ho1  1  0.656793  0.168028  0.877242  1
  Ho  Ho2  1  0.156812  0.331966  0.622741  1
  Ho  Ho3  1  0.501817  0.679941  0.593095  1
  Ho  Ho4  1  0.001875  0.820140  0.906823  1
  Ho  Ho5  1  0.498456  0.320242  0.093007  1
  Ho  Ho6  1  0.998575  0.179609  0.406995  1
  Ho  Ho7  1  0.498712  0.320132  0.407373  1
  Ho  Ho8  1  0.998803  0.179822  0.092629  1
  Ho  Ho9  1  0.500938  0.679054  0.906651  1
  Ho  Ho10  1  0.000984  0.820978  0.593315  1
  Tm  Tm11  1  0.343119  0.832004  0.122606  1
  Tm  Tm12  1  0.843111  0.668053  0.377455  1
  Tm  Tm13  1  0.343325  0.832101  0.377390  1
  Lu  Lu14  1  0.656695  0.167918  0.623102  1
  Lu  Lu15  1  0.156710  0.332060  0.876891  1
  Lu  Lu16  1  0.819001  0.511206  0.749995  1
  Lu  Lu17  1  0.319019  0.988815  0.749992  1
  Lu  Lu18  1  0.181281  0.488191  0.250100  1
  Lu  Lu19  1  0.681035  0.011845  0.250023  1
  Pt  Pt20  1  0.683407  0.968455  0.458555  1
  Pt  Pt21  1  0.183734  0.531393  0.041369  1
  Pt  Pt22  1  0.315381  0.033733  0.957650  1
  Pt  Pt23  1  0.815408  0.466242  0.542339  1
  Pt  Pt24  1  0.317914  0.032258  0.542305  1
  Pt  Pt25  1  0.817905  0.467439  0.957463  1
  Pt  Pt26  1  0.682936  0.967798  0.042147  1
  Pt  Pt27  1  0.183165  0.532690  0.457728  1
  Pt  Pt28  1  0.454662  0.386761  0.749978  1
  Pt  Pt29  1  0.954627  0.113239  0.750023  1
  Pt  Pt30  1  0.544849  0.612481  0.250148  1
  Pt  Pt31  1  0.045389  0.887682  0.250158  1
  Pt  Pt32  1  0.682290  0.856300  0.749551  1
  Pt  Pt33  1  0.182275  0.643684  0.750456  1
  Pt  Pt34  1  0.317881  0.144068  0.250056  1
  Pt  Pt35  1  0.817813  0.355715  0.250084  1
