# generated using pymatgen
data_Nb3GePtN
_symmetry_space_group_name_H-M   'P 1'
_cell_length_a   7.05820500
_cell_length_b   7.05820500
_cell_length_c   7.05820500
_cell_angle_alpha   90.00000000
_cell_angle_beta   90.00000000
_cell_angle_gamma   90.00000000
_symmetry_Int_Tables_number   1
_chemical_formula_structural   Nb3GePtN
_chemical_formula_sum   'Nb12 Ge4 Pt4 N4'
_cell_volume   351.62747645
_cell_formula_units_Z   4
loop_
 _symmetry_equiv_pos_site_id
 _symmetry_equiv_pos_as_xyz
  1  'x, y, z'
loop_
 _atom_site_type_symbol
 _atom_site_label
 _atom_site_symmetry_multiplicity
 _atom_site_fract_x
 _atom_site_fract_y
 _atom_site_fract_z
 _atom_site_occupancy
  Nb  Nb0  1  0.785763  0.953091  0.381680  1
  Nb  Nb1  1  0.714237  0.046909  0.881680  1
  Nb  Nb2  1  0.214237  0.453091  0.118320  1
  Nb  Nb3  1  0.285763  0.546909  0.618320  1
  Nb  Nb4  1  0.953091  0.381680  0.785763  1
  Nb  Nb5  1  0.046909  0.881680  0.714237  1
  Nb  Nb6  1  0.453091  0.118320  0.214237  1
  Nb  Nb7  1  0.546909  0.618320  0.285763  1
  Nb  Nb8  1  0.381680  0.785763  0.953091  1
  Nb  Nb9  1  0.881680  0.714237  0.046909  1
  Nb  Nb10  1  0.118320  0.214237  0.453091  1
  Nb  Nb11  1  0.618320  0.285763  0.546909  1
  Ge  Ge12  1  0.571049  0.428951  0.928951  1
  Ge  Ge13  1  0.428951  0.928951  0.571049  1
  Ge  Ge14  1  0.928951  0.571049  0.428951  1
  Ge  Ge15  1  0.071049  0.071049  0.071049  1
  Pt  Pt16  1  0.180661  0.819339  0.319339  1
  Pt  Pt17  1  0.319339  0.180661  0.819339  1
  Pt  Pt18  1  0.819339  0.319339  0.180661  1
  Pt  Pt19  1  0.680661  0.680661  0.680661  1
  N  N20  1  0.874222  0.125778  0.625778  1
  N  N21  1  0.625778  0.874222  0.125778  1
  N  N22  1  0.125778  0.625778  0.874222  1
  N  N23  1  0.374222  0.374222  0.374222  1
