# generated using pymatgen
data_MgGa3(AuO2)4
_symmetry_space_group_name_H-M   'P 1'
_cell_length_a   5.29309107
_cell_length_b   6.15031613
_cell_length_c   7.10518331
_cell_angle_alpha   64.34850023
_cell_angle_beta   75.53273608
_cell_angle_gamma   90.01107183
_symmetry_Int_Tables_number   1
_chemical_formula_structural   MgGa3(AuO2)4
_chemical_formula_sum   'Mg1 Ga3 Au4 O8'
_cell_volume   200.33410230
_cell_formula_units_Z   1
loop_
 _symmetry_equiv_pos_site_id
 _symmetry_equiv_pos_as_xyz
  1  'x, y, z'
loop_
 _atom_site_type_symbol
 _atom_site_label
 _atom_site_symmetry_multiplicity
 _atom_site_fract_x
 _atom_site_fract_y
 _atom_site_fract_z
 _atom_site_occupancy
  Mg  Mg0  1  0.499999  0.749989  0.999998  1
  Ga  Ga1  1  0.999994  0.501964  0.999975  1
  Ga  Ga2  1  0.500002  0.249972  0.999991  1
  Ga  Ga3  1  0.000016  0.998076  0.000029  1
  Au  Au4  1  0.002631  0.999592  0.500921  1
  Au  Au5  1  0.997368  0.500491  0.499079  1
  Au  Au6  1  0.499993  0.749961  0.499994  1
  Au  Au7  1  0.499999  0.249962  0.500005  1
  O  O8  1  0.899583  0.832627  0.834717  1
  O  O9  1  0.887954  0.332244  0.835494  1
  O  O10  1  0.382755  0.573315  0.835892  1
  O  O11  1  0.382748  0.090760  0.835857  1
  O  O12  1  0.112056  0.167804  0.164492  1
  O  O13  1  0.100411  0.667397  0.165299  1
  O  O14  1  0.617239  0.926652  0.164096  1
  O  O15  1  0.617255  0.409193  0.164158  1
