# generated using pymatgen
data_Tm8Sc12Sn7Pb9
_symmetry_space_group_name_H-M   'P 1'
_cell_length_a   7.73517435
_cell_length_b   7.97332296
_cell_length_c   14.91896400
_cell_angle_alpha   90.00000000
_cell_angle_beta   90.00000000
_cell_angle_gamma   90.38856210
_symmetry_Int_Tables_number   1
_chemical_formula_structural   Tm8Sc12Sn7Pb9
_chemical_formula_sum   'Tm8 Sc12 Sn7 Pb9'
_cell_volume   920.10659107
_cell_formula_units_Z   1
loop_
 _symmetry_equiv_pos_site_id
 _symmetry_equiv_pos_as_xyz
  1  'x, y, z'
loop_
 _atom_site_type_symbol
 _atom_site_label
 _atom_site_symmetry_multiplicity
 _atom_site_fract_x
 _atom_site_fract_y
 _atom_site_fract_z
 _atom_site_occupancy
  Tm  Tm0  1  0.986739  0.179755  0.096968  1
  Tm  Tm1  1  0.014446  0.816751  0.904062  1
  Tm  Tm2  1  0.514737  0.677702  0.902859  1
  Tm  Tm3  1  0.014446  0.816751  0.595938  1
  Tm  Tm4  1  0.485018  0.322039  0.097703  1
  Tm  Tm5  1  0.986739  0.179755  0.403032  1
  Tm  Tm6  1  0.485018  0.322039  0.402297  1
  Tm  Tm7  1  0.514737  0.677702  0.597141  1
  Sc  Sc8  1  0.173365  0.498050  0.750000  1
  Sc  Sc9  1  0.826763  0.504558  0.250000  1
  Sc  Sc10  1  0.327407  0.995440  0.250000  1
  Sc  Sc11  1  0.669540  0.003613  0.750000  1
  Sc  Sc12  1  0.347122  0.156584  0.629268  1
  Sc  Sc13  1  0.655908  0.843355  0.370091  1
  Sc  Sc14  1  0.156280  0.655592  0.371202  1
  Sc  Sc15  1  0.655908  0.843355  0.129909  1
  Sc  Sc16  1  0.840719  0.347978  0.627040  1
  Sc  Sc17  1  0.347122  0.156584  0.870732  1
  Sc  Sc18  1  0.840719  0.347978  0.872960  1
  Sc  Sc19  1  0.156280  0.655592  0.128798  1
  Sn  Sn20  1  0.967463  0.876188  0.250000  1
  Sn  Sn21  1  0.464526  0.624249  0.250000  1
  Sn  Sn22  1  0.534847  0.376089  0.750000  1
  Sn  Sn23  1  0.316637  0.844316  0.750000  1
  Sn  Sn24  1  0.684791  0.154042  0.250000  1
  Sn  Sn25  1  0.183945  0.346088  0.250000  1
  Sn  Sn26  1  0.816221  0.654517  0.750000  1
  Pb  Pb27  1  0.030100  0.125755  0.750000  1
  Pb  Pb28  1  0.193841  0.453874  0.542977  1
  Pb  Pb29  1  0.805911  0.545544  0.456215  1
  Pb  Pb30  1  0.308281  0.955996  0.457589  1
  Pb  Pb31  1  0.805911  0.545544  0.043785  1
  Pb  Pb32  1  0.693196  0.043376  0.542457  1
  Pb  Pb33  1  0.193841  0.453874  0.957023  1
  Pb  Pb34  1  0.693196  0.043376  0.957543  1
  Pb  Pb35  1  0.308281  0.955996  0.042411  1
