# generated using pymatgen
data_Th7Fe2Rh
_symmetry_space_group_name_H-M   'P 1'
_cell_length_a   9.83243743
_cell_length_b   9.81315598
_cell_length_c   6.26072208
_cell_angle_alpha   90.07977287
_cell_angle_beta   89.84077281
_cell_angle_gamma   120.06501827
_symmetry_Int_Tables_number   1
_chemical_formula_structural   Th7Fe2Rh
_chemical_formula_sum   'Th14 Fe4 Rh2'
_cell_volume   522.80335426
_cell_formula_units_Z   2
loop_
 _symmetry_equiv_pos_site_id
 _symmetry_equiv_pos_as_xyz
  1  'x, y, z'
loop_
 _atom_site_type_symbol
 _atom_site_label
 _atom_site_symmetry_multiplicity
 _atom_site_fract_x
 _atom_site_fract_y
 _atom_site_fract_z
 _atom_site_occupancy
  Th  Th0  1  0.325479  0.662156  0.037680  1
  Th  Th1  1  0.663324  0.337844  0.537680  1
  Th  Th2  1  0.124677  0.875344  0.248203  1
  Th  Th3  1  0.249333  0.124656  0.748203  1
  Th  Th4  1  0.883799  0.748418  0.746833  1
  Th  Th5  1  0.135381  0.251582  0.246833  1
  Th  Th6  1  0.749326  0.863761  0.255557  1
  Th  Th7  1  0.885565  0.136239  0.755557  1
  Th  Th8  1  0.543298  0.455287  0.052196  1
  Th  Th9  1  0.088011  0.544713  0.552196  1
  Th  Th10  1  0.449294  0.916865  0.550498  1
  Th  Th11  1  0.532429  0.083135  0.050498  1
  Th  Th12  1  0.914365  0.465922  0.052932  1
  Th  Th13  1  0.448443  0.534078  0.552932  1
  Fe  Fe14  1  0.185472  0.369442  0.792061  1
  Fe  Fe15  1  0.816031  0.630558  0.292061  1
  Fe  Fe16  1  0.372585  0.184903  0.292786  1
  Fe  Fe17  1  0.187680  0.815097  0.792786  1
  Rh  Rh18  1  0.814410  0.183312  0.301256  1
  Rh  Rh19  1  0.631098  0.816688  0.801256  1
