# generated using pymatgen
data_Hf10BePPb6
_symmetry_space_group_name_H-M   'P 1'
_cell_length_a   8.60976100
_cell_length_b   8.60975960
_cell_length_c   5.86451900
_cell_angle_alpha   90.00000000
_cell_angle_beta   90.00000000
_cell_angle_gamma   119.99999384
_symmetry_Int_Tables_number   1
_chemical_formula_structural   Hf10BePPb6
_chemical_formula_sum   'Hf10 Be1 P1 Pb6'
_cell_volume   376.48283293
_cell_formula_units_Z   1
loop_
 _symmetry_equiv_pos_site_id
 _symmetry_equiv_pos_as_xyz
  1  'x, y, z'
loop_
 _atom_site_type_symbol
 _atom_site_label
 _atom_site_symmetry_multiplicity
 _atom_site_fract_x
 _atom_site_fract_y
 _atom_site_fract_z
 _atom_site_occupancy
  Hf  Hf0  1  0.666661  0.333344  0.999996  1
  Hf  Hf1  1  0.000004  0.244884  0.256167  1
  Hf  Hf2  1  0.755119  0.999996  0.743834  1
  Hf  Hf3  1  0.244876  0.244877  0.743849  1
  Hf  Hf4  1  0.333349  0.666663  0.500003  1
  Hf  Hf5  1  0.333339  0.666656  0.000004  1
  Hf  Hf6  1  0.999996  0.755116  0.743833  1
  Hf  Hf7  1  0.666651  0.333337  0.499997  1
  Hf  Hf8  1  0.755124  0.755123  0.256151  1
  Hf  Hf9  1  0.244881  0.000004  0.256166  1
  Be  Be10  1  0.000000  0.000000  0.500000  1
  P  P11  1  0.000000  0.000000  0.000000  1
  Pb  Pb12  1  0.604426  0.604421  0.750903  1
  Pb  Pb13  1  0.395584  0.999993  0.750932  1
  Pb  Pb14  1  0.000003  0.604416  0.249064  1
  Pb  Pb15  1  0.395574  0.395579  0.249097  1
  Pb  Pb16  1  0.999997  0.395584  0.750936  1
  Pb  Pb17  1  0.604416  0.000007  0.249068  1
