# generated using pymatgen
data_Y5ZnIn3
_symmetry_space_group_name_H-M   'P 1'
_cell_length_a   9.19959600
_cell_length_b   9.19959614
_cell_length_c   6.71970100
_cell_angle_alpha   90.00000000
_cell_angle_beta   90.00000000
_cell_angle_gamma   119.99999950
_symmetry_Int_Tables_number   1
_chemical_formula_structural   Y5ZnIn3
_chemical_formula_sum   'Y10 Zn2 In6'
_cell_volume   492.51345665
_cell_formula_units_Z   2
loop_
 _symmetry_equiv_pos_site_id
 _symmetry_equiv_pos_as_xyz
  1  'x, y, z'
loop_
 _atom_site_type_symbol
 _atom_site_label
 _atom_site_symmetry_multiplicity
 _atom_site_fract_x
 _atom_site_fract_y
 _atom_site_fract_z
 _atom_site_occupancy
  Y  Y0  1  0.333333  0.666667  0.500000  1
  Y  Y1  1  0.666667  0.333333  0.500000  1
  Y  Y2  1  0.666667  0.333333  0.000000  1
  Y  Y3  1  0.333333  0.666667  0.000000  1
  Y  Y4  1  0.275588  0.000000  0.750000  1
  Y  Y5  1  0.724412  0.000000  0.250000  1
  Y  Y6  1  0.000000  0.275588  0.750000  1
  Y  Y7  1  0.000000  0.724412  0.250000  1
  Y  Y8  1  0.724412  0.724412  0.750000  1
  Y  Y9  1  0.275588  0.275588  0.250000  1
  Zn  Zn10  1  0.000000  0.000000  0.500000  1
  Zn  Zn11  1  0.000000  0.000000  0.000000  1
  In  In12  1  0.622005  0.000000  0.750000  1
  In  In13  1  0.377995  0.000000  0.250000  1
  In  In14  1  0.000000  0.622005  0.750000  1
  In  In15  1  0.000000  0.377995  0.250000  1
  In  In16  1  0.377995  0.377995  0.750000  1
  In  In17  1  0.622005  0.622005  0.250000  1
