# generated using pymatgen
data_Hg3BiIr3RhO14
_symmetry_space_group_name_H-M   'P 1'
_cell_length_a   7.27010884
_cell_length_b   7.28138355
_cell_length_c   7.37163328
_cell_angle_alpha   60.40417837
_cell_angle_beta   60.40957982
_cell_angle_gamma   59.94869417
_symmetry_Int_Tables_number   1
_chemical_formula_structural   Hg3BiIr3RhO14
_chemical_formula_sum   'Hg3 Bi1 Ir3 Rh1 O14'
_cell_volume   277.50865417
_cell_formula_units_Z   1
loop_
 _symmetry_equiv_pos_site_id
 _symmetry_equiv_pos_as_xyz
  1  'x, y, z'
loop_
 _atom_site_type_symbol
 _atom_site_label
 _atom_site_symmetry_multiplicity
 _atom_site_fract_x
 _atom_site_fract_y
 _atom_site_fract_z
 _atom_site_occupancy
  Hg  Hg0  1  0.625000  0.125000  0.125000  1
  Hg  Hg1  1  0.125000  0.625000  0.125000  1
  Hg  Hg2  1  0.125000  0.125000  0.125000  1
  Bi  Bi3  1  0.125000  0.125000  0.625000  1
  Ir  Ir4  1  0.625000  0.125000  0.625000  1
  Ir  Ir5  1  0.625000  0.625000  0.125000  1
  Ir  Ir6  1  0.625000  0.625000  0.625000  1
  Rh  Rh7  1  0.125000  0.625000  0.625000  1
  O  O8  1  0.690703  0.695519  0.309237  1
  O  O9  1  0.299288  0.293855  0.694822  1
  O  O10  1  0.708728  0.298754  0.693766  1
  O  O11  1  0.306840  0.695747  0.301667  1
  O  O12  1  0.299288  0.712036  0.694822  1
  O  O13  1  0.690703  0.304541  0.309237  1
  O  O14  1  0.559297  0.554481  0.940763  1
  O  O15  1  0.950712  0.956145  0.555178  1
  O  O16  1  0.541272  0.951246  0.556234  1
  O  O17  1  0.943160  0.554253  0.948333  1
  O  O18  1  0.950712  0.537964  0.555178  1
  O  O19  1  0.559297  0.945459  0.940763  1
  O  O20  1  0.254609  0.253080  0.239232  1
  O  O21  1  0.995391  0.996920  0.010768  1
