# generated using pymatgen
data_Ca7Gd(Si3Pd)4
_symmetry_space_group_name_H-M   'P 1'
_cell_length_a   8.20150000
_cell_length_b   8.20150020
_cell_length_c   8.76163700
_cell_angle_alpha   90.00000000
_cell_angle_beta   90.00000000
_cell_angle_gamma   120.00000727
_symmetry_Int_Tables_number   1
_chemical_formula_structural   Ca7Gd(Si3Pd)4
_chemical_formula_sum   'Ca7 Gd1 Si12 Pd4'
_cell_volume   510.39033871
_cell_formula_units_Z   1
loop_
 _symmetry_equiv_pos_site_id
 _symmetry_equiv_pos_as_xyz
  1  'x, y, z'
loop_
 _atom_site_type_symbol
 _atom_site_label
 _atom_site_symmetry_multiplicity
 _atom_site_fract_x
 _atom_site_fract_y
 _atom_site_fract_z
 _atom_site_occupancy
  Ca  Ca0  1  0.499393  0.500607  0.750000  1
  Ca  Ca1  1  0.500459  0.499541  0.250000  1
  Ca  Ca2  1  0.001213  0.500607  0.750000  1
  Ca  Ca3  1  0.999083  0.499541  0.250000  1
  Ca  Ca4  1  0.499393  0.998787  0.750000  1
  Ca  Ca5  1  0.500459  0.000917  0.250000  1
  Ca  Ca6  1  0.000000  0.000000  0.750000  1
  Gd  Gd7  1  0.000000  0.000000  0.250000  1
  Si  Si8  1  0.834757  0.165243  0.003823  1
  Si  Si9  1  0.165210  0.834790  0.004202  1
  Si  Si10  1  0.330487  0.165243  0.003823  1
  Si  Si11  1  0.165210  0.834790  0.495798  1
  Si  Si12  1  0.669580  0.834790  0.004202  1
  Si  Si13  1  0.834757  0.165243  0.496177  1
  Si  Si14  1  0.834757  0.669513  0.003823  1
  Si  Si15  1  0.669580  0.834790  0.495798  1
  Si  Si16  1  0.165210  0.330420  0.004202  1
  Si  Si17  1  0.330487  0.165243  0.496177  1
  Si  Si18  1  0.165210  0.330420  0.495798  1
  Si  Si19  1  0.834757  0.669513  0.496177  1
  Pd  Pd20  1  0.666667  0.333333  0.998235  1
  Pd  Pd21  1  0.333333  0.666667  0.000668  1
  Pd  Pd22  1  0.333333  0.666667  0.499332  1
  Pd  Pd23  1  0.666667  0.333333  0.501765  1
