# generated using pymatgen
data_Ho8Ga(Pd7Pt)3
_symmetry_space_group_name_H-M   'P 1'
_cell_length_a   8.33103407
_cell_length_b   8.33103407
_cell_length_c   8.33103407
_cell_angle_alpha   90.01055040
_cell_angle_beta   90.01055040
_cell_angle_gamma   89.98944960
_symmetry_Int_Tables_number   1
_chemical_formula_structural   Ho8Ga(Pd7Pt)3
_chemical_formula_sum   'Ho8 Ga1 Pd21 Pt3'
_cell_volume   578.22479338
_cell_formula_units_Z   1
loop_
 _symmetry_equiv_pos_site_id
 _symmetry_equiv_pos_as_xyz
  1  'x, y, z'
loop_
 _atom_site_type_symbol
 _atom_site_label
 _atom_site_symmetry_multiplicity
 _atom_site_fract_x
 _atom_site_fract_y
 _atom_site_fract_z
 _atom_site_occupancy
  Ho  Ho0  1  0.252064  0.252064  0.747936  1
  Ho  Ho1  1  0.251577  0.748169  0.251831  1
  Ho  Ho2  1  0.748169  0.251577  0.251831  1
  Ho  Ho3  1  0.748169  0.748169  0.748423  1
  Ho  Ho4  1  0.748512  0.748512  0.251488  1
  Ho  Ho5  1  0.747905  0.251845  0.748155  1
  Ho  Ho6  1  0.251845  0.747905  0.748155  1
  Ho  Ho7  1  0.251845  0.251845  0.252095  1
  Ga  Ga8  1  0.000086  0.000086  0.999914  1
  Pd  Pd9  1  0.499947  0.499947  0.252911  1
  Pd  Pd10  1  0.499947  0.747089  0.500053  1
  Pd  Pd11  1  0.747089  0.499947  0.500053  1
  Pd  Pd12  1  0.999848  0.999848  0.708397  1
  Pd  Pd13  1  0.999848  0.291603  0.000152  1
  Pd  Pd14  1  0.291603  0.999848  0.000152  1
  Pd  Pd15  1  0.999855  0.999855  0.291626  1
  Pd  Pd16  1  0.999855  0.708374  0.000145  1
  Pd  Pd17  1  0.708374  0.999855  0.000145  1
  Pd  Pd18  1  0.000087  0.500130  0.739794  1
  Pd  Pd19  1  0.500130  0.260206  0.999913  1
  Pd  Pd20  1  0.260206  0.000087  0.499870  1
  Pd  Pd21  1  0.000087  0.260206  0.499870  1
  Pd  Pd22  1  0.500130  0.000087  0.739794  1
  Pd  Pd23  1  0.260206  0.500130  0.999913  1
  Pd  Pd24  1  0.000108  0.500094  0.260172  1
  Pd  Pd25  1  0.500094  0.739828  0.999892  1
  Pd  Pd26  1  0.000108  0.739828  0.499906  1
  Pd  Pd27  1  0.500094  0.000108  0.260172  1
  Pd  Pd28  1  0.739828  0.000108  0.499906  1
  Pd  Pd29  1  0.739828  0.500094  0.999892  1
  Pt  Pt30  1  0.500031  0.500031  0.747505  1
  Pt  Pt31  1  0.500031  0.252495  0.499969  1
  Pt  Pt32  1  0.252495  0.500031  0.499969  1
