# generated using pymatgen
data_Tm12ReTc3
_symmetry_space_group_name_H-M   'P 1'
_cell_length_a   7.44404065
_cell_length_b   8.95508400
_cell_length_c   6.12867687
_cell_angle_alpha   90.00000000
_cell_angle_beta   90.17650806
_cell_angle_gamma   90.00000000
_symmetry_Int_Tables_number   1
_chemical_formula_structural   Tm12ReTc3
_chemical_formula_sum   'Tm12 Re1 Tc3'
_cell_volume   408.54797598
_cell_formula_units_Z   1
loop_
 _symmetry_equiv_pos_site_id
 _symmetry_equiv_pos_as_xyz
  1  'x, y, z'
loop_
 _atom_site_type_symbol
 _atom_site_label
 _atom_site_symmetry_multiplicity
 _atom_site_fract_x
 _atom_site_fract_y
 _atom_site_fract_z
 _atom_site_occupancy
  Tm  Tm0  1  0.039567  0.250000  0.621660  1
  Tm  Tm1  1  0.959396  0.750000  0.375555  1
  Tm  Tm2  1  0.460260  0.750000  0.125413  1
  Tm  Tm3  1  0.538287  0.250000  0.875165  1
  Tm  Tm4  1  0.175272  0.061900  0.152970  1
  Tm  Tm5  1  0.825842  0.938744  0.847727  1
  Tm  Tm6  1  0.324846  0.937589  0.652767  1
  Tm  Tm7  1  0.825842  0.561256  0.847727  1
  Tm  Tm8  1  0.675190  0.062710  0.346770  1
  Tm  Tm9  1  0.175272  0.438100  0.152970  1
  Tm  Tm10  1  0.675190  0.437290  0.346770  1
  Tm  Tm11  1  0.324846  0.562411  0.652767  1
  Re  Re12  1  0.882377  0.250000  0.047542  1
  Tc  Tc13  1  0.382495  0.250000  0.453672  1
  Tc  Tc14  1  0.617380  0.750000  0.545061  1
  Tc  Tc15  1  0.117940  0.750000  0.955462  1
