# generated using pymatgen
data_Rb4PaSe5
_symmetry_space_group_name_H-M   'P 1'
_cell_length_a   8.35340377
_cell_length_b   12.45942554
_cell_length_c   8.37480568
_cell_angle_alpha   101.62350965
_cell_angle_beta   102.14211955
_cell_angle_gamma   109.43490413
_symmetry_Int_Tables_number   1
_chemical_formula_structural   Rb4PaSe5
_chemical_formula_sum   'Rb8 Pa2 Se10'
_cell_volume   767.95686155
_cell_formula_units_Z   2
loop_
 _symmetry_equiv_pos_site_id
 _symmetry_equiv_pos_as_xyz
  1  'x, y, z'
loop_
 _atom_site_type_symbol
 _atom_site_label
 _atom_site_symmetry_multiplicity
 _atom_site_fract_x
 _atom_site_fract_y
 _atom_site_fract_z
 _atom_site_occupancy
  Rb  Rb0  1  0.000000  0.500000  0.000000  1
  Rb  Rb1  1  0.425567  0.905585  0.206090  1
  Rb  Rb2  1  0.596185  0.595394  0.295111  1
  Rb  Rb3  1  0.799902  0.301586  0.416150  1
  Rb  Rb4  1  0.000000  0.000000  0.499999  1
  Rb  Rb5  1  0.200099  0.698414  0.583850  1
  Rb  Rb6  1  0.403815  0.404606  0.704890  1
  Rb  Rb7  1  0.574432  0.094414  0.793911  1
  Pa  Pa8  1  0.184776  0.192320  0.099541  1
  Pa  Pa9  1  0.815224  0.807680  0.900458  1
  Se  Se10  1  0.511587  0.308941  0.059938  1
  Se  Se11  1  0.847634  0.035686  0.108567  1
  Se  Se12  1  0.978429  0.761613  0.187534  1
  Se  Se13  1  0.177189  0.394446  0.302312  1
  Se  Se14  1  0.365377  0.157129  0.389439  1
  Se  Se15  1  0.634623  0.842871  0.610561  1
  Se  Se16  1  0.822811  0.605554  0.697687  1
  Se  Se17  1  0.021571  0.238387  0.812466  1
  Se  Se18  1  0.152367  0.964314  0.891433  1
  Se  Se19  1  0.488414  0.691059  0.940062  1
