# generated using pymatgen
data_Zr8CdIn3Au8
_symmetry_space_group_name_H-M   'P 1'
_cell_length_a   7.64172000
_cell_length_b   7.64172000
_cell_length_c   7.13019500
_cell_angle_alpha   90.00000000
_cell_angle_beta   90.00000000
_cell_angle_gamma   90.00000000
_symmetry_Int_Tables_number   1
_chemical_formula_structural   Zr8CdIn3Au8
_chemical_formula_sum   'Zr8 Cd1 In3 Au8'
_cell_volume   416.37404410
_cell_formula_units_Z   1
loop_
 _symmetry_equiv_pos_site_id
 _symmetry_equiv_pos_as_xyz
  1  'x, y, z'
loop_
 _atom_site_type_symbol
 _atom_site_label
 _atom_site_symmetry_multiplicity
 _atom_site_fract_x
 _atom_site_fract_y
 _atom_site_fract_z
 _atom_site_occupancy
  Zr  Zr0  1  0.146496  0.146610  0.000507  1
  Zr  Zr1  1  0.853504  0.853390  0.000507  1
  Zr  Zr2  1  0.646610  0.353504  0.499493  1
  Zr  Zr3  1  0.353390  0.646496  0.499493  1
  Zr  Zr4  1  0.695635  0.303695  0.000406  1
  Zr  Zr5  1  0.304365  0.696305  0.000406  1
  Zr  Zr6  1  0.803695  0.804365  0.499594  1
  Zr  Zr7  1  0.196305  0.195635  0.499594  1
  Cd  Cd8  1  0.500000  0.000000  0.250000  1
  In  In9  1  0.500000  0.000000  0.750000  1
  In  In10  1  0.000000  0.500000  0.250000  1
  In  In11  1  0.000000  0.500000  0.750000  1
  Au  Au12  1  0.370764  0.369969  0.205329  1
  Au  Au13  1  0.629500  0.629396  0.794926  1
  Au  Au14  1  0.629236  0.630031  0.205329  1
  Au  Au15  1  0.870604  0.129500  0.705074  1
  Au  Au16  1  0.869969  0.129236  0.294671  1
  Au  Au17  1  0.370500  0.370604  0.794926  1
  Au  Au18  1  0.130031  0.870764  0.294671  1
  Au  Au19  1  0.129396  0.870500  0.705074  1
