# generated using pymatgen
data_CaGa6Cu7
_symmetry_space_group_name_H-M   'P 1'
_cell_length_a   8.43553147
_cell_length_b   8.43553191
_cell_length_c   8.43553169
_cell_angle_alpha   121.80482923
_cell_angle_beta   119.51540341
_cell_angle_gamma   88.87205929
_symmetry_Int_Tables_number   1
_chemical_formula_structural   CaGa6Cu7
_chemical_formula_sum   'Ca2 Ga12 Cu14'
_cell_volume   419.90784369
_cell_formula_units_Z   2
loop_
 _symmetry_equiv_pos_site_id
 _symmetry_equiv_pos_as_xyz
  1  'x, y, z'
loop_
 _atom_site_type_symbol
 _atom_site_label
 _atom_site_symmetry_multiplicity
 _atom_site_fract_x
 _atom_site_fract_y
 _atom_site_fract_z
 _atom_site_occupancy
  Ca  Ca0  1  0.250000  0.750000  0.500000  1
  Ca  Ca1  1  0.750000  0.250000  0.500000  1
  Ga  Ga2  1  0.554616  0.542984  0.358263  1
  Ga  Ga3  1  0.445384  0.457016  0.641737  1
  Ga  Ga4  1  0.184720  0.196350  0.641737  1
  Ga  Ga5  1  0.315280  0.957016  0.011630  1
  Ga  Ga6  1  0.815280  0.803650  0.358263  1
  Ga  Ga7  1  0.684720  0.042984  0.988370  1
  Ga  Ga8  1  0.945384  0.303650  0.988370  1
  Ga  Ga9  1  0.054616  0.696350  0.011630  1
  Ga  Ga10  1  0.053823  0.310740  0.364564  1
  Ga  Ga11  1  0.946177  0.689260  0.635436  1
  Ga  Ga12  1  0.553823  0.189260  0.743082  1
  Ga  Ga13  1  0.446177  0.810740  0.256918  1
  Cu  Cu14  1  0.286048  0.297827  0.232289  1
  Cu  Cu15  1  0.713952  0.702173  0.767711  1
  Cu  Cu16  1  0.065538  0.053759  0.767711  1
  Cu  Cu17  1  0.434462  0.202173  0.988221  1
  Cu  Cu18  1  0.934462  0.946241  0.232289  1
  Cu  Cu19  1  0.565538  0.797827  0.011779  1
  Cu  Cu20  1  0.213952  0.446241  0.011779  1
  Cu  Cu21  1  0.786048  0.553759  0.988221  1
  Cu  Cu22  1  0.000000  0.000000  0.000000  1
  Cu  Cu23  1  0.500000  0.500000  0.000000  1
  Cu  Cu24  1  0.286680  0.068338  0.355019  1
  Cu  Cu25  1  0.713320  0.931662  0.644981  1
  Cu  Cu26  1  0.786680  0.431662  0.218342  1
  Cu  Cu27  1  0.213320  0.568338  0.781658  1
