# generated using pymatgen
data_Y6AlCo2
_symmetry_space_group_name_H-M   'P 1'
_cell_length_a   8.38059153
_cell_length_b   8.38059006
_cell_length_c   8.38059056
_cell_angle_alpha   111.81384857
_cell_angle_beta   109.52503382
_cell_angle_gamma   107.10891924
_symmetry_Int_Tables_number   1
_chemical_formula_structural   Y6AlCo2
_chemical_formula_sum   'Y12 Al2 Co4'
_cell_volume   452.34483800
_cell_formula_units_Z   2
loop_
 _symmetry_equiv_pos_site_id
 _symmetry_equiv_pos_as_xyz
  1  'x, y, z'
loop_
 _atom_site_type_symbol
 _atom_site_label
 _atom_site_symmetry_multiplicity
 _atom_site_fract_x
 _atom_site_fract_y
 _atom_site_fract_z
 _atom_site_occupancy
  Y  Y0  1  0.564381  0.261960  0.302420  1
  Y  Y1  1  0.180824  0.218245  0.399069  1
  Y  Y2  1  0.180824  0.781755  0.962579  1
  Y  Y3  1  0.674566  0.486933  0.812367  1
  Y  Y4  1  0.674566  0.862199  0.187633  1
  Y  Y5  1  0.959539  0.261960  0.697580  1
  Y  Y6  1  0.040461  0.738040  0.302420  1
  Y  Y7  1  0.325434  0.513067  0.187633  1
  Y  Y8  1  0.325434  0.137801  0.812367  1
  Y  Y9  1  0.819176  0.218245  0.037421  1
  Y  Y10  1  0.819176  0.781755  0.600931  1
  Y  Y11  1  0.435619  0.738040  0.697580  1
  Al  Al12  1  0.000000  0.500000  0.500000  1
  Al  Al13  1  0.500000  0.000000  0.500000  1
  Co  Co14  1  0.887203  0.887203  0.000000  1
  Co  Co15  1  0.333782  0.500000  0.833782  1
  Co  Co16  1  0.666218  0.500000  0.166218  1
  Co  Co17  1  0.112797  0.112797  0.000000  1
