# generated using pymatgen
data_Sc6Al8Zn(Si4Os3)2
_symmetry_space_group_name_H-M   'P 1'
_cell_length_a   8.60821226
_cell_length_b   8.60821255
_cell_length_c   8.60821300
_cell_angle_alpha   59.99999444
_cell_angle_beta   59.99999333
_cell_angle_gamma   60.00000111
_symmetry_Int_Tables_number   1
_chemical_formula_structural   Sc6Al8Zn(Si4Os3)2
_chemical_formula_sum   'Sc6 Al8 Zn1 Si8 Os6'
_cell_volume   451.04920290
_cell_formula_units_Z   1
loop_
 _symmetry_equiv_pos_site_id
 _symmetry_equiv_pos_as_xyz
  1  'x, y, z'
loop_
 _atom_site_type_symbol
 _atom_site_label
 _atom_site_symmetry_multiplicity
 _atom_site_fract_x
 _atom_site_fract_y
 _atom_site_fract_z
 _atom_site_occupancy
  Sc  Sc0  1  0.196211  0.803789  0.803789  1
  Sc  Sc1  1  0.803789  0.196211  0.196211  1
  Sc  Sc2  1  0.803789  0.196211  0.803789  1
  Sc  Sc3  1  0.803789  0.803789  0.196211  1
  Sc  Sc4  1  0.196211  0.803789  0.196211  1
  Sc  Sc5  1  0.196211  0.196211  0.803789  1
  Al  Al6  1  0.623987  0.623987  0.623987  1
  Al  Al7  1  0.623987  0.623987  0.128037  1
  Al  Al8  1  0.128037  0.623987  0.623987  1
  Al  Al9  1  0.623987  0.128037  0.623987  1
  Al  Al10  1  0.376013  0.376013  0.376013  1
  Al  Al11  1  0.376013  0.376013  0.871963  1
  Al  Al12  1  0.376013  0.871963  0.376013  1
  Al  Al13  1  0.871963  0.376013  0.376013  1
  Zn  Zn14  1  0.500000  0.500000  0.500000  1
  Si  Si15  1  0.842920  0.842920  0.842920  1
  Si  Si16  1  0.842920  0.842920  0.471244  1
  Si  Si17  1  0.471244  0.842920  0.842920  1
  Si  Si18  1  0.842920  0.471244  0.842920  1
  Si  Si19  1  0.157080  0.157080  0.157080  1
  Si  Si20  1  0.157080  0.157080  0.528756  1
  Si  Si21  1  0.157080  0.528756  0.157080  1
  Si  Si22  1  0.528756  0.157080  0.157080  1
  Os  Os23  1  0.000000  0.500000  0.500000  1
  Os  Os24  1  0.500000  0.000000  0.000000  1
  Os  Os25  1  0.500000  0.000000  0.500000  1
  Os  Os26  1  0.500000  0.500000  0.000000  1
  Os  Os27  1  0.000000  0.500000  0.000000  1
  Os  Os28  1  0.000000  0.000000  0.500000  1
