# generated using pymatgen
data_Dy3Ga2Sn
_symmetry_space_group_name_H-M   'P 1'
_cell_length_a   6.39981200
_cell_length_b   9.35498800
_cell_length_c   9.91719800
_cell_angle_alpha   90.00000000
_cell_angle_beta   90.00000000
_cell_angle_gamma   90.00000000
_symmetry_Int_Tables_number   1
_chemical_formula_structural   Dy3Ga2Sn
_chemical_formula_sum   'Dy12 Ga8 Sn4'
_cell_volume   593.74427526
_cell_formula_units_Z   4
loop_
 _symmetry_equiv_pos_site_id
 _symmetry_equiv_pos_as_xyz
  1  'x, y, z'
loop_
 _atom_site_type_symbol
 _atom_site_label
 _atom_site_symmetry_multiplicity
 _atom_site_fract_x
 _atom_site_fract_y
 _atom_site_fract_z
 _atom_site_occupancy
  Dy  Dy0  1  0.000000  0.750000  0.125335  1
  Dy  Dy1  1  0.500000  0.250000  0.874665  1
  Dy  Dy2  1  0.000000  0.250000  0.874665  1
  Dy  Dy3  1  0.500000  0.750000  0.125335  1
  Dy  Dy4  1  0.750000  0.478061  0.606551  1
  Dy  Dy5  1  0.250000  0.521939  0.393449  1
  Dy  Dy6  1  0.750000  0.978061  0.393449  1
  Dy  Dy7  1  0.250000  0.021939  0.606551  1
  Dy  Dy8  1  0.750000  0.368354  0.206728  1
  Dy  Dy9  1  0.250000  0.631646  0.793272  1
  Dy  Dy10  1  0.750000  0.868354  0.793272  1
  Dy  Dy11  1  0.250000  0.131646  0.206728  1
  Ga  Ga12  1  0.000000  0.750000  0.549234  1
  Ga  Ga13  1  0.500000  0.250000  0.450766  1
  Ga  Ga14  1  0.000000  0.250000  0.450766  1
  Ga  Ga15  1  0.500000  0.750000  0.549234  1
  Ga  Ga16  1  0.750000  0.142095  0.643456  1
  Ga  Ga17  1  0.250000  0.857905  0.356544  1
  Ga  Ga18  1  0.750000  0.642095  0.356544  1
  Ga  Ga19  1  0.250000  0.357905  0.643456  1
  Sn  Sn20  1  0.750000  0.054371  0.088678  1
  Sn  Sn21  1  0.250000  0.945629  0.911322  1
  Sn  Sn22  1  0.750000  0.554371  0.911322  1
  Sn  Sn23  1  0.250000  0.445629  0.088678  1
