# generated using pymatgen
data_K5Li12Tl3B4(P2O7)8
_symmetry_space_group_name_H-M   'P 1'
_cell_length_a   14.10716500
_cell_length_b   14.10716422
_cell_length_c   7.00045200
_cell_angle_alpha   90.00000000
_cell_angle_beta   90.00000000
_cell_angle_gamma   119.70924057
_symmetry_Int_Tables_number   1
_chemical_formula_structural   K5Li12Tl3B4(P2O7)8
_chemical_formula_sum   'K5 Li12 Tl3 B4 P16 O56'
_cell_volume   1210.04402841
_cell_formula_units_Z   1
loop_
 _symmetry_equiv_pos_site_id
 _symmetry_equiv_pos_as_xyz
  1  'x, y, z'
loop_
 _atom_site_type_symbol
 _atom_site_label
 _atom_site_symmetry_multiplicity
 _atom_site_fract_x
 _atom_site_fract_y
 _atom_site_fract_z
 _atom_site_occupancy
  K  K0  1  0.091913  0.591915  0.750001  1
  K  K1  1  0.608602  0.608596  0.695708  1
  K  K2  1  0.391467  0.391377  0.304250  1
  K  K3  1  0.891371  0.891462  0.195740  1
  K  K4  1  0.108597  0.108601  0.804298  1
  Li  Li5  1  0.630471  0.898610  0.974201  1
  Li  Li6  1  0.101327  0.369595  0.025865  1
  Li  Li7  1  0.601074  0.869026  0.474591  1
  Li  Li8  1  0.130560  0.398695  0.525288  1
  Li  Li9  1  0.369026  0.101074  0.025411  1
  Li  Li10  1  0.898695  0.630559  0.974714  1
  Li  Li11  1  0.398610  0.130471  0.525801  1
  Li  Li12  1  0.869595  0.601329  0.474135  1
  Li  Li13  1  0.882628  0.117740  0.999863  1
  Li  Li14  1  0.382271  0.617435  0.498922  1
  Li  Li15  1  0.117437  0.882271  0.001079  1
  Li  Li16  1  0.617741  0.382627  0.500136  1
  Tl  Tl17  1  0.590166  0.090165  0.750001  1
  Tl  Tl18  1  0.910651  0.410651  0.250000  1
  Tl  Tl19  1  0.409858  0.909858  0.250001  1
  B  B20  1  0.881465  0.119247  0.500019  1
  B  B21  1  0.380845  0.618380  0.000910  1
  B  B22  1  0.118380  0.880844  0.499090  1
  B  B23  1  0.619247  0.381464  0.999981  1
  P  P24  1  0.800324  0.924478  0.697862  1
  P  P25  1  0.075756  0.199734  0.302075  1
  P  P26  1  0.575572  0.699708  0.197719  1
  P  P27  1  0.300303  0.424342  0.802214  1
  P  P28  1  0.199708  0.075573  0.302282  1
  P  P29  1  0.924341  0.800303  0.697785  1
  P  P30  1  0.424477  0.300324  0.802136  1
  P  P31  1  0.699734  0.575756  0.197925  1
  P  P32  1  0.404581  0.783342  0.757791  1
  P  P33  1  0.215017  0.594090  0.241847  1
  P  P34  1  0.715792  0.094135  0.257467  1
  P  P35  1  0.906649  0.285384  0.743173  1
  P  P36  1  0.594135  0.215792  0.242534  1
  P  P37  1  0.785385  0.406648  0.756827  1
  P  P38  1  0.283342  0.904581  0.742209  1
  P  P39  1  0.094090  0.715017  0.258153  1
  O  O40  1  0.865090  0.984630  0.870981  1
  O  O41  1  0.015531  0.134913  0.129087  1
  O  O42  1  0.515479  0.634952  0.370892  1
  O  O43  1  0.364946  0.484677  0.629024  1
  O  O44  1  0.134953  0.015481  0.129108  1
  O  O45  1  0.984676  0.864946  0.870975  1
  O  O46  1  0.484630  0.365091  0.629017  1
  O  O47  1  0.634912  0.515531  0.370914  1
  O  O48  1  0.833244  0.999102  0.513677  1
  O  O49  1  0.001440  0.167042  0.486572  1
  O  O50  1  0.500982  0.666934  0.013376  1
  O  O51  1  0.333296  0.498485  0.987048  1
  O  O52  1  0.166933  0.000982  0.486624  1
  O  O53  1  0.998485  0.833295  0.512952  1
  O  O54  1  0.499102  0.333244  0.986321  1
  O  O55  1  0.667042  0.501439  0.013428  1
  O  O56  1  0.832086  0.832156  0.630978  1
  O  O57  1  0.167873  0.167803  0.369409  1
  O  O58  1  0.667802  0.667872  0.130592  1
  O  O59  1  0.332156  0.332086  0.869019  1
  O  O60  1  0.676955  0.862874  0.716843  1
  O  O61  1  0.137236  0.323114  0.282971  1
  O  O62  1  0.637118  0.823041  0.216758  1
  O  O63  1  0.176970  0.363017  0.783162  1
  O  O64  1  0.323041  0.137117  0.283245  1
  O  O65  1  0.863015  0.676970  0.716837  1
  O  O66  1  0.362874  0.176955  0.783155  1
  O  O67  1  0.823113  0.637237  0.217028  1
  O  O68  1  0.483510  0.866863  0.897261  1
  O  O69  1  0.133249  0.517182  0.097956  1
  O  O70  1  0.632771  0.015159  0.397570  1
  O  O71  1  0.986196  0.370331  0.606357  1
  O  O72  1  0.515158  0.132771  0.102430  1
  O  O73  1  0.870331  0.486194  0.893644  1
  O  O74  1  0.366863  0.983510  0.602739  1
  O  O75  1  0.017181  0.633250  0.402045  1
  O  O76  1  0.294031  0.794031  0.750000  1
  O  O77  1  0.204580  0.704580  0.250001  1
  O  O78  1  0.703621  0.203621  0.250000  1
  O  O79  1  0.796614  0.296614  0.749999  1
  O  O80  1  0.353663  0.661106  0.828921  1
  O  O81  1  0.337916  0.644128  0.174153  1
  O  O82  1  0.838205  0.145196  0.327494  1
  O  O83  1  0.855823  0.163192  0.671537  1
  O  O84  1  0.645196  0.338205  0.172506  1
  O  O85  1  0.663193  0.355822  0.828463  1
  O  O86  1  0.161106  0.853663  0.671079  1
  O  O87  1  0.144128  0.837917  0.325846  1
  O  O88  1  0.444115  0.785867  0.555486  1
  O  O89  1  0.210349  0.554551  0.444813  1
  O  O90  1  0.713306  0.054814  0.054981  1
  O  O91  1  0.945051  0.286427  0.945957  1
  O  O92  1  0.554814  0.213306  0.445020  1
  O  O93  1  0.786428  0.445051  0.554043  1
  O  O94  1  0.285868  0.944116  0.944513  1
  O  O95  1  0.054550  0.710349  0.055187  1
