# generated using pymatgen
data_YMg2ZrIn4
_symmetry_space_group_name_H-M   'P 1'
_cell_length_a   6.35481207
_cell_length_b   6.35481236
_cell_length_c   4.54181100
_cell_angle_alpha   90.00000000
_cell_angle_beta   90.00000000
_cell_angle_gamma   91.72110010
_symmetry_Int_Tables_number   1
_chemical_formula_structural   YMg2ZrIn4
_chemical_formula_sum   'Y1 Mg2 Zr1 In4'
_cell_volume   183.33210828
_cell_formula_units_Z   1
loop_
 _symmetry_equiv_pos_site_id
 _symmetry_equiv_pos_as_xyz
  1  'x, y, z'
loop_
 _atom_site_type_symbol
 _atom_site_label
 _atom_site_symmetry_multiplicity
 _atom_site_fract_x
 _atom_site_fract_y
 _atom_site_fract_z
 _atom_site_occupancy
  Y  Y0  1  0.500000  0.500000  0.500000  1
  Mg  Mg1  1  0.755318  0.244682  0.000000  1
  Mg  Mg2  1  0.244682  0.755318  0.000000  1
  Zr  Zr3  1  0.000000  0.000000  0.500000  1
  In  In4  1  0.500000  0.000000  0.500000  1
  In  In5  1  0.000000  0.500000  0.500000  1
  In  In6  1  0.754793  0.754793  0.000000  1
  In  In7  1  0.245207  0.245207  0.000000  1
