# generated using pymatgen
data_TlGaFeF6
_symmetry_space_group_name_H-M   'P 1'
_cell_length_a   7.19491700
_cell_length_b   7.52450500
_cell_length_c   10.32336900
_cell_angle_alpha   90.00000000
_cell_angle_beta   90.00000000
_cell_angle_gamma   90.00000000
_symmetry_Int_Tables_number   1
_chemical_formula_structural   TlGaFeF6
_chemical_formula_sum   'Tl4 Ga4 Fe4 F24'
_cell_volume   558.88850143
_cell_formula_units_Z   4
loop_
 _symmetry_equiv_pos_site_id
 _symmetry_equiv_pos_as_xyz
  1  'x, y, z'
loop_
 _atom_site_type_symbol
 _atom_site_label
 _atom_site_symmetry_multiplicity
 _atom_site_fract_x
 _atom_site_fract_y
 _atom_site_fract_z
 _atom_site_occupancy
  Tl  Tl0  1  0.999995  0.250000  0.613262  1
  Tl  Tl1  1  0.000005  0.750000  0.386738  1
  Tl  Tl2  1  0.500005  0.750000  0.113262  1
  Tl  Tl3  1  0.499995  0.250000  0.886738  1
  Ga  Ga4  1  0.000000  0.000000  0.000000  1
  Ga  Ga5  1  0.500000  0.000000  0.500000  1
  Ga  Ga6  1  0.000000  0.500000  0.000000  1
  Ga  Ga7  1  0.500000  0.500000  0.500000  1
  Fe  Fe8  1  0.213176  0.250000  0.266060  1
  Fe  Fe9  1  0.786824  0.750000  0.733940  1
  Fe  Fe10  1  0.286824  0.750000  0.766060  1
  Fe  Fe11  1  0.713176  0.250000  0.233940  1
  F  F12  1  0.270985  0.060723  0.416911  1
  F  F13  1  0.729015  0.939277  0.583089  1
  F  F14  1  0.229015  0.939277  0.916911  1
  F  F15  1  0.729015  0.560723  0.583089  1
  F  F16  1  0.770985  0.060723  0.083089  1
  F  F17  1  0.270985  0.439277  0.416911  1
  F  F18  1  0.770985  0.439277  0.083089  1
  F  F19  1  0.229015  0.560723  0.916911  1
  F  F20  1  0.557826  0.250000  0.539629  1
  F  F21  1  0.442174  0.750000  0.460371  1
  F  F22  1  0.942174  0.750000  0.039629  1
  F  F23  1  0.057826  0.250000  0.960371  1
  F  F24  1  0.129218  0.481683  0.159980  1
  F  F25  1  0.870782  0.518317  0.840020  1
  F  F26  1  0.370782  0.518317  0.659980  1
  F  F27  1  0.870782  0.981683  0.840020  1
  F  F28  1  0.629218  0.481683  0.340020  1
  F  F29  1  0.129218  0.018317  0.159980  1
  F  F30  1  0.629218  0.018317  0.340020  1
  F  F31  1  0.370782  0.981683  0.659980  1
  F  F32  1  0.447424  0.250000  0.158389  1
  F  F33  1  0.552576  0.750000  0.841611  1
  F  F34  1  0.052576  0.750000  0.658389  1
  F  F35  1  0.947424  0.250000  0.341611  1
