# generated using pymatgen
data_Nb10Ga4Si2N
_symmetry_space_group_name_H-M   'P 1'
_cell_length_a   7.69851144
_cell_length_b   7.71170884
_cell_length_c   5.31888630
_cell_angle_alpha   89.98790001
_cell_angle_beta   90.00606188
_cell_angle_gamma   120.05673716
_symmetry_Int_Tables_number   1
_chemical_formula_structural   Nb10Ga4Si2N
_chemical_formula_sum   'Nb10 Ga4 Si2 N1'
_cell_volume   273.31290139
_cell_formula_units_Z   1
loop_
 _symmetry_equiv_pos_site_id
 _symmetry_equiv_pos_as_xyz
  1  'x, y, z'
loop_
 _atom_site_type_symbol
 _atom_site_label
 _atom_site_symmetry_multiplicity
 _atom_site_fract_x
 _atom_site_fract_y
 _atom_site_fract_z
 _atom_site_occupancy
  Nb  Nb0  1  0.000000  0.764840  0.260766  1
  Nb  Nb1  1  0.237850  0.237544  0.260231  1
  Nb  Nb2  1  0.762150  0.999694  0.260231  1
  Nb  Nb3  1  0.000000  0.234017  0.739072  1
  Nb  Nb4  1  0.761678  0.765934  0.739296  1
  Nb  Nb5  1  0.238322  0.004256  0.739296  1
  Nb  Nb6  1  0.338432  0.667773  0.998085  1
  Nb  Nb7  1  0.661568  0.329340  0.998085  1
  Nb  Nb8  1  0.662437  0.329669  0.501368  1
  Nb  Nb9  1  0.337563  0.667233  0.501368  1
  Ga  Ga10  1  0.000000  0.403168  0.243109  1
  Ga  Ga11  1  0.600283  0.597827  0.243425  1
  Ga  Ga12  1  0.399717  0.997544  0.243425  1
  Ga  Ga13  1  0.000000  0.598934  0.756891  1
  Si  Si14  1  0.401095  0.401960  0.758611  1
  Si  Si15  1  0.598905  0.000865  0.758611  1
  N  N16  1  0.000000  0.999402  0.498129  1
