# generated using pymatgen
data_Dy3Al12FeIr3
_symmetry_space_group_name_H-M   'P 1'
_cell_length_a   8.75180000
_cell_length_b   8.75180039
_cell_length_c   9.44827200
_cell_angle_alpha   90.00000000
_cell_angle_beta   90.00000000
_cell_angle_gamma   120.00000609
_symmetry_Int_Tables_number   1
_chemical_formula_structural   Dy3Al12FeIr3
_chemical_formula_sum   'Dy6 Al24 Fe2 Ir6'
_cell_volume   626.72609895
_cell_formula_units_Z   2
loop_
 _symmetry_equiv_pos_site_id
 _symmetry_equiv_pos_as_xyz
  1  'x, y, z'
loop_
 _atom_site_type_symbol
 _atom_site_label
 _atom_site_symmetry_multiplicity
 _atom_site_fract_x
 _atom_site_fract_y
 _atom_site_fract_z
 _atom_site_occupancy
  Dy  Dy0  1  0.192662  0.807338  0.250000  1
  Dy  Dy1  1  0.192662  0.385322  0.250000  1
  Dy  Dy2  1  0.614678  0.807338  0.250000  1
  Dy  Dy3  1  0.807338  0.192662  0.750000  1
  Dy  Dy4  1  0.807338  0.614678  0.750000  1
  Dy  Dy5  1  0.385322  0.192662  0.750000  1
  Al  Al6  1  0.562782  0.437218  0.250000  1
  Al  Al7  1  0.562782  0.125565  0.250000  1
  Al  Al8  1  0.874435  0.437218  0.250000  1
  Al  Al9  1  0.437218  0.562782  0.750000  1
  Al  Al10  1  0.437218  0.874435  0.750000  1
  Al  Al11  1  0.125565  0.562782  0.750000  1
  Al  Al12  1  0.320487  0.160244  0.424185  1
  Al  Al13  1  0.839756  0.160244  0.424185  1
  Al  Al14  1  0.839756  0.679513  0.424185  1
  Al  Al15  1  0.679513  0.839756  0.575815  1
  Al  Al16  1  0.160244  0.839756  0.575815  1
  Al  Al17  1  0.160244  0.320487  0.575815  1
  Al  Al18  1  0.679513  0.839756  0.924185  1
  Al  Al19  1  0.160244  0.839756  0.924185  1
  Al  Al20  1  0.160244  0.320487  0.924185  1
  Al  Al21  1  0.320487  0.160244  0.075815  1
  Al  Al22  1  0.839756  0.160244  0.075815  1
  Al  Al23  1  0.839756  0.679513  0.075815  1
  Al  Al24  1  0.666667  0.333333  0.527830  1
  Al  Al25  1  0.333333  0.666667  0.472170  1
  Al  Al26  1  0.333333  0.666667  0.027830  1
  Al  Al27  1  0.666667  0.333333  0.972170  1
  Al  Al28  1  0.000000  0.000000  0.250000  1
  Al  Al29  1  0.000000  0.000000  0.750000  1
  Fe  Fe30  1  0.000000  0.000000  0.500000  1
  Fe  Fe31  1  0.000000  0.000000  0.000000  1
  Ir  Ir32  1  0.500000  0.500000  0.500000  1
  Ir  Ir33  1  0.500000  0.000000  0.500000  1
  Ir  Ir34  1  0.000000  0.500000  0.500000  1
  Ir  Ir35  1  0.500000  0.500000  0.000000  1
  Ir  Ir36  1  0.500000  0.000000  0.000000  1
  Ir  Ir37  1  0.000000  0.500000  0.000000  1
