# generated using pymatgen
data_Dy2YTa(Co4P3)2
_symmetry_space_group_name_H-M   'P 1'
_cell_length_a   3.70946500
_cell_length_b   10.63892600
_cell_length_c   12.33801300
_cell_angle_alpha   90.00000000
_cell_angle_beta   90.00000000
_cell_angle_gamma   90.00000000
_symmetry_Int_Tables_number   1
_chemical_formula_structural   Dy2YTa(Co4P3)2
_chemical_formula_sum   'Dy4 Y2 Ta2 Co16 P12'
_cell_volume   486.91627324
_cell_formula_units_Z   2
loop_
 _symmetry_equiv_pos_site_id
 _symmetry_equiv_pos_as_xyz
  1  'x, y, z'
loop_
 _atom_site_type_symbol
 _atom_site_label
 _atom_site_symmetry_multiplicity
 _atom_site_fract_x
 _atom_site_fract_y
 _atom_site_fract_z
 _atom_site_occupancy
  Dy  Dy0  1  0.500000  0.820580  0.204896  1
  Dy  Dy1  1  0.500000  0.179420  0.204896  1
  Dy  Dy2  1  0.000000  0.679420  0.795104  1
  Dy  Dy3  1  0.000000  0.320580  0.795104  1
  Y  Y4  1  0.000000  0.500000  0.526403  1
  Y  Y5  1  0.500000  0.000000  0.473597  1
  Ta  Ta6  1  0.500000  0.500000  0.156162  1
  Ta  Ta7  1  0.000000  0.000000  0.843838  1
  Co  Co8  1  0.500000  0.500000  0.702537  1
  Co  Co9  1  0.000000  0.000000  0.297463  1
  Co  Co10  1  0.000000  0.500000  0.986948  1
  Co  Co11  1  0.500000  0.000000  0.013052  1
  Co  Co12  1  0.500000  0.332653  0.992351  1
  Co  Co13  1  0.500000  0.667347  0.992351  1
  Co  Co14  1  0.000000  0.167347  0.007649  1
  Co  Co15  1  0.000000  0.832653  0.007649  1
  Co  Co16  1  0.500000  0.295305  0.432090  1
  Co  Co17  1  0.500000  0.704695  0.432090  1
  Co  Co18  1  0.000000  0.204695  0.567910  1
  Co  Co19  1  0.000000  0.795305  0.567910  1
  Co  Co20  1  0.500000  0.877816  0.706044  1
  Co  Co21  1  0.500000  0.122184  0.706044  1
  Co  Co22  1  0.000000  0.622184  0.293956  1
  Co  Co23  1  0.000000  0.377816  0.293956  1
  P  P24  1  0.500000  0.500000  0.882063  1
  P  P25  1  0.000000  0.000000  0.117937  1
  P  P26  1  0.500000  0.500000  0.355921  1
  P  P27  1  0.000000  0.000000  0.644079  1
  P  P28  1  0.500000  0.310711  0.615833  1
  P  P29  1  0.500000  0.689289  0.615833  1
  P  P30  1  0.000000  0.189289  0.384167  1
  P  P31  1  0.000000  0.810711  0.384167  1
  P  P32  1  0.500000  0.841100  0.893252  1
  P  P33  1  0.500000  0.158900  0.893252  1
  P  P34  1  0.000000  0.658900  0.106748  1
  P  P35  1  0.000000  0.341100  0.106748  1
