# generated using pymatgen
data_Er5Tm3Tc3B24Os
_symmetry_space_group_name_H-M   'P 1'
_cell_length_a   3.64275900
_cell_length_b   9.09994024
_cell_length_c   11.47490103
_cell_angle_alpha   89.95564797
_cell_angle_beta   90.00000000
_cell_angle_gamma   90.00000000
_symmetry_Int_Tables_number   1
_chemical_formula_structural   Er5Tm3Tc3B24Os
_chemical_formula_sum   'Er5 Tm3 Tc3 B24 Os1'
_cell_volume   380.38010881
_cell_formula_units_Z   1
loop_
 _symmetry_equiv_pos_site_id
 _symmetry_equiv_pos_as_xyz
  1  'x, y, z'
loop_
 _atom_site_type_symbol
 _atom_site_label
 _atom_site_symmetry_multiplicity
 _atom_site_fract_x
 _atom_site_fract_y
 _atom_site_fract_z
 _atom_site_occupancy
  Er  Er0  1  0.000000  0.323406  0.413791  1
  Er  Er1  1  0.000000  0.675567  0.584343  1
  Er  Er2  1  0.000000  0.822636  0.087306  1
  Er  Er3  1  0.000000  0.178308  0.914492  1
  Er  Er4  1  0.000000  0.942709  0.370311  1
  Tm  Tm5  1  0.000000  0.058091  0.629921  1
  Tm  Tm6  1  0.000000  0.443084  0.129960  1
  Tm  Tm7  1  0.000000  0.556845  0.869700  1
  Tc  Tc8  1  0.000000  0.638273  0.320345  1
  Tc  Tc9  1  0.000000  0.361495  0.680174  1
  Tc  Tc10  1  0.000000  0.138272  0.178357  1
  B  B11  1  0.500000  0.553013  0.433115  1
  B  B12  1  0.500000  0.446822  0.566665  1
  B  B13  1  0.500000  0.053061  0.066629  1
  B  B14  1  0.500000  0.946301  0.933157  1
  B  B15  1  0.500000  0.749009  0.419119  1
  B  B16  1  0.500000  0.250437  0.580950  1
  B  B17  1  0.500000  0.249895  0.080931  1
  B  B18  1  0.500000  0.750649  0.918807  1
  B  B19  1  0.500000  0.791999  0.265300  1
  B  B20  1  0.500000  0.207952  0.735184  1
  B  B21  1  0.500000  0.292253  0.234837  1
  B  B22  1  0.500000  0.708573  0.765123  1
  B  B23  1  0.500000  0.630674  0.185083  1
  B  B24  1  0.500000  0.369229  0.815367  1
  B  B25  1  0.500000  0.130492  0.314488  1
  B  B26  1  0.500000  0.869264  0.685251  1
  B  B27  1  0.500000  0.981373  0.211814  1
  B  B28  1  0.500000  0.017597  0.788025  1
  B  B29  1  0.500000  0.481484  0.287817  1
  B  B30  1  0.500000  0.518309  0.711973  1
  B  B31  1  0.500000  0.601340  0.027916  1
  B  B32  1  0.500000  0.399774  0.971909  1
  B  B33  1  0.500000  0.101264  0.472190  1
  B  B34  1  0.500000  0.898905  0.528739  1
  Os  Os35  1  0.000000  0.861644  0.820911  1
