# generated using pymatgen
data_Ba2LaPr(Ga3O7)2
_symmetry_space_group_name_H-M   'P 1'
_cell_length_a   8.23492390
_cell_length_b   8.23492479
_cell_length_c   5.47146371
_cell_angle_alpha   90.07972389
_cell_angle_beta   90.07972470
_cell_angle_gamma   91.28961324
_symmetry_Int_Tables_number   1
_chemical_formula_structural   Ba2LaPr(Ga3O7)2
_chemical_formula_sum   'Ba2 La1 Pr1 Ga6 O14'
_cell_volume   370.94700777
_cell_formula_units_Z   1
loop_
 _symmetry_equiv_pos_site_id
 _symmetry_equiv_pos_as_xyz
  1  'x, y, z'
loop_
 _atom_site_type_symbol
 _atom_site_label
 _atom_site_symmetry_multiplicity
 _atom_site_fract_x
 _atom_site_fract_y
 _atom_site_fract_z
 _atom_site_occupancy
  Ba  Ba0  1  0.162612  0.836927  0.494953  1
  Ba  Ba1  1  0.836927  0.162612  0.494953  1
  La  La2  1  0.338667  0.338667  0.514419  1
  Pr  Pr3  1  0.660680  0.660680  0.517344  1
  Ga  Ga4  1  0.362290  0.638483  0.032365  1
  Ga  Ga5  1  0.850101  0.850101  0.970493  1
  Ga  Ga6  1  0.638483  0.362290  0.032365  1
  Ga  Ga7  1  0.149328  0.149328  0.970014  1
  Ga  Ga8  1  0.500241  0.999361  0.991982  1
  Ga  Ga9  1  0.999361  0.500241  0.991982  1
  O  O10  1  0.999636  0.999636  0.849084  1
  O  O11  1  0.501422  0.501422  0.208068  1
  O  O12  1  0.377533  0.624515  0.698765  1
  O  O13  1  0.838558  0.838558  0.300572  1
  O  O14  1  0.624515  0.377533  0.698765  1
  O  O15  1  0.160982  0.160982  0.300765  1
  O  O16  1  0.422904  0.832411  0.189686  1
  O  O17  1  0.902907  0.658833  0.793840  1
  O  O18  1  0.577975  0.167930  0.187389  1
  O  O19  1  0.095282  0.340421  0.795643  1
  O  O20  1  0.340421  0.095282  0.795643  1
  O  O21  1  0.832411  0.422904  0.189686  1
  O  O22  1  0.658833  0.902907  0.793840  1
  O  O23  1  0.167930  0.577975  0.187389  1
