# generated using pymatgen
data_Ho20GeIrRu10
_symmetry_space_group_name_H-M   'P 1'
_cell_length_a   10.80592426
_cell_length_b   10.80576699
_cell_length_c   6.36916141
_cell_angle_alpha   90.17007322
_cell_angle_beta   89.79234105
_cell_angle_gamma   90.12521433
_symmetry_Int_Tables_number   1
_chemical_formula_structural   Ho20GeIrRu10
_chemical_formula_sum   'Ho20 Ge1 Ir1 Ru10'
_cell_volume   743.69349069
_cell_formula_units_Z   1
loop_
 _symmetry_equiv_pos_site_id
 _symmetry_equiv_pos_as_xyz
  1  'x, y, z'
loop_
 _atom_site_type_symbol
 _atom_site_label
 _atom_site_symmetry_multiplicity
 _atom_site_fract_x
 _atom_site_fract_y
 _atom_site_fract_z
 _atom_site_occupancy
  Ho  Ho0  1  0.294126  0.087506  0.376115  1
  Ho  Ho1  1  0.290972  0.914548  0.875409  1
  Ho  Ho2  1  0.706131  0.090947  0.875969  1
  Ho  Ho3  1  0.703690  0.916638  0.368694  1
  Ho  Ho4  1  0.581414  0.793226  0.873862  1
  Ho  Ho5  1  0.587370  0.207242  0.376923  1
  Ho  Ho6  1  0.413744  0.792078  0.377845  1
  Ho  Ho7  1  0.412710  0.209767  0.877684  1
  Ho  Ho8  1  0.208566  0.412094  0.621851  1
  Ho  Ho9  1  0.207159  0.586928  0.122097  1
  Ho  Ho10  1  0.792070  0.412793  0.122712  1
  Ho  Ho11  1  0.792352  0.580871  0.626604  1
  Ho  Ho12  1  0.916292  0.703514  0.131432  1
  Ho  Ho13  1  0.913289  0.290435  0.625032  1
  Ho  Ho14  1  0.089470  0.705679  0.623763  1
  Ho  Ho15  1  0.087395  0.293777  0.123825  1
  Ho  Ho16  1  0.002720  0.002763  0.497064  1
  Ho  Ho17  1  0.002840  0.002312  0.002465  1
  Ho  Ho18  1  0.501049  0.500010  0.001774  1
  Ho  Ho19  1  0.500751  0.498581  0.498683  1
  Ge  Ge20  1  0.844534  0.844624  0.749785  1
  Ir  Ir21  1  0.346860  0.653805  0.749342  1
  Ru  Ru22  1  0.848895  0.150811  0.251775  1
  Ru  Ru23  1  0.153339  0.152939  0.750062  1
  Ru  Ru24  1  0.151763  0.847749  0.248081  1
  Ru  Ru25  1  0.652597  0.347258  0.750950  1
  Ru  Ru26  1  0.652062  0.653507  0.250642  1
  Ru  Ru27  1  0.346028  0.347761  0.249306  1
  Ru  Ru28  1  0.499810  0.000258  0.122672  1
  Ru  Ru29  1  0.498236  0.001756  0.626210  1
  Ru  Ru30  1  0.001094  0.498223  0.873958  1
  Ru  Ru31  1  0.000671  0.499600  0.377412  1
