# generated using pymatgen
data_Rb5NaSn2Se7
_symmetry_space_group_name_H-M   'P 1'
_cell_length_a   8.23362935
_cell_length_b   8.23362841
_cell_length_c   17.57780964
_cell_angle_alpha   81.32144146
_cell_angle_beta   81.32144185
_cell_angle_gamma   93.68977936
_symmetry_Int_Tables_number   1
_chemical_formula_structural   Rb5NaSn2Se7
_chemical_formula_sum   'Rb10 Na2 Sn4 Se14'
_cell_volume   1159.87764936
_cell_formula_units_Z   2
loop_
 _symmetry_equiv_pos_site_id
 _symmetry_equiv_pos_as_xyz
  1  'x, y, z'
loop_
 _atom_site_type_symbol
 _atom_site_label
 _atom_site_symmetry_multiplicity
 _atom_site_fract_x
 _atom_site_fract_y
 _atom_site_fract_z
 _atom_site_occupancy
  Rb  Rb0  1  0.000000  0.000000  0.500000  1
  Rb  Rb1  1  0.000000  0.000000  0.000000  1
  Rb  Rb2  1  0.464928  0.764587  0.917292  1
  Rb  Rb3  1  0.535072  0.235413  0.082708  1
  Rb  Rb4  1  0.235413  0.535072  0.582708  1
  Rb  Rb5  1  0.764587  0.464928  0.417292  1
  Rb  Rb6  1  0.488491  0.043296  0.642875  1
  Rb  Rb7  1  0.511509  0.956705  0.357125  1
  Rb  Rb8  1  0.956704  0.511509  0.857125  1
  Rb  Rb9  1  0.043296  0.488491  0.142875  1
  Na  Na10  1  0.907526  0.092474  0.750000  1
  Na  Na11  1  0.092474  0.907526  0.250000  1
  Sn  Sn12  1  0.410955  0.268982  0.854835  1
  Sn  Sn13  1  0.589045  0.731018  0.145165  1
  Sn  Sn14  1  0.731018  0.589045  0.645165  1
  Sn  Sn15  1  0.268982  0.410955  0.354835  1
  Se  Se16  1  0.226606  0.051100  0.810999  1
  Se  Se17  1  0.773394  0.948900  0.189001  1
  Se  Se18  1  0.948900  0.773394  0.689001  1
  Se  Se19  1  0.051100  0.226606  0.310999  1
  Se  Se20  1  0.457889  0.542111  0.750000  1
  Se  Se21  1  0.542111  0.457889  0.250000  1
  Se  Se22  1  0.680787  0.160243  0.885396  1
  Se  Se23  1  0.319213  0.839757  0.114604  1
  Se  Se24  1  0.839757  0.319213  0.614604  1
  Se  Se25  1  0.160243  0.680787  0.385396  1
  Se  Se26  1  0.624602  0.755808  0.531152  1
  Se  Se27  1  0.375398  0.244192  0.468848  1
  Se  Se28  1  0.244192  0.375398  0.968848  1
  Se  Se29  1  0.755808  0.624602  0.031152  1
