# generated using pymatgen
data_Pr5ScIrO12
_symmetry_space_group_name_H-M   'P 1'
_cell_length_a   7.19178041
_cell_length_b   7.19178101
_cell_length_c   7.67431613
_cell_angle_alpha   74.53817315
_cell_angle_beta   74.53817041
_cell_angle_gamma   50.55614688
_symmetry_Int_Tables_number   1
_chemical_formula_structural   Pr5ScIrO12
_chemical_formula_sum   'Pr5 Sc1 Ir1 O12'
_cell_volume   292.90229390
_cell_formula_units_Z   1
loop_
 _symmetry_equiv_pos_site_id
 _symmetry_equiv_pos_as_xyz
  1  'x, y, z'
loop_
 _atom_site_type_symbol
 _atom_site_label
 _atom_site_symmetry_multiplicity
 _atom_site_fract_x
 _atom_site_fract_y
 _atom_site_fract_z
 _atom_site_occupancy
  Pr  Pr0  1  0.307702  0.298107  0.358719  1
  Pr  Pr1  1  0.701893  0.692298  0.641281  1
  Pr  Pr2  1  0.689476  0.700005  0.164938  1
  Pr  Pr3  1  0.299995  0.310524  0.835062  1
  Pr  Pr4  1  0.009369  0.990631  0.500000  1
  Sc  Sc5  1  0.758738  0.241262  0.000000  1
  Ir  Ir6  1  0.245665  0.754335  0.000000  1
  O  O7  1  0.097922  0.596042  0.573163  1
  O  O8  1  0.021012  0.978376  0.179407  1
  O  O9  1  0.403958  0.902078  0.426837  1
  O  O10  1  0.482476  0.518957  0.177349  1
  O  O11  1  0.099133  0.587080  0.080534  1
  O  O12  1  0.907120  0.401679  0.421467  1
  O  O13  1  0.021624  0.978988  0.820593  1
  O  O14  1  0.598321  0.092879  0.578533  1
  O  O15  1  0.481043  0.517524  0.822651  1
  O  O16  1  0.565102  0.103470  0.081164  1
  O  O17  1  0.412920  0.900867  0.919466  1
  O  O18  1  0.896530  0.434898  0.918836  1
