# generated using pymatgen
data_Nd3AlAu5
_symmetry_space_group_name_H-M   'P 1'
_cell_length_a   8.66430796
_cell_length_b   8.66430848
_cell_length_c   13.79837400
_cell_angle_alpha   90.00000000
_cell_angle_beta   90.00000000
_cell_angle_gamma   127.79416004
_symmetry_Int_Tables_number   1
_chemical_formula_structural   Nd3AlAu5
_chemical_formula_sum   'Nd12 Al4 Au20'
_cell_volume   818.54456818
_cell_formula_units_Z   4
loop_
 _symmetry_equiv_pos_site_id
 _symmetry_equiv_pos_as_xyz
  1  'x, y, z'
loop_
 _atom_site_type_symbol
 _atom_site_label
 _atom_site_symmetry_multiplicity
 _atom_site_fract_x
 _atom_site_fract_y
 _atom_site_fract_z
 _atom_site_occupancy
  Nd  Nd0  1  0.929742  0.070258  0.250000  1
  Nd  Nd1  1  0.070258  0.929742  0.750000  1
  Nd  Nd2  1  0.317553  0.682447  0.250000  1
  Nd  Nd3  1  0.682447  0.317553  0.750000  1
  Nd  Nd4  1  0.631282  0.368718  0.466504  1
  Nd  Nd5  1  0.368718  0.631282  0.533496  1
  Nd  Nd6  1  0.631282  0.368718  0.033496  1
  Nd  Nd7  1  0.368718  0.631282  0.966504  1
  Nd  Nd8  1  0.881659  0.118341  0.950545  1
  Nd  Nd9  1  0.118341  0.881659  0.049455  1
  Nd  Nd10  1  0.881659  0.118341  0.549455  1
  Nd  Nd11  1  0.118341  0.881659  0.450545  1
  Al  Al12  1  0.718151  0.281849  0.250000  1
  Al  Al13  1  0.281849  0.718151  0.750000  1
  Al  Al14  1  0.534217  0.465783  0.250000  1
  Al  Al15  1  0.465783  0.534217  0.750000  1
  Au  Au16  1  0.327435  0.072714  0.250000  1
  Au  Au17  1  0.072714  0.327435  0.750000  1
  Au  Au18  1  0.672565  0.927286  0.750000  1
  Au  Au19  1  0.927286  0.672565  0.250000  1
  Au  Au20  1  0.573978  0.007181  0.394940  1
  Au  Au21  1  0.007181  0.573978  0.605060  1
  Au  Au22  1  0.573978  0.007181  0.105060  1
  Au  Au23  1  0.007181  0.573978  0.894940  1
  Au  Au24  1  0.426022  0.992819  0.605060  1
  Au  Au25  1  0.992819  0.426022  0.394940  1
  Au  Au26  1  0.426022  0.992819  0.894940  1
  Au  Au27  1  0.992819  0.426022  0.105060  1
  Au  Au28  1  0.684035  0.737872  0.392948  1
  Au  Au29  1  0.737872  0.684035  0.607052  1
  Au  Au30  1  0.684035  0.737872  0.107052  1
  Au  Au31  1  0.737872  0.684035  0.892948  1
  Au  Au32  1  0.315965  0.262128  0.607052  1
  Au  Au33  1  0.262128  0.315965  0.392948  1
  Au  Au34  1  0.315965  0.262128  0.892948  1
  Au  Au35  1  0.262128  0.315965  0.107052  1
