# generated using pymatgen
data_Pa4FeNi3P4
_symmetry_space_group_name_H-M   'P 1'
_cell_length_a   3.88383900
_cell_length_b   3.88383818
_cell_length_c   15.38771300
_cell_angle_alpha   90.00000000
_cell_angle_beta   90.00000000
_cell_angle_gamma   120.00001552
_symmetry_Int_Tables_number   1
_chemical_formula_structural   Pa4FeNi3P4
_chemical_formula_sum   'Pa4 Fe1 Ni3 P4'
_cell_volume   201.01431499
_cell_formula_units_Z   1
loop_
 _symmetry_equiv_pos_site_id
 _symmetry_equiv_pos_as_xyz
  1  'x, y, z'
loop_
 _atom_site_type_symbol
 _atom_site_label
 _atom_site_symmetry_multiplicity
 _atom_site_fract_x
 _atom_site_fract_y
 _atom_site_fract_z
 _atom_site_occupancy
  Pa  Pa0  1  0.000000  0.000000  0.491562  1
  Pa  Pa1  1  0.000000  0.000000  0.000659  1
  Pa  Pa2  1  0.000000  0.000000  0.254553  1
  Pa  Pa3  1  0.000000  0.000000  0.749447  1
  Fe  Fe4  1  0.333333  0.666667  0.385826  1
  Ni  Ni5  1  0.666667  0.333333  0.624444  1
  Ni  Ni6  1  0.666667  0.333333  0.876725  1
  Ni  Ni7  1  0.333333  0.666667  0.122192  1
  P  P8  1  0.333333  0.666667  0.875079  1
  P  P9  1  0.666667  0.333333  0.127134  1
  P  P10  1  0.666667  0.333333  0.368123  1
  P  P11  1  0.333333  0.666667  0.624257  1
