# generated using pymatgen
data_Li4CaYb2(SiN3)2
_symmetry_space_group_name_H-M   'P 1'
_cell_length_a   5.62274218
_cell_length_b   5.62274264
_cell_length_c   5.99751310
_cell_angle_alpha   89.78593785
_cell_angle_beta   89.78593532
_cell_angle_gamma   118.09620696
_symmetry_Int_Tables_number   1
_chemical_formula_structural   Li4CaYb2(SiN3)2
_chemical_formula_sum   'Li4 Ca1 Yb2 Si2 N6'
_cell_volume   167.26401701
_cell_formula_units_Z   1
loop_
 _symmetry_equiv_pos_site_id
 _symmetry_equiv_pos_as_xyz
  1  'x, y, z'
loop_
 _atom_site_type_symbol
 _atom_site_label
 _atom_site_symmetry_multiplicity
 _atom_site_fract_x
 _atom_site_fract_y
 _atom_site_fract_z
 _atom_site_occupancy
  Li  Li0  1  0.314551  0.964694  0.125908  1
  Li  Li1  1  0.964694  0.314551  0.125908  1
  Li  Li2  1  0.685449  0.035306  0.874092  1
  Li  Li3  1  0.035306  0.685449  0.874092  1
  Ca  Ca4  1  0.500000  0.500000  0.000000  1
  Yb  Yb5  1  0.311597  0.688403  0.500000  1
  Yb  Yb6  1  0.688403  0.311597  0.500000  1
  Si  Si7  1  0.119154  0.119154  0.668825  1
  Si  Si8  1  0.880846  0.880846  0.331175  1
  N  N9  1  0.936706  0.634453  0.210527  1
  N  N10  1  0.195389  0.195389  0.368495  1
  N  N11  1  0.804611  0.804611  0.631505  1
  N  N12  1  0.063294  0.365547  0.789473  1
  N  N13  1  0.365547  0.063294  0.789473  1
  N  N14  1  0.634453  0.936706  0.210527  1
