# generated using pymatgen
data_Ca18Yb2(Zn3Cd)3
_symmetry_space_group_name_H-M   'P 1'
_cell_length_a   7.96644000
_cell_length_b   7.96644000
_cell_length_c   15.18721400
_cell_angle_alpha   90.00000000
_cell_angle_beta   90.00000000
_cell_angle_gamma   90.00000000
_symmetry_Int_Tables_number   1
_chemical_formula_structural   Ca18Yb2(Zn3Cd)3
_chemical_formula_sum   'Ca18 Yb2 Zn9 Cd3'
_cell_volume   963.84387453
_cell_formula_units_Z   1
loop_
 _symmetry_equiv_pos_site_id
 _symmetry_equiv_pos_as_xyz
  1  'x, y, z'
loop_
 _atom_site_type_symbol
 _atom_site_label
 _atom_site_symmetry_multiplicity
 _atom_site_fract_x
 _atom_site_fract_y
 _atom_site_fract_z
 _atom_site_occupancy
  Ca  Ca0  1  0.674530  0.165154  0.103607  1
  Ca  Ca1  1  0.169774  0.670029  0.606177  1
  Ca  Ca2  1  0.325470  0.834846  0.103607  1
  Ca  Ca3  1  0.830226  0.329971  0.606177  1
  Ca  Ca4  1  0.834846  0.674530  0.103607  1
  Ca  Ca5  1  0.329971  0.169774  0.606177  1
  Ca  Ca6  1  0.165154  0.325470  0.103607  1
  Ca  Ca7  1  0.670029  0.830226  0.606177  1
  Ca  Ca8  1  0.834846  0.325470  0.896393  1
  Ca  Ca9  1  0.329971  0.830226  0.393823  1
  Ca  Ca10  1  0.165154  0.674530  0.896393  1
  Ca  Ca11  1  0.670029  0.169774  0.393823  1
  Ca  Ca12  1  0.674530  0.834846  0.896393  1
  Ca  Ca13  1  0.169774  0.329971  0.393823  1
  Ca  Ca14  1  0.325470  0.165154  0.896393  1
  Ca  Ca15  1  0.830226  0.670029  0.393823  1
  Ca  Ca16  1  0.500000  0.500000  0.754300  1
  Ca  Ca17  1  0.500000  0.500000  0.245700  1
  Yb  Yb18  1  0.000000  0.000000  0.249899  1
  Yb  Yb19  1  0.000000  0.000000  0.750101  1
  Zn  Zn20  1  0.618889  0.119320  0.751593  1
  Zn  Zn21  1  0.119320  0.618889  0.248407  1
  Zn  Zn22  1  0.880680  0.381111  0.248407  1
  Zn  Zn23  1  0.381111  0.880680  0.751593  1
  Zn  Zn24  1  0.880680  0.618889  0.751593  1
  Zn  Zn25  1  0.381111  0.119320  0.248407  1
  Zn  Zn26  1  0.119320  0.381111  0.751593  1
  Zn  Zn27  1  0.618889  0.880680  0.248407  1
  Zn  Zn28  1  0.000000  0.000000  0.000000  1
  Cd  Cd29  1  0.500000  0.500000  0.500000  1
  Cd  Cd30  1  0.500000  0.500000  0.000000  1
  Cd  Cd31  1  0.000000  0.000000  0.500000  1
