# generated using pymatgen
data_Er3Tm(HfRh)4
_symmetry_space_group_name_H-M   'P 1'
_cell_length_a   4.58816300
_cell_length_b   6.97062185
_cell_length_c   8.22182022
_cell_angle_alpha   89.99720735
_cell_angle_beta   90.00000000
_cell_angle_gamma   90.00000000
_symmetry_Int_Tables_number   1
_chemical_formula_structural   Er3Tm(HfRh)4
_chemical_formula_sum   'Er3 Tm1 Hf4 Rh4'
_cell_volume   262.95312550
_cell_formula_units_Z   1
loop_
 _symmetry_equiv_pos_site_id
 _symmetry_equiv_pos_as_xyz
  1  'x, y, z'
loop_
 _atom_site_type_symbol
 _atom_site_label
 _atom_site_symmetry_multiplicity
 _atom_site_fract_x
 _atom_site_fract_y
 _atom_site_fract_z
 _atom_site_occupancy
  Er  Er0  1  0.250000  0.516126  0.177783  1
  Er  Er1  1  0.750000  0.483739  0.822357  1
  Er  Er2  1  0.750000  0.984037  0.677206  1
  Tm  Tm3  1  0.250000  0.016402  0.322676  1
  Hf  Hf4  1  0.250000  0.641064  0.573824  1
  Hf  Hf5  1  0.750000  0.358750  0.425709  1
  Hf  Hf6  1  0.750000  0.859259  0.074760  1
  Hf  Hf7  1  0.250000  0.140673  0.926225  1
  Rh  Rh8  1  0.250000  0.767800  0.911159  1
  Rh  Rh9  1  0.750000  0.232022  0.089147  1
  Rh  Rh10  1  0.750000  0.732587  0.410874  1
  Rh  Rh11  1  0.250000  0.267541  0.588280  1
