# generated using pymatgen
data_Re2Tc2Os3Ru
_symmetry_space_group_name_H-M   'P 1'
_cell_length_a   5.54067260
_cell_length_b   5.52617296
_cell_length_c   4.38296800
_cell_angle_alpha   90.00000000
_cell_angle_beta   90.00000000
_cell_angle_gamma   120.03640272
_symmetry_Int_Tables_number   1
_chemical_formula_structural   Re2Tc2Os3Ru
_chemical_formula_sum   'Re2 Tc2 Os3 Ru1'
_cell_volume   116.17868842
_cell_formula_units_Z   1
loop_
 _symmetry_equiv_pos_site_id
 _symmetry_equiv_pos_as_xyz
  1  'x, y, z'
loop_
 _atom_site_type_symbol
 _atom_site_label
 _atom_site_symmetry_multiplicity
 _atom_site_fract_x
 _atom_site_fract_y
 _atom_site_fract_z
 _atom_site_occupancy
  Re  Re0  1  0.165812  0.332000  0.250000  1
  Re  Re1  1  0.832368  0.667021  0.750000  1
  Tc  Tc2  1  0.335205  0.665884  0.750000  1
  Tc  Tc3  1  0.665694  0.333007  0.250000  1
  Os  Os4  1  0.665111  0.829990  0.250000  1
  Os  Os5  1  0.164704  0.830118  0.250000  1
  Os  Os6  1  0.335940  0.172316  0.750000  1
  Ru  Ru7  1  0.835165  0.169664  0.750000  1
