# generated using pymatgen
data_LiTa2Ti5H16
_symmetry_space_group_name_H-M   'P 1'
_cell_length_a   6.26124438
_cell_length_b   6.26124402
_cell_length_c   6.31701400
_cell_angle_alpha   59.70491309
_cell_angle_beta   59.70491502
_cell_angle_gamma   60.59018541
_symmetry_Int_Tables_number   1
_chemical_formula_structural   LiTa2Ti5H16
_chemical_formula_sum   'Li1 Ta2 Ti5 H16'
_cell_volume   175.08487527
_cell_formula_units_Z   1
loop_
 _symmetry_equiv_pos_site_id
 _symmetry_equiv_pos_as_xyz
  1  'x, y, z'
loop_
 _atom_site_type_symbol
 _atom_site_label
 _atom_site_symmetry_multiplicity
 _atom_site_fract_x
 _atom_site_fract_y
 _atom_site_fract_z
 _atom_site_occupancy
  Li  Li0  1  0.000000  0.000000  0.000000  1
  Ta  Ta1  1  0.000000  0.000000  0.500000  1
  Ta  Ta2  1  0.500000  0.500000  0.000000  1
  Ti  Ti3  1  0.500000  0.500000  0.500000  1
  Ti  Ti4  1  0.500000  0.000000  0.500000  1
  Ti  Ti5  1  0.000000  0.500000  0.500000  1
  Ti  Ti6  1  0.000000  0.500000  0.000000  1
  Ti  Ti7  1  0.500000  0.000000  0.000000  1
  H  H8  1  0.874668  0.874668  0.374773  1
  H  H9  1  0.875894  0.374773  0.874668  1
  H  H10  1  0.374773  0.875894  0.874668  1
  H  H11  1  0.874668  0.874668  0.875894  1
  H  H12  1  0.125332  0.125332  0.625227  1
  H  H13  1  0.124106  0.625227  0.125332  1
  H  H14  1  0.625227  0.124106  0.125332  1
  H  H15  1  0.125332  0.125332  0.124106  1
  H  H16  1  0.625982  0.625982  0.127197  1
  H  H17  1  0.620840  0.127197  0.625982  1
  H  H18  1  0.127197  0.620840  0.625982  1
  H  H19  1  0.625982  0.625982  0.620840  1
  H  H20  1  0.374018  0.374018  0.872803  1
  H  H21  1  0.379160  0.872803  0.374018  1
  H  H22  1  0.872803  0.379160  0.374018  1
  H  H23  1  0.374018  0.374018  0.379160  1
