# generated using pymatgen
data_Dy4Al18IrPd3Rh2
_symmetry_space_group_name_H-M   'P 1'
_cell_length_a   7.60762206
_cell_length_b   7.60762110
_cell_length_c   9.45259701
_cell_angle_alpha   90.00579338
_cell_angle_beta   90.00578497
_cell_angle_gamma   119.59919490
_symmetry_Int_Tables_number   1
_chemical_formula_structural   Dy4Al18IrPd3Rh2
_chemical_formula_sum   'Dy4 Al18 Ir1 Pd3 Rh2'
_cell_volume   475.68500125
_cell_formula_units_Z   1
loop_
 _symmetry_equiv_pos_site_id
 _symmetry_equiv_pos_as_xyz
  1  'x, y, z'
loop_
 _atom_site_type_symbol
 _atom_site_label
 _atom_site_symmetry_multiplicity
 _atom_site_fract_x
 _atom_site_fract_y
 _atom_site_fract_z
 _atom_site_occupancy
  Dy  Dy0  1  0.995895  0.670472  0.250372  1
  Dy  Dy1  1  0.005350  0.330318  0.749782  1
  Dy  Dy2  1  0.669674  0.994641  0.250214  1
  Dy  Dy3  1  0.329518  0.004098  0.749627  1
  Al  Al4  1  0.126544  0.127436  0.249861  1
  Al  Al5  1  0.872555  0.873448  0.750138  1
  Al  Al6  1  0.000469  0.331254  0.076215  1
  Al  Al7  1  0.999010  0.668888  0.923170  1
  Al  Al8  1  0.996619  0.664738  0.574982  1
  Al  Al9  1  0.335254  0.003373  0.425016  1
  Al  Al10  1  0.995554  0.330766  0.425177  1
  Al  Al11  1  0.669227  0.004439  0.574820  1
  Al  Al12  1  0.668739  0.999523  0.923783  1
  Al  Al13  1  0.331106  0.000983  0.076828  1
  Al  Al14  1  0.333114  0.329660  0.551994  1
  Al  Al15  1  0.670333  0.666878  0.448004  1
  Al  Al16  1  0.669604  0.669472  0.055622  1
  Al  Al17  1  0.330522  0.330390  0.944376  1
  Al  Al18  1  0.340449  0.546507  0.250671  1
  Al  Al19  1  0.658816  0.451109  0.746765  1
  Al  Al20  1  0.548884  0.341175  0.253235  1
  Al  Al21  1  0.453483  0.659543  0.749327  1
  Ir  Ir22  1  0.000269  0.999726  0.499999  1
  Pd  Pd23  1  0.672322  0.327678  0.999997  1
  Pd  Pd24  1  0.327315  0.672675  0.000000  1
  Pd  Pd25  1  0.327445  0.672548  0.499999  1
  Rh  Rh26  1  0.671991  0.328083  0.500020  1
  Rh  Rh27  1  0.999940  0.000177  0.000007  1
