# generated using pymatgen
data_Dy7Y(AlRu)8
_symmetry_space_group_name_H-M   'P 1'
_cell_length_a   4.07905200
_cell_length_b   7.00639645
_cell_length_c   15.97298036
_cell_angle_alpha   89.90285654
_cell_angle_beta   90.00000000
_cell_angle_gamma   90.00000000
_symmetry_Int_Tables_number   1
_chemical_formula_structural   Dy7Y(AlRu)8
_chemical_formula_sum   'Dy7 Y1 Al8 Ru8'
_cell_volume   456.49842454
_cell_formula_units_Z   1
loop_
 _symmetry_equiv_pos_site_id
 _symmetry_equiv_pos_as_xyz
  1  'x, y, z'
loop_
 _atom_site_type_symbol
 _atom_site_label
 _atom_site_symmetry_multiplicity
 _atom_site_fract_x
 _atom_site_fract_y
 _atom_site_fract_z
 _atom_site_occupancy
  Dy  Dy0  1  0.750000  0.963822  0.219395  1
  Dy  Dy1  1  0.250000  0.160550  0.562875  1
  Dy  Dy2  1  0.750000  0.842512  0.436603  1
  Dy  Dy3  1  0.750000  0.464114  0.280662  1
  Dy  Dy4  1  0.750000  0.339705  0.063146  1
  Dy  Dy5  1  0.250000  0.657024  0.937205  1
  Dy  Dy6  1  0.250000  0.035284  0.780667  1
  Y  Y7  1  0.250000  0.536829  0.719076  1
  Al  Al8  1  0.750000  0.502077  0.565273  1
  Al  Al9  1  0.750000  0.364025  0.848841  1
  Al  Al10  1  0.750000  0.998652  0.934830  1
  Al  Al11  1  0.750000  0.866236  0.650839  1
  Al  Al12  1  0.250000  0.500979  0.434536  1
  Al  Al13  1  0.250000  0.998262  0.065707  1
  Al  Al14  1  0.250000  0.634050  0.151150  1
  Al  Al15  1  0.250000  0.135679  0.348922  1
  Ru  Ru16  1  0.750000  0.746900  0.813159  1
  Ru  Ru17  1  0.250000  0.233395  0.936839  1
  Ru  Ru18  1  0.750000  0.266285  0.436522  1
  Ru  Ru19  1  0.250000  0.753726  0.312368  1
  Ru  Ru20  1  0.750000  0.763749  0.063530  1
  Ru  Ru21  1  0.750000  0.245856  0.687747  1
  Ru  Ru22  1  0.250000  0.252729  0.187638  1
  Ru  Ru23  1  0.250000  0.737560  0.562473  1
