# generated using pymatgen
data_Nd3Dy(ScIr)4
_symmetry_space_group_name_H-M   'P 1'
_cell_length_a   7.23279344
_cell_length_b   4.32067000
_cell_length_c   8.86141157
_cell_angle_alpha   90.00000000
_cell_angle_beta   89.68349384
_cell_angle_gamma   90.00000000
_symmetry_Int_Tables_number   1
_chemical_formula_structural   Nd3Dy(ScIr)4
_chemical_formula_sum   'Nd3 Dy1 Sc4 Ir4'
_cell_volume   276.91943797
_cell_formula_units_Z   1
loop_
 _symmetry_equiv_pos_site_id
 _symmetry_equiv_pos_as_xyz
  1  'x, y, z'
loop_
 _atom_site_type_symbol
 _atom_site_label
 _atom_site_symmetry_multiplicity
 _atom_site_fract_x
 _atom_site_fract_y
 _atom_site_fract_z
 _atom_site_occupancy
  Nd  Nd0  1  0.483885  0.250000  0.320393  1
  Nd  Nd1  1  0.015684  0.750000  0.822994  1
  Nd  Nd2  1  0.516250  0.750000  0.677273  1
  Dy  Dy3  1  0.979696  0.250000  0.174884  1
  Sc  Sc4  1  0.865685  0.250000  0.560410  1
  Sc  Sc5  1  0.360835  0.250000  0.938986  1
  Sc  Sc6  1  0.138022  0.750000  0.431024  1
  Sc  Sc7  1  0.639126  0.750000  0.065988  1
  Ir  Ir8  1  0.736820  0.250000  0.904776  1
  Ir  Ir9  1  0.237133  0.250000  0.600616  1
  Ir  Ir10  1  0.259598  0.750000  0.105301  1
  Ir  Ir11  1  0.767263  0.750000  0.397357  1
