# generated using pymatgen
data_BaPu2O7
_symmetry_space_group_name_H-M   'P 1'
_cell_length_a   7.06063490
_cell_length_b   7.06354700
_cell_length_c   7.95874048
_cell_angle_alpha   116.45612180
_cell_angle_beta   116.47764236
_cell_angle_gamma   89.99891342
_symmetry_Int_Tables_number   1
_chemical_formula_structural   BaPu2O7
_chemical_formula_sum   'Ba2 Pu4 O14'
_cell_volume   308.16114260
_cell_formula_units_Z   2
loop_
 _symmetry_equiv_pos_site_id
 _symmetry_equiv_pos_as_xyz
  1  'x, y, z'
loop_
 _atom_site_type_symbol
 _atom_site_label
 _atom_site_symmetry_multiplicity
 _atom_site_fract_x
 _atom_site_fract_y
 _atom_site_fract_z
 _atom_site_occupancy
  Ba  Ba0  1  0.125021  0.875009  0.250066  1
  Ba  Ba1  1  0.874980  0.124989  0.749935  1
  Pu  Pu2  1  0.500000  0.000002  0.000002  1
  Pu  Pu3  1  0.500001  0.500001  0.000000  1
  Pu  Pu4  1  0.000000  0.500001  0.500000  1
  Pu  Pu5  1  0.499999  0.500003  0.500000  1
  O  O6  1  0.236056  0.999983  0.999918  1
  O  O7  1  0.763946  0.000020  0.000084  1
  O  O8  1  0.235662  0.499939  0.999916  1
  O  O9  1  0.764335  0.500064  0.000083  1
  O  O10  1  0.594927  0.844861  0.189597  1
  O  O11  1  0.625038  0.374841  0.249967  1
  O  O12  1  0.155185  0.405082  0.310180  1
  O  O13  1  0.000010  0.236304  0.499954  1
  O  O14  1  0.499943  0.235823  0.499951  1
  O  O15  1  0.999989  0.763696  0.500047  1
  O  O16  1  0.500058  0.764172  0.500051  1
  O  O17  1  0.844815  0.594915  0.689821  1
  O  O18  1  0.374962  0.625157  0.750034  1
  O  O19  1  0.405073  0.155142  0.810403  1
