# generated using pymatgen
data_Er4Al18NiRh5
_symmetry_space_group_name_H-M   'P 1'
_cell_length_a   7.53058556
_cell_length_b   7.53058573
_cell_length_c   9.40946513
_cell_angle_alpha   90.13552388
_cell_angle_beta   90.13552375
_cell_angle_gamma   119.69985995
_symmetry_Int_Tables_number   1
_chemical_formula_structural   Er4Al18NiRh5
_chemical_formula_sum   'Er4 Al18 Ni1 Rh5'
_cell_volume   463.50434794
_cell_formula_units_Z   1
loop_
 _symmetry_equiv_pos_site_id
 _symmetry_equiv_pos_as_xyz
  1  'x, y, z'
loop_
 _atom_site_type_symbol
 _atom_site_label
 _atom_site_symmetry_multiplicity
 _atom_site_fract_x
 _atom_site_fract_y
 _atom_site_fract_z
 _atom_site_occupancy
  Er  Er0  1  0.994574  0.668955  0.749489  1
  Er  Er1  1  0.005426  0.331045  0.250511  1
  Er  Er2  1  0.668955  0.994574  0.749489  1
  Er  Er3  1  0.331045  0.005426  0.250511  1
  Al  Al4  1  0.123804  0.123804  0.747018  1
  Al  Al5  1  0.876196  0.876196  0.252982  1
  Al  Al6  1  0.999368  0.332243  0.574924  1
  Al  Al7  1  0.000632  0.667757  0.425076  1
  Al  Al8  1  0.999807  0.665850  0.075501  1
  Al  Al9  1  0.334150  0.000193  0.924499  1
  Al  Al10  1  0.000193  0.334150  0.924499  1
  Al  Al11  1  0.665850  0.999807  0.075501  1
  Al  Al12  1  0.667757  0.000632  0.425076  1
  Al  Al13  1  0.332243  0.999368  0.574924  1
  Al  Al14  1  0.333031  0.333031  0.051993  1
  Al  Al15  1  0.666969  0.666969  0.948007  1
  Al  Al16  1  0.669408  0.669408  0.550804  1
  Al  Al17  1  0.330592  0.330592  0.449196  1
  Al  Al18  1  0.338999  0.548756  0.749460  1
  Al  Al19  1  0.661001  0.451244  0.250540  1
  Al  Al20  1  0.548756  0.338999  0.749460  1
  Al  Al21  1  0.451244  0.661001  0.250540  1
  Ni  Ni22  1  0.000000  0.000000  0.500000  1
  Rh  Rh23  1  0.671866  0.328134  0.500000  1
  Rh  Rh24  1  0.328134  0.671866  0.500000  1
  Rh  Rh25  1  0.327899  0.672101  0.000000  1
  Rh  Rh26  1  0.672101  0.327899  0.000000  1
  Rh  Rh27  1  0.000000  0.000000  0.000000  1
