# generated using pymatgen
data_K2Mg(HgSe2)2
_symmetry_space_group_name_H-M   'P 1'
_cell_length_a   6.87028400
_cell_length_b   10.99305800
_cell_length_c   14.54437900
_cell_angle_alpha   90.00000000
_cell_angle_beta   90.00000000
_cell_angle_gamma   90.00000000
_symmetry_Int_Tables_number   1
_chemical_formula_structural   K2Mg(HgSe2)2
_chemical_formula_sum   'K8 Mg4 Hg8 Se16'
_cell_volume   1098.47048516
_cell_formula_units_Z   4
loop_
 _symmetry_equiv_pos_site_id
 _symmetry_equiv_pos_as_xyz
  1  'x, y, z'
loop_
 _atom_site_type_symbol
 _atom_site_label
 _atom_site_symmetry_multiplicity
 _atom_site_fract_x
 _atom_site_fract_y
 _atom_site_fract_z
 _atom_site_occupancy
  K  K0  1  0.725265  0.876419  0.503963  1
  K  K1  1  0.274735  0.123581  0.496037  1
  K  K2  1  0.774735  0.623581  0.003963  1
  K  K3  1  0.725265  0.123581  0.996037  1
  K  K4  1  0.225265  0.376419  0.996037  1
  K  K5  1  0.274735  0.876419  0.003963  1
  K  K6  1  0.774735  0.376419  0.496037  1
  K  K7  1  0.225265  0.623581  0.503963  1
  Mg  Mg8  1  0.590816  0.500000  0.750000  1
  Mg  Mg9  1  0.409184  0.500000  0.250000  1
  Mg  Mg10  1  0.909184  0.000000  0.250000  1
  Mg  Mg11  1  0.090816  0.000000  0.750000  1
  Hg  Hg12  1  0.587868  0.837324  0.758612  1
  Hg  Hg13  1  0.412132  0.162676  0.241388  1
  Hg  Hg14  1  0.912132  0.662676  0.258612  1
  Hg  Hg15  1  0.587868  0.162676  0.741388  1
  Hg  Hg16  1  0.087868  0.337324  0.741388  1
  Hg  Hg17  1  0.412132  0.837324  0.258612  1
  Hg  Hg18  1  0.912132  0.337324  0.241388  1
  Hg  Hg19  1  0.087868  0.662676  0.758612  1
  Se  Se20  1  0.815213  0.629051  0.642071  1
  Se  Se21  1  0.184787  0.370949  0.357929  1
  Se  Se22  1  0.684787  0.870949  0.142071  1
  Se  Se23  1  0.815213  0.370949  0.857929  1
  Se  Se24  1  0.315213  0.129051  0.857929  1
  Se  Se25  1  0.184787  0.629051  0.142071  1
  Se  Se26  1  0.684787  0.129051  0.357929  1
  Se  Se27  1  0.315213  0.870949  0.642071  1
  Se  Se28  1  0.877445  0.875466  0.865406  1
  Se  Se29  1  0.122555  0.124534  0.134594  1
  Se  Se30  1  0.622555  0.624534  0.365406  1
  Se  Se31  1  0.877445  0.124534  0.634594  1
  Se  Se32  1  0.377445  0.375466  0.634594  1
  Se  Se33  1  0.122555  0.875466  0.365406  1
  Se  Se34  1  0.622555  0.375466  0.134594  1
  Se  Se35  1  0.377445  0.624534  0.865406  1
