# generated using pymatgen
data_Pr8Y11Si16Mo
_symmetry_space_group_name_H-M   'P 1'
_cell_length_a   7.46292164
_cell_length_b   7.78441274
_cell_length_c   14.80766200
_cell_angle_alpha   90.00000000
_cell_angle_beta   90.00000000
_cell_angle_gamma   89.90377585
_symmetry_Int_Tables_number   1
_chemical_formula_structural   Pr8Y11Si16Mo
_chemical_formula_sum   'Pr8 Y11 Si16 Mo1'
_cell_volume   860.24194802
_cell_formula_units_Z   1
loop_
 _symmetry_equiv_pos_site_id
 _symmetry_equiv_pos_as_xyz
  1  'x, y, z'
loop_
 _atom_site_type_symbol
 _atom_site_label
 _atom_site_symmetry_multiplicity
 _atom_site_fract_x
 _atom_site_fract_y
 _atom_site_fract_z
 _atom_site_occupancy
  Pr  Pr0  1  0.023909  0.179636  0.403894  1
  Pr  Pr1  1  0.523184  0.320162  0.405592  1
  Pr  Pr2  1  0.482108  0.685027  0.897427  1
  Pr  Pr3  1  0.482108  0.685027  0.602573  1
  Pr  Pr4  1  0.971468  0.824805  0.602036  1
  Pr  Pr5  1  0.971468  0.824805  0.897964  1
  Pr  Pr6  1  0.523184  0.320162  0.094408  1
  Pr  Pr7  1  0.023909  0.179636  0.096106  1
  Y  Y8  1  0.321344  0.170545  0.627139  1
  Y  Y9  1  0.680941  0.822454  0.379637  1
  Y  Y10  1  0.180963  0.678596  0.378597  1
  Y  Y11  1  0.816314  0.317710  0.873446  1
  Y  Y12  1  0.816314  0.317710  0.626554  1
  Y  Y13  1  0.849496  0.487628  0.250000  1
  Y  Y14  1  0.350026  0.012093  0.250000  1
  Y  Y15  1  0.321344  0.170545  0.872861  1
  Y  Y16  1  0.180963  0.678596  0.121403  1
  Y  Y17  1  0.680941  0.822454  0.120363  1
  Y  Y18  1  0.149968  0.512353  0.750000  1
  Si  Si19  1  0.285090  0.877916  0.750000  1
  Si  Si20  1  0.474520  0.611342  0.250000  1
  Si  Si21  1  0.010713  0.099418  0.750000  1
  Si  Si22  1  0.524197  0.381572  0.750000  1
  Si  Si23  1  0.145893  0.469099  0.541268  1
  Si  Si24  1  0.972465  0.887200  0.250000  1
  Si  Si25  1  0.732317  0.118639  0.250000  1
  Si  Si26  1  0.857160  0.530509  0.036780  1
  Si  Si27  1  0.357125  0.969592  0.037808  1
  Si  Si28  1  0.145893  0.469099  0.958732  1
  Si  Si29  1  0.643485  0.028911  0.548678  1
  Si  Si30  1  0.357125  0.969592  0.462192  1
  Si  Si31  1  0.857160  0.530509  0.463220  1
  Si  Si32  1  0.767869  0.638629  0.750000  1
  Si  Si33  1  0.233459  0.380786  0.250000  1
  Si  Si34  1  0.643485  0.028911  0.951322  1
  Mo  Mo35  1  0.642092  0.998332  0.750000  1
