# generated using pymatgen
data_CsGa2SbO6
_symmetry_space_group_name_H-M   'P 1'
_cell_length_a   7.86748126
_cell_length_b   7.86748145
_cell_length_c   7.86748021
_cell_angle_alpha   39.08359528
_cell_angle_beta   39.08359379
_cell_angle_gamma   39.08359648
_symmetry_Int_Tables_number   1
_chemical_formula_structural   CsGa2SbO6
_chemical_formula_sum   'Cs1 Ga2 Sb1 O6'
_cell_volume   174.09802343
_cell_formula_units_Z   1
loop_
 _symmetry_equiv_pos_site_id
 _symmetry_equiv_pos_as_xyz
  1  'x, y, z'
loop_
 _atom_site_type_symbol
 _atom_site_label
 _atom_site_symmetry_multiplicity
 _atom_site_fract_x
 _atom_site_fract_y
 _atom_site_fract_z
 _atom_site_occupancy
  Cs  Cs0  1  0.000000  0.000000  0.000000  1
  Ga  Ga1  1  0.170462  0.170462  0.170462  1
  Ga  Ga2  1  0.829538  0.829538  0.829538  1
  Sb  Sb3  1  0.500000  0.500000  0.500000  1
  O  O4  1  0.785095  0.450295  0.122418  1
  O  O5  1  0.549706  0.877581  0.214905  1
  O  O6  1  0.122419  0.785094  0.450295  1
  O  O7  1  0.877581  0.214906  0.549705  1
  O  O8  1  0.450294  0.122419  0.785095  1
  O  O9  1  0.214905  0.549705  0.877582  1
