# generated using pymatgen
data_PuNb2(Fe10B3)2
_symmetry_space_group_name_H-M   'P 1'
_cell_length_a   7.62323164
_cell_length_b   7.62067628
_cell_length_c   7.61788611
_cell_angle_alpha   60.01731090
_cell_angle_beta   60.00689143
_cell_angle_gamma   59.96990017
_symmetry_Int_Tables_number   1
_chemical_formula_structural   PuNb2(Fe10B3)2
_chemical_formula_sum   'Pu1 Nb2 Fe20 B6'
_cell_volume   312.91946975
_cell_formula_units_Z   1
loop_
 _symmetry_equiv_pos_site_id
 _symmetry_equiv_pos_as_xyz
  1  'x, y, z'
loop_
 _atom_site_type_symbol
 _atom_site_label
 _atom_site_symmetry_multiplicity
 _atom_site_fract_x
 _atom_site_fract_y
 _atom_site_fract_z
 _atom_site_occupancy
  Pu  Pu0  1  0.000000  0.000000  0.000000  1
  Nb  Nb1  1  0.249874  0.250069  0.250056  1
  Nb  Nb2  1  0.750126  0.749931  0.749944  1
  Fe  Fe3  1  0.347488  0.652597  0.999963  1
  Fe  Fe4  1  0.347514  0.999997  0.652541  1
  Fe  Fe5  1  0.999959  0.652601  0.347437  1
  Fe  Fe6  1  0.615272  0.154030  0.615322  1
  Fe  Fe7  1  0.384754  0.384649  0.845957  1
  Fe  Fe8  1  0.845986  0.384651  0.384718  1
  Fe  Fe9  1  0.384713  0.384609  0.384658  1
  Fe  Fe10  1  0.154014  0.615349  0.615282  1
  Fe  Fe11  1  0.615287  0.615391  0.615342  1
  Fe  Fe12  1  0.615246  0.615351  0.154043  1
  Fe  Fe13  1  0.384728  0.845970  0.384678  1
  Fe  Fe14  1  0.652512  0.347403  0.000037  1
  Fe  Fe15  1  0.000041  0.347399  0.652563  1
  Fe  Fe16  1  0.652504  0.000016  0.000059  1
  Fe  Fe17  1  0.999992  0.999981  0.347401  1
  Fe  Fe18  1  0.000008  0.000019  0.652599  1
  Fe  Fe19  1  0.000032  0.347374  0.999981  1
  Fe  Fe20  1  0.652486  0.000003  0.347459  1
  Fe  Fe21  1  0.347496  0.999984  0.999941  1
  Fe  Fe22  1  0.999968  0.652626  0.000019  1
  B  B23  1  0.273780  0.273909  0.726137  1
  B  B24  1  0.726220  0.726091  0.273863  1
  B  B25  1  0.726229  0.273856  0.726109  1
  B  B26  1  0.273771  0.726144  0.273891  1
  B  B27  1  0.273788  0.726166  0.726176  1
  B  B28  1  0.726212  0.273834  0.273824  1
