# generated using pymatgen
data_Nd2MgNi5(BIr)2
_symmetry_space_group_name_H-M   'P 1'
_cell_length_a   5.32481388
_cell_length_b   5.32481427
_cell_length_c   7.12712100
_cell_angle_alpha   90.00000000
_cell_angle_beta   90.00000000
_cell_angle_gamma   122.09344493
_symmetry_Int_Tables_number   1
_chemical_formula_structural   Nd2MgNi5(BIr)2
_chemical_formula_sum   'Nd2 Mg1 Ni5 B2 Ir2'
_cell_volume   171.19856240
_cell_formula_units_Z   1
loop_
 _symmetry_equiv_pos_site_id
 _symmetry_equiv_pos_as_xyz
  1  'x, y, z'
loop_
 _atom_site_type_symbol
 _atom_site_label
 _atom_site_symmetry_multiplicity
 _atom_site_fract_x
 _atom_site_fract_y
 _atom_site_fract_z
 _atom_site_occupancy
  Nd  Nd0  1  0.002347  0.997653  0.500000  1
  Nd  Nd1  1  0.989678  0.010322  0.000000  1
  Mg  Mg2  1  0.315077  0.684923  0.000000  1
  Ni  Ni3  1  0.669469  0.330531  0.000000  1
  Ni  Ni4  1  0.505910  0.001427  0.304223  1
  Ni  Ni5  1  0.998573  0.494090  0.304223  1
  Ni  Ni6  1  0.505910  0.001427  0.695777  1
  Ni  Ni7  1  0.998573  0.494090  0.695777  1
  B  B8  1  0.669290  0.330710  0.500000  1
  B  B9  1  0.334825  0.665175  0.500000  1
  Ir  Ir10  1  0.505174  0.494826  0.289172  1
  Ir  Ir11  1  0.505174  0.494826  0.710828  1
