# generated using pymatgen
data_Nd5(MoO6)2
_symmetry_space_group_name_H-M   'P 1'
_cell_length_a   7.10464400
_cell_length_b   7.10464419
_cell_length_c   7.62303590
_cell_angle_alpha   74.54473079
_cell_angle_beta   74.54472717
_cell_angle_gamma   51.57860189
_symmetry_Int_Tables_number   1
_chemical_formula_structural   Nd5(MoO6)2
_chemical_formula_sum   'Nd5 Mo2 O12'
_cell_volume   287.95467572
_cell_formula_units_Z   1
loop_
 _symmetry_equiv_pos_site_id
 _symmetry_equiv_pos_as_xyz
  1  'x, y, z'
loop_
 _atom_site_type_symbol
 _atom_site_label
 _atom_site_symmetry_multiplicity
 _atom_site_fract_x
 _atom_site_fract_y
 _atom_site_fract_z
 _atom_site_occupancy
  Nd  Nd0  1  0.303336  0.303336  0.360454  1
  Nd  Nd1  1  0.696664  0.696664  0.639546  1
  Nd  Nd2  1  0.306997  0.306997  0.830170  1
  Nd  Nd3  1  0.693003  0.693003  0.169830  1
  Nd  Nd4  1  0.000000  0.000000  0.500000  1
  Mo  Mo5  1  0.755793  0.244207  0.000000  1
  Mo  Mo6  1  0.244207  0.755793  0.000000  1
  O  O7  1  0.895897  0.427711  0.918340  1
  O  O8  1  0.427711  0.895897  0.918340  1
  O  O9  1  0.104103  0.572289  0.081660  1
  O  O10  1  0.572289  0.104103  0.081660  1
  O  O11  1  0.095657  0.596420  0.575963  1
  O  O12  1  0.596420  0.095657  0.575963  1
  O  O13  1  0.904343  0.403580  0.424037  1
  O  O14  1  0.403580  0.904343  0.424037  1
  O  O15  1  0.999424  0.999424  0.821376  1
  O  O16  1  0.000576  0.000576  0.178624  1
  O  O17  1  0.498835  0.498835  0.818837  1
  O  O18  1  0.501165  0.501165  0.181163  1
