# generated using pymatgen
data_LaAl5SiPd
_symmetry_space_group_name_H-M   'P 1'
_cell_length_a   4.34907200
_cell_length_b   4.34907200
_cell_length_c   8.09798200
_cell_angle_alpha   90.00000000
_cell_angle_beta   90.00000000
_cell_angle_gamma   90.00000000
_symmetry_Int_Tables_number   1
_chemical_formula_structural   LaAl5SiPd
_chemical_formula_sum   'La1 Al5 Si1 Pd1'
_cell_volume   153.16869150
_cell_formula_units_Z   1
loop_
 _symmetry_equiv_pos_site_id
 _symmetry_equiv_pos_as_xyz
  1  'x, y, z'
loop_
 _atom_site_type_symbol
 _atom_site_label
 _atom_site_symmetry_multiplicity
 _atom_site_fract_x
 _atom_site_fract_y
 _atom_site_fract_z
 _atom_site_occupancy
  La  La0  1  0.000000  0.000000  0.001564  1
  Al  Al1  1  0.500000  0.000000  0.328227  1
  Al  Al2  1  0.000000  0.500000  0.328227  1
  Al  Al3  1  0.500000  0.000000  0.667980  1
  Al  Al4  1  0.000000  0.500000  0.667980  1
  Al  Al5  1  0.500000  0.500000  0.855588  1
  Si  Si6  1  0.500000  0.500000  0.155512  1
  Pd  Pd7  1  0.000000  0.000000  0.494918  1
