# generated using pymatgen
data_K4MnTcBr12
_symmetry_space_group_name_H-M   'P 1'
_cell_length_a   7.69423953
_cell_length_b   7.33042472
_cell_length_c   12.57119900
_cell_angle_alpha   54.25042563
_cell_angle_beta   89.97869533
_cell_angle_gamma   90.36384874
_symmetry_Int_Tables_number   1
_chemical_formula_structural   K4MnTcBr12
_chemical_formula_sum   'K4 Mn1 Tc1 Br12'
_cell_volume   575.42367923
_cell_formula_units_Z   1
loop_
 _symmetry_equiv_pos_site_id
 _symmetry_equiv_pos_as_xyz
  1  'x, y, z'
loop_
 _atom_site_type_symbol
 _atom_site_label
 _atom_site_symmetry_multiplicity
 _atom_site_fract_x
 _atom_site_fract_y
 _atom_site_fract_z
 _atom_site_occupancy
  K  K0  1  0.431620  0.732536  0.245601  1
  K  K1  1  0.932880  0.267286  0.248055  1
  K  K2  1  0.067120  0.732714  0.751945  1
  K  K3  1  0.568380  0.267464  0.754399  1
  Mn  Mn4  1  0.000000  0.000000  0.000000  1
  Tc  Tc5  1  0.500000  0.000000  0.500000  1
  Br  Br6  1  0.817178  0.306441  0.965727  1
  Br  Br7  1  0.502869  0.178977  0.256024  1
  Br  Br8  1  0.497131  0.821023  0.743976  1
  Br  Br9  1  0.265851  0.216926  0.969627  1
  Br  Br10  1  0.310278  0.682603  0.536785  1
  Br  Br11  1  0.227342  0.220245  0.469454  1
  Br  Br12  1  0.182822  0.693559  0.034273  1
  Br  Br13  1  0.772658  0.779755  0.530546  1
  Br  Br14  1  0.734149  0.783074  0.030373  1
  Br  Br15  1  0.002810  0.826704  0.236238  1
  Br  Br16  1  0.997190  0.173296  0.763762  1
  Br  Br17  1  0.689722  0.317397  0.463215  1
