# generated using pymatgen
data_Li2U2(OF2)3
_symmetry_space_group_name_H-M   'P 1'
_cell_length_a   5.94372500
_cell_length_b   5.94372589
_cell_length_c   22.86828900
_cell_angle_alpha   90.00000000
_cell_angle_beta   90.00000000
_cell_angle_gamma   120.00001177
_symmetry_Int_Tables_number   1
_chemical_formula_structural   Li2U2(OF2)3
_chemical_formula_sum   'Li6 U6 O9 F18'
_cell_volume   699.65143969
_cell_formula_units_Z   3
loop_
 _symmetry_equiv_pos_site_id
 _symmetry_equiv_pos_as_xyz
  1  'x, y, z'
loop_
 _atom_site_type_symbol
 _atom_site_label
 _atom_site_symmetry_multiplicity
 _atom_site_fract_x
 _atom_site_fract_y
 _atom_site_fract_z
 _atom_site_occupancy
  Li  Li0  1  0.450828  0.450273  0.140041  1
  Li  Li1  1  0.000556  0.549727  0.526625  1
  Li  Li2  1  0.450273  0.450828  0.859959  1
  Li  Li3  1  0.549727  0.000556  0.473375  1
  Li  Li4  1  0.549172  0.999444  0.193292  1
  Li  Li5  1  0.999444  0.549172  0.806708  1
  U  U6  1  0.778929  0.111029  0.050559  1
  U  U7  1  0.667900  0.888971  0.616108  1
  U  U8  1  0.221071  0.332100  0.282775  1
  U  U9  1  0.888971  0.667900  0.383892  1
  U  U10  1  0.332100  0.221071  0.717225  1
  U  U11  1  0.111029  0.778929  0.949441  1
  O  O12  1  0.098690  0.000000  0.333333  1
  O  O13  1  0.901310  0.901310  0.000000  1
  O  O14  1  0.508120  0.579476  0.675546  1
  O  O15  1  0.579476  0.508120  0.324454  1
  O  O16  1  0.420524  0.928643  0.008880  1
  O  O17  1  0.000000  0.098690  0.666667  1
  O  O18  1  0.928643  0.420524  0.991120  1
  O  O19  1  0.071357  0.491880  0.342213  1
  O  O20  1  0.491880  0.071357  0.657787  1
  F  F21  1  0.346514  0.698102  0.554867  1
  F  F22  1  0.151628  0.860321  0.764234  1
  F  F23  1  0.291309  0.139679  0.902433  1
  F  F24  1  0.818624  0.623787  0.878716  1
  F  F25  1  0.648412  0.301898  0.111800  1
  F  F26  1  0.623787  0.818624  0.121284  1
  F  F27  1  0.194837  0.376213  0.787951  1
  F  F28  1  0.181376  0.805163  0.454617  1
  F  F29  1  0.653486  0.351588  0.778466  1
  F  F30  1  0.708691  0.848372  0.430901  1
  F  F31  1  0.376213  0.194837  0.212049  1
  F  F32  1  0.139679  0.291309  0.097567  1
  F  F33  1  0.860321  0.151628  0.235766  1
  F  F34  1  0.351588  0.653486  0.221534  1
  F  F35  1  0.301898  0.648412  0.888200  1
  F  F36  1  0.698102  0.346514  0.445133  1
  F  F37  1  0.805163  0.181376  0.545383  1
  F  F38  1  0.848372  0.708691  0.569099  1
