# generated using pymatgen
data_Li8Y8Sn3Sb5
_symmetry_space_group_name_H-M   'P 1'
_cell_length_a   9.40139518
_cell_length_b   9.40139575
_cell_length_c   7.18483042
_cell_angle_alpha   90.10904592
_cell_angle_beta   89.89095204
_cell_angle_gamma   120.00363639
_symmetry_Int_Tables_number   1
_chemical_formula_structural   Li8Y8Sn3Sb5
_chemical_formula_sum   'Li8 Y8 Sn3 Sb5'
_cell_volume   549.93939697
_cell_formula_units_Z   1
loop_
 _symmetry_equiv_pos_site_id
 _symmetry_equiv_pos_as_xyz
  1  'x, y, z'
loop_
 _atom_site_type_symbol
 _atom_site_label
 _atom_site_symmetry_multiplicity
 _atom_site_fract_x
 _atom_site_fract_y
 _atom_site_fract_z
 _atom_site_occupancy
  Li  Li0  1  0.167865  0.832135  0.198169  1
  Li  Li1  1  0.335366  0.167384  0.697739  1
  Li  Li2  1  0.832616  0.664634  0.697739  1
  Li  Li3  1  0.166362  0.334947  0.198873  1
  Li  Li4  1  0.665053  0.833638  0.198873  1
  Li  Li5  1  0.832238  0.167762  0.698456  1
  Li  Li6  1  0.333198  0.666802  0.811046  1
  Li  Li7  1  0.667407  0.332593  0.310291  1
  Y  Y8  1  0.512161  0.487839  0.993561  1
  Y  Y9  1  0.024395  0.510232  0.491897  1
  Y  Y10  1  0.489768  0.975605  0.491897  1
  Y  Y11  1  0.514744  0.026410  0.993665  1
  Y  Y12  1  0.973590  0.485256  0.993665  1
  Y  Y13  1  0.487809  0.512191  0.492220  1
  Y  Y14  1  0.998860  0.001140  0.982785  1
  Y  Y15  1  0.998757  0.001243  0.481018  1
  Sn  Sn16  1  0.833682  0.166318  0.253429  1
  Sn  Sn17  1  0.333673  0.666327  0.223898  1
  Sn  Sn18  1  0.666039  0.333961  0.724200  1
  Sb  Sb19  1  0.166348  0.833652  0.751225  1
  Sb  Sb20  1  0.332753  0.166788  0.251378  1
  Sb  Sb21  1  0.833212  0.667247  0.251378  1
  Sb  Sb22  1  0.166924  0.332820  0.751302  1
  Sb  Sb23  1  0.667180  0.833076  0.751302  1
