# generated using pymatgen
data_Zn(AsH4)2
_symmetry_space_group_name_H-M   'P 1'
_cell_length_a   6.04381730
_cell_length_b   4.38721258
_cell_length_c   12.17684613
_cell_angle_alpha   84.65925165
_cell_angle_beta   96.64427357
_cell_angle_gamma   133.26476813
_symmetry_Int_Tables_number   1
_chemical_formula_structural   Zn(AsH4)2
_chemical_formula_sum   'Zn1 As2 H8'
_cell_volume   233.49447188
_cell_formula_units_Z   1
loop_
 _symmetry_equiv_pos_site_id
 _symmetry_equiv_pos_as_xyz
  1  'x, y, z'
loop_
 _atom_site_type_symbol
 _atom_site_label
 _atom_site_symmetry_multiplicity
 _atom_site_fract_x
 _atom_site_fract_y
 _atom_site_fract_z
 _atom_site_occupancy
  Zn  Zn0  1  0.362750  0.133197  0.447741  1
  As  As1  1  0.840165  0.670077  0.349088  1
  As  As2  1  0.368959  0.615435  0.548038  1
  H  H3  1  0.830055  0.519411  0.238877  1
  H  H4  1  0.105850  0.355253  0.623553  1
  H  H5  1  0.397968  0.770882  0.855794  1
  H  H6  1  0.798688  0.958926  0.295676  1
  H  H7  1  0.321609  0.704483  0.139304  1
  H  H8  1  0.616524  0.825311  0.642770  1
  H  H9  1  0.392749  0.796776  0.085065  1
  H  H10  1  0.438999  0.662614  0.890189  1
