# generated using pymatgen
data_Ag(IBr4)3
_symmetry_space_group_name_H-M   'P 1'
_cell_length_a   7.32087975
_cell_length_b   12.08647636
_cell_length_c   12.43309210
_cell_angle_alpha   46.13379469
_cell_angle_beta   90.02615734
_cell_angle_gamma   93.20066660
_symmetry_Int_Tables_number   1
_chemical_formula_structural   Ag(IBr4)3
_chemical_formula_sum   'Ag1 I3 Br12'
_cell_volume   790.79116787
_cell_formula_units_Z   1
loop_
 _symmetry_equiv_pos_site_id
 _symmetry_equiv_pos_as_xyz
  1  'x, y, z'
loop_
 _atom_site_type_symbol
 _atom_site_label
 _atom_site_symmetry_multiplicity
 _atom_site_fract_x
 _atom_site_fract_y
 _atom_site_fract_z
 _atom_site_occupancy
  Ag  Ag0  1  0.512394  0.162133  0.484129  1
  I  I1  1  0.927850  0.206689  0.025079  1
  I  I2  1  0.508293  0.825155  0.454382  1
  I  I3  1  0.014778  0.706969  0.095457  1
  Br  Br4  1  0.840880  0.439820  0.736101  1
  Br  Br5  1  0.360287  0.591531  0.739487  1
  Br  Br6  1  0.233973  0.681672  0.270959  1
  Br  Br7  1  0.661278  0.422455  0.203816  1
  Br  Br8  1  0.213405  0.392278  0.004806  1
  Br  Br9  1  0.742415  0.639690  0.466362  1
  Br  Br10  1  0.714402  0.699202  0.930896  1
  Br  Br11  1  0.342444  0.241427  0.606443  1
  Br  Br12  1  0.661233  0.024453  0.069207  1
  Br  Br13  1  0.303473  0.023718  0.416197  1
  Br  Br14  1  0.187694  0.982525  0.838157  1
  Br  Br15  1  0.775203  0.960283  0.658521  1
