# generated using pymatgen
data_Ti20Ga5As3P4
_symmetry_space_group_name_H-M   'P 1'
_cell_length_a   6.63540515
_cell_length_b   7.77106879
_cell_length_c   9.77857704
_cell_angle_alpha   90.05112349
_cell_angle_beta   89.91786441
_cell_angle_gamma   90.05844939
_symmetry_Int_Tables_number   1
_chemical_formula_structural   Ti20Ga5As3P4
_chemical_formula_sum   'Ti20 Ga5 As3 P4'
_cell_volume   504.22342212
_cell_formula_units_Z   1
loop_
 _symmetry_equiv_pos_site_id
 _symmetry_equiv_pos_as_xyz
  1  'x, y, z'
loop_
 _atom_site_type_symbol
 _atom_site_label
 _atom_site_symmetry_multiplicity
 _atom_site_fract_x
 _atom_site_fract_y
 _atom_site_fract_z
 _atom_site_occupancy
  Ti  Ti0  1  0.816050  0.554780  0.057048  1
  Ti  Ti1  1  0.682887  0.945013  0.556076  1
  Ti  Ti2  1  0.184527  0.054057  0.944334  1
  Ti  Ti3  1  0.317157  0.443551  0.440133  1
  Ti  Ti4  1  0.181981  0.446953  0.940190  1
  Ti  Ti5  1  0.321124  0.052151  0.437381  1
  Ti  Ti6  1  0.821019  0.948116  0.063025  1
  Ti  Ti7  1  0.678803  0.553253  0.561561  1
  Ti  Ti8  1  0.171266  0.757580  0.221503  1
  Ti  Ti9  1  0.329508  0.745478  0.723637  1
  Ti  Ti10  1  0.826193  0.254499  0.777095  1
  Ti  Ti11  1  0.671432  0.242618  0.277890  1
  Ti  Ti12  1  0.476688  0.749739  0.002657  1
  Ti  Ti13  1  0.022648  0.751325  0.502851  1
  Ti  Ti14  1  0.525476  0.251266  0.997329  1
  Ti  Ti15  1  0.977563  0.247690  0.498359  1
  Ti  Ti16  1  0.655754  0.752014  0.291469  1
  Ti  Ti17  1  0.843386  0.749598  0.791091  1
  Ti  Ti18  1  0.341529  0.253341  0.708737  1
  Ti  Ti19  1  0.155588  0.246254  0.207868  1
  Ga  Ga20  1  0.936646  0.505933  0.323372  1
  Ga  Ga21  1  0.563684  0.994194  0.821320  1
  Ga  Ga22  1  0.065257  0.006491  0.679426  1
  Ga  Ga23  1  0.435471  0.493070  0.178051  1
  Ga  Ga24  1  0.062286  0.493973  0.673468  1
  As  As25  1  0.436195  0.008952  0.171782  1
  As  As26  1  0.935821  0.990861  0.327348  1
  As  As27  1  0.563412  0.509158  0.825980  1
  P  P28  1  0.400473  0.747520  0.474297  1
  P  P29  1  0.097719  0.750207  0.972315  1
  P  P30  1  0.598764  0.248841  0.527267  1
  P  P31  1  0.903695  0.251521  0.025142  1
