# generated using pymatgen
data_Tm8Lu4Co6Sn
_symmetry_space_group_name_H-M   'P 1'
_cell_length_a   8.20164887
_cell_length_b   8.20164926
_cell_length_c   8.20164893
_cell_angle_alpha   109.36542404
_cell_angle_beta   109.46553514
_cell_angle_gamma   109.58277101
_symmetry_Int_Tables_number   1
_chemical_formula_structural   Tm8Lu4Co6Sn
_chemical_formula_sum   'Tm8 Lu4 Co6 Sn1'
_cell_volume   424.69789600
_cell_formula_units_Z   1
loop_
 _symmetry_equiv_pos_site_id
 _symmetry_equiv_pos_as_xyz
  1  'x, y, z'
loop_
 _atom_site_type_symbol
 _atom_site_label
 _atom_site_symmetry_multiplicity
 _atom_site_fract_x
 _atom_site_fract_y
 _atom_site_fract_z
 _atom_site_occupancy
  Tm  Tm0  1  0.805691  0.698028  0.503721  1
  Tm  Tm1  1  0.194309  0.301972  0.496279  1
  Tm  Tm2  1  0.194309  0.698028  0.892337  1
  Tm  Tm3  1  0.805691  0.301972  0.107663  1
  Tm  Tm4  1  0.698222  0.503757  0.805532  1
  Tm  Tm5  1  0.301778  0.496243  0.194468  1
  Tm  Tm6  1  0.698222  0.892690  0.194468  1
  Tm  Tm7  1  0.301778  0.107310  0.805532  1
  Lu  Lu8  1  0.503426  0.806026  0.697399  1
  Lu  Lu9  1  0.496574  0.193974  0.302601  1
  Lu  Lu10  1  0.108627  0.806026  0.302601  1
  Lu  Lu11  1  0.891373  0.193974  0.697399  1
  Co  Co12  1  0.885061  0.385061  0.500000  1
  Co  Co13  1  0.114939  0.614939  0.500000  1
  Co  Co14  1  0.385347  0.500000  0.885347  1
  Co  Co15  1  0.614653  0.500000  0.114653  1
  Co  Co16  1  0.500000  0.885648  0.385648  1
  Co  Co17  1  0.500000  0.114352  0.614352  1
  Sn  Sn18  1  0.000000  0.000000  0.000000  1
