# generated using pymatgen
data_Ho2TmThMgIr
_symmetry_space_group_name_H-M   'P 1'
_cell_length_a   9.75323644
_cell_length_b   9.75323629
_cell_length_c   9.76113500
_cell_angle_alpha   59.97320999
_cell_angle_beta   59.97321048
_cell_angle_gamma   60.05359412
_symmetry_Int_Tables_number   1
_chemical_formula_structural   Ho2TmThMgIr
_chemical_formula_sum   'Ho8 Tm4 Th4 Mg4 Ir4'
_cell_volume   656.57190906
_cell_formula_units_Z   4
loop_
 _symmetry_equiv_pos_site_id
 _symmetry_equiv_pos_as_xyz
  1  'x, y, z'
loop_
 _atom_site_type_symbol
 _atom_site_label
 _atom_site_symmetry_multiplicity
 _atom_site_fract_x
 _atom_site_fract_y
 _atom_site_fract_z
 _atom_site_occupancy
  Ho  Ho0  1  0.186257  0.186257  0.813743  1
  Ho  Ho1  1  0.813743  0.813743  0.186257  1
  Ho  Ho2  1  0.934708  0.565292  0.565292  1
  Ho  Ho3  1  0.565292  0.934708  0.934708  1
  Ho  Ho4  1  0.565292  0.934708  0.565292  1
  Ho  Ho5  1  0.934708  0.565292  0.934708  1
  Ho  Ho6  1  0.565294  0.565294  0.934706  1
  Ho  Ho7  1  0.934706  0.934706  0.565294  1
  Tm  Tm8  1  0.813357  0.186643  0.186643  1
  Tm  Tm9  1  0.186643  0.813357  0.813357  1
  Tm  Tm10  1  0.186643  0.813357  0.186643  1
  Tm  Tm11  1  0.813357  0.186643  0.813357  1
  Th  Th12  1  0.348865  0.348865  0.348288  1
  Th  Th13  1  0.348865  0.348865  0.953980  1
  Th  Th14  1  0.348288  0.953980  0.348865  1
  Th  Th15  1  0.953980  0.348288  0.348865  1
  Mg  Mg16  1  0.580589  0.580589  0.580761  1
  Mg  Mg17  1  0.580589  0.580589  0.258061  1
  Mg  Mg18  1  0.580761  0.258061  0.580589  1
  Mg  Mg19  1  0.258061  0.580761  0.580589  1
  Ir  Ir20  1  0.142339  0.142339  0.143390  1
  Ir  Ir21  1  0.142339  0.142339  0.571935  1
  Ir  Ir22  1  0.143390  0.571935  0.142339  1
  Ir  Ir23  1  0.571935  0.143390  0.142339  1
