# generated using pymatgen
data_Dy7PS7
_symmetry_space_group_name_H-M   'P 1'
_cell_length_a   7.83191914
_cell_length_b   7.83279332
_cell_length_c   7.83191975
_cell_angle_alpha   120.01209372
_cell_angle_beta   89.97261747
_cell_angle_gamma   120.01214061
_symmetry_Int_Tables_number   1
_chemical_formula_structural   Dy7PS7
_chemical_formula_sum   'Dy7 P1 S7'
_cell_volume   339.68998179
_cell_formula_units_Z   1
loop_
 _symmetry_equiv_pos_site_id
 _symmetry_equiv_pos_as_xyz
  1  'x, y, z'
loop_
 _atom_site_type_symbol
 _atom_site_label
 _atom_site_symmetry_multiplicity
 _atom_site_fract_x
 _atom_site_fract_y
 _atom_site_fract_z
 _atom_site_occupancy
  Dy  Dy0  1  0.246829  0.000000  0.246829  1
  Dy  Dy1  1  0.246832  0.493658  0.246830  1
  Dy  Dy2  1  0.753173  0.999997  0.246828  1
  Dy  Dy3  1  0.250001  0.500001  0.750002  1
  Dy  Dy4  1  0.246831  0.000003  0.753176  1
  Dy  Dy5  1  0.753170  0.000000  0.753170  1
  Dy  Dy6  1  0.753171  0.506341  0.753173  1
  P  P7  1  0.000002  0.000000  0.000002  1
  S  S8  1  0.500002  0.000000  0.500002  1
  S  S9  1  0.000336  0.000673  0.500337  1
  S  S10  1  0.000307  0.500001  0.500309  1
  S  S11  1  0.499637  0.500000  0.500363  1
  S  S12  1  0.000364  0.500002  0.999636  1
  S  S13  1  0.499686  0.500001  0.999687  1
  S  S14  1  0.499662  0.999326  0.999663  1
