# generated using pymatgen
data_Y5Pd13Au2
_symmetry_space_group_name_H-M   'P 1'
_cell_length_a   4.18021800
_cell_length_b   4.14973400
_cell_length_c   20.66017400
_cell_angle_alpha   90.00000000
_cell_angle_beta   90.00000000
_cell_angle_gamma   90.00000000
_symmetry_Int_Tables_number   1
_chemical_formula_structural   Y5Pd13Au2
_chemical_formula_sum   'Y5 Pd13 Au2'
_cell_volume   358.38775681
_cell_formula_units_Z   1
loop_
 _symmetry_equiv_pos_site_id
 _symmetry_equiv_pos_as_xyz
  1  'x, y, z'
loop_
 _atom_site_type_symbol
 _atom_site_label
 _atom_site_symmetry_multiplicity
 _atom_site_fract_x
 _atom_site_fract_y
 _atom_site_fract_z
 _atom_site_occupancy
  Y  Y0  1  0.000000  0.000000  0.198374  1
  Y  Y1  1  0.000000  0.000000  0.396875  1
  Y  Y2  1  0.000000  0.000000  0.604902  1
  Y  Y3  1  0.000000  0.000000  0.801260  1
  Y  Y4  1  0.000000  0.000000  0.998671  1
  Pd  Pd5  1  0.500000  0.500000  0.000721  1
  Pd  Pd6  1  0.500000  0.500000  0.398140  1
  Pd  Pd7  1  0.500000  0.500000  0.600873  1
  Pd  Pd8  1  0.500000  0.500000  0.800741  1
  Pd  Pd9  1  0.500000  0.000000  0.099848  1
  Pd  Pd10  1  0.500000  0.000000  0.298760  1
  Pd  Pd11  1  0.500000  0.000000  0.700875  1
  Pd  Pd12  1  0.500000  0.000000  0.900681  1
  Pd  Pd13  1  0.000000  0.500000  0.099775  1
  Pd  Pd14  1  0.000000  0.500000  0.298715  1
  Pd  Pd15  1  0.000000  0.500000  0.499683  1
  Pd  Pd16  1  0.000000  0.500000  0.701145  1
  Pd  Pd17  1  0.000000  0.500000  0.900587  1
  Au  Au18  1  0.500000  0.500000  0.199141  1
  Au  Au19  1  0.500000  0.000000  0.500232  1
