# generated using pymatgen
data_La4AsI6
_symmetry_space_group_name_H-M   'P 1'
_cell_length_a   4.48562100
_cell_length_b   14.60849200
_cell_length_c   15.46187000
_cell_angle_alpha   90.00000000
_cell_angle_beta   90.00000000
_cell_angle_gamma   90.00000000
_symmetry_Int_Tables_number   1
_chemical_formula_structural   La4AsI6
_chemical_formula_sum   'La8 As2 I12'
_cell_volume   1013.18786797
_cell_formula_units_Z   2
loop_
 _symmetry_equiv_pos_site_id
 _symmetry_equiv_pos_as_xyz
  1  'x, y, z'
loop_
 _atom_site_type_symbol
 _atom_site_label
 _atom_site_symmetry_multiplicity
 _atom_site_fract_x
 _atom_site_fract_y
 _atom_site_fract_z
 _atom_site_occupancy
  La  La0  1  0.500000  0.116228  0.344893  1
  La  La1  1  0.500000  0.883772  0.655107  1
  La  La2  1  0.500000  0.616228  0.155107  1
  La  La3  1  0.500000  0.383772  0.844893  1
  La  La4  1  0.000000  0.112071  0.574545  1
  La  La5  1  0.000000  0.887929  0.425455  1
  La  La6  1  0.000000  0.612071  0.925455  1
  La  La7  1  0.000000  0.387929  0.074545  1
  As  As8  1  0.500000  0.000000  0.500000  1
  As  As9  1  0.500000  0.500000  0.000000  1
  I  I10  1  0.500000  0.245212  0.160846  1
  I  I11  1  0.500000  0.754788  0.839154  1
  I  I12  1  0.500000  0.745212  0.339154  1
  I  I13  1  0.500000  0.254788  0.660846  1
  I  I14  1  0.000000  0.259306  0.414048  1
  I  I15  1  0.000000  0.740694  0.585952  1
  I  I16  1  0.000000  0.759306  0.085952  1
  I  I17  1  0.000000  0.240694  0.914048  1
  I  I18  1  0.000000  0.999239  0.240336  1
  I  I19  1  0.000000  0.000761  0.759664  1
  I  I20  1  0.000000  0.499239  0.259664  1
  I  I21  1  0.000000  0.500761  0.740336  1
