# generated using pymatgen
data_Sr7Yb5(HoGe2)8
_symmetry_space_group_name_H-M   'P 1'
_cell_length_a   7.58094268
_cell_length_b   8.02249608
_cell_length_c   15.43936611
_cell_angle_alpha   90.11494242
_cell_angle_beta   90.09551430
_cell_angle_gamma   89.98847227
_symmetry_Int_Tables_number   1
_chemical_formula_structural   Sr7Yb5(HoGe2)8
_chemical_formula_sum   'Sr7 Yb5 Ho8 Ge16'
_cell_volume   938.98943546
_cell_formula_units_Z   1
loop_
 _symmetry_equiv_pos_site_id
 _symmetry_equiv_pos_as_xyz
  1  'x, y, z'
loop_
 _atom_site_type_symbol
 _atom_site_label
 _atom_site_symmetry_multiplicity
 _atom_site_fract_x
 _atom_site_fract_y
 _atom_site_fract_z
 _atom_site_occupancy
  Sr  Sr0  1  0.981358  0.818939  0.404447  1
  Sr  Sr1  1  0.481097  0.682248  0.095587  1
  Sr  Sr2  1  0.518587  0.318992  0.595533  1
  Sr  Sr3  1  0.018678  0.180927  0.905665  1
  Sr  Sr4  1  0.018603  0.181066  0.595481  1
  Sr  Sr5  1  0.519553  0.318910  0.904912  1
  Sr  Sr6  1  0.481349  0.681007  0.404097  1
  Yb  Yb7  1  0.978642  0.812732  0.096173  1
  Yb  Yb8  1  0.347044  0.014275  0.750108  1
  Yb  Yb9  1  0.847234  0.485786  0.750128  1
  Yb  Yb10  1  0.152496  0.515842  0.248978  1
  Yb  Yb11  1  0.654071  0.984567  0.248915  1
  Ho  Ho12  1  0.318056  0.172000  0.121558  1
  Ho  Ho13  1  0.819729  0.326486  0.377363  1
  Ho  Ho14  1  0.179607  0.674630  0.878751  1
  Ho  Ho15  1  0.680161  0.826277  0.622141  1
  Ho  Ho16  1  0.319207  0.173202  0.377132  1
  Ho  Ho17  1  0.820156  0.326773  0.122236  1
  Ho  Ho18  1  0.180435  0.673538  0.622196  1
  Ho  Ho19  1  0.681712  0.826620  0.878539  1
  Ge  Ge20  1  0.850747  0.538010  0.539950  1
  Ge  Ge21  1  0.351059  0.962140  0.960483  1
  Ge  Ge22  1  0.649027  0.038214  0.459713  1
  Ge  Ge23  1  0.148010  0.466696  0.041566  1
  Ge  Ge24  1  0.149344  0.461688  0.459748  1
  Ge  Ge25  1  0.654579  0.034912  0.041192  1
  Ge  Ge26  1  0.350651  0.961870  0.539898  1
  Ge  Ge27  1  0.851426  0.542130  0.961724  1
  Ge  Ge28  1  0.975857  0.874893  0.750100  1
  Ge  Ge29  1  0.475693  0.625294  0.750227  1
  Ge  Ge30  1  0.524366  0.375573  0.249643  1
  Ge  Ge31  1  0.023218  0.123638  0.248860  1
  Ge  Ge32  1  0.234136  0.394551  0.750235  1
  Ge  Ge33  1  0.734133  0.105639  0.750196  1
  Ge  Ge34  1  0.262281  0.892553  0.247680  1
  Ge  Ge35  1  0.767697  0.607381  0.248844  1
