# generated using pymatgen
data_K3Mo(PO4)2
_symmetry_space_group_name_H-M   'P 1'
_cell_length_a   5.43226856
_cell_length_b   5.43238054
_cell_length_c   7.91954662
_cell_angle_alpha   89.89198121
_cell_angle_beta   90.11016818
_cell_angle_gamma   118.46846617
_symmetry_Int_Tables_number   1
_chemical_formula_structural   K3Mo(PO4)2
_chemical_formula_sum   'K3 Mo1 P2 O8'
_cell_volume   205.44655770
_cell_formula_units_Z   1
loop_
 _symmetry_equiv_pos_site_id
 _symmetry_equiv_pos_as_xyz
  1  'x, y, z'
loop_
 _atom_site_type_symbol
 _atom_site_label
 _atom_site_symmetry_multiplicity
 _atom_site_fract_x
 _atom_site_fract_y
 _atom_site_fract_z
 _atom_site_occupancy
  K  K0  1  0.192891  0.315555  0.272615  1
  K  K1  1  0.503264  0.005340  0.499638  1
  K  K2  1  0.813121  0.694544  0.726901  1
  Mo  Mo3  1  0.502407  0.004455  0.999818  1
  P  P4  1  0.158658  0.348159  0.792109  1
  P  P5  1  0.846249  0.660847  0.207501  1
  O  O6  1  0.783712  0.722413  0.386548  1
  O  O7  1  0.726072  0.780827  0.072554  1
  O  O8  1  0.290325  0.675117  0.813291  1
  O  O9  1  0.831716  0.216532  0.813173  1
  O  O10  1  0.173299  0.792796  0.186519  1
  O  O11  1  0.714844  0.333884  0.186210  1
  O  O12  1  0.278670  0.227997  0.927055  1
  O  O13  1  0.220731  0.286095  0.613078  1
