# generated using pymatgen
data_Tm3(ThTc)2
_symmetry_space_group_name_H-M   'P 1'
_cell_length_a   6.35756416
_cell_length_b   7.36962961
_cell_length_c   8.61780208
_cell_angle_alpha   96.57058463
_cell_angle_beta   111.64548841
_cell_angle_gamma   89.99999507
_symmetry_Int_Tables_number   1
_chemical_formula_structural   Tm3(ThTc)2
_chemical_formula_sum   'Tm6 Th4 Tc4'
_cell_volume   372.44197142
_cell_formula_units_Z   2
loop_
 _symmetry_equiv_pos_site_id
 _symmetry_equiv_pos_as_xyz
  1  'x, y, z'
loop_
 _atom_site_type_symbol
 _atom_site_label
 _atom_site_symmetry_multiplicity
 _atom_site_fract_x
 _atom_site_fract_y
 _atom_site_fract_z
 _atom_site_occupancy
  Tm  Tm0  1  0.207958  0.185397  0.571178  1
  Tm  Tm1  1  0.636781  0.314603  0.428822  1
  Tm  Tm2  1  0.792042  0.814603  0.428822  1
  Tm  Tm3  1  0.363219  0.685397  0.571178  1
  Tm  Tm4  1  0.422062  0.250000  0.000000  1
  Tm  Tm5  1  0.577938  0.750000  0.000000  1
  Th  Th6  1  0.789259  0.089895  0.804940  1
  Th  Th7  1  0.984319  0.410105  0.195060  1
  Th  Th8  1  0.210741  0.910105  0.195060  1
  Th  Th9  1  0.015681  0.589895  0.804940  1
  Tc  Tc10  1  0.627965  0.414681  0.782601  1
  Tc  Tc11  1  0.845363  0.085319  0.217399  1
  Tc  Tc12  1  0.372035  0.585319  0.217399  1
  Tc  Tc13  1  0.154637  0.914681  0.782601  1
