# generated using pymatgen
data_Nd2Si2TcPt3
_symmetry_space_group_name_H-M   'P 1'
_cell_length_a   9.50058400
_cell_length_b   9.50058324
_cell_length_c   4.11574900
_cell_angle_alpha   90.00000000
_cell_angle_beta   90.00000000
_cell_angle_gamma   155.42881159
_symmetry_Int_Tables_number   1
_chemical_formula_structural   Nd2Si2TcPt3
_chemical_formula_sum   'Nd2 Si2 Tc1 Pt3'
_cell_volume   154.47510718
_cell_formula_units_Z   1
loop_
 _symmetry_equiv_pos_site_id
 _symmetry_equiv_pos_as_xyz
  1  'x, y, z'
loop_
 _atom_site_type_symbol
 _atom_site_label
 _atom_site_symmetry_multiplicity
 _atom_site_fract_x
 _atom_site_fract_y
 _atom_site_fract_z
 _atom_site_occupancy
  Nd  Nd0  1  0.103269  0.896731  0.750000  1
  Nd  Nd1  1  0.896285  0.103715  0.250000  1
  Si  Si2  1  0.320977  0.679023  0.750000  1
  Si  Si3  1  0.679374  0.320626  0.250000  1
  Tc  Tc4  1  0.750043  0.249957  0.750000  1
  Pt  Pt5  1  0.549130  0.450870  0.250000  1
  Pt  Pt6  1  0.450760  0.549240  0.750000  1
  Pt  Pt7  1  0.250162  0.749838  0.250000  1
