# generated using pymatgen
data_Sr3EuSiPN6
_symmetry_space_group_name_H-M   'P 1'
_cell_length_a   6.05925552
_cell_length_b   6.05925630
_cell_length_c   11.90627055
_cell_angle_alpha   89.20626437
_cell_angle_beta   90.79373668
_cell_angle_gamma   126.75838997
_symmetry_Int_Tables_number   1
_chemical_formula_structural   Sr3EuSiPN6
_chemical_formula_sum   'Sr6 Eu2 Si2 P2 N12'
_cell_volume   350.17473174
_cell_formula_units_Z   2
loop_
 _symmetry_equiv_pos_site_id
 _symmetry_equiv_pos_as_xyz
  1  'x, y, z'
loop_
 _atom_site_type_symbol
 _atom_site_label
 _atom_site_symmetry_multiplicity
 _atom_site_fract_x
 _atom_site_fract_y
 _atom_site_fract_z
 _atom_site_occupancy
  Sr  Sr0  1  0.053843  0.946157  0.856116  1
  Sr  Sr1  1  0.946157  0.053843  0.143884  1
  Sr  Sr2  1  0.448547  0.551453  0.357493  1
  Sr  Sr3  1  0.551453  0.448547  0.642507  1
  Sr  Sr4  1  0.640819  0.359181  0.076344  1
  Sr  Sr5  1  0.359181  0.640819  0.923656  1
  Eu  Eu6  1  0.857302  0.142698  0.574392  1
  Eu  Eu7  1  0.142698  0.857302  0.425608  1
  Si  Si8  1  0.764501  0.235499  0.334985  1
  Si  Si9  1  0.235499  0.764501  0.665015  1
  P  P10  1  0.740995  0.259005  0.831265  1
  P  P11  1  0.259005  0.740995  0.168735  1
  N  N12  1  0.592435  0.407565  0.860923  1
  N  N13  1  0.407565  0.592435  0.139077  1
  N  N14  1  0.922464  0.077536  0.373194  1
  N  N15  1  0.077536  0.922464  0.626806  1
  N  N16  1  0.532972  0.985282  0.747107  1
  N  N17  1  0.985282  0.532972  0.252893  1
  N  N18  1  0.467028  0.014718  0.252893  1
  N  N19  1  0.014718  0.467028  0.747107  1
  N  N20  1  0.835999  0.164001  0.939892  1
  N  N21  1  0.164001  0.835999  0.060108  1
  N  N22  1  0.669070  0.330930  0.450746  1
  N  N23  1  0.330930  0.669070  0.549254  1
