# generated using pymatgen
data_Nd4YIrOs
_symmetry_space_group_name_H-M   'P 1'
_cell_length_a   6.64950760
_cell_length_b   7.36904480
_cell_length_c   8.84185100
_cell_angle_alpha   96.23381807
_cell_angle_beta   112.08766232
_cell_angle_gamma   89.99999459
_symmetry_Int_Tables_number   1
_chemical_formula_structural   Nd4YIrOs
_chemical_formula_sum   'Nd8 Y2 Ir2 Os2'
_cell_volume   398.69244571
_cell_formula_units_Z   2
loop_
 _symmetry_equiv_pos_site_id
 _symmetry_equiv_pos_as_xyz
  1  'x, y, z'
loop_
 _atom_site_type_symbol
 _atom_site_label
 _atom_site_symmetry_multiplicity
 _atom_site_fract_x
 _atom_site_fract_y
 _atom_site_fract_z
 _atom_site_occupancy
  Nd  Nd0  1  0.971509  0.917071  0.179322  1
  Nd  Nd1  1  0.792186  0.582929  0.820678  1
  Nd  Nd2  1  0.023025  0.081143  0.817744  1
  Nd  Nd3  1  0.205282  0.418857  0.182256  1
  Nd  Nd4  1  0.650568  0.817043  0.435680  1
  Nd  Nd5  1  0.214887  0.682957  0.564320  1
  Nd  Nd6  1  0.353354  0.180640  0.567951  1
  Nd  Nd7  1  0.785403  0.319360  0.432049  1
  Y  Y8  1  0.432333  0.750000  0.000000  1
  Y  Y9  1  0.568103  0.250000  0.000000  1
  Ir  Ir10  1  0.181347  0.427168  0.783886  1
  Ir  Ir11  1  0.397462  0.072832  0.216114  1
  Os  Os12  1  0.820090  0.571467  0.215637  1
  Os  Os13  1  0.604452  0.928533  0.784363  1
