# generated using pymatgen
data_Ag2P2O7
_symmetry_space_group_name_H-M   'P 1'
_cell_length_a   6.54260562
_cell_length_b   6.69289975
_cell_length_c   7.37593017
_cell_angle_alpha   78.42056379
_cell_angle_beta   70.31545808
_cell_angle_gamma   81.84728391
_symmetry_Int_Tables_number   1
_chemical_formula_structural   Ag2P2O7
_chemical_formula_sum   'Ag4 P4 O14'
_cell_volume   296.95497713
_cell_formula_units_Z   2
loop_
 _symmetry_equiv_pos_site_id
 _symmetry_equiv_pos_as_xyz
  1  'x, y, z'
loop_
 _atom_site_type_symbol
 _atom_site_label
 _atom_site_symmetry_multiplicity
 _atom_site_fract_x
 _atom_site_fract_y
 _atom_site_fract_z
 _atom_site_occupancy
  Ag  Ag0  1  0.109647  0.171051  0.250648  1
  Ag  Ag1  1  0.890353  0.828949  0.749352  1
  Ag  Ag2  1  0.297788  0.322104  0.631246  1
  Ag  Ag3  1  0.702212  0.677896  0.368754  1
  P  P4  1  0.220818  0.659967  0.254246  1
  P  P5  1  0.779182  0.340033  0.745754  1
  P  P6  1  0.356711  0.868770  0.837166  1
  P  P7  1  0.643289  0.131230  0.162834  1
  O  O8  1  0.214140  0.767221  0.760593  1
  O  O9  1  0.785860  0.232779  0.239407  1
  O  O10  1  0.070266  0.499943  0.257079  1
  O  O11  1  0.929734  0.500057  0.742921  1
  O  O12  1  0.273325  0.082479  0.888394  1
  O  O13  1  0.726675  0.917521  0.111606  1
  O  O14  1  0.375517  0.574925  0.373981  1
  O  O15  1  0.624483  0.425075  0.626019  1
  O  O16  1  0.619973  0.275225  0.963449  1
  O  O17  1  0.380027  0.724775  0.036551  1
  O  O18  1  0.935629  0.153488  0.679126  1
  O  O19  1  0.064371  0.846512  0.320874  1
  O  O20  1  0.409012  0.144073  0.308402  1
  O  O21  1  0.590988  0.855927  0.691598  1
