# generated using pymatgen
data_Zr6Sc3NbAl12Ir7
_symmetry_space_group_name_H-M   'P 1'
_cell_length_a   8.89800039
_cell_length_b   8.89798305
_cell_length_c   8.89799426
_cell_angle_alpha   59.97732438
_cell_angle_beta   59.97725420
_cell_angle_gamma   59.97733415
_symmetry_Int_Tables_number   1
_chemical_formula_structural   Zr6Sc3NbAl12Ir7
_chemical_formula_sum   'Zr6 Sc3 Nb1 Al12 Ir7'
_cell_volume   497.89475782
_cell_formula_units_Z   1
loop_
 _symmetry_equiv_pos_site_id
 _symmetry_equiv_pos_as_xyz
  1  'x, y, z'
loop_
 _atom_site_type_symbol
 _atom_site_label
 _atom_site_symmetry_multiplicity
 _atom_site_fract_x
 _atom_site_fract_y
 _atom_site_fract_z
 _atom_site_occupancy
  Zr  Zr0  1  0.688044  0.688051  0.311100  1
  Zr  Zr1  1  0.313493  0.687265  0.313494  1
  Zr  Zr2  1  0.687263  0.313495  0.313494  1
  Zr  Zr3  1  0.313495  0.313496  0.687263  1
  Zr  Zr4  1  0.688052  0.311098  0.688053  1
  Zr  Zr5  1  0.311103  0.688045  0.688043  1
  Sc  Sc6  1  0.881389  0.881391  0.357871  1
  Sc  Sc7  1  0.881390  0.357873  0.881392  1
  Sc  Sc8  1  0.357872  0.881389  0.881390  1
  Nb  Nb9  1  0.878966  0.878965  0.878966  1
  Al  Al10  1  0.121702  0.121700  0.636618  1
  Al  Al11  1  0.121700  0.636618  0.121701  1
  Al  Al12  1  0.636617  0.121699  0.121701  1
  Al  Al13  1  0.121109  0.121106  0.121108  1
  Al  Al14  1  0.660738  0.660741  0.014615  1
  Al  Al15  1  0.660739  0.014615  0.660740  1
  Al  Al16  1  0.014616  0.660740  0.660738  1
  Al  Al17  1  0.662499  0.662499  0.662498  1
  Al  Al18  1  0.335980  0.335980  0.990718  1
  Al  Al19  1  0.335981  0.990715  0.335981  1
  Al  Al20  1  0.990720  0.335980  0.335980  1
  Al  Al21  1  0.336999  0.337000  0.337001  1
  Ir  Ir22  1  0.996518  0.996520  0.996518  1
  Ir  Ir23  1  0.999400  0.999400  0.506333  1
  Ir  Ir24  1  0.498500  0.000885  0.498500  1
  Ir  Ir25  1  0.000884  0.498501  0.498501  1
  Ir  Ir26  1  0.498500  0.498500  0.000885  1
  Ir  Ir27  1  0.999400  0.506333  0.999400  1
  Ir  Ir28  1  0.506331  0.999400  0.999401  1
