# generated using pymatgen
data_YbLu4Si12Ir19
_symmetry_space_group_name_H-M   'P 1'
_cell_length_a   12.79534456
_cell_length_b   12.78878328
_cell_length_c   3.97553600
_cell_angle_alpha   90.00000000
_cell_angle_beta   90.00000000
_cell_angle_gamma   119.98303524
_symmetry_Int_Tables_number   1
_chemical_formula_structural   YbLu4Si12Ir19
_chemical_formula_sum   'Yb1 Lu4 Si12 Ir19'
_cell_volume   563.48421163
_cell_formula_units_Z   1
loop_
 _symmetry_equiv_pos_site_id
 _symmetry_equiv_pos_as_xyz
  1  'x, y, z'
loop_
 _atom_site_type_symbol
 _atom_site_label
 _atom_site_symmetry_multiplicity
 _atom_site_fract_x
 _atom_site_fract_y
 _atom_site_fract_z
 _atom_site_occupancy
  Yb  Yb0  1  0.000000  0.814727  0.500000  1
  Lu  Lu1  1  0.333324  0.666231  0.000000  1
  Lu  Lu2  1  0.666676  0.332906  0.000000  1
  Lu  Lu3  1  0.183686  0.183051  0.500000  1
  Lu  Lu4  1  0.816314  0.999365  0.500000  1
  Si  Si5  1  0.818683  0.818759  0.000000  1
  Si  Si6  1  0.181317  0.000077  0.000000  1
  Si  Si7  1  0.000000  0.180774  0.000000  1
  Si  Si8  1  0.311192  0.830751  0.500000  1
  Si  Si9  1  0.168817  0.480699  0.500000  1
  Si  Si10  1  0.518213  0.687887  0.500000  1
  Si  Si11  1  0.831183  0.311882  0.500000  1
  Si  Si12  1  0.481787  0.169674  0.500000  1
  Si  Si13  1  0.688808  0.519559  0.500000  1
  Si  Si14  1  0.366898  0.366987  0.000000  1
  Si  Si15  1  0.633102  0.000089  0.000000  1
  Si  Si16  1  0.000000  0.632488  0.000000  1
  Ir  Ir17  1  0.195684  0.816944  0.000000  1
  Ir  Ir18  1  0.182818  0.375549  0.000000  1
  Ir  Ir19  1  0.623474  0.807230  0.000000  1
  Ir  Ir20  1  0.817182  0.192732  0.000000  1
  Ir  Ir21  1  0.376526  0.183756  0.000000  1
  Ir  Ir22  1  0.804316  0.621261  0.000000  1
  Ir  Ir23  1  0.716416  0.718083  0.500000  1
  Ir  Ir24  1  0.283584  0.001668  0.500000  1
  Ir  Ir25  1  0.000000  0.282015  0.500000  1
  Ir  Ir26  1  0.127018  0.638008  0.500000  1
  Ir  Ir27  1  0.360284  0.488234  0.500000  1
  Ir  Ir28  1  0.510414  0.872610  0.500000  1
  Ir  Ir29  1  0.639716  0.127951  0.500000  1
  Ir  Ir30  1  0.489586  0.362197  0.500000  1
  Ir  Ir31  1  0.872982  0.510992  0.500000  1
  Ir  Ir32  1  0.550862  0.553678  0.000000  1
  Ir  Ir33  1  0.449138  0.002816  0.000000  1
  Ir  Ir34  1  0.000000  0.446899  0.000000  1
  Ir  Ir35  1  0.000000  0.001472  0.000000  1
