# generated using pymatgen
data_Y7Er3(BiPb)3
_symmetry_space_group_name_H-M   'P 1'
_cell_length_a   9.12336200
_cell_length_b   9.12336177
_cell_length_c   6.48310600
_cell_angle_alpha   90.00000000
_cell_angle_beta   90.00000000
_cell_angle_gamma   120.00000082
_symmetry_Int_Tables_number   1
_chemical_formula_structural   Y7Er3(BiPb)3
_chemical_formula_sum   'Y7 Er3 Bi3 Pb3'
_cell_volume   467.32988512
_cell_formula_units_Z   1
loop_
 _symmetry_equiv_pos_site_id
 _symmetry_equiv_pos_as_xyz
  1  'x, y, z'
loop_
 _atom_site_type_symbol
 _atom_site_label
 _atom_site_symmetry_multiplicity
 _atom_site_fract_x
 _atom_site_fract_y
 _atom_site_fract_z
 _atom_site_occupancy
  Y  Y0  1  0.666667  0.333333  0.497396  1
  Y  Y1  1  0.761272  0.761250  0.750154  1
  Y  Y2  1  0.238750  0.000021  0.750154  1
  Y  Y3  1  0.999979  0.238728  0.750154  1
  Y  Y4  1  0.239154  0.239189  0.249890  1
  Y  Y5  1  0.760811  0.999965  0.249890  1
  Y  Y6  1  0.000035  0.760846  0.249890  1
  Er  Er7  1  0.666667  0.333333  0.003322  1
  Er  Er8  1  0.333333  0.666667  0.003231  1
  Er  Er9  1  0.333333  0.666667  0.496614  1
  Bi  Bi10  1  0.393553  0.393912  0.750436  1
  Bi  Bi11  1  0.606088  0.999641  0.750436  1
  Bi  Bi12  1  0.000359  0.606447  0.750436  1
  Pb  Pb13  1  0.606141  0.606816  0.249332  1
  Pb  Pb14  1  0.393184  0.999325  0.249332  1
  Pb  Pb15  1  0.000675  0.393859  0.249332  1
