# generated using pymatgen
data_YLu4(In2Cu)2
_symmetry_space_group_name_H-M   'P 1'
_cell_length_a   3.60942000
_cell_length_b   7.93824100
_cell_length_c   17.72075200
_cell_angle_alpha   90.00000000
_cell_angle_beta   90.00000000
_cell_angle_gamma   90.00000000
_symmetry_Int_Tables_number   1
_chemical_formula_structural   YLu4(In2Cu)2
_chemical_formula_sum   'Y2 Lu8 In8 Cu4'
_cell_volume   507.74288675
_cell_formula_units_Z   2
loop_
 _symmetry_equiv_pos_site_id
 _symmetry_equiv_pos_as_xyz
  1  'x, y, z'
loop_
 _atom_site_type_symbol
 _atom_site_label
 _atom_site_symmetry_multiplicity
 _atom_site_fract_x
 _atom_site_fract_y
 _atom_site_fract_z
 _atom_site_occupancy
  Y  Y0  1  0.000000  0.500000  0.500000  1
  Y  Y1  1  0.000000  0.000000  0.000000  1
  Lu  Lu2  1  0.000000  0.736667  0.279837  1
  Lu  Lu3  1  0.000000  0.263333  0.720163  1
  Lu  Lu4  1  0.000000  0.763333  0.779837  1
  Lu  Lu5  1  0.000000  0.236667  0.220163  1
  Lu  Lu6  1  0.000000  0.614263  0.083708  1
  Lu  Lu7  1  0.000000  0.385737  0.916292  1
  Lu  Lu8  1  0.000000  0.885737  0.583708  1
  Lu  Lu9  1  0.000000  0.114263  0.416292  1
  In  In10  1  0.500000  0.708311  0.931151  1
  In  In11  1  0.500000  0.291689  0.068849  1
  In  In12  1  0.500000  0.791689  0.431151  1
  In  In13  1  0.500000  0.208311  0.568849  1
  In  In14  1  0.500000  0.583727  0.650463  1
  In  In15  1  0.500000  0.416273  0.349537  1
  In  In16  1  0.500000  0.916273  0.150463  1
  In  In17  1  0.500000  0.083727  0.849537  1
  Cu  Cu18  1  0.500000  0.521738  0.197281  1
  Cu  Cu19  1  0.500000  0.478262  0.802719  1
  Cu  Cu20  1  0.500000  0.978262  0.697281  1
  Cu  Cu21  1  0.500000  0.021738  0.302719  1
