# generated using pymatgen
data_Yb(CuO2)2
_symmetry_space_group_name_H-M   'P 1'
_cell_length_a   6.20194969
_cell_length_b   6.20195095
_cell_length_c   6.20195015
_cell_angle_alpha   125.53202256
_cell_angle_beta   125.53202586
_cell_angle_gamma   80.65866206
_symmetry_Int_Tables_number   1
_chemical_formula_structural   Yb(CuO2)2
_chemical_formula_sum   'Yb2 Cu4 O8'
_cell_volume   152.33939748
_cell_formula_units_Z   2
loop_
 _symmetry_equiv_pos_site_id
 _symmetry_equiv_pos_as_xyz
  1  'x, y, z'
loop_
 _atom_site_type_symbol
 _atom_site_label
 _atom_site_symmetry_multiplicity
 _atom_site_fract_x
 _atom_site_fract_y
 _atom_site_fract_z
 _atom_site_occupancy
  Yb  Yb0  1  0.000000  0.000000  0.000000  1
  Yb  Yb1  1  0.750000  0.250000  0.500000  1
  Cu  Cu2  1  0.875000  0.625000  0.250000  1
  Cu  Cu3  1  0.375000  0.625000  0.750000  1
  Cu  Cu4  1  0.375000  0.125000  0.750000  1
  Cu  Cu5  1  0.375000  0.625000  0.250000  1
  O  O6  1  0.406513  0.831801  0.137793  1
  O  O7  1  0.694008  0.268720  0.862207  1
  O  O8  1  0.343487  0.418199  0.362207  1
  O  O9  1  0.055992  0.981280  0.637793  1
  O  O10  1  0.018720  0.656513  0.074713  1
  O  O11  1  0.581801  0.944008  0.925287  1
  O  O12  1  0.168199  0.305992  0.574713  1
  O  O13  1  0.731280  0.593487  0.425287  1
