# generated using pymatgen
data_Ac2Os2I
_symmetry_space_group_name_H-M   'P 1'
_cell_length_a   4.40934600
_cell_length_b   4.40934544
_cell_length_c   18.97646800
_cell_angle_alpha   90.00000000
_cell_angle_beta   90.00000000
_cell_angle_gamma   120.00000422
_symmetry_Int_Tables_number   1
_chemical_formula_structural   Ac2Os2I
_chemical_formula_sum   'Ac4 Os4 I2'
_cell_volume   319.51724172
_cell_formula_units_Z   2
loop_
 _symmetry_equiv_pos_site_id
 _symmetry_equiv_pos_as_xyz
  1  'x, y, z'
loop_
 _atom_site_type_symbol
 _atom_site_label
 _atom_site_symmetry_multiplicity
 _atom_site_fract_x
 _atom_site_fract_y
 _atom_site_fract_z
 _atom_site_occupancy
  Ac  Ac0  1  0.000000  0.000000  0.106247  1
  Ac  Ac1  1  0.000000  0.000000  0.893753  1
  Ac  Ac2  1  0.000000  0.000000  0.606247  1
  Ac  Ac3  1  0.000000  0.000000  0.393753  1
  Os  Os4  1  0.333333  0.666667  0.502670  1
  Os  Os5  1  0.666667  0.333333  0.497330  1
  Os  Os6  1  0.666667  0.333333  0.002670  1
  Os  Os7  1  0.333333  0.666667  0.997330  1
  I  I8  1  0.333333  0.666667  0.250000  1
  I  I9  1  0.666667  0.333333  0.750000  1
