# generated using pymatgen
data_Ho4UP12Ru18Pt
_symmetry_space_group_name_H-M   'P 1'
_cell_length_a   12.62060992
_cell_length_b   12.47047059
_cell_length_c   3.95882100
_cell_angle_alpha   90.00000000
_cell_angle_beta   90.00000000
_cell_angle_gamma   119.60724486
_symmetry_Int_Tables_number   1
_chemical_formula_structural   Ho4UP12Ru18Pt
_chemical_formula_sum   'Ho4 U1 P12 Ru18 Pt1'
_cell_volume   541.70757008
_cell_formula_units_Z   1
loop_
 _symmetry_equiv_pos_site_id
 _symmetry_equiv_pos_as_xyz
  1  'x, y, z'
loop_
 _atom_site_type_symbol
 _atom_site_label
 _atom_site_symmetry_multiplicity
 _atom_site_fract_x
 _atom_site_fract_y
 _atom_site_fract_z
 _atom_site_occupancy
  Ho  Ho0  1  0.811777  0.811093  0.500000  1
  Ho  Ho1  1  0.188223  0.999316  0.500000  1
  Ho  Ho2  1  0.664662  0.330666  0.000000  1
  Ho  Ho3  1  0.335338  0.666005  0.000000  1
  U  U4  1  0.000000  0.174850  0.500000  1
  P  P5  1  0.000000  0.816833  0.000000  1
  P  P6  1  0.187909  0.182098  0.000000  1
  P  P7  1  0.812091  0.994189  0.000000  1
  P  P8  1  0.692661  0.172870  0.500000  1
  P  P9  1  0.819463  0.520592  0.500000  1
  P  P10  1  0.477454  0.308402  0.500000  1
  P  P11  1  0.180537  0.701129  0.500000  1
  P  P12  1  0.522546  0.830948  0.500000  1
  P  P13  1  0.307339  0.480210  0.500000  1
  P  P14  1  0.000000  0.365102  0.000000  1
  P  P15  1  0.626138  0.626715  0.000000  1
  P  P16  1  0.373862  0.000578  0.000000  1
  Ru  Ru17  1  0.441847  0.446855  0.000000  1
  Ru  Ru18  1  0.558153  0.005008  0.000000  1
  Ru  Ru19  1  0.000000  0.713907  0.500000  1
  Ru  Ru20  1  0.281540  0.283994  0.500000  1
  Ru  Ru21  1  0.718460  0.002455  0.500000  1
  Ru  Ru22  1  0.812755  0.184403  0.000000  1
  Ru  Ru23  1  0.815014  0.621585  0.000000  1
  Ru  Ru24  1  0.377619  0.193118  0.000000  1
  Ru  Ru25  1  0.184986  0.806571  0.000000  1
  Ru  Ru26  1  0.622381  0.815500  0.000000  1
  Ru  Ru27  1  0.187245  0.371648  0.000000  1
  Ru  Ru28  1  0.871696  0.366035  0.500000  1
  Ru  Ru29  1  0.630866  0.509968  0.500000  1
  Ru  Ru30  1  0.494585  0.130603  0.500000  1
  Ru  Ru31  1  0.369134  0.879102  0.500000  1
  Ru  Ru32  1  0.505415  0.636017  0.500000  1
  Ru  Ru33  1  0.128304  0.494340  0.500000  1
  Ru  Ru34  1  0.000000  0.006076  0.000000  1
  Pt  Pt35  1  0.000000  0.551213  0.000000  1
