# generated using pymatgen
data_Zr4Si7GeRh16
_symmetry_space_group_name_H-M   'P 1'
_cell_length_a   4.08161500
_cell_length_b   8.91368187
_cell_length_c   11.33413461
_cell_angle_alpha   89.72933226
_cell_angle_beta   90.00000000
_cell_angle_gamma   90.00000000
_symmetry_Int_Tables_number   1
_chemical_formula_structural   Zr4Si7GeRh16
_chemical_formula_sum   'Zr4 Si7 Ge1 Rh16'
_cell_volume   412.35635080
_cell_formula_units_Z   1
loop_
 _symmetry_equiv_pos_site_id
 _symmetry_equiv_pos_as_xyz
  1  'x, y, z'
loop_
 _atom_site_type_symbol
 _atom_site_label
 _atom_site_symmetry_multiplicity
 _atom_site_fract_x
 _atom_site_fract_y
 _atom_site_fract_z
 _atom_site_occupancy
  Zr  Zr0  1  0.250000  0.139658  0.823009  1
  Zr  Zr1  1  0.250000  0.357076  0.323544  1
  Zr  Zr2  1  0.750000  0.855554  0.175809  1
  Zr  Zr3  1  0.750000  0.643829  0.677250  1
  Si  Si4  1  0.250000  0.414057  0.639619  1
  Si  Si5  1  0.250000  0.085044  0.135544  1
  Si  Si6  1  0.750000  0.586524  0.362792  1
  Si  Si7  1  0.750000  0.910419  0.861461  1
  Si  Si8  1  0.250000  0.617873  0.060902  1
  Si  Si9  1  0.250000  0.882130  0.559943  1
  Si  Si10  1  0.750000  0.383091  0.941225  1
  Ge  Ge11  1  0.750000  0.125159  0.437452  1
  Rh  Rh12  1  0.250000  0.616817  0.502101  1
  Rh  Rh13  1  0.250000  0.885223  0.999569  1
  Rh  Rh14  1  0.750000  0.394652  0.506824  1
  Rh  Rh15  1  0.750000  0.114632  0.994077  1
  Rh  Rh16  1  0.250000  0.692562  0.267184  1
  Rh  Rh17  1  0.250000  0.804675  0.766348  1
  Rh  Rh18  1  0.750000  0.303217  0.736960  1
  Rh  Rh19  1  0.750000  0.193852  0.224498  1
  Rh  Rh20  1  0.250000  0.171036  0.561587  1
  Rh  Rh21  1  0.250000  0.329523  0.058626  1
  Rh  Rh22  1  0.750000  0.828960  0.441909  1
  Rh  Rh23  1  0.750000  0.668951  0.943010  1
  Rh  Rh24  1  0.250000  0.006082  0.336085  1
  Rh  Rh25  1  0.250000  0.491772  0.840236  1
  Rh  Rh26  1  0.750000  0.989848  0.661149  1
  Rh  Rh27  1  0.750000  0.507783  0.161287  1
