# generated using pymatgen
data_LiNb12Ga8Rh3N4
_symmetry_space_group_name_H-M   'P 1'
_cell_length_a   8.26568566
_cell_length_b   8.31398909
_cell_length_c   8.31376100
_cell_angle_alpha   59.99730199
_cell_angle_beta   59.80711428
_cell_angle_gamma   59.80749697
_symmetry_Int_Tables_number   1
_chemical_formula_structural   LiNb12Ga8Rh3N4
_chemical_formula_sum   'Li1 Nb12 Ga8 Rh3 N4'
_cell_volume   402.80142143
_cell_formula_units_Z   1
loop_
 _symmetry_equiv_pos_site_id
 _symmetry_equiv_pos_as_xyz
  1  'x, y, z'
loop_
 _atom_site_type_symbol
 _atom_site_label
 _atom_site_symmetry_multiplicity
 _atom_site_fract_x
 _atom_site_fract_y
 _atom_site_fract_z
 _atom_site_occupancy
  Li  Li0  1  0.125000  0.625000  0.625000  1
  Nb  Nb1  1  0.814381  0.813748  0.185918  1
  Nb  Nb2  1  0.186805  0.192246  0.810467  1
  Nb  Nb3  1  0.814383  0.185925  0.813739  1
  Nb  Nb4  1  0.186804  0.810479  0.192237  1
  Nb  Nb5  1  0.186792  0.810486  0.810472  1
  Nb  Nb6  1  0.814383  0.185939  0.185930  1
  Nb  Nb7  1  0.435619  0.436252  0.064082  1
  Nb  Nb8  1  0.063195  0.057754  0.439533  1
  Nb  Nb9  1  0.435617  0.064075  0.436261  1
  Nb  Nb10  1  0.063196  0.439521  0.057763  1
  Nb  Nb11  1  0.063208  0.439514  0.439528  1
  Nb  Nb12  1  0.435617  0.064061  0.064070  1
  Ga  Ga13  1  0.756652  0.414437  0.414454  1
  Ga  Ga14  1  0.410745  0.756092  0.416586  1
  Ga  Ga15  1  0.410750  0.416578  0.756082  1
  Ga  Ga16  1  0.410752  0.416578  0.416600  1
  Ga  Ga17  1  0.493348  0.835563  0.835546  1
  Ga  Ga18  1  0.839255  0.493908  0.833414  1
  Ga  Ga19  1  0.839250  0.833422  0.493918  1
  Ga  Ga20  1  0.839248  0.833422  0.833400  1
  Rh  Rh21  1  0.625000  0.125000  0.625000  1
  Rh  Rh22  1  0.625000  0.625000  0.125000  1
  Rh  Rh23  1  0.625000  0.625000  0.625000  1
  N  N24  1  0.625000  0.125000  0.125000  1
  N  N25  1  0.125000  0.625000  0.125000  1
  N  N26  1  0.125000  0.125000  0.625000  1
  N  N27  1  0.125000  0.125000  0.125000  1
