# generated using pymatgen
data_Hf5Zr5ZnGaSb6
_symmetry_space_group_name_H-M   'P 1'
_cell_length_a   8.64859301
_cell_length_b   8.65832676
_cell_length_c   5.82261501
_cell_angle_alpha   89.99682933
_cell_angle_beta   90.00634186
_cell_angle_gamma   119.96281470
_symmetry_Int_Tables_number   1
_chemical_formula_structural   Hf5Zr5ZnGaSb6
_chemical_formula_sum   'Hf5 Zr5 Zn1 Ga1 Sb6'
_cell_volume   377.73806093
_cell_formula_units_Z   1
loop_
 _symmetry_equiv_pos_site_id
 _symmetry_equiv_pos_as_xyz
  1  'x, y, z'
loop_
 _atom_site_type_symbol
 _atom_site_label
 _atom_site_symmetry_multiplicity
 _atom_site_fract_x
 _atom_site_fract_y
 _atom_site_fract_z
 _atom_site_occupancy
  Hf  Hf0  1  0.269159  0.000000  0.250914  1
  Hf  Hf1  1  0.333332  0.667122  0.499794  1
  Hf  Hf2  1  0.666140  0.332874  0.000213  1
  Hf  Hf3  1  0.666211  0.332878  0.499794  1
  Hf  Hf4  1  0.333266  0.667126  0.000213  1
  Zr  Zr5  1  0.730618  0.730637  0.250779  1
  Zr  Zr6  1  0.730764  0.000000  0.749220  1
  Zr  Zr7  1  0.999981  0.269363  0.250779  1
  Zr  Zr8  1  0.000424  0.731409  0.749167  1
  Zr  Zr9  1  0.269015  0.268591  0.749167  1
  Zn  Zn10  1  0.000634  0.000000  0.499243  1
  Ga  Ga11  1  0.000633  0.000000  0.000775  1
  Sb  Sb12  1  0.388247  0.000000  0.749269  1
  Sb  Sb13  1  0.387895  0.387382  0.250743  1
  Sb  Sb14  1  0.000513  0.612618  0.250743  1
  Sb  Sb15  1  0.999998  0.388113  0.749254  1
  Sb  Sb16  1  0.611885  0.611887  0.749254  1
  Sb  Sb17  1  0.611285  0.000000  0.250678  1
