# generated using pymatgen
data_TbGd(ClO4)6
_symmetry_space_group_name_H-M   'P 1'
_cell_length_a   9.65340700
_cell_length_b   9.65340615
_cell_length_c   5.65731800
_cell_angle_alpha   90.00000000
_cell_angle_beta   90.00000000
_cell_angle_gamma   119.99999949
_symmetry_Int_Tables_number   1
_chemical_formula_structural   TbGd(ClO4)6
_chemical_formula_sum   'Tb1 Gd1 Cl6 O24'
_cell_volume   456.56479518
_cell_formula_units_Z   1
loop_
 _symmetry_equiv_pos_site_id
 _symmetry_equiv_pos_as_xyz
  1  'x, y, z'
loop_
 _atom_site_type_symbol
 _atom_site_label
 _atom_site_symmetry_multiplicity
 _atom_site_fract_x
 _atom_site_fract_y
 _atom_site_fract_z
 _atom_site_occupancy
  Tb  Tb0  1  0.333333  0.666667  0.750000  1
  Gd  Gd1  1  0.666667  0.333333  0.250000  1
  Cl  Cl2  1  0.909127  0.299064  0.750000  1
  Cl  Cl3  1  0.095647  0.702547  0.250000  1
  Cl  Cl4  1  0.389936  0.090873  0.750000  1
  Cl  Cl5  1  0.606900  0.904353  0.250000  1
  Cl  Cl6  1  0.700936  0.610064  0.750000  1
  Cl  Cl7  1  0.297453  0.393100  0.250000  1
  O  O8  1  0.854029  0.349470  0.959066  1
  O  O9  1  0.149748  0.651402  0.040840  1
  O  O10  1  0.495441  0.145971  0.959066  1
  O  O11  1  0.149748  0.651402  0.459160  1
  O  O12  1  0.501653  0.850252  0.040840  1
  O  O13  1  0.854029  0.349470  0.540934  1
  O  O14  1  0.650530  0.504559  0.959066  1
  O  O15  1  0.501653  0.850252  0.459160  1
  O  O16  1  0.348598  0.498347  0.040840  1
  O  O17  1  0.495441  0.145971  0.540934  1
  O  O18  1  0.348598  0.498347  0.459160  1
  O  O19  1  0.650530  0.504559  0.540934  1
  O  O20  1  0.849660  0.131439  0.750000  1
  O  O21  1  0.156444  0.870444  0.250000  1
  O  O22  1  0.281778  0.150340  0.750000  1
  O  O23  1  0.714001  0.843556  0.250000  1
  O  O24  1  0.868561  0.718222  0.750000  1
  O  O25  1  0.129556  0.285999  0.250000  1
  O  O26  1  0.612392  0.695415  0.750000  1
  O  O27  1  0.384620  0.306538  0.250000  1
  O  O28  1  0.083023  0.387608  0.750000  1
  O  O29  1  0.921918  0.615380  0.250000  1
  O  O30  1  0.304585  0.916977  0.750000  1
  O  O31  1  0.693462  0.078082  0.250000  1
