# generated using pymatgen
data_Cs4Ti6PCl18
_symmetry_space_group_name_H-M   'P 1'
_cell_length_a   10.21117513
_cell_length_b   10.53730460
_cell_length_c   10.63110700
_cell_angle_alpha   118.04690626
_cell_angle_beta   100.85889684
_cell_angle_gamma   104.71267729
_symmetry_Int_Tables_number   1
_chemical_formula_structural   Cs4Ti6PCl18
_chemical_formula_sum   'Cs4 Ti6 P1 Cl18'
_cell_volume   910.76139357
_cell_formula_units_Z   1
loop_
 _symmetry_equiv_pos_site_id
 _symmetry_equiv_pos_as_xyz
  1  'x, y, z'
loop_
 _atom_site_type_symbol
 _atom_site_label
 _atom_site_symmetry_multiplicity
 _atom_site_fract_x
 _atom_site_fract_y
 _atom_site_fract_z
 _atom_site_occupancy
  Cs  Cs0  1  0.202605  0.730296  0.564286  1
  Cs  Cs1  1  0.832776  0.964351  0.767130  1
  Cs  Cs2  1  0.167224  0.035649  0.232870  1
  Cs  Cs3  1  0.797395  0.269704  0.435714  1
  Ti  Ti4  1  0.347215  0.442576  0.771691  1
  Ti  Ti5  1  0.360724  0.618935  0.125637  1
  Ti  Ti6  1  0.647137  0.737405  0.045995  1
  Ti  Ti7  1  0.652785  0.557424  0.228309  1
  Ti  Ti8  1  0.352863  0.262595  0.954005  1
  Ti  Ti9  1  0.639276  0.381065  0.874363  1
  P  P10  1  0.500000  0.500000  0.000000  1
  Cl  Cl11  1  0.804831  0.435302  0.108392  1
  Cl  Cl12  1  0.515520  0.687309  0.375667  1
  Cl  Cl13  1  0.195177  0.011458  0.903733  1
  Cl  Cl14  1  0.195169  0.564698  0.891608  1
  Cl  Cl15  1  0.815053  0.813983  0.292830  1
  Cl  Cl16  1  0.505103  0.310809  0.194604  1
  Cl  Cl17  1  0.782406  0.256680  0.743060  1
  Cl  Cl18  1  0.184947  0.186017  0.707170  1
  Cl  Cl19  1  0.507971  0.876949  0.180589  1
  Cl  Cl20  1  0.800829  0.624935  0.916002  1
  Cl  Cl21  1  0.217594  0.743320  0.256940  1
  Cl  Cl22  1  0.182487  0.381526  0.530348  1
  Cl  Cl23  1  0.494897  0.689191  0.805396  1
  Cl  Cl24  1  0.804823  0.988542  0.096267  1
  Cl  Cl25  1  0.484480  0.312691  0.624333  1
  Cl  Cl26  1  0.199171  0.375065  0.083998  1
  Cl  Cl27  1  0.817513  0.618474  0.469652  1
  Cl  Cl28  1  0.492029  0.123051  0.819411  1
