# generated using pymatgen
data_CeHo15(ErPb4)4
_symmetry_space_group_name_H-M   'P 1'
_cell_length_a   8.19874754
_cell_length_b   8.26672109
_cell_length_c   15.60333000
_cell_angle_alpha   90.04807963
_cell_angle_beta   89.66096484
_cell_angle_gamma   89.87368688
_symmetry_Int_Tables_number   1
_chemical_formula_structural   CeHo15(ErPb4)4
_chemical_formula_sum   'Ce1 Ho15 Er4 Pb16'
_cell_volume   1057.52167134
_cell_formula_units_Z   1
loop_
 _symmetry_equiv_pos_site_id
 _symmetry_equiv_pos_as_xyz
  1  'x, y, z'
loop_
 _atom_site_type_symbol
 _atom_site_label
 _atom_site_symmetry_multiplicity
 _atom_site_fract_x
 _atom_site_fract_y
 _atom_site_fract_z
 _atom_site_occupancy
  Ce  Ce0  1  0.968466  0.820244  0.595864  1
  Ho  Ho1  1  0.623922  0.158731  0.621165  1
  Ho  Ho2  1  0.121096  0.341685  0.880222  1
  Ho  Ho3  1  0.378551  0.842482  0.120745  1
  Ho  Ho4  1  0.875752  0.657769  0.378670  1
  Ho  Ho5  1  0.376676  0.843103  0.378657  1
  Ho  Ho6  1  0.878427  0.657397  0.120648  1
  Ho  Ho7  1  0.621252  0.157366  0.879509  1
  Ho  Ho8  1  0.124051  0.342331  0.620894  1
  Ho  Ho9  1  0.462013  0.674791  0.599828  1
  Ho  Ho10  1  0.960956  0.823524  0.899465  1
  Ho  Ho11  1  0.538709  0.324941  0.100674  1
  Ho  Ho12  1  0.037160  0.177416  0.399906  1
  Ho  Ho13  1  0.534980  0.323407  0.401253  1
  Ho  Ho14  1  0.038417  0.175889  0.100571  1
  Ho  Ho15  1  0.461681  0.675190  0.900479  1
  Er  Er16  1  0.789847  0.495916  0.750825  1
  Er  Er17  1  0.290137  0.005119  0.751196  1
  Er  Er18  1  0.209796  0.504290  0.249915  1
  Er  Er19  1  0.709735  0.995708  0.249213  1
  Pb  Pb20  1  0.717973  0.968151  0.456130  1
  Pb  Pb21  1  0.220201  0.532302  0.043624  1
  Pb  Pb22  1  0.279232  0.031146  0.956843  1
  Pb  Pb23  1  0.780262  0.467032  0.543480  1
  Pb  Pb24  1  0.284139  0.035819  0.542860  1
  Pb  Pb25  1  0.779046  0.467136  0.957259  1
  Pb  Pb26  1  0.720212  0.967596  0.043163  1
  Pb  Pb27  1  0.217174  0.535453  0.457069  1
  Pb  Pb28  1  0.427425  0.374645  0.750322  1
  Pb  Pb29  1  0.927657  0.124894  0.749301  1
  Pb  Pb30  1  0.572433  0.625189  0.249879  1
  Pb  Pb31  1  0.072450  0.874408  0.249834  1
  Pb  Pb32  1  0.651036  0.845340  0.749337  1
  Pb  Pb33  1  0.151913  0.653142  0.750348  1
  Pb  Pb34  1  0.348764  0.154941  0.250362  1
  Pb  Pb35  1  0.848459  0.345510  0.250494  1
