# generated using pymatgen
data_Ba8Sn23Bi
_symmetry_space_group_name_H-M   'P 1'
_cell_length_a   7.30583176
_cell_length_b   7.30583224
_cell_length_c   22.61134622
_cell_angle_alpha   90.02769925
_cell_angle_beta   89.97229934
_cell_angle_gamma   120.17344322
_symmetry_Int_Tables_number   1
_chemical_formula_structural   Ba8Sn23Bi
_chemical_formula_sum   'Ba8 Sn23 Bi1'
_cell_volume   1043.36114967
_cell_formula_units_Z   1
loop_
 _symmetry_equiv_pos_site_id
 _symmetry_equiv_pos_as_xyz
  1  'x, y, z'
loop_
 _atom_site_type_symbol
 _atom_site_label
 _atom_site_symmetry_multiplicity
 _atom_site_fract_x
 _atom_site_fract_y
 _atom_site_fract_z
 _atom_site_occupancy
  Ba  Ba0  1  0.333381  0.666619  0.134254  1
  Ba  Ba1  1  0.666619  0.333381  0.865746  1
  Ba  Ba2  1  0.667139  0.332861  0.634849  1
  Ba  Ba3  1  0.332861  0.667139  0.365151  1
  Ba  Ba4  1  0.000000  0.000000  0.000000  1
  Ba  Ba5  1  0.000000  0.000000  0.500000  1
  Ba  Ba6  1  0.999463  0.000537  0.250175  1
  Ba  Ba7  1  0.000537  0.999463  0.749825  1
  Sn  Sn8  1  0.192164  0.386768  0.624971  1
  Sn  Sn9  1  0.807836  0.613232  0.375029  1
  Sn  Sn10  1  0.613232  0.807836  0.624971  1
  Sn  Sn11  1  0.807059  0.614087  0.123991  1
  Sn  Sn12  1  0.386768  0.192164  0.375029  1
  Sn  Sn13  1  0.192941  0.385913  0.876009  1
  Sn  Sn14  1  0.192913  0.807087  0.623675  1
  Sn  Sn15  1  0.385913  0.192941  0.123991  1
  Sn  Sn16  1  0.807087  0.192913  0.376325  1
  Sn  Sn17  1  0.614087  0.807059  0.876009  1
  Sn  Sn18  1  0.806998  0.193002  0.124622  1
  Sn  Sn19  1  0.193002  0.806998  0.875378  1
  Sn  Sn20  1  0.528577  0.056758  0.249360  1
  Sn  Sn21  1  0.471423  0.943242  0.750640  1
  Sn  Sn22  1  0.943242  0.471423  0.249360  1
  Sn  Sn23  1  0.056758  0.528577  0.750640  1
  Sn  Sn24  1  0.529442  0.470558  0.249642  1
  Sn  Sn25  1  0.470558  0.529442  0.750358  1
  Sn  Sn26  1  0.500000  0.000000  0.000000  1
  Sn  Sn27  1  0.000000  0.500000  0.000000  1
  Sn  Sn28  1  0.500000  0.000000  0.500000  1
  Sn  Sn29  1  0.500000  0.500000  0.000000  1
  Sn  Sn30  1  0.000000  0.500000  0.500000  1
  Bi  Bi31  1  0.500000  0.500000  0.500000  1
