# generated using pymatgen
data_TbCe3(B4Ru)4
_symmetry_space_group_name_H-M   'P 1'
_cell_length_a   3.61688900
_cell_length_b   5.99557398
_cell_length_c   11.63000588
_cell_angle_alpha   90.06531497
_cell_angle_beta   90.00000000
_cell_angle_gamma   90.00000000
_symmetry_Int_Tables_number   1
_chemical_formula_structural   TbCe3(B4Ru)4
_chemical_formula_sum   'Tb1 Ce3 B16 Ru4'
_cell_volume   252.20030004
_cell_formula_units_Z   1
loop_
 _symmetry_equiv_pos_site_id
 _symmetry_equiv_pos_as_xyz
  1  'x, y, z'
loop_
 _atom_site_type_symbol
 _atom_site_label
 _atom_site_symmetry_multiplicity
 _atom_site_fract_x
 _atom_site_fract_y
 _atom_site_fract_z
 _atom_site_occupancy
  Tb  Tb0  1  0.500000  0.371453  0.649324  1
  Ce  Ce1  1  0.500000  0.129021  0.149752  1
  Ce  Ce2  1  0.500000  0.871145  0.849462  1
  Ce  Ce3  1  0.500000  0.628604  0.351161  1
  B  B4  1  0.000000  0.475523  0.190651  1
  B  B5  1  0.000000  0.524131  0.808610  1
  B  B6  1  0.000000  0.974390  0.309875  1
  B  B7  1  0.000000  0.025425  0.690507  1
  B  B8  1  0.000000  0.286931  0.315216  1
  B  B9  1  0.000000  0.713007  0.685287  1
  B  B10  1  0.000000  0.786084  0.186029  1
  B  B11  1  0.000000  0.214102  0.813954  1
  B  B12  1  0.000000  0.363109  0.469091  1
  B  B13  1  0.000000  0.637189  0.531640  1
  B  B14  1  0.000000  0.862343  0.031168  1
  B  B15  1  0.000000  0.137253  0.968559  1
  B  B16  1  0.000000  0.388439  0.045703  1
  B  B17  1  0.000000  0.610797  0.953394  1
  B  B18  1  0.000000  0.888784  0.454834  1
  B  B19  1  0.000000  0.112320  0.546656  1
  Ru  Ru20  1  0.500000  0.139329  0.406125  1
  Ru  Ru21  1  0.500000  0.859802  0.592625  1
  Ru  Ru22  1  0.500000  0.640731  0.093667  1
  Ru  Ru23  1  0.500000  0.360088  0.906710  1
