# generated using pymatgen
data_NaGeWO5
_symmetry_space_group_name_H-M   'P 1'
_cell_length_a   5.71386339
_cell_length_b   5.71386269
_cell_length_c   7.50926156
_cell_angle_alpha   74.95090893
_cell_angle_beta   74.95091868
_cell_angle_gamma   104.54200843
_symmetry_Int_Tables_number   1
_chemical_formula_structural   NaGeWO5
_chemical_formula_sum   'Na2 Ge2 W2 O10'
_cell_volume   214.88829760
_cell_formula_units_Z   2
loop_
 _symmetry_equiv_pos_site_id
 _symmetry_equiv_pos_as_xyz
  1  'x, y, z'
loop_
 _atom_site_type_symbol
 _atom_site_label
 _atom_site_symmetry_multiplicity
 _atom_site_fract_x
 _atom_site_fract_y
 _atom_site_fract_z
 _atom_site_occupancy
  Na  Na0  1  0.675091  0.324909  0.250000  1
  Na  Na1  1  0.324909  0.675091  0.750000  1
  Ge  Ge2  1  0.682521  0.317479  0.750000  1
  Ge  Ge3  1  0.317479  0.682521  0.250000  1
  W  W4  1  0.000000  0.000000  0.500000  1
  W  W5  1  0.000000  0.000000  0.000000  1
  O  O6  1  0.062381  0.937619  0.750000  1
  O  O7  1  0.937619  0.062381  0.250000  1
  O  O8  1  0.301651  0.884177  0.393952  1
  O  O9  1  0.115823  0.698349  0.106048  1
  O  O10  1  0.698349  0.115823  0.606048  1
  O  O11  1  0.884177  0.301651  0.893952  1
  O  O12  1  0.751545  0.638716  0.599093  1
  O  O13  1  0.361284  0.248455  0.900907  1
  O  O14  1  0.248455  0.361284  0.400907  1
  O  O15  1  0.638716  0.751545  0.099093  1
