# generated using pymatgen
data_ThReSi2Tc3
_symmetry_space_group_name_H-M   'P 1'
_cell_length_a   4.16527800
_cell_length_b   7.18307500
_cell_length_c   15.80424500
_cell_angle_alpha   90.00000000
_cell_angle_beta   90.00000000
_cell_angle_gamma   90.00000000
_symmetry_Int_Tables_number   1
_chemical_formula_structural   ThReSi2Tc3
_chemical_formula_sum   'Th4 Re4 Si8 Tc12'
_cell_volume   472.85517576
_cell_formula_units_Z   4
loop_
 _symmetry_equiv_pos_site_id
 _symmetry_equiv_pos_as_xyz
  1  'x, y, z'
loop_
 _atom_site_type_symbol
 _atom_site_label
 _atom_site_symmetry_multiplicity
 _atom_site_fract_x
 _atom_site_fract_y
 _atom_site_fract_z
 _atom_site_occupancy
  Th  Th0  1  0.000000  0.592346  0.117528  1
  Th  Th1  1  0.000000  0.407654  0.882472  1
  Th  Th2  1  0.500000  0.092346  0.382472  1
  Th  Th3  1  0.500000  0.907654  0.617528  1
  Re  Re4  1  0.000000  0.140737  0.051121  1
  Re  Re5  1  0.000000  0.859263  0.948879  1
  Re  Re6  1  0.500000  0.640737  0.448879  1
  Re  Re7  1  0.500000  0.359263  0.551121  1
  Si  Si8  1  0.000000  0.829284  0.473134  1
  Si  Si9  1  0.000000  0.170716  0.526866  1
  Si  Si10  1  0.500000  0.329284  0.026866  1
  Si  Si11  1  0.500000  0.670716  0.973134  1
  Si  Si12  1  0.000000  0.313965  0.273807  1
  Si  Si13  1  0.000000  0.686035  0.726193  1
  Si  Si14  1  0.500000  0.813965  0.226193  1
  Si  Si15  1  0.500000  0.186035  0.773807  1
  Tc  Tc16  1  0.000000  0.738749  0.321034  1
  Tc  Tc17  1  0.000000  0.261251  0.678966  1
  Tc  Tc18  1  0.500000  0.238749  0.178966  1
  Tc  Tc19  1  0.500000  0.761251  0.821034  1
  Tc  Tc20  1  0.000000  0.427820  0.421096  1
  Tc  Tc21  1  0.000000  0.572180  0.578904  1
  Tc  Tc22  1  0.500000  0.927820  0.078904  1
  Tc  Tc23  1  0.500000  0.072180  0.921096  1
  Tc  Tc24  1  0.000000  0.007364  0.205820  1
  Tc  Tc25  1  0.000000  0.992636  0.794180  1
  Tc  Tc26  1  0.500000  0.507364  0.294180  1
  Tc  Tc27  1  0.500000  0.492636  0.705820  1
