# generated using pymatgen
data_La2Al7Ag
_symmetry_space_group_name_H-M   'P 1'
_cell_length_a   6.19482467
_cell_length_b   6.19301817
_cell_length_c   11.93166052
_cell_angle_alpha   74.95839081
_cell_angle_beta   74.95390693
_cell_angle_gamma   90.00000080
_symmetry_Int_Tables_number   1
_chemical_formula_structural   La2Al7Ag
_chemical_formula_sum   'La4 Al14 Ag2'
_cell_volume   425.79968374
_cell_formula_units_Z   2
loop_
 _symmetry_equiv_pos_site_id
 _symmetry_equiv_pos_as_xyz
  1  'x, y, z'
loop_
 _atom_site_type_symbol
 _atom_site_label
 _atom_site_symmetry_multiplicity
 _atom_site_fract_x
 _atom_site_fract_y
 _atom_site_fract_z
 _atom_site_occupancy
  La  La0  1  0.998261  0.998261  0.003479  1
  La  La1  1  0.499567  0.499567  0.000866  1
  La  La2  1  0.749441  0.249441  0.501118  1
  La  La3  1  0.248318  0.748318  0.503366  1
  Al  Al4  1  0.197310  0.197310  0.605381  1
  Al  Al5  1  0.807525  0.807525  0.384951  1
  Al  Al6  1  0.623883  0.121630  0.249308  1
  Al  Al7  1  0.126808  0.629061  0.249308  1
  Al  Al8  1  0.623883  0.629061  0.249308  1
  Al  Al9  1  0.126808  0.121630  0.249308  1
  Al  Al10  1  0.879565  0.372202  0.749227  1
  Al  Al11  1  0.371208  0.878570  0.749227  1
  Al  Al12  1  0.879565  0.878570  0.749227  1
  Al  Al13  1  0.371208  0.372202  0.749227  1
  Al  Al14  1  0.691905  0.691905  0.616191  1
  Al  Al15  1  0.057932  0.557932  0.884135  1
  Al  Al16  1  0.446815  0.946815  0.106368  1
  Al  Al17  1  0.942382  0.442382  0.115236  1
  Ag  Ag18  1  0.311447  0.311447  0.377106  1
  Ag  Ag19  1  0.561000  0.061000  0.878002  1
