# generated using pymatgen
data_Nd5Sn2Os
_symmetry_space_group_name_H-M   'P 1'
_cell_length_a   8.17927100
_cell_length_b   9.20476700
_cell_length_c   12.78758100
_cell_angle_alpha   90.00000000
_cell_angle_beta   90.00000000
_cell_angle_gamma   90.00000000
_symmetry_Int_Tables_number   1
_chemical_formula_structural   Nd5Sn2Os
_chemical_formula_sum   'Nd20 Sn8 Os4'
_cell_volume   962.75502725
_cell_formula_units_Z   4
loop_
 _symmetry_equiv_pos_site_id
 _symmetry_equiv_pos_as_xyz
  1  'x, y, z'
loop_
 _atom_site_type_symbol
 _atom_site_label
 _atom_site_symmetry_multiplicity
 _atom_site_fract_x
 _atom_site_fract_y
 _atom_site_fract_z
 _atom_site_occupancy
  Nd  Nd0  1  0.154756  0.750000  0.215196  1
  Nd  Nd1  1  0.654756  0.250000  0.284804  1
  Nd  Nd2  1  0.845244  0.250000  0.784804  1
  Nd  Nd3  1  0.345244  0.750000  0.715196  1
  Nd  Nd4  1  0.449794  0.750000  0.998194  1
  Nd  Nd5  1  0.949794  0.250000  0.501806  1
  Nd  Nd6  1  0.550206  0.250000  0.001806  1
  Nd  Nd7  1  0.050206  0.750000  0.498194  1
  Nd  Nd8  1  0.624190  0.750000  0.303397  1
  Nd  Nd9  1  0.124190  0.250000  0.196603  1
  Nd  Nd10  1  0.375810  0.250000  0.696603  1
  Nd  Nd11  1  0.875810  0.750000  0.803397  1
  Nd  Nd12  1  0.824553  0.965061  0.069096  1
  Nd  Nd13  1  0.324553  0.034939  0.430904  1
  Nd  Nd14  1  0.175447  0.465061  0.930904  1
  Nd  Nd15  1  0.675447  0.534939  0.569096  1
  Nd  Nd16  1  0.175447  0.034939  0.930904  1
  Nd  Nd17  1  0.675447  0.965061  0.569096  1
  Nd  Nd18  1  0.824553  0.534939  0.069096  1
  Nd  Nd19  1  0.324553  0.465061  0.430904  1
  Sn  Sn20  1  0.927249  0.995308  0.330737  1
  Sn  Sn21  1  0.427249  0.004692  0.169263  1
  Sn  Sn22  1  0.072751  0.495308  0.669263  1
  Sn  Sn23  1  0.572751  0.504692  0.830737  1
  Sn  Sn24  1  0.072751  0.004692  0.669263  1
  Sn  Sn25  1  0.572751  0.995308  0.830737  1
  Sn  Sn26  1  0.927249  0.504692  0.330737  1
  Sn  Sn27  1  0.427249  0.495308  0.169263  1
  Os  Os28  1  0.421005  0.750000  0.491059  1
  Os  Os29  1  0.921005  0.250000  0.008941  1
  Os  Os30  1  0.578995  0.250000  0.508941  1
  Os  Os31  1  0.078995  0.750000  0.991059  1
