# generated using pymatgen
data_Pr4Ag3As8Au
_symmetry_space_group_name_H-M   'P 1'
_cell_length_a   4.08613900
_cell_length_b   4.13333500
_cell_length_c   21.29969501
_cell_angle_alpha   90.00353233
_cell_angle_beta   89.99994237
_cell_angle_gamma   89.99947021
_symmetry_Int_Tables_number   1
_chemical_formula_structural   Pr4Ag3As8Au
_chemical_formula_sum   'Pr4 Ag3 As8 Au1'
_cell_volume   359.73867101
_cell_formula_units_Z   1
loop_
 _symmetry_equiv_pos_site_id
 _symmetry_equiv_pos_as_xyz
  1  'x, y, z'
loop_
 _atom_site_type_symbol
 _atom_site_label
 _atom_site_symmetry_multiplicity
 _atom_site_fract_x
 _atom_site_fract_y
 _atom_site_fract_z
 _atom_site_occupancy
  Pr  Pr0  1  0.250042  0.775230  0.616082  1
  Pr  Pr1  1  0.750018  0.224592  0.382941  1
  Pr  Pr2  1  0.750050  0.275339  0.883814  1
  Pr  Pr3  1  0.249977  0.724927  0.117108  1
  Ag  Ag4  1  0.749991  0.723819  0.249858  1
  Ag  Ag5  1  0.750022  0.776036  0.749822  1
  Ag  Ag6  1  0.250002  0.276041  0.750177  1
  As  As7  1  0.249986  0.776160  0.838769  1
  As  As8  1  0.749981  0.223969  0.160938  1
  As  As9  1  0.750004  0.276141  0.661261  1
  As  As10  1  0.249989  0.723692  0.339050  1
  As  As11  1  0.250078  0.299212  0.501583  1
  As  As12  1  0.249911  0.200753  0.002174  1
  As  As13  1  0.750079  0.799219  0.998314  1
  As  As14  1  0.749884  0.701212  0.497916  1
  Au  Au15  1  0.249986  0.223659  0.250193  1
