# generated using pymatgen
data_TmTa3Nb2C5
_symmetry_space_group_name_H-M   'P 1'
_cell_length_a   5.56774601
_cell_length_b   5.57211780
_cell_length_c   5.54129253
_cell_angle_alpha   80.90794949
_cell_angle_beta   80.97667761
_cell_angle_gamma   120.35805329
_symmetry_Int_Tables_number   1
_chemical_formula_structural   TmTa3Nb2C5
_chemical_formula_sum   'Tm1 Ta3 Nb2 C5'
_cell_volume   140.71217409
_cell_formula_units_Z   1
loop_
 _symmetry_equiv_pos_site_id
 _symmetry_equiv_pos_as_xyz
  1  'x, y, z'
loop_
 _atom_site_type_symbol
 _atom_site_label
 _atom_site_symmetry_multiplicity
 _atom_site_fract_x
 _atom_site_fract_y
 _atom_site_fract_z
 _atom_site_occupancy
  Tm  Tm0  1  0.750306  0.750125  0.748449  1
  Ta  Ta1  1  0.258157  0.259723  0.260739  1
  Ta  Ta2  1  0.087216  0.443377  0.743549  1
  Ta  Ta3  1  0.559299  0.910115  0.253473  1
  Nb  Nb4  1  0.908199  0.558741  0.253936  1
  Nb  Nb5  1  0.443666  0.087857  0.743887  1
  C  C6  1  0.489092  0.495605  0.495895  1
  C  C7  1  0.662558  0.319702  0.008993  1
  C  C8  1  0.321097  0.660117  0.009057  1
  C  C9  1  0.839796  0.178261  0.490738  1
  C  C10  1  0.180611  0.836375  0.491287  1
