# generated using pymatgen
data_Cs2Ca(ICl)2
_symmetry_space_group_name_H-M   'P 1'
_cell_length_a   10.48241248
_cell_length_b   10.48241245
_cell_length_c   7.82673700
_cell_angle_alpha   90.00000000
_cell_angle_beta   90.00000000
_cell_angle_gamma   136.05489330
_symmetry_Int_Tables_number   1
_chemical_formula_structural   Cs2Ca(ICl)2
_chemical_formula_sum   'Cs4 Ca2 I4 Cl4'
_cell_volume   596.81979866
_cell_formula_units_Z   2
loop_
 _symmetry_equiv_pos_site_id
 _symmetry_equiv_pos_as_xyz
  1  'x, y, z'
loop_
 _atom_site_type_symbol
 _atom_site_label
 _atom_site_symmetry_multiplicity
 _atom_site_fract_x
 _atom_site_fract_y
 _atom_site_fract_z
 _atom_site_occupancy
  Cs  Cs0  1  0.133574  0.866426  0.500000  1
  Cs  Cs1  1  0.866426  0.133574  0.500000  1
  Cs  Cs2  1  0.366426  0.633574  0.000000  1
  Cs  Cs3  1  0.633574  0.366426  0.000000  1
  Ca  Ca4  1  0.500000  0.500000  0.500000  1
  Ca  Ca5  1  0.000000  0.000000  0.000000  1
  I  I6  1  0.337648  0.662352  0.500000  1
  I  I7  1  0.662352  0.337648  0.500000  1
  I  I8  1  0.162352  0.837648  0.000000  1
  I  I9  1  0.837648  0.162352  0.000000  1
  Cl  Cl10  1  0.750471  0.750471  0.750152  1
  Cl  Cl11  1  0.249529  0.249529  0.249848  1
  Cl  Cl12  1  0.749529  0.749529  0.250152  1
  Cl  Cl13  1  0.250471  0.250471  0.749848  1
