# generated using pymatgen
data_Ho10Cd2CoHg
_symmetry_space_group_name_H-M   'P 1'
_cell_length_a   9.56049314
_cell_length_b   9.56189443
_cell_length_c   9.65372400
_cell_angle_alpha   90.00000000
_cell_angle_beta   90.00000000
_cell_angle_gamma   120.00484608
_symmetry_Int_Tables_number   1
_chemical_formula_structural   Ho10Cd2CoHg
_chemical_formula_sum   'Ho20 Cd4 Co2 Hg2'
_cell_volume   764.23784258
_cell_formula_units_Z   2
loop_
 _symmetry_equiv_pos_site_id
 _symmetry_equiv_pos_as_xyz
  1  'x, y, z'
loop_
 _atom_site_type_symbol
 _atom_site_label
 _atom_site_symmetry_multiplicity
 _atom_site_fract_x
 _atom_site_fract_y
 _atom_site_fract_z
 _atom_site_occupancy
  Ho  Ho0  1  0.996303  0.998152  0.493700  1
  Ho  Ho1  1  0.996303  0.998152  0.006300  1
  Ho  Ho2  1  0.545879  0.460042  0.250000  1
  Ho  Ho3  1  0.545879  0.085838  0.250000  1
  Ho  Ho4  1  0.914867  0.457434  0.250000  1
  Ho  Ho5  1  0.457108  0.542685  0.750000  1
  Ho  Ho6  1  0.457108  0.914423  0.750000  1
  Ho  Ho7  1  0.086863  0.543432  0.750000  1
  Ho  Ho8  1  0.212268  0.788715  0.435767  1
  Ho  Ho9  1  0.212268  0.423554  0.435767  1
  Ho  Ho10  1  0.576255  0.788128  0.435845  1
  Ho  Ho11  1  0.788212  0.212095  0.564030  1
  Ho  Ho12  1  0.788212  0.576116  0.564030  1
  Ho  Ho13  1  0.423694  0.211847  0.563270  1
  Ho  Ho14  1  0.788212  0.212095  0.935970  1
  Ho  Ho15  1  0.788212  0.576116  0.935970  1
  Ho  Ho16  1  0.423694  0.211847  0.936730  1
  Ho  Ho17  1  0.212268  0.788715  0.064233  1
  Ho  Ho18  1  0.212268  0.423554  0.064233  1
  Ho  Ho19  1  0.576255  0.788128  0.064155  1
  Cd  Cd20  1  0.235359  0.117680  0.250000  1
  Cd  Cd21  1  0.113244  0.886100  0.750000  1
  Cd  Cd22  1  0.113244  0.227144  0.750000  1
  Cd  Cd23  1  0.771270  0.885635  0.750000  1
  Co  Co24  1  0.333584  0.666793  0.250000  1
  Co  Co25  1  0.666115  0.333057  0.750000  1
  Hg  Hg26  1  0.882526  0.120885  0.250000  1
  Hg  Hg27  1  0.882526  0.761642  0.250000  1
