# generated using pymatgen
data_Zr4Cr3Re5
_symmetry_space_group_name_H-M   'P 1'
_cell_length_a   5.17260596
_cell_length_b   5.23934402
_cell_length_c   8.58780300
_cell_angle_alpha   90.00000000
_cell_angle_beta   90.00000000
_cell_angle_gamma   120.11659627
_symmetry_Int_Tables_number   1
_chemical_formula_structural   Zr4Cr3Re5
_chemical_formula_sum   'Zr4 Cr3 Re5'
_cell_volume   201.32029763
_cell_formula_units_Z   1
loop_
 _symmetry_equiv_pos_site_id
 _symmetry_equiv_pos_as_xyz
  1  'x, y, z'
loop_
 _atom_site_type_symbol
 _atom_site_label
 _atom_site_symmetry_multiplicity
 _atom_site_fract_x
 _atom_site_fract_y
 _atom_site_fract_z
 _atom_site_occupancy
  Zr  Zr0  1  0.335293  0.667615  0.437954  1
  Zr  Zr1  1  0.666241  0.332038  0.940642  1
  Zr  Zr2  1  0.666241  0.332038  0.559358  1
  Zr  Zr3  1  0.335293  0.667615  0.062046  1
  Cr  Cr4  1  0.660914  0.830818  0.750000  1
  Cr  Cr5  1  0.341824  0.169642  0.250000  1
  Cr  Cr6  1  0.827182  0.170142  0.250000  1
  Re  Re7  1  0.172225  0.343160  0.750000  1
  Re  Re8  1  0.171290  0.830346  0.750000  1
  Re  Re9  1  0.825589  0.650694  0.250000  1
  Re  Re10  1  0.998955  0.002946  0.493338  1
  Re  Re11  1  0.998955  0.002946  0.006662  1
