# generated using pymatgen
data_NdCoCuSi
_symmetry_space_group_name_H-M   'P 1'
_cell_length_a   9.08289184
_cell_length_b   9.08289077
_cell_length_c   4.00156600
_cell_angle_alpha   90.00000000
_cell_angle_beta   90.00000000
_cell_angle_gamma   154.67859540
_symmetry_Int_Tables_number   1
_chemical_formula_structural   NdCoCuSi
_chemical_formula_sum   'Nd2 Co2 Cu2 Si2'
_cell_volume   141.19294015
_cell_formula_units_Z   2
loop_
 _symmetry_equiv_pos_site_id
 _symmetry_equiv_pos_as_xyz
  1  'x, y, z'
loop_
 _atom_site_type_symbol
 _atom_site_label
 _atom_site_symmetry_multiplicity
 _atom_site_fract_x
 _atom_site_fract_y
 _atom_site_fract_z
 _atom_site_occupancy
  Nd  Nd0  1  0.612969  0.387031  0.250000  1
  Nd  Nd1  1  0.387031  0.612969  0.750000  1
  Co  Co2  1  0.250188  0.749812  0.250000  1
  Co  Co3  1  0.749812  0.250188  0.750000  1
  Cu  Cu4  1  0.959807  0.040193  0.250000  1
  Cu  Cu5  1  0.040193  0.959807  0.750000  1
  Si  Si6  1  0.815751  0.184249  0.250000  1
  Si  Si7  1  0.184249  0.815751  0.750000  1
