# generated using pymatgen
data_Sr4ThP12Pd19
_symmetry_space_group_name_H-M   'P 1'
_cell_length_a   15.79788107
_cell_length_b   15.79788092
_cell_length_c   10.02608659
_cell_angle_alpha   75.83395639
_cell_angle_beta   75.83395615
_cell_angle_gamma   14.61520926
_symmetry_Int_Tables_number   1
_chemical_formula_structural   Sr4ThP12Pd19
_chemical_formula_sum   'Sr4 Th1 P12 Pd19'
_cell_volume   611.86030356
_cell_formula_units_Z   1
loop_
 _symmetry_equiv_pos_site_id
 _symmetry_equiv_pos_as_xyz
  1  'x, y, z'
loop_
 _atom_site_type_symbol
 _atom_site_label
 _atom_site_symmetry_multiplicity
 _atom_site_fract_x
 _atom_site_fract_y
 _atom_site_fract_z
 _atom_site_occupancy
  Sr  Sr0  1  0.575580  0.575580  0.817522  1
  Sr  Sr1  1  0.424420  0.424420  0.182478  1
  Sr  Sr2  1  0.175938  0.175938  0.233347  1
  Sr  Sr3  1  0.824062  0.824062  0.766653  1
  Th  Th4  1  0.500000  0.500000  0.500000  1
  P  P5  1  0.925254  0.925254  0.948274  1
  P  P6  1  0.074746  0.074746  0.051726  1
  P  P7  1  0.695341  0.695341  0.974201  1
  P  P8  1  0.304659  0.304659  0.025799  1
  P  P9  1  0.401173  0.401173  0.615942  1
  P  P10  1  0.735657  0.735657  0.343650  1
  P  P11  1  0.148980  0.148980  0.659056  1
  P  P12  1  0.851020  0.851020  0.340944  1
  P  P13  1  0.012527  0.012527  0.717400  1
  P  P14  1  0.987473  0.987473  0.282600  1
  P  P15  1  0.598827  0.598827  0.384058  1
  P  P16  1  0.264343  0.264343  0.656350  1
  Pd  Pd17  1  0.781978  0.781978  0.507495  1
  Pd  Pd18  1  0.759139  0.759139  0.093104  1
  Pd  Pd19  1  0.240861  0.240861  0.906896  1
  Pd  Pd20  1  0.218022  0.218022  0.492505  1
  Pd  Pd21  1  0.346886  0.346886  0.479508  1
  Pd  Pd22  1  0.619511  0.619511  0.103145  1
  Pd  Pd23  1  0.380489  0.380489  0.896855  1
  Pd  Pd24  1  0.527958  0.527958  0.170243  1
  Pd  Pd25  1  0.472042  0.472042  0.829757  1
  Pd  Pd26  1  0.292314  0.292314  0.274492  1
  Pd  Pd27  1  0.707686  0.707686  0.725508  1
  Pd  Pd28  1  0.000000  0.000000  0.000000  1
  Pd  Pd29  1  0.850502  0.850502  0.103100  1
  Pd  Pd30  1  0.084268  0.084268  0.554121  1
  Pd  Pd31  1  0.915732  0.915732  0.445879  1
  Pd  Pd32  1  0.070761  0.070761  0.295176  1
  Pd  Pd33  1  0.929239  0.929239  0.704824  1
  Pd  Pd34  1  0.653114  0.653114  0.520492  1
  Pd  Pd35  1  0.149498  0.149498  0.896900  1
