# generated using pymatgen
data_Er4Lu8Co5Sb
_symmetry_space_group_name_H-M   'P 1'
_cell_length_a   8.09674104
_cell_length_b   8.09673962
_cell_length_c   8.09673925
_cell_angle_alpha   110.78303216
_cell_angle_beta   111.27277800
_cell_angle_gamma   106.40118503
_symmetry_Int_Tables_number   1
_chemical_formula_structural   Er4Lu8Co5Sb
_chemical_formula_sum   'Er4 Lu8 Co5 Sb1'
_cell_volume   407.72798795
_cell_formula_units_Z   1
loop_
 _symmetry_equiv_pos_site_id
 _symmetry_equiv_pos_as_xyz
  1  'x, y, z'
loop_
 _atom_site_type_symbol
 _atom_site_label
 _atom_site_symmetry_multiplicity
 _atom_site_fract_x
 _atom_site_fract_y
 _atom_site_fract_z
 _atom_site_occupancy
  Er  Er0  1  0.213446  0.408675  0.195229  1
  Er  Er1  1  0.786554  0.591325  0.804771  1
  Er  Er2  1  0.213446  0.018217  0.804771  1
  Er  Er3  1  0.786554  0.981783  0.195229  1
  Lu  Lu4  1  0.286366  0.183658  0.470024  1
  Lu  Lu5  1  0.713634  0.816342  0.529976  1
  Lu  Lu6  1  0.286366  0.816342  0.102709  1
  Lu  Lu7  1  0.713634  0.183658  0.897291  1
  Lu  Lu8  1  0.620980  0.313712  0.307268  1
  Lu  Lu9  1  0.379020  0.686288  0.692732  1
  Lu  Lu10  1  0.006445  0.313712  0.692732  1
  Lu  Lu11  1  0.993555  0.686288  0.307268  1
  Co  Co12  1  0.000000  0.372315  0.372315  1
  Co  Co13  1  0.000000  0.627685  0.627685  1
  Co  Co14  1  0.386939  0.886939  0.500000  1
  Co  Co15  1  0.613061  0.113061  0.500000  1
  Co  Co16  1  0.000000  0.000000  0.000000  1
  Sb  Sb17  1  0.500000  0.500000  0.000000  1
