# generated using pymatgen
data_Ce12Fe6Si5Ge
_symmetry_space_group_name_H-M   'P 1'
_cell_length_a   7.48166100
_cell_length_b   7.48166033
_cell_length_c   9.59643700
_cell_angle_alpha   90.00000000
_cell_angle_beta   90.00000000
_cell_angle_gamma   119.99999855
_symmetry_Int_Tables_number   1
_chemical_formula_structural   Ce12Fe6Si5Ge
_chemical_formula_sum   'Ce12 Fe6 Si5 Ge1'
_cell_volume   465.19674538
_cell_formula_units_Z   1
loop_
 _symmetry_equiv_pos_site_id
 _symmetry_equiv_pos_as_xyz
  1  'x, y, z'
loop_
 _atom_site_type_symbol
 _atom_site_label
 _atom_site_symmetry_multiplicity
 _atom_site_fract_x
 _atom_site_fract_y
 _atom_site_fract_z
 _atom_site_occupancy
  Ce  Ce0  1  0.000000  0.576872  0.500078  1
  Ce  Ce1  1  0.576872  0.000000  0.500078  1
  Ce  Ce2  1  0.423128  0.423128  0.500078  1
  Ce  Ce3  1  0.000000  0.425680  0.000157  1
  Ce  Ce4  1  0.425680  0.000000  0.000157  1
  Ce  Ce5  1  0.574320  0.574320  0.000157  1
  Ce  Ce6  1  0.000000  0.742182  0.175432  1
  Ce  Ce7  1  0.742182  0.000000  0.175432  1
  Ce  Ce8  1  0.257818  0.257818  0.175432  1
  Ce  Ce9  1  0.000000  0.258969  0.670794  1
  Ce  Ce10  1  0.258969  0.000000  0.670794  1
  Ce  Ce11  1  0.741031  0.741031  0.670794  1
  Fe  Fe12  1  0.000000  0.351325  0.344277  1
  Fe  Fe13  1  0.351325  0.000000  0.344277  1
  Fe  Fe14  1  0.648675  0.648675  0.344277  1
  Fe  Fe15  1  0.000000  0.643869  0.842766  1
  Fe  Fe16  1  0.643869  0.000000  0.842766  1
  Fe  Fe17  1  0.356131  0.356131  0.842766  1
  Si  Si18  1  0.666667  0.333333  0.273624  1
  Si  Si19  1  0.333333  0.666667  0.273624  1
  Si  Si20  1  0.333333  0.666667  0.772054  1
  Si  Si21  1  0.666667  0.333333  0.772054  1
  Si  Si22  1  0.000000  0.000000  0.418666  1
  Ge  Ge23  1  0.000000  0.000000  0.918721  1
