# generated using pymatgen
data_Th4Ga18Ru5Rh
_symmetry_space_group_name_H-M   'P 1'
_cell_length_a   7.66549168
_cell_length_b   7.66548988
_cell_length_c   9.66968102
_cell_angle_alpha   89.89321135
_cell_angle_beta   89.89321899
_cell_angle_gamma   119.73209363
_symmetry_Int_Tables_number   1
_chemical_formula_structural   Th4Ga18Ru5Rh
_chemical_formula_sum   'Th4 Ga18 Ru5 Rh1'
_cell_volume   493.38486319
_cell_formula_units_Z   1
loop_
 _symmetry_equiv_pos_site_id
 _symmetry_equiv_pos_as_xyz
  1  'x, y, z'
loop_
 _atom_site_type_symbol
 _atom_site_label
 _atom_site_symmetry_multiplicity
 _atom_site_fract_x
 _atom_site_fract_y
 _atom_site_fract_z
 _atom_site_occupancy
  Th  Th0  1  0.997239  0.667558  0.248999  1
  Th  Th1  1  0.002761  0.332442  0.751001  1
  Th  Th2  1  0.667558  0.997239  0.248999  1
  Th  Th3  1  0.332442  0.002761  0.751001  1
  Ga  Ga4  1  0.129063  0.129063  0.249053  1
  Ga  Ga5  1  0.870937  0.870937  0.750947  1
  Ga  Ga6  1  0.006035  0.334442  0.076230  1
  Ga  Ga7  1  0.993965  0.665558  0.923770  1
  Ga  Ga8  1  0.994339  0.664732  0.576663  1
  Ga  Ga9  1  0.335268  0.005661  0.423337  1
  Ga  Ga10  1  0.005661  0.335268  0.423337  1
  Ga  Ga11  1  0.664732  0.994339  0.576663  1
  Ga  Ga12  1  0.665558  0.993965  0.923770  1
  Ga  Ga13  1  0.334442  0.006035  0.076230  1
  Ga  Ga14  1  0.339873  0.339873  0.559213  1
  Ga  Ga15  1  0.660127  0.660127  0.440787  1
  Ga  Ga16  1  0.661968  0.661968  0.058331  1
  Ga  Ga17  1  0.338032  0.338032  0.941669  1
  Ga  Ga18  1  0.336059  0.544097  0.250067  1
  Ga  Ga19  1  0.663941  0.455903  0.749933  1
  Ga  Ga20  1  0.544097  0.336059  0.250067  1
  Ga  Ga21  1  0.455903  0.663941  0.749933  1
  Ru  Ru22  1  0.672895  0.327105  0.000000  1
  Ru  Ru23  1  0.327105  0.672895  0.000000  1
  Ru  Ru24  1  0.327061  0.672939  0.500000  1
  Ru  Ru25  1  0.672939  0.327061  0.500000  1
  Ru  Ru26  1  0.000000  0.000000  0.000000  1
  Rh  Rh27  1  0.000000  0.000000  0.500000  1
