# generated using pymatgen
data_K2P2OsRh
_symmetry_space_group_name_H-M   'P 1'
_cell_length_a   4.01196500
_cell_length_b   4.01196500
_cell_length_c   10.48002600
_cell_angle_alpha   90.00000000
_cell_angle_beta   90.00000000
_cell_angle_gamma   90.00000000
_symmetry_Int_Tables_number   1
_chemical_formula_structural   K2P2OsRh
_chemical_formula_sum   'K2 P2 Os1 Rh1'
_cell_volume   168.68506442
_cell_formula_units_Z   1
loop_
 _symmetry_equiv_pos_site_id
 _symmetry_equiv_pos_as_xyz
  1  'x, y, z'
loop_
 _atom_site_type_symbol
 _atom_site_label
 _atom_site_symmetry_multiplicity
 _atom_site_fract_x
 _atom_site_fract_y
 _atom_site_fract_z
 _atom_site_occupancy
  K  K0  1  0.000000  0.500000  0.289647  1
  K  K1  1  0.500000  0.000000  0.710353  1
  P  P2  1  0.000000  0.500000  0.883016  1
  P  P3  1  0.500000  0.000000  0.116984  1
  Os  Os4  1  0.000000  0.000000  0.000000  1
  Rh  Rh5  1  0.500000  0.500000  0.000000  1
