# generated using pymatgen
data_PrAsPdRh2
_symmetry_space_group_name_H-M   'P 1'
_cell_length_a   4.10859700
_cell_length_b   4.10859700
_cell_length_c   11.13610700
_cell_angle_alpha   90.00000000
_cell_angle_beta   90.00000000
_cell_angle_gamma   90.00000000
_symmetry_Int_Tables_number   1
_chemical_formula_structural   PrAsPdRh2
_chemical_formula_sum   'Pr2 As2 Pd2 Rh4'
_cell_volume   187.98382604
_cell_formula_units_Z   2
loop_
 _symmetry_equiv_pos_site_id
 _symmetry_equiv_pos_as_xyz
  1  'x, y, z'
loop_
 _atom_site_type_symbol
 _atom_site_label
 _atom_site_symmetry_multiplicity
 _atom_site_fract_x
 _atom_site_fract_y
 _atom_site_fract_z
 _atom_site_occupancy
  Pr  Pr0  1  0.000000  0.500000  0.269416  1
  Pr  Pr1  1  0.500000  0.000000  0.730584  1
  As  As2  1  0.000000  0.500000  0.874235  1
  As  As3  1  0.500000  0.000000  0.125765  1
  Pd  Pd4  1  0.000000  0.000000  0.500000  1
  Pd  Pd5  1  0.500000  0.500000  0.500000  1
  Rh  Rh6  1  0.000000  0.000000  0.000000  1
  Rh  Rh7  1  0.500000  0.500000  0.000000  1
  Rh  Rh8  1  0.000000  0.500000  0.663804  1
  Rh  Rh9  1  0.500000  0.000000  0.336196  1
