# generated using pymatgen
data_Hf8Co13(P4Ru)3
_symmetry_space_group_name_H-M   'P 1'
_cell_length_a   3.65685800
_cell_length_b   12.21853997
_cell_length_c   12.21853900
_cell_angle_alpha   120.00000009
_cell_angle_beta   90.00000000
_cell_angle_gamma   90.00000000
_symmetry_Int_Tables_number   1
_chemical_formula_structural   Hf8Co13(P4Ru)3
_chemical_formula_sum   'Hf8 Co13 P12 Ru3'
_cell_volume   472.79984009
_cell_formula_units_Z   1
loop_
 _symmetry_equiv_pos_site_id
 _symmetry_equiv_pos_as_xyz
  1  'x, y, z'
loop_
 _atom_site_type_symbol
 _atom_site_label
 _atom_site_symmetry_multiplicity
 _atom_site_fract_x
 _atom_site_fract_y
 _atom_site_fract_z
 _atom_site_occupancy
  Hf  Hf0  1  0.000000  0.446161  0.441132  1
  Hf  Hf1  1  0.000000  0.558868  0.005029  1
  Hf  Hf2  1  0.000000  0.994971  0.553839  1
  Hf  Hf3  1  0.000000  0.666667  0.333333  1
  Hf  Hf4  1  0.000000  0.333333  0.666667  1
  Hf  Hf5  1  0.500000  0.823928  0.825522  1
  Hf  Hf6  1  0.500000  0.174478  0.998405  1
  Hf  Hf7  1  0.500000  0.001595  0.176072  1
  Co  Co8  1  0.000000  0.194638  0.362873  1
  Co  Co9  1  0.000000  0.168235  0.805362  1
  Co  Co10  1  0.000000  0.820753  0.629949  1
  Co  Co11  1  0.000000  0.809196  0.179247  1
  Co  Co12  1  0.000000  0.370051  0.190804  1
  Co  Co13  1  0.500000  0.644406  0.509331  1
  Co  Co14  1  0.500000  0.864924  0.355594  1
  Co  Co15  1  0.500000  0.490669  0.135076  1
  Co  Co16  1  0.000000  0.000000  0.000000  1
  Co  Co17  1  0.500000  0.725739  0.005088  1
  Co  Co18  1  0.500000  0.994912  0.720650  1
  Co  Co19  1  0.000000  0.637127  0.831765  1
  Co  Co20  1  0.500000  0.279350  0.274261  1
  P  P21  1  0.000000  0.657459  0.656875  1
  P  P22  1  0.000000  0.343125  0.000585  1
  P  P23  1  0.000000  0.999415  0.342541  1
  P  P24  1  0.500000  0.482525  0.307792  1
  P  P25  1  0.500000  0.692208  0.174733  1
  P  P26  1  0.500000  0.825267  0.517475  1
  P  P27  1  0.500000  0.521906  0.833818  1
  P  P28  1  0.500000  0.166182  0.688088  1
  P  P29  1  0.000000  0.828425  0.002696  1
  P  P30  1  0.000000  0.997304  0.825729  1
  P  P31  1  0.500000  0.311912  0.478094  1
  P  P32  1  0.000000  0.174271  0.171575  1
  Ru  Ru33  1  0.500000  0.122326  0.474963  1
  Ru  Ru34  1  0.500000  0.352637  0.877674  1
  Ru  Ru35  1  0.500000  0.525037  0.647363  1
