# generated using pymatgen
data_Ti4Co10CuGeB4
_symmetry_space_group_name_H-M   'P 1'
_cell_length_a   8.37349100
_cell_length_b   8.37349100
_cell_length_c   3.01100900
_cell_angle_alpha   90.00000000
_cell_angle_beta   90.00000000
_cell_angle_gamma   90.00000000
_symmetry_Int_Tables_number   1
_chemical_formula_structural   Ti4Co10CuGeB4
_chemical_formula_sum   'Ti4 Co10 Cu1 Ge1 B4'
_cell_volume   211.11795449
_cell_formula_units_Z   1
loop_
 _symmetry_equiv_pos_site_id
 _symmetry_equiv_pos_as_xyz
  1  'x, y, z'
loop_
 _atom_site_type_symbol
 _atom_site_label
 _atom_site_symmetry_multiplicity
 _atom_site_fract_x
 _atom_site_fract_y
 _atom_site_fract_z
 _atom_site_occupancy
  Ti  Ti0  1  0.826589  0.320755  0.000000  1
  Ti  Ti1  1  0.320755  0.173411  0.000000  1
  Ti  Ti2  1  0.679245  0.826589  0.000000  1
  Ti  Ti3  1  0.173411  0.679245  0.000000  1
  Co  Co4  1  0.500000  0.000000  0.500000  1
  Co  Co5  1  0.000000  0.500000  0.500000  1
  Co  Co6  1  0.071025  0.218911  0.500000  1
  Co  Co7  1  0.218911  0.928975  0.500000  1
  Co  Co8  1  0.781089  0.071025  0.500000  1
  Co  Co9  1  0.928975  0.781089  0.500000  1
  Co  Co10  1  0.430424  0.718247  0.500000  1
  Co  Co11  1  0.569576  0.281753  0.500000  1
  Co  Co12  1  0.718247  0.569576  0.500000  1
  Co  Co13  1  0.281753  0.430424  0.500000  1
  Cu  Cu14  1  0.000000  0.000000  0.000000  1
  Ge  Ge15  1  0.500000  0.500000  0.000000  1
  B  B16  1  0.623352  0.120471  0.000000  1
  B  B17  1  0.120471  0.376648  0.000000  1
  B  B18  1  0.879529  0.623352  0.000000  1
  B  B19  1  0.376648  0.879529  0.000000  1
