# generated using pymatgen
data_TbY2Hg3Pd2
_symmetry_space_group_name_H-M   'P 1'
_cell_length_a   7.62143100
_cell_length_b   7.65285719
_cell_length_c   3.71182600
_cell_angle_alpha   90.00000000
_cell_angle_beta   90.00000000
_cell_angle_gamma   120.13649936
_symmetry_Int_Tables_number   1
_chemical_formula_structural   TbY2Hg3Pd2
_chemical_formula_sum   'Tb1 Y2 Hg3 Pd2'
_cell_volume   187.23169718
_cell_formula_units_Z   1
loop_
 _symmetry_equiv_pos_site_id
 _symmetry_equiv_pos_as_xyz
  1  'x, y, z'
loop_
 _atom_site_type_symbol
 _atom_site_label
 _atom_site_symmetry_multiplicity
 _atom_site_fract_x
 _atom_site_fract_y
 _atom_site_fract_z
 _atom_site_occupancy
  Tb  Tb0  1  0.000000  0.584431  0.500000  1
  Y  Y1  1  0.585093  0.999839  0.500000  1
  Y  Y2  1  0.414906  0.414745  0.500000  1
  Hg  Hg3  1  0.235963  0.999980  0.000000  1
  Hg  Hg4  1  0.000000  0.236153  0.000000  1
  Hg  Hg5  1  0.764037  0.764018  0.000000  1
  Pd  Pd6  1  0.668509  0.334672  0.000000  1
  Pd  Pd7  1  0.331491  0.666161  0.000000  1
