# generated using pymatgen
data_Dy6Sc4(SnBi)3
_symmetry_space_group_name_H-M   'P 1'
_cell_length_a   8.89820000
_cell_length_b   8.89603777
_cell_length_c   6.24476400
_cell_angle_alpha   90.00000000
_cell_angle_beta   90.00000000
_cell_angle_gamma   120.00803308
_symmetry_Int_Tables_number   1
_chemical_formula_structural   Dy6Sc4(SnBi)3
_chemical_formula_sum   'Dy6 Sc4 Sn3 Bi3'
_cell_volume   428.06555482
_cell_formula_units_Z   1
loop_
 _symmetry_equiv_pos_site_id
 _symmetry_equiv_pos_as_xyz
  1  'x, y, z'
loop_
 _atom_site_type_symbol
 _atom_site_label
 _atom_site_symmetry_multiplicity
 _atom_site_fract_x
 _atom_site_fract_y
 _atom_site_fract_z
 _atom_site_occupancy
  Dy  Dy0  1  0.995143  0.755194  0.750000  1
  Dy  Dy1  1  0.995141  0.236782  0.250000  1
  Dy  Dy2  1  0.758359  0.763218  0.250000  1
  Dy  Dy3  1  0.761646  0.000000  0.750000  1
  Dy  Dy4  1  0.239948  0.244806  0.750000  1
  Dy  Dy5  1  0.243505  0.000000  0.250000  1
  Sc  Sc6  1  0.335131  0.666547  0.502350  1
  Sc  Sc7  1  0.668585  0.333453  0.997650  1
  Sc  Sc8  1  0.668585  0.333453  0.502350  1
  Sc  Sc9  1  0.335131  0.666547  0.997650  1
  Sn  Sn10  1  0.000457  0.398399  0.750000  1
  Sn  Sn11  1  0.602059  0.601601  0.750000  1
  Sn  Sn12  1  0.600733  0.000000  0.250000  1
  Bi  Bi13  1  0.396796  0.000000  0.750000  1
  Bi  Bi14  1  0.398346  0.397910  0.250000  1
  Bi  Bi15  1  0.000435  0.602090  0.250000  1
