# generated using pymatgen
data_YU5O16
_symmetry_space_group_name_H-M   'P 1'
_cell_length_a   6.73852107
_cell_length_b   6.76376716
_cell_length_c   8.34928600
_cell_angle_alpha   90.00000000
_cell_angle_beta   90.00000000
_cell_angle_gamma   116.17269131
_symmetry_Int_Tables_number   1
_chemical_formula_structural   YU5O16
_chemical_formula_sum   'Y1 U5 O16'
_cell_volume   341.52451959
_cell_formula_units_Z   1
loop_
 _symmetry_equiv_pos_site_id
 _symmetry_equiv_pos_as_xyz
  1  'x, y, z'
loop_
 _atom_site_type_symbol
 _atom_site_label
 _atom_site_symmetry_multiplicity
 _atom_site_fract_x
 _atom_site_fract_y
 _atom_site_fract_z
 _atom_site_occupancy
  Y  Y0  1  0.307806  0.684371  0.250000  1
  U  U1  1  0.997918  0.999714  0.250000  1
  U  U2  1  0.317274  0.685493  0.750000  1
  U  U3  1  0.683081  0.319634  0.750000  1
  U  U4  1  0.680687  0.318348  0.250000  1
  U  U5  1  0.998709  0.000809  0.750000  1
  O  O6  1  0.315367  0.687319  0.975688  1
  O  O7  1  0.518330  0.506453  0.750000  1
  O  O8  1  0.999627  0.998412  0.505571  1
  O  O9  1  0.027697  0.320828  0.250000  1
  O  O10  1  0.965504  0.672281  0.750000  1
  O  O11  1  0.321212  0.037788  0.250000  1
  O  O12  1  0.687936  0.312662  0.494711  1
  O  O13  1  0.038869  0.327388  0.750000  1
  O  O14  1  0.677817  0.957953  0.250000  1
  O  O15  1  0.330727  0.047090  0.750000  1
  O  O16  1  0.687936  0.312662  0.005289  1
  O  O17  1  0.315367  0.687319  0.524312  1
  O  O18  1  0.503191  0.478379  0.250000  1
  O  O19  1  0.951037  0.673150  0.250000  1
  O  O20  1  0.999627  0.998412  0.994429  1
  O  O21  1  0.674287  0.973534  0.750000  1
