# generated using pymatgen
data_CsNd3Te8
_symmetry_space_group_name_H-M   'P 1'
_cell_length_a   12.95475600
_cell_length_b   9.04141788
_cell_length_c   14.49900300
_cell_angle_alpha   80.03603117
_cell_angle_beta   90.00000000
_cell_angle_gamma   90.00000000
_symmetry_Int_Tables_number   1
_chemical_formula_structural   CsNd3Te8
_chemical_formula_sum   'Cs4 Nd12 Te32'
_cell_volume   1672.64373016
_cell_formula_units_Z   4
loop_
 _symmetry_equiv_pos_site_id
 _symmetry_equiv_pos_as_xyz
  1  'x, y, z'
loop_
 _atom_site_type_symbol
 _atom_site_label
 _atom_site_symmetry_multiplicity
 _atom_site_fract_x
 _atom_site_fract_y
 _atom_site_fract_z
 _atom_site_occupancy
  Cs  Cs0  1  0.590282  0.748413  0.535047  1
  Cs  Cs1  1  0.409718  0.251587  0.464953  1
  Cs  Cs2  1  0.090282  0.751587  0.464953  1
  Cs  Cs3  1  0.909718  0.248413  0.535047  1
  Nd  Nd4  1  0.584240  0.408878  0.856356  1
  Nd  Nd5  1  0.750733  0.083474  0.146904  1
  Nd  Nd6  1  0.250733  0.416526  0.853096  1
  Nd  Nd7  1  0.915760  0.908878  0.856356  1
  Nd  Nd8  1  0.915062  0.422991  0.855679  1
  Nd  Nd9  1  0.249267  0.916526  0.853096  1
  Nd  Nd10  1  0.084938  0.577009  0.144321  1
  Nd  Nd11  1  0.415760  0.591122  0.143644  1
  Nd  Nd12  1  0.084240  0.091122  0.143644  1
  Nd  Nd13  1  0.584938  0.922991  0.855679  1
  Nd  Nd14  1  0.749267  0.583474  0.146904  1
  Nd  Nd15  1  0.415062  0.077009  0.144321  1
  Te  Te16  1  0.100440  0.285670  0.319437  1
  Te  Te17  1  0.083848  0.646730  0.917086  1
  Te  Te18  1  0.421130  0.650701  0.915306  1
  Te  Te19  1  0.078870  0.150701  0.915306  1
  Te  Te20  1  0.245609  0.852150  0.079529  1
  Te  Te21  1  0.899560  0.714330  0.680563  1
  Te  Te22  1  0.254391  0.352150  0.079529  1
  Te  Te23  1  0.749330  0.963306  0.686022  1
  Te  Te24  1  0.578870  0.349299  0.084694  1
  Te  Te25  1  0.231898  0.214284  0.676674  1
  Te  Te26  1  0.416152  0.146730  0.917086  1
  Te  Te27  1  0.415625  0.470298  0.682204  1
  Te  Te28  1  0.084375  0.970298  0.682204  1
  Te  Te29  1  0.268102  0.714284  0.676674  1
  Te  Te30  1  0.750670  0.463306  0.686022  1
  Te  Te31  1  0.083296  0.452685  0.683779  1
  Te  Te32  1  0.768102  0.785716  0.323326  1
  Te  Te33  1  0.249330  0.536694  0.313978  1
  Te  Te34  1  0.600440  0.214330  0.680563  1
  Te  Te35  1  0.916704  0.547315  0.316221  1
  Te  Te36  1  0.745609  0.647850  0.920471  1
  Te  Te37  1  0.584375  0.529702  0.317796  1
  Te  Te38  1  0.731898  0.285716  0.323326  1
  Te  Te39  1  0.583848  0.853270  0.082914  1
  Te  Te40  1  0.250670  0.036694  0.313978  1
  Te  Te41  1  0.583296  0.047315  0.316221  1
  Te  Te42  1  0.754391  0.147850  0.920471  1
  Te  Te43  1  0.915625  0.029702  0.317796  1
  Te  Te44  1  0.416704  0.952685  0.683779  1
  Te  Te45  1  0.399560  0.785670  0.319437  1
  Te  Te46  1  0.921130  0.849299  0.084694  1
  Te  Te47  1  0.916152  0.353270  0.082914  1
