# generated using pymatgen
data_LiNd2Ni4C3
_symmetry_space_group_name_H-M   'P 1'
_cell_length_a   8.27099600
_cell_length_b   8.27099600
_cell_length_c   4.07171800
_cell_angle_alpha   90.00000000
_cell_angle_beta   90.00000000
_cell_angle_gamma   90.00000000
_symmetry_Int_Tables_number   1
_chemical_formula_structural   LiNd2Ni4C3
_chemical_formula_sum   'Li2 Nd4 Ni8 C6'
_cell_volume   278.54368287
_cell_formula_units_Z   2
loop_
 _symmetry_equiv_pos_site_id
 _symmetry_equiv_pos_as_xyz
  1  'x, y, z'
loop_
 _atom_site_type_symbol
 _atom_site_label
 _atom_site_symmetry_multiplicity
 _atom_site_fract_x
 _atom_site_fract_y
 _atom_site_fract_z
 _atom_site_occupancy
  Li  Li0  1  0.500000  0.500000  0.000000  1
  Li  Li1  1  0.000000  0.000000  0.000000  1
  Nd  Nd2  1  0.346407  0.153593  0.000000  1
  Nd  Nd3  1  0.653593  0.846407  0.000000  1
  Nd  Nd4  1  0.153593  0.653593  0.000000  1
  Nd  Nd5  1  0.846407  0.346407  0.000000  1
  Ni  Ni6  1  0.922168  0.789251  0.500000  1
  Ni  Ni7  1  0.710749  0.577832  0.500000  1
  Ni  Ni8  1  0.422168  0.710749  0.500000  1
  Ni  Ni9  1  0.289251  0.422168  0.500000  1
  Ni  Ni10  1  0.577832  0.289251  0.500000  1
  Ni  Ni11  1  0.789251  0.077832  0.500000  1
  Ni  Ni12  1  0.077832  0.210749  0.500000  1
  Ni  Ni13  1  0.210749  0.922168  0.500000  1
  C  C14  1  0.441206  0.941206  0.500000  1
  C  C15  1  0.058794  0.441206  0.500000  1
  C  C16  1  0.941206  0.558794  0.500000  1
  C  C17  1  0.500000  0.500000  0.500000  1
  C  C18  1  0.558794  0.058794  0.500000  1
  C  C19  1  0.000000  0.000000  0.500000  1
