# generated using pymatgen
data_Tb7DyTi11Si16Ir
_symmetry_space_group_name_H-M   'P 1'
_cell_length_a   7.04641004
_cell_length_b   7.04680705
_cell_length_c   12.90238400
_cell_angle_alpha   90.12962540
_cell_angle_beta   89.87173337
_cell_angle_gamma   89.84740458
_symmetry_Int_Tables_number   1
_chemical_formula_structural   Tb7DyTi11Si16Ir
_chemical_formula_sum   'Tb7 Dy1 Ti11 Si16 Ir1'
_cell_volume   640.65837748
_cell_formula_units_Z   1
loop_
 _symmetry_equiv_pos_site_id
 _symmetry_equiv_pos_as_xyz
  1  'x, y, z'
loop_
 _atom_site_type_symbol
 _atom_site_label
 _atom_site_symmetry_multiplicity
 _atom_site_fract_x
 _atom_site_fract_y
 _atom_site_fract_z
 _atom_site_occupancy
  Tb  Tb0  1  0.496507  0.841197  0.718082  1
  Tb  Tb1  1  0.500889  0.159007  0.214946  1
  Tb  Tb2  1  0.841110  0.496511  0.281911  1
  Tb  Tb3  1  0.159014  0.500821  0.785083  1
  Tb  Tb4  1  0.658177  0.997721  0.968592  1
  Tb  Tb5  1  0.004407  0.339993  0.532609  1
  Tb  Tb6  1  0.997698  0.658138  0.031393  1
  Dy  Dy7  1  0.340259  0.004036  0.467311  1
  Ti  Ti8  1  0.175467  0.827372  0.248203  1
  Ti  Ti9  1  0.827307  0.175474  0.751827  1
  Ti  Ti10  1  0.673552  0.673736  0.500005  1
  Ti  Ti11  1  0.150191  0.003300  0.876451  1
  Ti  Ti12  1  0.493440  0.657255  0.125130  1
  Ti  Ti13  1  0.506822  0.348862  0.628176  1
  Ti  Ti14  1  0.657256  0.493390  0.874875  1
  Ti  Ti15  1  0.348910  0.506914  0.371832  1
  Ti  Ti16  1  0.848045  0.993344  0.375313  1
  Ti  Ti17  1  0.003315  0.150201  0.123522  1
  Ti  Ti18  1  0.993350  0.848060  0.624681  1
  Si  Si19  1  0.201794  0.131433  0.686094  1
  Si  Si20  1  0.373479  0.700450  0.934594  1
  Si  Si21  1  0.630061  0.295944  0.434882  1
  Si  Si22  1  0.700520  0.373423  0.065387  1
  Si  Si23  1  0.296279  0.630724  0.565039  1
  Si  Si24  1  0.797006  0.869487  0.184476  1
  Si  Si25  1  0.131656  0.201516  0.313967  1
  Si  Si26  1  0.869401  0.797009  0.815516  1
  Si  Si27  1  0.286093  0.951458  0.064108  1
  Si  Si28  1  0.547020  0.791730  0.315841  1
  Si  Si29  1  0.449551  0.210377  0.818539  1
  Si  Si30  1  0.791537  0.547185  0.684308  1
  Si  Si31  1  0.210376  0.449444  0.181458  1
  Si  Si32  1  0.708856  0.047940  0.565686  1
  Si  Si33  1  0.951401  0.286110  0.935893  1
  Si  Si34  1  0.048222  0.709433  0.434261  1
  Ir  Ir35  1  0.331033  0.331004  0.000009  1
