# generated using pymatgen
data_HoLu2U(ReB6)2
_symmetry_space_group_name_H-M   'P 1'
_cell_length_a   3.65117400
_cell_length_b   9.07959591
_cell_length_c   11.44440306
_cell_angle_alpha   90.32508893
_cell_angle_beta   90.00000000
_cell_angle_gamma   90.00000000
_symmetry_Int_Tables_number   1
_chemical_formula_structural   HoLu2U(ReB6)2
_chemical_formula_sum   'Ho2 Lu4 U2 Re4 B24'
_cell_volume   379.38941053
_cell_formula_units_Z   2
loop_
 _symmetry_equiv_pos_site_id
 _symmetry_equiv_pos_as_xyz
  1  'x, y, z'
loop_
 _atom_site_type_symbol
 _atom_site_label
 _atom_site_symmetry_multiplicity
 _atom_site_fract_x
 _atom_site_fract_y
 _atom_site_fract_z
 _atom_site_occupancy
  Ho  Ho0  1  0.000000  0.822633  0.085869  1
  Ho  Ho1  1  0.000000  0.177367  0.914131  1
  Lu  Lu2  1  0.000000  0.945010  0.373029  1
  Lu  Lu3  1  0.000000  0.054990  0.626971  1
  Lu  Lu4  1  0.000000  0.443908  0.126847  1
  Lu  Lu5  1  0.000000  0.556092  0.873153  1
  U  U6  1  0.000000  0.322200  0.413797  1
  U  U7  1  0.000000  0.677800  0.586203  1
  Re  Re8  1  0.000000  0.635833  0.324978  1
  Re  Re9  1  0.000000  0.364167  0.675022  1
  Re  Re10  1  0.000000  0.141587  0.183157  1
  Re  Re11  1  0.000000  0.858413  0.816843  1
  B  B12  1  0.500000  0.553038  0.434162  1
  B  B13  1  0.500000  0.446962  0.565838  1
  B  B14  1  0.500000  0.053625  0.067528  1
  B  B15  1  0.500000  0.946375  0.932472  1
  B  B16  1  0.500000  0.749765  0.420482  1
  B  B17  1  0.500000  0.250235  0.579518  1
  B  B18  1  0.500000  0.249733  0.080774  1
  B  B19  1  0.500000  0.750267  0.919226  1
  B  B20  1  0.500000  0.792560  0.265830  1
  B  B21  1  0.500000  0.207440  0.734170  1
  B  B22  1  0.500000  0.293829  0.235341  1
  B  B23  1  0.500000  0.706171  0.764659  1
  B  B24  1  0.500000  0.630476  0.184993  1
  B  B25  1  0.500000  0.369524  0.815007  1
  B  B26  1  0.500000  0.132522  0.316199  1
  B  B27  1  0.500000  0.867478  0.683801  1
  B  B28  1  0.500000  0.981607  0.213245  1
  B  B29  1  0.500000  0.018393  0.786755  1
  B  B30  1  0.500000  0.481483  0.287004  1
  B  B31  1  0.500000  0.518517  0.712996  1
  B  B32  1  0.500000  0.601753  0.028464  1
  B  B33  1  0.500000  0.398247  0.971536  1
  B  B34  1  0.500000  0.107518  0.470581  1
  B  B35  1  0.500000  0.892482  0.529419  1
