# generated using pymatgen
data_Ta10Ga6PH
_symmetry_space_group_name_H-M   'P 1'
_cell_length_a   7.79807700
_cell_length_b   7.79807744
_cell_length_c   5.40270300
_cell_angle_alpha   90.00000000
_cell_angle_beta   90.00000000
_cell_angle_gamma   120.00000238
_symmetry_Int_Tables_number   1
_chemical_formula_structural   Ta10Ga6PH
_chemical_formula_sum   'Ta10 Ga6 P1 H1'
_cell_volume   284.52260612
_cell_formula_units_Z   1
loop_
 _symmetry_equiv_pos_site_id
 _symmetry_equiv_pos_as_xyz
  1  'x, y, z'
loop_
 _atom_site_type_symbol
 _atom_site_label
 _atom_site_symmetry_multiplicity
 _atom_site_fract_x
 _atom_site_fract_y
 _atom_site_fract_z
 _atom_site_occupancy
  Ta  Ta0  1  0.250971  0.000000  0.224444  1
  Ta  Ta1  1  0.749029  0.000000  0.775556  1
  Ta  Ta2  1  0.000000  0.250971  0.224444  1
  Ta  Ta3  1  0.000000  0.749029  0.775556  1
  Ta  Ta4  1  0.749029  0.749029  0.224444  1
  Ta  Ta5  1  0.250971  0.250971  0.775556  1
  Ta  Ta6  1  0.333333  0.666667  0.000000  1
  Ta  Ta7  1  0.666667  0.333333  0.000000  1
  Ta  Ta8  1  0.666667  0.333333  0.500000  1
  Ta  Ta9  1  0.333333  0.666667  0.500000  1
  Ga  Ga10  1  0.601502  0.000000  0.255061  1
  Ga  Ga11  1  0.398498  0.000000  0.744939  1
  Ga  Ga12  1  0.000000  0.601502  0.255061  1
  Ga  Ga13  1  0.000000  0.398498  0.744939  1
  Ga  Ga14  1  0.398498  0.398498  0.255061  1
  Ga  Ga15  1  0.601502  0.601502  0.744939  1
  P  P16  1  0.000000  0.000000  0.500000  1
  H  H17  1  0.000000  0.000000  0.000000  1
