# generated using pymatgen
data_K3ErB24
_symmetry_space_group_name_H-M   'P 1'
_cell_length_a   4.18939300
_cell_length_b   4.18939300
_cell_length_c   16.75286100
_cell_angle_alpha   90.00000000
_cell_angle_beta   90.00000000
_cell_angle_gamma   90.00000000
_symmetry_Int_Tables_number   1
_chemical_formula_structural   K3ErB24
_chemical_formula_sum   'K3 Er1 B24'
_cell_volume   294.02969307
_cell_formula_units_Z   1
loop_
 _symmetry_equiv_pos_site_id
 _symmetry_equiv_pos_as_xyz
  1  'x, y, z'
loop_
 _atom_site_type_symbol
 _atom_site_label
 _atom_site_symmetry_multiplicity
 _atom_site_fract_x
 _atom_site_fract_y
 _atom_site_fract_z
 _atom_site_occupancy
  K  K0  1  0.000000  0.000000  0.250262  1
  K  K1  1  0.000000  0.000000  0.500000  1
  K  K2  1  0.000000  0.000000  0.749738  1
  Er  Er3  1  0.000000  0.000000  0.000000  1
  B  B4  1  0.201613  0.500000  0.120895  1
  B  B5  1  0.199031  0.500000  0.373991  1
  B  B6  1  0.199031  0.500000  0.626009  1
  B  B7  1  0.201613  0.500000  0.879105  1
  B  B8  1  0.500000  0.500000  0.197193  1
  B  B9  1  0.500000  0.500000  0.450073  1
  B  B10  1  0.500000  0.500000  0.701221  1
  B  B11  1  0.500000  0.500000  0.951626  1
  B  B12  1  0.500000  0.201613  0.120895  1
  B  B13  1  0.500000  0.199031  0.373991  1
  B  B14  1  0.500000  0.199031  0.626009  1
  B  B15  1  0.500000  0.201613  0.879105  1
  B  B16  1  0.500000  0.500000  0.048374  1
  B  B17  1  0.500000  0.500000  0.298779  1
  B  B18  1  0.500000  0.500000  0.549927  1
  B  B19  1  0.500000  0.500000  0.802807  1
  B  B20  1  0.500000  0.798387  0.120895  1
  B  B21  1  0.500000  0.800969  0.373991  1
  B  B22  1  0.500000  0.800969  0.626009  1
  B  B23  1  0.500000  0.798387  0.879105  1
  B  B24  1  0.798387  0.500000  0.120895  1
  B  B25  1  0.800969  0.500000  0.373991  1
  B  B26  1  0.800969  0.500000  0.626009  1
  B  B27  1  0.798387  0.500000  0.879105  1
