# generated using pymatgen
data_RuPtI6
_symmetry_space_group_name_H-M   'P 1'
_cell_length_a   6.97864713
_cell_length_b   6.97864747
_cell_length_c   7.26117011
_cell_angle_alpha   98.46576395
_cell_angle_beta   98.46576546
_cell_angle_gamma   119.97977258
_symmetry_Int_Tables_number   1
_chemical_formula_structural   RuPtI6
_chemical_formula_sum   'Ru1 Pt1 I6'
_cell_volume   292.74480842
_cell_formula_units_Z   1
loop_
 _symmetry_equiv_pos_site_id
 _symmetry_equiv_pos_as_xyz
  1  'x, y, z'
loop_
 _atom_site_type_symbol
 _atom_site_label
 _atom_site_symmetry_multiplicity
 _atom_site_fract_x
 _atom_site_fract_y
 _atom_site_fract_z
 _atom_site_occupancy
  Ru  Ru0  1  0.166772  0.833228  0.000000  1
  Pt  Pt1  1  0.833353  0.166647  0.000000  1
  I  I2  1  0.921464  0.569572  0.215507  1
  I  I3  1  0.563079  0.918492  0.215779  1
  I  I4  1  0.214342  0.210946  0.216035  1
  I  I5  1  0.789054  0.785658  0.783965  1
  I  I6  1  0.430428  0.078536  0.784493  1
  I  I7  1  0.081508  0.436921  0.784221  1
