# generated using pymatgen
data_Hf2FeSiAsPd
_symmetry_space_group_name_H-M   'P 1'
_cell_length_a   3.90616400
_cell_length_b   6.52481843
_cell_length_c   7.45251660
_cell_angle_alpha   92.98028505
_cell_angle_beta   90.00000000
_cell_angle_gamma   90.00000000
_symmetry_Int_Tables_number   1
_chemical_formula_structural   Hf2FeSiAsPd
_chemical_formula_sum   'Hf4 Fe2 Si2 As2 Pd2'
_cell_volume   189.68547139
_cell_formula_units_Z   2
loop_
 _symmetry_equiv_pos_site_id
 _symmetry_equiv_pos_as_xyz
  1  'x, y, z'
loop_
 _atom_site_type_symbol
 _atom_site_label
 _atom_site_symmetry_multiplicity
 _atom_site_fract_x
 _atom_site_fract_y
 _atom_site_fract_z
 _atom_site_occupancy
  Hf  Hf0  1  0.250000  0.472130  0.203214  1
  Hf  Hf1  1  0.750000  0.527870  0.796786  1
  Hf  Hf2  1  0.750000  0.017441  0.672839  1
  Hf  Hf3  1  0.250000  0.982559  0.327161  1
  Fe  Fe4  1  0.750000  0.641869  0.446678  1
  Fe  Fe5  1  0.250000  0.358131  0.553322  1
  Si  Si6  1  0.250000  0.720022  0.597689  1
  Si  Si7  1  0.750000  0.279978  0.402311  1
  As  As8  1  0.750000  0.746689  0.138448  1
  As  As9  1  0.250000  0.253311  0.861552  1
  Pd  Pd10  1  0.250000  0.849402  0.925549  1
  Pd  Pd11  1  0.750000  0.150598  0.074451  1
