# generated using pymatgen
data_K2BaAs6(IrRu2)2
_symmetry_space_group_name_H-M   'P 1'
_cell_length_a   9.22954200
_cell_length_b   9.22341542
_cell_length_c   7.14463101
_cell_angle_alpha   67.18639059
_cell_angle_beta   67.19484984
_cell_angle_gamma   36.76082717
_symmetry_Int_Tables_number   1
_chemical_formula_structural   K2BaAs6(IrRu2)2
_chemical_formula_sum   'K2 Ba1 As6 Ir2 Ru4'
_cell_volume   332.24065522
_cell_formula_units_Z   1
loop_
 _symmetry_equiv_pos_site_id
 _symmetry_equiv_pos_as_xyz
  1  'x, y, z'
loop_
 _atom_site_type_symbol
 _atom_site_label
 _atom_site_symmetry_multiplicity
 _atom_site_fract_x
 _atom_site_fract_y
 _atom_site_fract_z
 _atom_site_occupancy
  K  K0  1  0.671643  0.670124  0.000370  1
  K  K1  1  0.328743  0.329691  0.998952  1
  Ba  Ba2  1  0.999525  0.000450  0.001121  1
  As  As3  1  0.883008  0.882520  0.702087  1
  As  As4  1  0.218232  0.212903  0.702567  1
  As  As5  1  0.547196  0.553367  0.703541  1
  As  As6  1  0.451127  0.450633  0.296179  1
  As  As7  1  0.779054  0.785796  0.297124  1
  As  As8  1  0.121460  0.114704  0.298024  1
  Ir  Ir9  1  0.750846  0.250429  0.500192  1
  Ir  Ir10  1  0.083005  0.583312  0.497057  1
  Ru  Ru11  1  0.416317  0.916302  0.502419  1
  Ru  Ru12  1  0.583669  0.084508  0.498205  1
  Ru  Ru13  1  0.915985  0.416546  0.502117  1
  Ru  Ru14  1  0.250192  0.748717  0.500047  1
