# generated using pymatgen
data_DyAl2GaCu
_symmetry_space_group_name_H-M   'P 1'
_cell_length_a   4.08597210
_cell_length_b   4.08652117
_cell_length_c   6.10685268
_cell_angle_alpha   70.45270057
_cell_angle_beta   70.45544427
_cell_angle_gamma   90.00001549
_symmetry_Int_Tables_number   1
_chemical_formula_structural   DyAl2GaCu
_chemical_formula_sum   'Dy1 Al2 Ga1 Cu1'
_cell_volume   89.83291749
_cell_formula_units_Z   1
loop_
 _symmetry_equiv_pos_site_id
 _symmetry_equiv_pos_as_xyz
  1  'x, y, z'
loop_
 _atom_site_type_symbol
 _atom_site_label
 _atom_site_symmetry_multiplicity
 _atom_site_fract_x
 _atom_site_fract_y
 _atom_site_fract_z
 _atom_site_occupancy
  Dy  Dy0  1  0.992853  0.992853  0.014295  1
  Al  Al1  1  0.743234  0.243234  0.513532  1
  Al  Al2  1  0.243290  0.743290  0.513419  1
  Ga  Ga3  1  0.400395  0.400395  0.199209  1
  Cu  Cu4  1  0.620228  0.620228  0.759544  1
