# generated using pymatgen
data_Dy20(Pd3Ru)3
_symmetry_space_group_name_H-M   'P 1'
_cell_length_a   6.31310400
_cell_length_b   11.04794000
_cell_length_c   11.04794000
_cell_angle_alpha   90.00000000
_cell_angle_beta   90.00000000
_cell_angle_gamma   90.00000000
_symmetry_Int_Tables_number   1
_chemical_formula_structural   Dy20(Pd3Ru)3
_chemical_formula_sum   'Dy20 Pd9 Ru3'
_cell_volume   770.55839758
_cell_formula_units_Z   1
loop_
 _symmetry_equiv_pos_site_id
 _symmetry_equiv_pos_as_xyz
  1  'x, y, z'
loop_
 _atom_site_type_symbol
 _atom_site_label
 _atom_site_symmetry_multiplicity
 _atom_site_fract_x
 _atom_site_fract_y
 _atom_site_fract_z
 _atom_site_occupancy
  Dy  Dy0  1  0.367878  0.837812  0.543281  1
  Dy  Dy1  1  0.854888  0.662304  0.541898  1
  Dy  Dy2  1  0.854888  0.837696  0.958102  1
  Dy  Dy3  1  0.367878  0.662188  0.956719  1
  Dy  Dy4  1  0.854888  0.541898  0.837696  1
  Dy  Dy5  1  0.367878  0.956719  0.837812  1
  Dy  Dy6  1  0.367878  0.543281  0.662188  1
  Dy  Dy7  1  0.854888  0.958102  0.662304  1
  Dy  Dy8  1  0.636654  0.165593  0.452399  1
  Dy  Dy9  1  0.137437  0.335232  0.452682  1
  Dy  Dy10  1  0.137437  0.164768  0.047319  1
  Dy  Dy11  1  0.636654  0.334407  0.047602  1
  Dy  Dy12  1  0.137437  0.452682  0.164768  1
  Dy  Dy13  1  0.636654  0.047602  0.165593  1
  Dy  Dy14  1  0.636654  0.452399  0.334407  1
  Dy  Dy15  1  0.137437  0.047319  0.335232  1
  Dy  Dy16  1  0.501997  0.750000  0.250000  1
  Dy  Dy17  1  0.002376  0.750000  0.250000  1
  Dy  Dy18  1  0.002376  0.250000  0.750000  1
  Dy  Dy19  1  0.501997  0.250000  0.750000  1
  Pd  Pd20  1  0.250725  0.902587  0.092877  1
  Pd  Pd21  1  0.750630  0.595749  0.095069  1
  Pd  Pd22  1  0.750630  0.904251  0.404931  1
  Pd  Pd23  1  0.250725  0.597413  0.407123  1
  Pd  Pd24  1  0.750630  0.095069  0.904251  1
  Pd  Pd25  1  0.250725  0.407123  0.902587  1
  Pd  Pd26  1  0.250725  0.092877  0.597413  1
  Pd  Pd27  1  0.750630  0.404931  0.595749  1
  Pd  Pd28  1  0.110793  0.750000  0.750000  1
  Ru  Ru29  1  0.614417  0.750000  0.750000  1
  Ru  Ru30  1  0.886782  0.250000  0.250000  1
  Ru  Ru31  1  0.386419  0.250000  0.250000  1
