# generated using pymatgen
data_Ca4In3Fe5(P2O9)4
_symmetry_space_group_name_H-M   'P 1'
_cell_length_a   6.57984534
_cell_length_b   7.49126156
_cell_length_c   14.67356492
_cell_angle_alpha   89.71910973
_cell_angle_beta   89.83859159
_cell_angle_gamma   89.91829672
_symmetry_Int_Tables_number   1
_chemical_formula_structural   Ca4In3Fe5(P2O9)4
_chemical_formula_sum   'Ca4 In3 Fe5 P8 O36'
_cell_volume   723.26743133
_cell_formula_units_Z   1
loop_
 _symmetry_equiv_pos_site_id
 _symmetry_equiv_pos_as_xyz
  1  'x, y, z'
loop_
 _atom_site_type_symbol
 _atom_site_label
 _atom_site_symmetry_multiplicity
 _atom_site_fract_x
 _atom_site_fract_y
 _atom_site_fract_z
 _atom_site_occupancy
  Ca  Ca0  1  0.257445  0.896410  0.778446  1
  Ca  Ca1  1  0.250209  0.597685  0.275277  1
  Ca  Ca2  1  0.749791  0.402315  0.724723  1
  Ca  Ca3  1  0.742555  0.103590  0.221554  1
  In  In4  1  0.000000  0.000000  0.000000  1
  In  In5  1  0.000000  0.500000  0.500000  1
  In  In6  1  0.500000  0.500000  0.500000  1
  Fe  Fe7  1  0.251664  0.355165  0.883047  1
  Fe  Fe8  1  0.748336  0.644835  0.116953  1
  Fe  Fe9  1  0.749325  0.858013  0.620432  1
  Fe  Fe10  1  0.250675  0.141987  0.379568  1
  Fe  Fe11  1  0.500000  0.000000  0.000000  1
  P  P12  1  0.746049  0.368127  0.933165  1
  P  P13  1  0.253951  0.631873  0.066835  1
  P  P14  1  0.248454  0.876676  0.568843  1
  P  P15  1  0.751546  0.123324  0.431157  1
  P  P16  1  0.249191  0.387462  0.698636  1
  P  P17  1  0.249901  0.106485  0.194326  1
  P  P18  1  0.750099  0.893515  0.805674  1
  P  P19  1  0.750809  0.612538  0.301364  1
  O  O20  1  0.555763  0.606372  0.360916  1
  O  O21  1  0.055370  0.391326  0.638750  1
  O  O22  1  0.439563  0.098624  0.131348  1
  O  O23  1  0.950233  0.896169  0.861745  1
  O  O24  1  0.444237  0.393628  0.639084  1
  O  O25  1  0.944630  0.608674  0.361250  1
  O  O26  1  0.560437  0.901376  0.868652  1
  O  O27  1  0.049767  0.103831  0.138255  1
  O  O28  1  0.750643  0.307313  0.482375  1
  O  O29  1  0.249357  0.692687  0.517625  1
  O  O30  1  0.266920  0.817670  0.016730  1
  O  O31  1  0.733080  0.182330  0.983270  1
  O  O32  1  0.263160  0.125837  0.944341  1
  O  O33  1  0.736840  0.874163  0.055659  1
  O  O34  1  0.749531  0.623161  0.564972  1
  O  O35  1  0.250469  0.376839  0.435028  1
  O  O36  1  0.251283  0.215418  0.758845  1
  O  O37  1  0.748717  0.784582  0.241155  1
  O  O38  1  0.744406  0.720827  0.746680  1
  O  O39  1  0.255594  0.279173  0.253320  1
  O  O40  1  0.937420  0.118786  0.365973  1
  O  O41  1  0.435862  0.882245  0.632692  1
  O  O42  1  0.064508  0.632825  0.129962  1
  O  O43  1  0.562684  0.385108  0.867699  1
  O  O44  1  0.062580  0.881214  0.634027  1
  O  O45  1  0.564138  0.117755  0.367308  1
  O  O46  1  0.935492  0.367175  0.870038  1
  O  O47  1  0.437316  0.614892  0.132301  1
  O  O48  1  0.246162  0.487736  0.994937  1
  O  O49  1  0.746339  0.045778  0.732612  1
  O  O50  1  0.754085  0.458353  0.229997  1
  O  O51  1  0.245915  0.541647  0.770003  1
  O  O52  1  0.247476  0.024615  0.497866  1
  O  O53  1  0.752524  0.975385  0.502134  1
  O  O54  1  0.753838  0.512264  0.005063  1
  O  O55  1  0.253661  0.954222  0.267388  1
