# generated using pymatgen
data_Ti8Al14GaPdRh6
_symmetry_space_group_name_H-M   'P 1'
_cell_length_a   8.66487607
_cell_length_b   8.64229860
_cell_length_c   8.66050766
_cell_angle_alpha   120.03381817
_cell_angle_beta   119.82006824
_cell_angle_gamma   90.10382775
_symmetry_Int_Tables_number   1
_chemical_formula_structural   Ti8Al14GaPdRh6
_chemical_formula_sum   'Ti8 Al14 Ga1 Pd1 Rh6'
_cell_volume   459.18001502
_cell_formula_units_Z   1
loop_
 _symmetry_equiv_pos_site_id
 _symmetry_equiv_pos_as_xyz
  1  'x, y, z'
loop_
 _atom_site_type_symbol
 _atom_site_label
 _atom_site_symmetry_multiplicity
 _atom_site_fract_x
 _atom_site_fract_y
 _atom_site_fract_z
 _atom_site_occupancy
  Ti  Ti0  1  0.792041  0.292198  0.076825  1
  Ti  Ti1  1  0.216546  0.291453  0.499617  1
  Ti  Ti2  1  0.207907  0.707495  0.500365  1
  Ti  Ti3  1  0.214914  0.716103  0.922670  1
  Ti  Ti4  1  0.791442  0.715217  0.500954  1
  Ti  Ti5  1  0.782674  0.284168  0.498902  1
  Ti  Ti6  1  0.385787  0.125406  0.748130  1
  Ti  Ti7  1  0.379248  0.635764  0.257124  1
  Al  Al8  1  0.154807  0.343208  0.189175  1
  Al  Al9  1  0.156475  0.967450  0.813897  1
  Al  Al10  1  0.152548  0.347396  0.807375  1
  Al  Al11  1  0.539260  0.345670  0.194206  1
  Al  Al12  1  0.844383  0.653584  0.809348  1
  Al  Al13  1  0.843526  0.035976  0.187941  1
  Al  Al14  1  0.841256  0.652878  0.184232  1
  Al  Al15  1  0.468796  0.655393  0.812535  1
  Al  Al16  1  0.378962  0.121380  0.257967  1
  Al  Al17  1  0.862085  0.123325  0.745931  1
  Al  Al18  1  0.616796  0.876255  0.253723  1
  Al  Al19  1  0.620757  0.364435  0.742847  1
  Al  Al20  1  0.620443  0.877574  0.741934  1
  Al  Al21  1  0.137359  0.877079  0.254816  1
  Ga  Ga22  1  0.996112  0.495443  0.499765  1
  Pd  Pd23  1  0.999812  0.999688  0.500030  1
  Rh  Rh24  1  0.499175  0.000102  0.999724  1
  Rh  Rh25  1  0.497712  0.498085  0.000593  1
  Rh  Rh26  1  0.498326  0.499391  0.498116  1
  Rh  Rh27  1  0.001448  0.499026  0.001171  1
  Rh  Rh28  1  0.999459  0.999239  0.999341  1
  Rh  Rh29  1  0.499940  0.999619  0.500745  1
