# generated using pymatgen
data_Dy3MgZn2Ge2Au
_symmetry_space_group_name_H-M   'P 1'
_cell_length_a   7.03624935
_cell_length_b   7.03624933
_cell_length_c   4.32981400
_cell_angle_alpha   90.00000000
_cell_angle_beta   90.00000000
_cell_angle_gamma   119.87263458
_symmetry_Int_Tables_number   1
_chemical_formula_structural   Dy3MgZn2Ge2Au
_chemical_formula_sum   'Dy3 Mg1 Zn2 Ge2 Au1'
_cell_volume   185.88239759
_cell_formula_units_Z   1
loop_
 _symmetry_equiv_pos_site_id
 _symmetry_equiv_pos_as_xyz
  1  'x, y, z'
loop_
 _atom_site_type_symbol
 _atom_site_label
 _atom_site_symmetry_multiplicity
 _atom_site_fract_x
 _atom_site_fract_y
 _atom_site_fract_z
 _atom_site_occupancy
  Dy  Dy0  1  0.577120  0.001369  0.000000  1
  Dy  Dy1  1  0.001369  0.577120  0.000000  1
  Dy  Dy2  1  0.413108  0.413108  0.000000  1
  Mg  Mg3  1  0.767264  0.767264  0.500000  1
  Zn  Zn4  1  0.246086  0.000841  0.500000  1
  Zn  Zn5  1  0.000841  0.246086  0.500000  1
  Ge  Ge6  1  0.329019  0.664662  0.500000  1
  Ge  Ge7  1  0.664662  0.329019  0.500000  1
  Au  Au8  1  0.000532  0.000532  0.000000  1
