# generated using pymatgen
data_ErThAsRh6
_symmetry_space_group_name_H-M   'P 1'
_cell_length_a   6.08991690
_cell_length_b   6.08991706
_cell_length_c   6.08991800
_cell_angle_alpha   60.00000574
_cell_angle_beta   60.00000488
_cell_angle_gamma   60.00001039
_symmetry_Int_Tables_number   1
_chemical_formula_structural   ErThAsRh6
_chemical_formula_sum   'Er1 Th1 As1 Rh6'
_cell_volume   159.70527470
_cell_formula_units_Z   1
loop_
 _symmetry_equiv_pos_site_id
 _symmetry_equiv_pos_as_xyz
  1  'x, y, z'
loop_
 _atom_site_type_symbol
 _atom_site_label
 _atom_site_symmetry_multiplicity
 _atom_site_fract_x
 _atom_site_fract_y
 _atom_site_fract_z
 _atom_site_occupancy
  Er  Er0  1  0.750000  0.750000  0.750000  1
  Th  Th1  1  0.250000  0.250000  0.250000  1
  As  As2  1  0.499999  0.499999  0.499999  1
  Rh  Rh3  1  0.772415  0.227584  0.227584  1
  Rh  Rh4  1  0.227584  0.772415  0.227584  1
  Rh  Rh5  1  0.772415  0.772415  0.227584  1
  Rh  Rh6  1  0.227584  0.227584  0.772415  1
  Rh  Rh7  1  0.772415  0.227584  0.772415  1
  Rh  Rh8  1  0.227584  0.772415  0.772415  1
