# generated using pymatgen
data_Ba6Fe2WO12
_symmetry_space_group_name_H-M   'P 1'
_cell_length_a   9.23020745
_cell_length_b   9.23020695
_cell_length_c   7.32083000
_cell_angle_alpha   67.86642276
_cell_angle_beta   67.86642401
_cell_angle_gamma   36.89303619
_symmetry_Int_Tables_number   1
_chemical_formula_structural   Ba6Fe2WO12
_chemical_formula_sum   'Ba6 Fe2 W1 O12'
_cell_volume   343.62869072
_cell_formula_units_Z   1
loop_
 _symmetry_equiv_pos_site_id
 _symmetry_equiv_pos_as_xyz
  1  'x, y, z'
loop_
 _atom_site_type_symbol
 _atom_site_label
 _atom_site_symmetry_multiplicity
 _atom_site_fract_x
 _atom_site_fract_y
 _atom_site_fract_z
 _atom_site_occupancy
  Ba  Ba0  1  0.874593  0.874593  0.716691  1
  Ba  Ba1  1  0.220573  0.220573  0.710516  1
  Ba  Ba2  1  0.548416  0.548416  0.705512  1
  Ba  Ba3  1  0.451584  0.451584  0.294488  1
  Ba  Ba4  1  0.779427  0.779427  0.289484  1
  Ba  Ba5  1  0.125407  0.125407  0.283309  1
  Fe  Fe6  1  0.670475  0.670475  0.999123  1
  Fe  Fe7  1  0.329525  0.329525  0.000877  1
  W  W8  1  0.000000  0.000000  0.000000  1
  O  O9  1  0.950697  0.950697  0.295576  1
  O  O10  1  0.285811  0.285811  0.304450  1
  O  O11  1  0.612879  0.612879  0.305257  1
  O  O12  1  0.387121  0.387121  0.694743  1
  O  O13  1  0.714189  0.714189  0.695550  1
  O  O14  1  0.049303  0.049303  0.704424  1
  O  O15  1  0.500000  0.000000  0.000000  1
  O  O16  1  0.841285  0.316152  0.000747  1
  O  O17  1  0.158715  0.683848  0.999253  1
  O  O18  1  0.000000  0.500000  0.000000  1
  O  O19  1  0.316152  0.841285  0.000747  1
  O  O20  1  0.683848  0.158715  0.999253  1
