# generated using pymatgen
data_K6AlBi3
_symmetry_space_group_name_H-M   'P 1'
_cell_length_a   6.17344800
_cell_length_b   10.81374173
_cell_length_c   12.37609477
_cell_angle_alpha   79.39283412
_cell_angle_beta   90.00000000
_cell_angle_gamma   90.00000000
_symmetry_Int_Tables_number   1
_chemical_formula_structural   K6AlBi3
_chemical_formula_sum   'K12 Al2 Bi6'
_cell_volume   812.08632742
_cell_formula_units_Z   2
loop_
 _symmetry_equiv_pos_site_id
 _symmetry_equiv_pos_as_xyz
  1  'x, y, z'
loop_
 _atom_site_type_symbol
 _atom_site_label
 _atom_site_symmetry_multiplicity
 _atom_site_fract_x
 _atom_site_fract_y
 _atom_site_fract_z
 _atom_site_occupancy
  K  K0  1  0.750000  0.124070  0.321533  1
  K  K1  1  0.250000  0.875930  0.678467  1
  K  K2  1  0.750000  0.134467  0.977986  1
  K  K3  1  0.250000  0.865533  0.022014  1
  K  K4  1  0.750000  0.437472  0.460061  1
  K  K5  1  0.250000  0.562528  0.539939  1
  K  K6  1  0.750000  0.456931  0.079516  1
  K  K7  1  0.250000  0.543069  0.920484  1
  K  K8  1  0.750000  0.739366  0.223950  1
  K  K9  1  0.250000  0.260634  0.776050  1
  K  K10  1  0.750000  0.081942  0.630950  1
  K  K11  1  0.250000  0.918058  0.369050  1
  Al  Al12  1  0.750000  0.679817  0.720288  1
  Al  Al13  1  0.250000  0.320183  0.279712  1
  Bi  Bi14  1  0.750000  0.425516  0.777182  1
  Bi  Bi15  1  0.250000  0.574484  0.222818  1
  Bi  Bi16  1  0.750000  0.788889  0.503332  1
  Bi  Bi17  1  0.250000  0.211111  0.496668  1
  Bi  Bi18  1  0.750000  0.829160  0.880179  1
  Bi  Bi19  1  0.250000  0.170840  0.119821  1
