# generated using pymatgen
data_Pr17Lu3Ga11Sn
_symmetry_space_group_name_H-M   'P 1'
_cell_length_a   7.88009700
_cell_length_b   7.88009700
_cell_length_c   14.83049700
_cell_angle_alpha   90.00000000
_cell_angle_beta   90.00000000
_cell_angle_gamma   90.00000000
_symmetry_Int_Tables_number   1
_chemical_formula_structural   Pr17Lu3Ga11Sn
_chemical_formula_sum   'Pr17 Lu3 Ga11 Sn1'
_cell_volume   920.91348473
_cell_formula_units_Z   1
loop_
 _symmetry_equiv_pos_site_id
 _symmetry_equiv_pos_as_xyz
  1  'x, y, z'
loop_
 _atom_site_type_symbol
 _atom_site_label
 _atom_site_symmetry_multiplicity
 _atom_site_fract_x
 _atom_site_fract_y
 _atom_site_fract_z
 _atom_site_occupancy
  Pr  Pr0  1  0.811305  0.842831  0.605061  1
  Pr  Pr1  1  0.182267  0.838936  0.104259  1
  Pr  Pr2  1  0.163801  0.822369  0.393135  1
  Pr  Pr3  1  0.836199  0.177631  0.393135  1
  Pr  Pr4  1  0.677631  0.663801  0.393135  1
  Pr  Pr5  1  0.657169  0.311305  0.605061  1
  Pr  Pr6  1  0.342831  0.688695  0.605061  1
  Pr  Pr7  1  0.661064  0.682267  0.104259  1
  Pr  Pr8  1  0.686646  0.342948  0.896309  1
  Pr  Pr9  1  0.842948  0.813354  0.896309  1
  Pr  Pr10  1  0.322369  0.336199  0.393135  1
  Pr  Pr11  1  0.188695  0.157169  0.605061  1
  Pr  Pr12  1  0.817733  0.161064  0.104259  1
  Pr  Pr13  1  0.313354  0.657052  0.896309  1
  Pr  Pr14  1  0.338936  0.317733  0.104259  1
  Pr  Pr15  1  0.157052  0.186646  0.896309  1
  Pr  Pr16  1  0.500000  0.000000  0.787428  1
  Lu  Lu17  1  0.000000  0.500000  0.729522  1
  Lu  Lu18  1  0.000000  0.500000  0.225300  1
  Lu  Lu19  1  0.500000  0.000000  0.271340  1
  Ga  Ga20  1  0.623461  0.376797  0.249553  1
  Ga  Ga21  1  0.116434  0.873570  0.747747  1
  Ga  Ga22  1  0.373570  0.383566  0.747747  1
  Ga  Ga23  1  0.376539  0.623203  0.249553  1
  Ga  Ga24  1  0.876797  0.876539  0.249553  1
  Ga  Ga25  1  0.626430  0.616434  0.747747  1
  Ga  Ga26  1  0.883566  0.126430  0.747747  1
  Ga  Ga27  1  0.500000  0.000000  0.479984  1
  Ga  Ga28  1  0.500000  0.000000  0.996169  1
  Ga  Ga29  1  0.123203  0.123461  0.249553  1
  Ga  Ga30  1  0.000000  0.500000  0.013823  1
  Sn  Sn31  1  0.000000  0.500000  0.512175  1
