# generated using pymatgen
data_Tb4Er2Mn3(Co5P4)3
_symmetry_space_group_name_H-M   'P 1'
_cell_length_a   3.70177000
_cell_length_b   10.55972000
_cell_length_c   12.16432800
_cell_angle_alpha   90.00000000
_cell_angle_beta   90.00000000
_cell_angle_gamma   90.00000000
_symmetry_Int_Tables_number   1
_chemical_formula_structural   Tb4Er2Mn3(Co5P4)3
_chemical_formula_sum   'Tb4 Er2 Mn3 Co15 P12'
_cell_volume   475.49938123
_cell_formula_units_Z   1
loop_
 _symmetry_equiv_pos_site_id
 _symmetry_equiv_pos_as_xyz
  1  'x, y, z'
loop_
 _atom_site_type_symbol
 _atom_site_label
 _atom_site_symmetry_multiplicity
 _atom_site_fract_x
 _atom_site_fract_y
 _atom_site_fract_z
 _atom_site_occupancy
  Tb  Tb0  1  0.000000  0.500000  0.523446  1
  Tb  Tb1  1  0.500000  0.000000  0.476925  1
  Tb  Tb2  1  0.000000  0.680637  0.795738  1
  Tb  Tb3  1  0.000000  0.319363  0.795738  1
  Er  Er4  1  0.500000  0.818483  0.204779  1
  Er  Er5  1  0.500000  0.181517  0.204779  1
  Mn  Mn6  1  0.500000  0.500000  0.154388  1
  Mn  Mn7  1  0.000000  0.000000  0.841512  1
  Mn  Mn8  1  0.000000  0.500000  0.989510  1
  Co  Co9  1  0.500000  0.500000  0.699745  1
  Co  Co10  1  0.000000  0.000000  0.296847  1
  Co  Co11  1  0.500000  0.000000  0.013937  1
  Co  Co12  1  0.500000  0.330096  0.995038  1
  Co  Co13  1  0.500000  0.669904  0.995038  1
  Co  Co14  1  0.000000  0.164705  0.005590  1
  Co  Co15  1  0.000000  0.835295  0.005590  1
  Co  Co16  1  0.500000  0.295806  0.429939  1
  Co  Co17  1  0.500000  0.704194  0.429939  1
  Co  Co18  1  0.000000  0.203331  0.569766  1
  Co  Co19  1  0.000000  0.796669  0.569766  1
  Co  Co20  1  0.500000  0.880130  0.709684  1
  Co  Co21  1  0.500000  0.119870  0.709684  1
  Co  Co22  1  0.000000  0.621753  0.291043  1
  Co  Co23  1  0.000000  0.378247  0.291043  1
  P  P24  1  0.500000  0.500000  0.883410  1
  P  P25  1  0.000000  0.000000  0.118073  1
  P  P26  1  0.500000  0.500000  0.345783  1
  P  P27  1  0.000000  0.000000  0.655485  1
  P  P28  1  0.500000  0.309852  0.616054  1
  P  P29  1  0.500000  0.690148  0.616054  1
  P  P30  1  0.000000  0.188966  0.383186  1
  P  P31  1  0.000000  0.811034  0.383186  1
  P  P32  1  0.500000  0.847669  0.893084  1
  P  P33  1  0.500000  0.152331  0.893084  1
  P  P34  1  0.000000  0.655830  0.106567  1
  P  P35  1  0.000000  0.344170  0.106567  1
