# generated using pymatgen
data_Al(Sb5Pd2)2
_symmetry_space_group_name_H-M   'P 1'
_cell_length_a   20.26233961
_cell_length_b   20.26233938
_cell_length_c   6.58782281
_cell_angle_alpha   68.45178293
_cell_angle_beta   68.45178364
_cell_angle_gamma   8.45032855
_symmetry_Int_Tables_number   1
_chemical_formula_structural   Al(Sb5Pd2)2
_chemical_formula_sum   'Al1 Sb10 Pd4'
_cell_volume   369.52626248
_cell_formula_units_Z   1
loop_
 _symmetry_equiv_pos_site_id
 _symmetry_equiv_pos_as_xyz
  1  'x, y, z'
loop_
 _atom_site_type_symbol
 _atom_site_label
 _atom_site_symmetry_multiplicity
 _atom_site_fract_x
 _atom_site_fract_y
 _atom_site_fract_z
 _atom_site_occupancy
  Al  Al0  1  0.005785  0.005785  0.005366  1
  Sb  Sb1  1  0.677898  0.677898  0.731492  1
  Sb  Sb2  1  0.278658  0.278658  0.734317  1
  Sb  Sb3  1  0.878605  0.878605  0.745524  1
  Sb  Sb4  1  0.535321  0.535321  0.282853  1
  Sb  Sb5  1  0.133048  0.133048  0.255188  1
  Sb  Sb6  1  0.732630  0.732630  0.258687  1
  Sb  Sb7  1  0.333172  0.333172  0.263083  1
  Sb  Sb8  1  0.932516  0.932516  0.274315  1
  Sb  Sb9  1  0.078716  0.078716  0.728905  1
  Sb  Sb10  1  0.476568  0.476568  0.725946  1
  Pd  Pd11  1  0.604561  0.604561  0.997103  1
  Pd  Pd12  1  0.206224  0.206224  0.990896  1
  Pd  Pd13  1  0.805106  0.805106  0.001665  1
  Pd  Pd14  1  0.406912  0.406912  0.004657  1
