# generated using pymatgen
data_Hf3Zr3Zn15SiAu8
_symmetry_space_group_name_H-M   'P 1'
_cell_length_a   8.92077726
_cell_length_b   8.92144588
_cell_length_c   8.92059403
_cell_angle_alpha   59.99820203
_cell_angle_beta   60.00564296
_cell_angle_gamma   59.99616327
_symmetry_Int_Tables_number   1
_chemical_formula_structural   Hf3Zr3Zn15SiAu8
_chemical_formula_sum   'Hf3 Zr3 Zn15 Si1 Au8'
_cell_volume   502.01505229
_cell_formula_units_Z   1
loop_
 _symmetry_equiv_pos_site_id
 _symmetry_equiv_pos_as_xyz
  1  'x, y, z'
loop_
 _atom_site_type_symbol
 _atom_site_label
 _atom_site_symmetry_multiplicity
 _atom_site_fract_x
 _atom_site_fract_y
 _atom_site_fract_z
 _atom_site_occupancy
  Hf  Hf0  1  0.710793  0.289207  0.288752  1
  Hf  Hf1  1  0.288752  0.711248  0.710793  1
  Hf  Hf2  1  0.288361  0.711639  0.288361  1
  Zr  Zr3  1  0.709722  0.290278  0.709722  1
  Zr  Zr4  1  0.289508  0.289970  0.710030  1
  Zr  Zr5  1  0.710030  0.710492  0.289508  1
  Zn  Zn6  1  0.500303  0.000164  0.999836  1
  Zn  Zn7  1  0.999836  0.499697  0.500303  1
  Zn  Zn8  1  0.000196  0.499804  0.000196  1
  Zn  Zn9  1  0.500196  0.999804  0.500196  1
  Zn  Zn10  1  0.999789  0.000211  0.500390  1
  Zn  Zn11  1  0.500390  0.499610  0.999789  1
  Zn  Zn12  1  0.338367  0.338517  0.337581  1
  Zn  Zn13  1  0.661640  0.662311  0.662349  1
  Zn  Zn14  1  0.337689  0.338360  0.986300  1
  Zn  Zn15  1  0.337581  0.985535  0.338367  1
  Zn  Zn16  1  0.661483  0.661633  0.014465  1
  Zn  Zn17  1  0.662349  0.013700  0.661640  1
  Zn  Zn18  1  0.986300  0.337651  0.337689  1
  Zn  Zn19  1  0.014465  0.662419  0.661483  1
  Zn  Zn20  1  0.999386  0.000614  0.999386  1
  Si  Si21  1  0.498850  0.501150  0.498850  1
  Au  Au22  1  0.121370  0.120851  0.124065  1
  Au  Au23  1  0.879694  0.876408  0.876877  1
  Au  Au24  1  0.123592  0.120306  0.632979  1
  Au  Au25  1  0.124065  0.633714  0.121370  1
  Au  Au26  1  0.879149  0.878630  0.366286  1
  Au  Au27  1  0.876877  0.367021  0.879694  1
  Au  Au28  1  0.632979  0.123123  0.123592  1
  Au  Au29  1  0.366286  0.875935  0.879149  1
