# generated using pymatgen
data_Tb8Ti11Si16Pd
_symmetry_space_group_name_H-M   'P 1'
_cell_length_a   7.08013910
_cell_length_b   7.08013910
_cell_length_c   12.95249443
_cell_angle_alpha   90.03784826
_cell_angle_beta   89.96215174
_cell_angle_gamma   89.70974538
_symmetry_Int_Tables_number   1
_chemical_formula_structural   Tb8Ti11Si16Pd
_chemical_formula_sum   'Tb8 Ti11 Si16 Pd1'
_cell_volume   649.27881227
_cell_formula_units_Z   1
loop_
 _symmetry_equiv_pos_site_id
 _symmetry_equiv_pos_as_xyz
  1  'x, y, z'
loop_
 _atom_site_type_symbol
 _atom_site_label
 _atom_site_symmetry_multiplicity
 _atom_site_fract_x
 _atom_site_fract_y
 _atom_site_fract_z
 _atom_site_occupancy
  Tb  Tb0  1  0.339928  0.003403  0.466774  1
  Tb  Tb1  1  0.497229  0.840338  0.717592  1
  Tb  Tb2  1  0.500789  0.159132  0.214407  1
  Tb  Tb3  1  0.840338  0.497229  0.282408  1
  Tb  Tb4  1  0.159132  0.500789  0.785593  1
  Tb  Tb5  1  0.656927  0.999426  0.967991  1
  Tb  Tb6  1  0.003403  0.339928  0.533226  1
  Tb  Tb7  1  0.999426  0.656927  0.032009  1
  Ti  Ti8  1  0.175377  0.827292  0.249130  1
  Ti  Ti9  1  0.827292  0.175377  0.750870  1
  Ti  Ti10  1  0.673036  0.673036  0.500000  1
  Ti  Ti11  1  0.149946  0.006212  0.877225  1
  Ti  Ti12  1  0.493389  0.653856  0.124828  1
  Ti  Ti13  1  0.508539  0.349053  0.626827  1
  Ti  Ti14  1  0.653856  0.493389  0.875172  1
  Ti  Ti15  1  0.349053  0.508539  0.373173  1
  Ti  Ti16  1  0.848488  0.992602  0.375287  1
  Ti  Ti17  1  0.006212  0.149946  0.122775  1
  Ti  Ti18  1  0.992602  0.848488  0.624713  1
  Si  Si19  1  0.201663  0.130981  0.686064  1
  Si  Si20  1  0.374173  0.709553  0.933284  1
  Si  Si21  1  0.629816  0.295506  0.434179  1
  Si  Si22  1  0.709553  0.374173  0.066716  1
  Si  Si23  1  0.295506  0.629816  0.565821  1
  Si  Si24  1  0.797432  0.869894  0.184173  1
  Si  Si25  1  0.130981  0.201663  0.313936  1
  Si  Si26  1  0.869894  0.797432  0.815827  1
  Si  Si27  1  0.285694  0.944100  0.064997  1
  Si  Si28  1  0.546800  0.791348  0.315003  1
  Si  Si29  1  0.451746  0.209796  0.813537  1
  Si  Si30  1  0.791348  0.546800  0.684997  1
  Si  Si31  1  0.209796  0.451746  0.186463  1
  Si  Si32  1  0.709207  0.047432  0.565392  1
  Si  Si33  1  0.944100  0.285694  0.935003  1
  Si  Si34  1  0.047432  0.709207  0.434608  1
  Pd  Pd35  1  0.329895  0.329895  0.000000  1
