# generated using pymatgen
data_Ho2Cr2Co3P6Rh5
_symmetry_space_group_name_H-M   'P 1'
_cell_length_a   3.75365700
_cell_length_b   10.70168300
_cell_length_c   12.32688400
_cell_angle_alpha   90.00000000
_cell_angle_beta   90.00000000
_cell_angle_gamma   90.00000000
_symmetry_Int_Tables_number   1
_chemical_formula_structural   Ho2Cr2Co3P6Rh5
_chemical_formula_sum   'Ho4 Cr4 Co6 P12 Rh10'
_cell_volume   495.17644415
_cell_formula_units_Z   2
loop_
 _symmetry_equiv_pos_site_id
 _symmetry_equiv_pos_as_xyz
  1  'x, y, z'
loop_
 _atom_site_type_symbol
 _atom_site_label
 _atom_site_symmetry_multiplicity
 _atom_site_fract_x
 _atom_site_fract_y
 _atom_site_fract_z
 _atom_site_occupancy
  Ho  Ho0  1  0.250000  0.581046  0.710543  1
  Ho  Ho1  1  0.250000  0.918954  0.210543  1
  Ho  Ho2  1  0.750000  0.415134  0.291231  1
  Ho  Ho3  1  0.750000  0.084866  0.791231  1
  Cr  Cr4  1  0.250000  0.707578  0.988436  1
  Cr  Cr5  1  0.250000  0.792422  0.488436  1
  Cr  Cr6  1  0.750000  0.291506  0.009480  1
  Cr  Cr7  1  0.750000  0.208494  0.509480  1
  Co  Co8  1  0.750000  0.115952  0.305555  1
  Co  Co9  1  0.750000  0.384048  0.805555  1
  Co  Co10  1  0.250000  0.462769  0.932194  1
  Co  Co11  1  0.250000  0.037231  0.432194  1
  Co  Co12  1  0.750000  0.534372  0.063161  1
  Co  Co13  1  0.750000  0.965628  0.563161  1
  P  P14  1  0.250000  0.420785  0.105220  1
  P  P15  1  0.250000  0.079215  0.605220  1
  P  P16  1  0.750000  0.570335  0.889295  1
  P  P17  1  0.750000  0.929665  0.389295  1
  P  P18  1  0.250000  0.273283  0.870273  1
  P  P19  1  0.250000  0.226717  0.370273  1
  P  P20  1  0.750000  0.728572  0.126441  1
  P  P21  1  0.750000  0.771428  0.626441  1
  P  P22  1  0.250000  0.597661  0.389416  1
  P  P23  1  0.250000  0.902339  0.889416  1
  P  P24  1  0.750000  0.401520  0.618267  1
  P  P25  1  0.750000  0.098480  0.118267  1
  Rh  Rh26  1  0.250000  0.403141  0.484560  1
  Rh  Rh27  1  0.250000  0.096859  0.984560  1
  Rh  Rh28  1  0.750000  0.594203  0.516165  1
  Rh  Rh29  1  0.750000  0.905797  0.016165  1
  Rh  Rh30  1  0.250000  0.224284  0.180196  1
  Rh  Rh31  1  0.250000  0.275716  0.680196  1
  Rh  Rh32  1  0.750000  0.769376  0.822140  1
  Rh  Rh33  1  0.750000  0.730624  0.322140  1
  Rh  Rh34  1  0.250000  0.888540  0.697429  1
  Rh  Rh35  1  0.250000  0.611460  0.197429  1
