# generated using pymatgen
data_Ti2V9Si10Mo
_symmetry_space_group_name_H-M   'P 1'
_cell_length_a   4.86029386
_cell_length_b   7.55701546
_cell_length_c   9.18529744
_cell_angle_alpha   65.80243585
_cell_angle_beta   74.65865823
_cell_angle_gamma   90.00000995
_symmetry_Int_Tables_number   1
_chemical_formula_structural   Ti2V9Si10Mo
_chemical_formula_sum   'Ti2 V9 Si10 Mo1'
_cell_volume   294.49845083
_cell_formula_units_Z   1
loop_
 _symmetry_equiv_pos_site_id
 _symmetry_equiv_pos_as_xyz
  1  'x, y, z'
loop_
 _atom_site_type_symbol
 _atom_site_label
 _atom_site_symmetry_multiplicity
 _atom_site_fract_x
 _atom_site_fract_y
 _atom_site_fract_z
 _atom_site_occupancy
  Ti  Ti0  1  0.642343  0.029671  0.715315  1
  Ti  Ti1  1  0.357167  0.971458  0.285664  1
  V  V2  1  0.437922  0.690381  0.621170  1
  V  V3  1  0.060235  0.309985  0.379305  1
  V  V4  1  0.560460  0.309985  0.379305  1
  V  V5  1  0.940908  0.690381  0.621170  1
  V  V6  1  0.435586  0.681737  0.128828  1
  V  V7  1  0.564623  0.317751  0.870756  1
  V  V8  1  0.936283  0.190642  0.127434  1
  V  V9  1  0.063524  0.809739  0.872952  1
  V  V10  1  0.143217  0.258458  0.713566  1
  Si  Si11  1  0.064342  0.474709  0.871316  1
  Si  Si12  1  0.936476  0.522756  0.127048  1
  Si  Si13  1  0.563307  0.649804  0.873385  1
  Si  Si14  1  0.436760  0.351117  0.126480  1
  Si  Si15  1  0.751528  0.000748  0.998836  1
  Si  Si16  1  0.249637  0.000748  0.998836  1
  Si  Si17  1  0.285355  0.579291  0.429292  1
  Si  Si18  1  0.713701  0.418238  0.572599  1
  Si  Si19  1  0.787112  0.989781  0.425775  1
  Si  Si20  1  0.212280  0.011420  0.575440  1
  Mo  Mo21  1  0.857234  0.741199  0.285532  1
