# generated using pymatgen
data_Tb4Al3(CoO4)5
_symmetry_space_group_name_H-M   'P 1'
_cell_length_a   5.64879700
_cell_length_b   7.26087523
_cell_length_c   8.37524846
_cell_angle_alpha   89.62737877
_cell_angle_beta   90.00000000
_cell_angle_gamma   90.00000000
_symmetry_Int_Tables_number   1
_chemical_formula_structural   Tb4Al3(CoO4)5
_chemical_formula_sum   'Tb4 Al3 Co5 O20'
_cell_volume   343.50531182
_cell_formula_units_Z   1
loop_
 _symmetry_equiv_pos_site_id
 _symmetry_equiv_pos_as_xyz
  1  'x, y, z'
loop_
 _atom_site_type_symbol
 _atom_site_label
 _atom_site_symmetry_multiplicity
 _atom_site_fract_x
 _atom_site_fract_y
 _atom_site_fract_z
 _atom_site_occupancy
  Tb  Tb0  1  0.000000  0.859644  0.829726  1
  Tb  Tb1  1  0.000000  0.141009  0.169365  1
  Tb  Tb2  1  0.000000  0.368946  0.671833  1
  Tb  Tb3  1  0.000000  0.637147  0.329244  1
  Al  Al4  1  0.500000  0.610040  0.641696  1
  Al  Al5  1  0.500000  0.393271  0.358535  1
  Al  Al6  1  0.500000  0.890236  0.144038  1
  Co  Co7  1  0.745942  0.000266  0.498266  1
  Co  Co8  1  0.500000  0.087507  0.849645  1
  Co  Co9  1  0.256065  0.499801  0.001667  1
  Co  Co10  1  0.743935  0.499801  0.001667  1
  Co  Co11  1  0.254058  0.000266  0.498266  1
  O  O12  1  0.000000  0.339136  0.945003  1
  O  O13  1  0.721374  0.999281  0.002249  1
  O  O14  1  0.278626  0.999281  0.002249  1
  O  O15  1  0.500000  0.156472  0.432014  1
  O  O16  1  0.000000  0.160254  0.446210  1
  O  O17  1  0.720065  0.501280  0.499967  1
  O  O18  1  0.000000  0.840378  0.552838  1
  O  O19  1  0.748306  0.603254  0.790522  1
  O  O20  1  0.244277  0.100309  0.705722  1
  O  O21  1  0.500000  0.657286  0.071865  1
  O  O22  1  0.500000  0.350751  0.937980  1
  O  O23  1  0.000000  0.658381  0.053746  1
  O  O24  1  0.749618  0.899489  0.290969  1
  O  O25  1  0.748836  0.397903  0.209607  1
  O  O26  1  0.755723  0.100309  0.705722  1
  O  O27  1  0.251694  0.603254  0.790522  1
  O  O28  1  0.279935  0.501280  0.499967  1
  O  O29  1  0.250382  0.899489  0.290969  1
  O  O30  1  0.251164  0.397903  0.209607  1
  O  O31  1  0.500000  0.846373  0.568324  1
