# generated using pymatgen
data_Tb6Pr(NdPb2)3
_symmetry_space_group_name_H-M   'P 1'
_cell_length_a   9.22898131
_cell_length_b   9.22399493
_cell_length_c   6.77434300
_cell_angle_alpha   90.00000000
_cell_angle_beta   90.00000000
_cell_angle_gamma   119.60611055
_symmetry_Int_Tables_number   1
_chemical_formula_structural   Tb6Pr(NdPb2)3
_chemical_formula_sum   'Tb6 Pr1 Nd3 Pb6'
_cell_volume   501.39585932
_cell_formula_units_Z   1
loop_
 _symmetry_equiv_pos_site_id
 _symmetry_equiv_pos_as_xyz
  1  'x, y, z'
loop_
 _atom_site_type_symbol
 _atom_site_label
 _atom_site_symmetry_multiplicity
 _atom_site_fract_x
 _atom_site_fract_y
 _atom_site_fract_z
 _atom_site_occupancy
  Tb  Tb0  1  0.666408  0.333535  0.999901  1
  Tb  Tb1  1  0.333599  0.666400  0.999892  1
  Tb  Tb2  1  0.333599  0.666400  0.500108  1
  Tb  Tb3  1  0.666408  0.333535  0.500099  1
  Tb  Tb4  1  0.758136  0.758350  0.750000  1
  Tb  Tb5  1  0.241767  0.241763  0.250000  1
  Pr  Pr6  1  0.999562  0.761740  0.250000  1
  Nd  Nd7  1  0.239026  0.000593  0.750000  1
  Nd  Nd8  1  0.000393  0.238452  0.750000  1
  Nd  Nd9  1  0.761157  0.999533  0.250000  1
  Pb  Pb10  1  0.399162  0.399230  0.750000  1
  Pb  Pb11  1  0.604057  0.998259  0.750000  1
  Pb  Pb12  1  0.998150  0.604043  0.750000  1
  Pb  Pb13  1  0.599622  0.600322  0.250000  1
  Pb  Pb14  1  0.397128  0.002481  0.250000  1
  Pb  Pb15  1  0.001827  0.395367  0.250000  1
