# generated using pymatgen
data_Er8Sc12Si7Ge9
_symmetry_space_group_name_H-M   'P 1'
_cell_length_a   7.14570713
_cell_length_b   7.39758836
_cell_length_c   14.03414400
_cell_angle_alpha   90.00000000
_cell_angle_beta   90.00000000
_cell_angle_gamma   90.13768598
_symmetry_Int_Tables_number   1
_chemical_formula_structural   Er8Sc12Si7Ge9
_chemical_formula_sum   'Er8 Sc12 Si7 Ge9'
_cell_volume   741.85674330
_cell_formula_units_Z   1
loop_
 _symmetry_equiv_pos_site_id
 _symmetry_equiv_pos_as_xyz
  1  'x, y, z'
loop_
 _atom_site_type_symbol
 _atom_site_label
 _atom_site_symmetry_multiplicity
 _atom_site_fract_x
 _atom_site_fract_y
 _atom_site_fract_z
 _atom_site_occupancy
  Er  Er0  1  0.004183  0.177649  0.098654  1
  Er  Er1  1  0.996724  0.820460  0.901707  1
  Er  Er2  1  0.496517  0.676981  0.901740  1
  Er  Er3  1  0.996724  0.820460  0.598293  1
  Er  Er4  1  0.503465  0.322515  0.098816  1
  Er  Er5  1  0.004183  0.177649  0.401346  1
  Er  Er6  1  0.503465  0.322515  0.401184  1
  Er  Er7  1  0.496517  0.676981  0.598260  1
  Sc  Sc8  1  0.171993  0.503445  0.750000  1
  Sc  Sc9  1  0.828453  0.498252  0.250000  1
  Sc  Sc10  1  0.328841  0.001530  0.250000  1
  Sc  Sc11  1  0.668711  0.997612  0.750000  1
  Sc  Sc12  1  0.342218  0.172595  0.626549  1
  Sc  Sc13  1  0.659576  0.827570  0.373193  1
  Sc  Sc14  1  0.159797  0.672111  0.373516  1
  Sc  Sc15  1  0.659576  0.827570  0.126807  1
  Sc  Sc16  1  0.837483  0.330443  0.624960  1
  Sc  Sc17  1  0.342218  0.172595  0.873451  1
  Sc  Sc18  1  0.837483  0.330443  0.875040  1
  Sc  Sc19  1  0.159797  0.672111  0.126484  1
  Si  Si20  1  0.958399  0.884649  0.250000  1
  Si  Si21  1  0.457512  0.615661  0.250000  1
  Si  Si22  1  0.542301  0.383579  0.750000  1
  Si  Si23  1  0.297567  0.866765  0.750000  1
  Si  Si24  1  0.706087  0.129640  0.250000  1
  Si  Si25  1  0.205694  0.370412  0.250000  1
  Si  Si26  1  0.794627  0.629826  0.750000  1
  Ge  Ge27  1  0.038177  0.119364  0.750000  1
  Ge  Ge28  1  0.175863  0.460124  0.540653  1
  Ge  Ge29  1  0.824324  0.539505  0.458498  1
  Ge  Ge30  1  0.325048  0.960842  0.459557  1
  Ge  Ge31  1  0.824324  0.539505  0.041502  1
  Ge  Ge32  1  0.675621  0.038838  0.540216  1
  Ge  Ge33  1  0.175863  0.460124  0.959347  1
  Ge  Ge34  1  0.675621  0.038838  0.959784  1
  Ge  Ge35  1  0.325048  0.960842  0.040443  1
