# generated using pymatgen
data_Ba2PaVS6
_symmetry_space_group_name_H-M   'P 1'
_cell_length_a   7.07083340
_cell_length_b   7.05267601
_cell_length_c   12.25892576
_cell_angle_alpha   90.00661940
_cell_angle_beta   125.13107658
_cell_angle_gamma   89.99882997
_symmetry_Int_Tables_number   1
_chemical_formula_structural   Ba2PaVS6
_chemical_formula_sum   'Ba4 Pa2 V2 S12'
_cell_volume   499.97016287
_cell_formula_units_Z   2
loop_
 _symmetry_equiv_pos_site_id
 _symmetry_equiv_pos_as_xyz
  1  'x, y, z'
loop_
 _atom_site_type_symbol
 _atom_site_label
 _atom_site_symmetry_multiplicity
 _atom_site_fract_x
 _atom_site_fract_y
 _atom_site_fract_z
 _atom_site_occupancy
  Ba  Ba0  1  0.750362  0.025767  0.251709  1
  Ba  Ba1  1  0.250172  0.525512  0.248899  1
  Ba  Ba2  1  0.749826  0.474484  0.751100  1
  Ba  Ba3  1  0.249633  0.974220  0.748287  1
  Pa  Pa4  1  0.500006  0.500017  0.000002  1
  Pa  Pa5  1  0.499993  0.000006  0.499994  1
  V  V6  1  0.000002  0.000030  0.999996  1
  V  V7  1  0.999996  0.500009  0.500005  1
  S  S8  1  0.234843  0.268536  0.023123  1
  S  S9  1  0.291150  0.787102  0.023264  1
  S  S10  1  0.802764  0.497356  0.259456  1
  S  S11  1  0.197204  0.997381  0.240623  1
  S  S12  1  0.708961  0.286949  0.476826  1
  S  S13  1  0.764863  0.768389  0.476891  1
  S  S14  1  0.235133  0.231614  0.523105  1
  S  S15  1  0.291059  0.713045  0.523176  1
  S  S16  1  0.802798  0.002607  0.759371  1
  S  S17  1  0.197236  0.502613  0.740545  1
  S  S18  1  0.708822  0.212890  0.976744  1
  S  S19  1  0.765174  0.731474  0.976884  1
