# generated using pymatgen
data_Li2Tb8Sc10Si15Hg
_symmetry_space_group_name_H-M   'P 1'
_cell_length_a   7.06737865
_cell_length_b   7.41057126
_cell_length_c   14.14540518
_cell_angle_alpha   89.98359037
_cell_angle_beta   89.60776218
_cell_angle_gamma   90.13549190
_symmetry_Int_Tables_number   1
_chemical_formula_structural   Li2Tb8Sc10Si15Hg
_chemical_formula_sum   'Li2 Tb8 Sc10 Si15 Hg1'
_cell_volume   740.82226903
_cell_formula_units_Z   1
loop_
 _symmetry_equiv_pos_site_id
 _symmetry_equiv_pos_as_xyz
  1  'x, y, z'
loop_
 _atom_site_type_symbol
 _atom_site_label
 _atom_site_symmetry_multiplicity
 _atom_site_fract_x
 _atom_site_fract_y
 _atom_site_fract_z
 _atom_site_occupancy
  Li  Li0  1  0.160018  0.503386  0.752931  1
  Li  Li1  1  0.837626  0.496832  0.248784  1
  Tb  Tb2  1  0.011191  0.183846  0.098713  1
  Tb  Tb3  1  0.989470  0.817237  0.902465  1
  Tb  Tb4  1  0.484221  0.674550  0.902926  1
  Tb  Tb5  1  0.990286  0.825250  0.598979  1
  Tb  Tb6  1  0.514340  0.325893  0.097527  1
  Tb  Tb7  1  0.005787  0.179162  0.397225  1
  Tb  Tb8  1  0.517823  0.324527  0.397744  1
  Tb  Tb9  1  0.493929  0.680231  0.601583  1
  Sc  Sc10  1  0.339380  0.999779  0.248921  1
  Sc  Sc11  1  0.663962  0.997650  0.752546  1
  Sc  Sc12  1  0.339775  0.172470  0.629064  1
  Sc  Sc13  1  0.668447  0.818042  0.372047  1
  Sc  Sc14  1  0.159505  0.674000  0.369719  1
  Sc  Sc15  1  0.672726  0.817776  0.124949  1
  Sc  Sc16  1  0.827843  0.326040  0.626815  1
  Sc  Sc17  1  0.326206  0.181843  0.875896  1
  Sc  Sc18  1  0.833783  0.325020  0.874891  1
  Sc  Sc19  1  0.166107  0.673114  0.125606  1
  Si  Si20  1  0.032541  0.108739  0.750842  1
  Si  Si21  1  0.967693  0.894328  0.247949  1
  Si  Si22  1  0.461532  0.615571  0.247941  1
  Si  Si23  1  0.537170  0.386552  0.752318  1
  Si  Si24  1  0.287383  0.882652  0.752117  1
  Si  Si25  1  0.710916  0.116423  0.247717  1
  Si  Si26  1  0.220857  0.373322  0.249133  1
  Si  Si27  1  0.782692  0.626214  0.752286  1
  Si  Si28  1  0.829991  0.542854  0.465552  1
  Si  Si29  1  0.341424  0.964040  0.461024  1
  Si  Si30  1  0.842166  0.538479  0.033700  1
  Si  Si31  1  0.656262  0.034936  0.535790  1
  Si  Si32  1  0.156558  0.461640  0.966070  1
  Si  Si33  1  0.655023  0.033264  0.961351  1
  Si  Si34  1  0.344834  0.966434  0.039191  1
  Hg  Hg35  1  0.170536  0.457903  0.537688  1
