# generated using pymatgen
data_Tm3NbB4(Ru5W)2
_symmetry_space_group_name_H-M   'P 1'
_cell_length_a   9.53644726
_cell_length_b   9.53644814
_cell_length_c   3.08020500
_cell_angle_alpha   90.00000000
_cell_angle_beta   90.00000000
_cell_angle_gamma   90.11431016
_symmetry_Int_Tables_number   1
_chemical_formula_structural   Tm3NbB4(Ru5W)2
_chemical_formula_sum   'Tm3 Nb1 B4 Ru10 W2'
_cell_volume   280.12509694
_cell_formula_units_Z   1
loop_
 _symmetry_equiv_pos_site_id
 _symmetry_equiv_pos_as_xyz
  1  'x, y, z'
loop_
 _atom_site_type_symbol
 _atom_site_label
 _atom_site_symmetry_multiplicity
 _atom_site_fract_x
 _atom_site_fract_y
 _atom_site_fract_z
 _atom_site_occupancy
  Tm  Tm0  1  0.824653  0.675055  0.000000  1
  Tm  Tm1  1  0.175055  0.324653  0.000000  1
  Tm  Tm2  1  0.325072  0.825072  0.000000  1
  Nb  Nb3  1  0.675914  0.175914  0.000000  1
  B  B4  1  0.622578  0.880823  0.000000  1
  B  B5  1  0.380823  0.122578  0.000000  1
  B  B6  1  0.118407  0.618407  0.000000  1
  B  B7  1  0.877334  0.377334  0.000000  1
  Ru  Ru8  1  0.570667  0.718627  0.500000  1
  Ru  Ru9  1  0.439111  0.282719  0.500000  1
  Ru  Ru10  1  0.068339  0.783192  0.500000  1
  Ru  Ru11  1  0.919389  0.211990  0.500000  1
  Ru  Ru12  1  0.283192  0.568339  0.500000  1
  Ru  Ru13  1  0.711990  0.419389  0.500000  1
  Ru  Ru14  1  0.218627  0.070667  0.500000  1
  Ru  Ru15  1  0.782719  0.939111  0.500000  1
  Ru  Ru16  1  0.508123  0.008123  0.500000  1
  Ru  Ru17  1  0.996743  0.496743  0.500000  1
  W  W18  1  0.497894  0.503368  0.000000  1
  W  W19  1  0.003368  0.997894  0.000000  1
