# generated using pymatgen
data_LiYb2Dy2MnC8
_symmetry_space_group_name_H-M   'P 1'
_cell_length_a   6.74062987
_cell_length_b   6.69114216
_cell_length_c   6.69114152
_cell_angle_alpha   134.19748505
_cell_angle_beta   110.31940155
_cell_angle_gamma   87.32844588
_symmetry_Int_Tables_number   1
_chemical_formula_structural   LiYb2Dy2MnC8
_chemical_formula_sum   'Li1 Yb2 Dy2 Mn1 C8'
_cell_volume   194.13498039
_cell_formula_units_Z   1
loop_
 _symmetry_equiv_pos_site_id
 _symmetry_equiv_pos_as_xyz
  1  'x, y, z'
loop_
 _atom_site_type_symbol
 _atom_site_label
 _atom_site_symmetry_multiplicity
 _atom_site_fract_x
 _atom_site_fract_y
 _atom_site_fract_z
 _atom_site_occupancy
  Li  Li0  1  0.000000  0.243749  0.243749  1
  Yb  Yb1  1  0.511917  0.860389  0.664680  1
  Yb  Yb2  1  0.488083  0.152761  0.348472  1
  Dy  Dy3  1  0.204161  0.349854  0.844479  1
  Dy  Dy4  1  0.795839  0.640319  0.145693  1
  Mn  Mn5  1  0.000000  0.741913  0.741913  1
  C  C6  1  0.803435  0.143183  0.684231  1
  C  C7  1  0.196565  0.880796  0.339747  1
  C  C8  1  0.462523  0.622311  0.840453  1
  C  C9  1  0.537477  0.377929  0.159786  1
  C  C10  1  0.909347  0.012797  0.753687  1
  C  C11  1  0.090653  0.844341  0.103451  1
  C  C12  1  0.264247  0.646705  0.747199  1
  C  C13  1  0.735753  0.482951  0.382458  1
