# generated using pymatgen
data_SmPu5(BO3)6
_symmetry_space_group_name_H-M   'P 1'
_cell_length_a   6.79906011
_cell_length_b   6.80930506
_cell_length_c   9.87783900
_cell_angle_alpha   70.18734362
_cell_angle_beta   70.17866844
_cell_angle_gamma   60.02610198
_symmetry_Int_Tables_number   1
_chemical_formula_structural   SmPu5(BO3)6
_chemical_formula_sum   'Sm1 Pu5 B6 O18'
_cell_volume   364.52505121
_cell_formula_units_Z   1
loop_
 _symmetry_equiv_pos_site_id
 _symmetry_equiv_pos_as_xyz
  1  'x, y, z'
loop_
 _atom_site_type_symbol
 _atom_site_label
 _atom_site_symmetry_multiplicity
 _atom_site_fract_x
 _atom_site_fract_y
 _atom_site_fract_z
 _atom_site_occupancy
  Sm  Sm0  1  0.345579  0.827505  0.500534  1
  Pu  Pu1  1  0.000677  0.499733  0.500177  1
  Pu  Pu2  1  0.499887  0.000025  0.000054  1
  Pu  Pu3  1  0.830486  0.340341  0.001554  1
  Pu  Pu4  1  0.660132  0.169802  0.499680  1
  Pu  Pu5  1  0.170030  0.660198  0.999397  1
  B  B6  1  0.081994  0.151398  0.253244  1
  B  B7  1  0.847709  0.916128  0.248750  1
  B  B8  1  0.917708  0.848961  0.746697  1
  B  B9  1  0.152419  0.081777  0.749802  1
  B  B10  1  0.318009  0.683086  0.251577  1
  B  B11  1  0.682069  0.318432  0.749977  1
  O  O12  1  0.032289  0.214877  0.392189  1
  O  O13  1  0.787707  0.961149  0.108926  1
  O  O14  1  0.960421  0.789153  0.607362  1
  O  O15  1  0.213029  0.035359  0.889902  1
  O  O16  1  0.128040  0.306241  0.113894  1
  O  O17  1  0.690544  0.870535  0.385548  1
  O  O18  1  0.871547  0.694675  0.885655  1
  O  O19  1  0.308288  0.127075  0.611554  1
  O  O20  1  0.473298  0.621686  0.112202  1
  O  O21  1  0.380666  0.528068  0.389926  1
  O  O22  1  0.527941  0.378194  0.889772  1
  O  O23  1  0.616063  0.476747  0.613105  1
  O  O24  1  0.083650  0.706949  0.250731  1
  O  O25  1  0.292802  0.917058  0.253782  1
  O  O26  1  0.917884  0.292609  0.748882  1
  O  O27  1  0.707024  0.084399  0.748807  1
  O  O28  1  0.873071  0.125233  0.250218  1
  O  O29  1  0.129035  0.872607  0.746101  1
