# generated using pymatgen
data_TbSm4HoCoBr10
_symmetry_space_group_name_H-M   'P 1'
_cell_length_a   7.42617347
_cell_length_b   9.23816447
_cell_length_c   9.41744235
_cell_angle_alpha   108.41797530
_cell_angle_beta   96.61751700
_cell_angle_gamma   105.13796079
_symmetry_Int_Tables_number   1
_chemical_formula_structural   TbSm4HoCoBr10
_chemical_formula_sum   'Tb1 Sm4 Ho1 Co1 Br10'
_cell_volume   577.75416224
_cell_formula_units_Z   1
loop_
 _symmetry_equiv_pos_site_id
 _symmetry_equiv_pos_as_xyz
  1  'x, y, z'
loop_
 _atom_site_type_symbol
 _atom_site_label
 _atom_site_symmetry_multiplicity
 _atom_site_fract_x
 _atom_site_fract_y
 _atom_site_fract_z
 _atom_site_occupancy
  Tb  Tb0  1  0.643473  0.867787  0.324275  1
  Sm  Sm1  1  0.030608  0.713625  0.410630  1
  Sm  Sm2  1  0.970486  0.286782  0.590085  1
  Sm  Sm3  1  0.875370  0.953539  0.745617  1
  Sm  Sm4  1  0.126212  0.047323  0.255019  1
  Ho  Ho5  1  0.353750  0.130897  0.674016  1
  Co  Co6  1  0.000107  0.000115  0.499955  1
  Br  Br7  1  0.451965  0.824873  0.583023  1
  Br  Br8  1  0.547716  0.177714  0.420064  1
  Br  Br9  1  0.914134  0.629811  0.672219  1
  Br  Br10  1  0.086025  0.370319  0.328060  1
  Br  Br11  1  0.256615  0.086370  0.951013  1
  Br  Br12  1  0.746080  0.914612  0.047640  1
  Br  Br13  1  0.356276  0.447706  0.771409  1
  Br  Br14  1  0.645748  0.549836  0.229029  1
  Br  Br15  1  0.774992  0.254180  0.843514  1
  Br  Br16  1  0.220441  0.744512  0.154432  1
