# generated using pymatgen
data_Li4TbDy3Sb4
_symmetry_space_group_name_H-M   'P 1'
_cell_length_a   4.59793200
_cell_length_b   7.22072851
_cell_length_c   8.26262300
_cell_angle_alpha   89.92307903
_cell_angle_beta   90.00000000
_cell_angle_gamma   90.00000000
_symmetry_Int_Tables_number   1
_chemical_formula_structural   Li4TbDy3Sb4
_chemical_formula_sum   'Li4 Tb1 Dy3 Sb4'
_cell_volume   274.32229567
_cell_formula_units_Z   1
loop_
 _symmetry_equiv_pos_site_id
 _symmetry_equiv_pos_as_xyz
  1  'x, y, z'
loop_
 _atom_site_type_symbol
 _atom_site_label
 _atom_site_symmetry_multiplicity
 _atom_site_fract_x
 _atom_site_fract_y
 _atom_site_fract_z
 _atom_site_occupancy
  Li  Li0  1  0.250000  0.820076  0.921752  1
  Li  Li1  1  0.750000  0.180423  0.077839  1
  Li  Li2  1  0.750000  0.681351  0.421698  1
  Li  Li3  1  0.250000  0.318316  0.578742  1
  Tb  Tb4  1  0.250000  0.992254  0.288051  1
  Dy  Dy5  1  0.250000  0.491822  0.212743  1
  Dy  Dy6  1  0.750000  0.507458  0.786976  1
  Dy  Dy7  1  0.750000  0.007770  0.711481  1
  Sb  Sb8  1  0.250000  0.729553  0.592388  1
  Sb  Sb9  1  0.750000  0.271948  0.409411  1
  Sb  Sb10  1  0.750000  0.768386  0.090204  1
  Sb  Sb11  1  0.250000  0.230644  0.908717  1
