# generated using pymatgen
data_Cr2IrO6
_symmetry_space_group_name_H-M   'P 1'
_cell_length_a   4.56140500
_cell_length_b   4.56140500
_cell_length_c   9.19664200
_cell_angle_alpha   90.00000000
_cell_angle_beta   90.00000000
_cell_angle_gamma   90.00000000
_symmetry_Int_Tables_number   1
_chemical_formula_structural   Cr2IrO6
_chemical_formula_sum   'Cr4 Ir2 O12'
_cell_volume   191.34915534
_cell_formula_units_Z   2
loop_
 _symmetry_equiv_pos_site_id
 _symmetry_equiv_pos_as_xyz
  1  'x, y, z'
loop_
 _atom_site_type_symbol
 _atom_site_label
 _atom_site_symmetry_multiplicity
 _atom_site_fract_x
 _atom_site_fract_y
 _atom_site_fract_z
 _atom_site_occupancy
  Cr  Cr0  1  0.000000  0.000000  0.333817  1
  Cr  Cr1  1  0.000000  0.000000  0.666183  1
  Cr  Cr2  1  0.500000  0.500000  0.166183  1
  Cr  Cr3  1  0.500000  0.500000  0.833817  1
  Ir  Ir4  1  0.000000  0.000000  0.000000  1
  Ir  Ir5  1  0.500000  0.500000  0.500000  1
  O  O6  1  0.193740  0.806260  0.165310  1
  O  O7  1  0.200841  0.799159  0.500000  1
  O  O8  1  0.193740  0.806260  0.834690  1
  O  O9  1  0.299159  0.299159  0.000000  1
  O  O10  1  0.306260  0.306260  0.334690  1
  O  O11  1  0.306260  0.306260  0.665310  1
  O  O12  1  0.700841  0.700841  0.000000  1
  O  O13  1  0.693740  0.693740  0.334690  1
  O  O14  1  0.693740  0.693740  0.665310  1
  O  O15  1  0.806260  0.193740  0.165310  1
  O  O16  1  0.799159  0.200841  0.500000  1
  O  O17  1  0.806260  0.193740  0.834690  1
