# generated using pymatgen
data_Ho2Tm8In8CoPt3
_symmetry_space_group_name_H-M   'P 1'
_cell_length_a   3.59964000
_cell_length_b   8.04494960
_cell_length_c   18.02772767
_cell_angle_alpha   89.95522526
_cell_angle_beta   90.00000000
_cell_angle_gamma   90.00000000
_symmetry_Int_Tables_number   1
_chemical_formula_structural   Ho2Tm8In8CoPt3
_chemical_formula_sum   'Ho2 Tm8 In8 Co1 Pt3'
_cell_volume   522.06340711
_cell_formula_units_Z   1
loop_
 _symmetry_equiv_pos_site_id
 _symmetry_equiv_pos_as_xyz
  1  'x, y, z'
loop_
 _atom_site_type_symbol
 _atom_site_label
 _atom_site_symmetry_multiplicity
 _atom_site_fract_x
 _atom_site_fract_y
 _atom_site_fract_z
 _atom_site_occupancy
  Ho  Ho0  1  0.000000  0.000562  0.001379  1
  Ho  Ho1  1  0.000000  0.500751  0.498547  1
  Tm  Tm2  1  0.000000  0.111146  0.408161  1
  Tm  Tm3  1  0.000000  0.883985  0.584152  1
  Tm  Tm4  1  0.000000  0.383922  0.915177  1
  Tm  Tm5  1  0.000000  0.617407  0.088148  1
  Tm  Tm6  1  0.000000  0.232412  0.224736  1
  Tm  Tm7  1  0.000000  0.758688  0.778611  1
  Tm  Tm8  1  0.000000  0.257579  0.721069  1
  Tm  Tm9  1  0.000000  0.754757  0.278932  1
  In  In10  1  0.500000  0.421181  0.351258  1
  In  In11  1  0.500000  0.576874  0.647594  1
  In  In12  1  0.500000  0.077186  0.851958  1
  In  In13  1  0.500000  0.928656  0.152274  1
  In  In14  1  0.500000  0.293532  0.068822  1
  In  In15  1  0.500000  0.708171  0.934226  1
  In  In16  1  0.500000  0.206926  0.564379  1
  In  In17  1  0.500000  0.795389  0.428788  1
  Co  Co18  1  0.500000  0.017162  0.305005  1
  Pt  Pt19  1  0.500000  0.976513  0.695134  1
  Pt  Pt20  1  0.500000  0.476942  0.804573  1
  Pt  Pt21  1  0.500000  0.520258  0.197079  1
