# generated using pymatgen
data_TbHoErTaO7
_symmetry_space_group_name_H-M   'P 1'
_cell_length_a   6.46820737
_cell_length_b   6.46820749
_cell_length_c   7.46506757
_cell_angle_alpha   89.98443363
_cell_angle_beta   89.98442417
_cell_angle_gamma   108.70664463
_symmetry_Int_Tables_number   1
_chemical_formula_structural   TbHoErTaO7
_chemical_formula_sum   'Tb2 Ho2 Er2 Ta2 O14'
_cell_volume   295.82231004
_cell_formula_units_Z   2
loop_
 _symmetry_equiv_pos_site_id
 _symmetry_equiv_pos_as_xyz
  1  'x, y, z'
loop_
 _atom_site_type_symbol
 _atom_site_label
 _atom_site_symmetry_multiplicity
 _atom_site_fract_x
 _atom_site_fract_y
 _atom_site_fract_z
 _atom_site_occupancy
  Tb  Tb0  1  0.533170  0.532445  0.499521  1
  Tb  Tb1  1  0.467555  0.466830  0.000479  1
  Ho  Ho2  1  0.999394  0.465573  0.742619  1
  Ho  Ho3  1  0.534427  0.000606  0.757381  1
  Er  Er4  1  0.465116  0.999321  0.257830  1
  Er  Er5  1  0.000679  0.534884  0.242170  1
  Ta  Ta6  1  0.002700  0.002863  0.499285  1
  Ta  Ta7  1  0.997137  0.997300  0.000715  1
  O  O8  1  0.069997  0.930003  0.250000  1
  O  O9  1  0.050797  0.310150  0.455437  1
  O  O10  1  0.080663  0.328091  0.026584  1
  O  O11  1  0.358625  0.641375  0.250000  1
  O  O12  1  0.369064  0.630936  0.750000  1
  O  O13  1  0.328508  0.080967  0.975110  1
  O  O14  1  0.311823  0.054722  0.541807  1
  O  O15  1  0.689850  0.949203  0.044563  1
  O  O16  1  0.671909  0.919337  0.473416  1
  O  O17  1  0.631354  0.368646  0.250000  1
  O  O18  1  0.640568  0.359432  0.750000  1
  O  O19  1  0.919033  0.671492  0.524890  1
  O  O20  1  0.945278  0.688177  0.958193  1
  O  O21  1  0.932355  0.067645  0.750000  1
