# generated using pymatgen
data_Yb20Ir3Ru
_symmetry_space_group_name_H-M   'P 1'
_cell_length_a   7.44537703
_cell_length_b   15.61319000
_cell_length_c   6.66578203
_cell_angle_alpha   90.00000000
_cell_angle_beta   90.01020514
_cell_angle_gamma   90.00000000
_symmetry_Int_Tables_number   1
_chemical_formula_structural   Yb20Ir3Ru
_chemical_formula_sum   'Yb20 Ir3 Ru1'
_cell_volume   774.87105963
_cell_formula_units_Z   1
loop_
 _symmetry_equiv_pos_site_id
 _symmetry_equiv_pos_as_xyz
  1  'x, y, z'
loop_
 _atom_site_type_symbol
 _atom_site_label
 _atom_site_symmetry_multiplicity
 _atom_site_fract_x
 _atom_site_fract_y
 _atom_site_fract_z
 _atom_site_occupancy
  Yb  Yb0  1  0.307733  0.068038  0.138994  1
  Yb  Yb1  1  0.307733  0.431962  0.138994  1
  Yb  Yb2  1  0.597828  0.250000  0.149223  1
  Yb  Yb3  1  0.033462  0.645713  0.173422  1
  Yb  Yb4  1  0.033462  0.854287  0.173422  1
  Yb  Yb5  1  0.536429  0.645579  0.325086  1
  Yb  Yb6  1  0.536429  0.854421  0.325086  1
  Yb  Yb7  1  0.097566  0.250000  0.350453  1
  Yb  Yb8  1  0.808247  0.068138  0.360841  1
  Yb  Yb9  1  0.808247  0.431862  0.360841  1
  Yb  Yb10  1  0.191758  0.568189  0.638925  1
  Yb  Yb11  1  0.191758  0.931812  0.638925  1
  Yb  Yb12  1  0.901180  0.750000  0.649793  1
  Yb  Yb13  1  0.464043  0.145183  0.673843  1
  Yb  Yb14  1  0.464043  0.354817  0.673843  1
  Yb  Yb15  1  0.964462  0.145218  0.826068  1
  Yb  Yb16  1  0.964462  0.354782  0.826068  1
  Yb  Yb17  1  0.404157  0.750000  0.852398  1
  Yb  Yb18  1  0.692422  0.568066  0.861308  1
  Yb  Yb19  1  0.692422  0.931935  0.861308  1
  Ir  Ir20  1  0.241254  0.750000  0.462788  1
  Ir  Ir21  1  0.758596  0.250000  0.539067  1
  Ir  Ir22  1  0.258955  0.250000  0.961917  1
  Ru  Ru23  1  0.743355  0.750000  0.037386  1
