# generated using pymatgen
data_Pr16Cd3Ag(IrPt)2
_symmetry_space_group_name_H-M   'P 1'
_cell_length_a   10.06276883
_cell_length_b   10.06276784
_cell_length_c   10.04380884
_cell_angle_alpha   60.23497920
_cell_angle_beta   60.23499018
_cell_angle_gamma   60.28157445
_symmetry_Int_Tables_number   1
_chemical_formula_structural   Pr16Cd3Ag(IrPt)2
_chemical_formula_sum   'Pr16 Cd3 Ag1 Ir2 Pt2'
_cell_volume   723.22598194
_cell_formula_units_Z   1
loop_
 _symmetry_equiv_pos_site_id
 _symmetry_equiv_pos_as_xyz
  1  'x, y, z'
loop_
 _atom_site_type_symbol
 _atom_site_label
 _atom_site_symmetry_multiplicity
 _atom_site_fract_x
 _atom_site_fract_y
 _atom_site_fract_z
 _atom_site_occupancy
  Pr  Pr0  1  0.349423  0.349423  0.345378  1
  Pr  Pr1  1  0.350929  0.350929  0.952036  1
  Pr  Pr2  1  0.354615  0.947475  0.349884  1
  Pr  Pr3  1  0.947475  0.354615  0.349884  1
  Pr  Pr4  1  0.806386  0.190649  0.190395  1
  Pr  Pr5  1  0.189704  0.805126  0.812171  1
  Pr  Pr6  1  0.190649  0.806386  0.190395  1
  Pr  Pr7  1  0.805126  0.189704  0.812171  1
  Pr  Pr8  1  0.191446  0.191446  0.809096  1
  Pr  Pr9  1  0.809802  0.809802  0.188403  1
  Pr  Pr10  1  0.936444  0.564129  0.560977  1
  Pr  Pr11  1  0.562092  0.937824  0.936817  1
  Pr  Pr12  1  0.564129  0.936444  0.560977  1
  Pr  Pr13  1  0.937824  0.562092  0.936817  1
  Pr  Pr14  1  0.562515  0.562515  0.935854  1
  Pr  Pr15  1  0.937797  0.937797  0.560413  1
  Cd  Cd16  1  0.580480  0.580480  0.261043  1
  Cd  Cd17  1  0.579995  0.261608  0.580552  1
  Cd  Cd18  1  0.261608  0.579995  0.580552  1
  Ag  Ag19  1  0.582338  0.582338  0.582058  1
  Ir  Ir20  1  0.141560  0.573327  0.143474  1
  Ir  Ir21  1  0.573327  0.141560  0.143474  1
  Pt  Pt22  1  0.142240  0.142240  0.144825  1
  Pt  Pt23  1  0.142093  0.142093  0.572354  1
