# generated using pymatgen
data_Sr4Sm(BiO4)3
_symmetry_space_group_name_H-M   'P 1'
_cell_length_a   6.19102057
_cell_length_b   6.00419157
_cell_length_c   10.47558418
_cell_angle_alpha   55.14186883
_cell_angle_beta   89.84229002
_cell_angle_gamma   89.99748850
_symmetry_Int_Tables_number   1
_chemical_formula_structural   Sr4Sm(BiO4)3
_chemical_formula_sum   'Sr4 Sm1 Bi3 O12'
_cell_volume   319.52742755
_cell_formula_units_Z   1
loop_
 _symmetry_equiv_pos_site_id
 _symmetry_equiv_pos_as_xyz
  1  'x, y, z'
loop_
 _atom_site_type_symbol
 _atom_site_label
 _atom_site_symmetry_multiplicity
 _atom_site_fract_x
 _atom_site_fract_y
 _atom_site_fract_z
 _atom_site_occupancy
  Sr  Sr0  1  0.550155  0.264176  0.751002  1
  Sr  Sr1  1  0.049776  0.738373  0.748971  1
  Sr  Sr2  1  0.449845  0.735824  0.248998  1
  Sr  Sr3  1  0.950224  0.261627  0.251029  1
  Sm  Sm4  1  0.000000  0.000000  0.000000  1
  Bi  Bi5  1  0.500000  0.000000  0.500000  1
  Bi  Bi6  1  0.000000  0.500000  0.500000  1
  Bi  Bi7  1  0.500000  0.500000  0.000000  1
  O  O8  1  0.786317  0.366512  0.942398  1
  O  O9  1  0.287202  0.629562  0.559587  1
  O  O10  1  0.213683  0.633488  0.057602  1
  O  O11  1  0.712798  0.370438  0.440413  1
  O  O12  1  0.304971  0.263875  0.947943  1
  O  O13  1  0.806152  0.736939  0.553260  1
  O  O14  1  0.695029  0.736125  0.052057  1
  O  O15  1  0.193848  0.263061  0.446740  1
  O  O16  1  0.456522  0.844682  0.761015  1
  O  O17  1  0.957173  0.157030  0.739626  1
  O  O18  1  0.543478  0.155318  0.238985  1
  O  O19  1  0.042827  0.842970  0.260374  1
