# generated using pymatgen
data_LiDy2ZnSb4
_symmetry_space_group_name_H-M   'P 1'
_cell_length_a   4.33699811
_cell_length_b   4.33676437
_cell_length_c   10.37204936
_cell_angle_alpha   90.08069699
_cell_angle_beta   89.94627212
_cell_angle_gamma   90.00881351
_symmetry_Int_Tables_number   1
_chemical_formula_structural   LiDy2ZnSb4
_chemical_formula_sum   'Li1 Dy2 Zn1 Sb4'
_cell_volume   195.08281200
_cell_formula_units_Z   1
loop_
 _symmetry_equiv_pos_site_id
 _symmetry_equiv_pos_as_xyz
  1  'x, y, z'
loop_
 _atom_site_type_symbol
 _atom_site_label
 _atom_site_symmetry_multiplicity
 _atom_site_fract_x
 _atom_site_fract_y
 _atom_site_fract_z
 _atom_site_occupancy
  Li  Li0  1  0.748703  0.247594  0.000084  1
  Dy  Dy1  1  0.250957  0.247640  0.273159  1
  Dy  Dy2  1  0.748840  0.751566  0.726866  1
  Zn  Zn3  1  0.251292  0.753570  0.999888  1
  Sb  Sb4  1  0.248989  0.252446  0.828730  1
  Sb  Sb5  1  0.751112  0.748150  0.171245  1
  Sb  Sb6  1  0.250129  0.749525  0.500011  1
  Sb  Sb7  1  0.749977  0.249511  0.500016  1
