# generated using pymatgen
data_Y4Co17(P4Ru)3
_symmetry_space_group_name_H-M   'P 1'
_cell_length_a   3.69203800
_cell_length_b   10.38006411
_cell_length_c   11.79321045
_cell_angle_alpha   89.92658505
_cell_angle_beta   90.00000000
_cell_angle_gamma   90.00000000
_symmetry_Int_Tables_number   1
_chemical_formula_structural   Y4Co17(P4Ru)3
_chemical_formula_sum   'Y4 Co17 P12 Ru3'
_cell_volume   451.95780421
_cell_formula_units_Z   1
loop_
 _symmetry_equiv_pos_site_id
 _symmetry_equiv_pos_as_xyz
  1  'x, y, z'
loop_
 _atom_site_type_symbol
 _atom_site_label
 _atom_site_symmetry_multiplicity
 _atom_site_fract_x
 _atom_site_fract_y
 _atom_site_fract_z
 _atom_site_occupancy
  Y  Y0  1  0.250000  0.913802  0.203943  1
  Y  Y1  1  0.750000  0.082896  0.797756  1
  Y  Y2  1  0.750000  0.414697  0.296148  1
  Y  Y3  1  0.250000  0.585192  0.704066  1
  Co  Co4  1  0.250000  0.717158  0.991689  1
  Co  Co5  1  0.250000  0.091500  0.989978  1
  Co  Co6  1  0.750000  0.906503  0.011504  1
  Co  Co7  1  0.750000  0.591519  0.510956  1
  Co  Co8  1  0.250000  0.408640  0.489247  1
  Co  Co9  1  0.250000  0.278816  0.677509  1
  Co  Co10  1  0.750000  0.720463  0.322720  1
  Co  Co11  1  0.750000  0.777959  0.823631  1
  Co  Co12  1  0.250000  0.222321  0.176769  1
  Co  Co13  1  0.250000  0.616381  0.198845  1
  Co  Co14  1  0.750000  0.386359  0.798771  1
  Co  Co15  1  0.750000  0.114005  0.297458  1
  Co  Co16  1  0.250000  0.885568  0.702210  1
  Co  Co17  1  0.250000  0.035440  0.430584  1
  Co  Co18  1  0.750000  0.964594  0.568785  1
  Co  Co19  1  0.750000  0.535471  0.068063  1
  Co  Co20  1  0.250000  0.467227  0.931608  1
  P  P21  1  0.250000  0.079433  0.612211  1
  P  P22  1  0.750000  0.919829  0.387724  1
  P  P23  1  0.750000  0.581883  0.888770  1
  P  P24  1  0.250000  0.421169  0.112185  1
  P  P25  1  0.250000  0.228948  0.367240  1
  P  P26  1  0.750000  0.771251  0.633298  1
  P  P27  1  0.750000  0.729472  0.129570  1
  P  P28  1  0.250000  0.271830  0.867598  1
  P  P29  1  0.250000  0.897586  0.892814  1
  P  P30  1  0.750000  0.095574  0.109278  1
  P  P31  1  0.750000  0.403757  0.610150  1
  P  P32  1  0.250000  0.597176  0.388882  1
  Ru  Ru33  1  0.250000  0.784371  0.490931  1
  Ru  Ru34  1  0.750000  0.216034  0.508649  1
  Ru  Ru35  1  0.750000  0.285181  0.008462  1
