# generated using pymatgen
data_Ba7MnFe5O19
_symmetry_space_group_name_H-M   'P 1'
_cell_length_a   7.98189368
_cell_length_b   7.98189440
_cell_length_c   11.04634000
_cell_angle_alpha   81.07824560
_cell_angle_beta   81.07823753
_cell_angle_gamma   42.76892425
_symmetry_Int_Tables_number   1
_chemical_formula_structural   Ba7MnFe5O19
_chemical_formula_sum   'Ba7 Mn1 Fe5 O19'
_cell_volume   471.21496427
_cell_formula_units_Z   1
loop_
 _symmetry_equiv_pos_site_id
 _symmetry_equiv_pos_as_xyz
  1  'x, y, z'
loop_
 _atom_site_type_symbol
 _atom_site_label
 _atom_site_symmetry_multiplicity
 _atom_site_fract_x
 _atom_site_fract_y
 _atom_site_fract_z
 _atom_site_occupancy
  Ba  Ba0  1  0.501234  0.501234  0.504688  1
  Ba  Ba1  1  0.848575  0.848575  0.944737  1
  Ba  Ba2  1  0.156776  0.156776  0.047138  1
  Ba  Ba3  1  0.574143  0.574143  0.833782  1
  Ba  Ba4  1  0.426765  0.426765  0.163668  1
  Ba  Ba5  1  0.799115  0.799115  0.597532  1
  Ba  Ba6  1  0.199916  0.199916  0.407598  1
  Mn  Mn7  1  0.184246  0.184246  0.729963  1
  Fe  Fe8  1  0.815577  0.815577  0.268268  1
  Fe  Fe9  1  0.350021  0.350021  0.781227  1
  Fe  Fe10  1  0.647663  0.647663  0.218603  1
  Fe  Fe11  1  0.020024  0.020024  0.672922  1
  Fe  Fe12  1  0.980623  0.980623  0.329409  1
  O  O13  1  0.997132  0.997132  0.502659  1
  O  O14  1  0.702546  0.702546  0.377147  1
  O  O15  1  0.301167  0.301167  0.622316  1
  O  O16  1  0.066362  0.066362  0.839457  1
  O  O17  1  0.929703  0.929703  0.160015  1
  O  O18  1  0.384911  0.384911  0.935033  1
  O  O19  1  0.614783  0.614783  0.063766  1
  O  O20  1  0.820480  0.311053  0.281645  1
  O  O21  1  0.686332  0.180760  0.720149  1
  O  O22  1  0.180760  0.686332  0.720149  1
  O  O23  1  0.311053  0.820480  0.281645  1
  O  O24  1  0.539499  0.984219  0.177026  1
  O  O25  1  0.017484  0.463637  0.824320  1
  O  O26  1  0.649932  0.089422  0.362724  1
  O  O27  1  0.905485  0.350412  0.634172  1
  O  O28  1  0.350412  0.905485  0.634172  1
  O  O29  1  0.089422  0.649932  0.362724  1
  O  O30  1  0.984219  0.539499  0.177026  1
  O  O31  1  0.463637  0.017484  0.824320  1
