# generated using pymatgen
data_Rb12Na8Ta(NbP4)3
_symmetry_space_group_name_H-M   'P 1'
_cell_length_a   10.45150295
_cell_length_b   10.45150166
_cell_length_c   15.70391000
_cell_angle_alpha   90.01248685
_cell_angle_beta   90.01247972
_cell_angle_gamma   142.03739073
_symmetry_Int_Tables_number   1
_chemical_formula_structural   Rb12Na8Ta(NbP4)3
_chemical_formula_sum   'Rb12 Na8 Ta1 Nb3 P12'
_cell_volume   1055.22268491
_cell_formula_units_Z   1
loop_
 _symmetry_equiv_pos_site_id
 _symmetry_equiv_pos_as_xyz
  1  'x, y, z'
loop_
 _atom_site_type_symbol
 _atom_site_label
 _atom_site_symmetry_multiplicity
 _atom_site_fract_x
 _atom_site_fract_y
 _atom_site_fract_z
 _atom_site_occupancy
  Rb  Rb0  1  0.941547  0.609363  0.825561  1
  Rb  Rb1  1  0.559367  0.890772  0.325917  1
  Rb  Rb2  1  0.390637  0.058453  0.174439  1
  Rb  Rb3  1  0.059614  0.390626  0.174113  1
  Rb  Rb4  1  0.890379  0.558999  0.325876  1
  Rb  Rb5  1  0.441001  0.109621  0.674124  1
  Rb  Rb6  1  0.609374  0.940386  0.825887  1
  Rb  Rb7  1  0.277484  0.277411  0.313210  1
  Rb  Rb8  1  0.777329  0.777748  0.186810  1
  Rb  Rb9  1  0.222252  0.222671  0.813190  1
  Rb  Rb10  1  0.722589  0.722516  0.686790  1
  Rb  Rb11  1  0.109228  0.440633  0.674083  1
  Na  Na12  1  0.921444  0.078556  0.000000  1
  Na  Na13  1  0.578578  0.421422  0.500000  1
  Na  Na14  1  0.078787  0.921213  0.000000  1
  Na  Na15  1  0.421391  0.578609  0.500000  1
  Na  Na16  1  0.755060  0.244940  0.000000  1
  Na  Na17  1  0.744887  0.255113  0.500000  1
  Na  Na18  1  0.244698  0.755302  0.000000  1
  Na  Na19  1  0.255154  0.744846  0.500000  1
  Ta  Ta20  1  0.581143  0.418857  0.000000  1
  Nb  Nb21  1  0.918549  0.081451  0.500000  1
  Nb  Nb22  1  0.418009  0.581991  0.000000  1
  Nb  Nb23  1  0.081447  0.918553  0.500000  1
  P  P24  1  0.856887  0.552884  0.092175  1
  P  P25  1  0.447116  0.143113  0.907825  1
  P  P26  1  0.641062  0.945846  0.592458  1
  P  P27  1  0.945844  0.641024  0.592456  1
  P  P28  1  0.140634  0.445939  0.907201  1
  P  P29  1  0.554061  0.859366  0.092799  1
  P  P30  1  0.358976  0.054156  0.407544  1
  P  P31  1  0.197621  0.197596  0.586484  1
  P  P32  1  0.697740  0.696450  0.913794  1
  P  P33  1  0.303550  0.302260  0.086206  1
  P  P34  1  0.054154  0.358938  0.407542  1
  P  P35  1  0.802404  0.802379  0.413516  1
