# generated using pymatgen
data_Tm16In4AgRu3
_symmetry_space_group_name_H-M   'P 1'
_cell_length_a   9.56632444
_cell_length_b   9.56645842
_cell_length_c   9.60099075
_cell_angle_alpha   59.76310200
_cell_angle_beta   59.76469206
_cell_angle_gamma   59.72569236
_symmetry_Int_Tables_number   1
_chemical_formula_structural   Tm16In4AgRu3
_chemical_formula_sum   'Tm16 In4 Ag1 Ru3'
_cell_volume   617.78343541
_cell_formula_units_Z   1
loop_
 _symmetry_equiv_pos_site_id
 _symmetry_equiv_pos_as_xyz
  1  'x, y, z'
loop_
 _atom_site_type_symbol
 _atom_site_label
 _atom_site_symmetry_multiplicity
 _atom_site_fract_x
 _atom_site_fract_y
 _atom_site_fract_z
 _atom_site_occupancy
  Tm  Tm0  1  0.060260  0.060262  0.444734  1
  Tm  Tm1  1  0.432285  0.060598  0.446485  1
  Tm  Tm2  1  0.058153  0.439653  0.063280  1
  Tm  Tm3  1  0.052766  0.642374  0.660205  1
  Tm  Tm4  1  0.438847  0.438856  0.063791  1
  Tm  Tm5  1  0.642371  0.052765  0.660208  1
  Tm  Tm6  1  0.203340  0.811351  0.177427  1
  Tm  Tm7  1  0.190518  0.190521  0.811991  1
  Tm  Tm8  1  0.810152  0.810158  0.179473  1
  Tm  Tm9  1  0.439649  0.058156  0.063280  1
  Tm  Tm10  1  0.811349  0.203346  0.177423  1
  Tm  Tm11  1  0.060597  0.432287  0.446486  1
  Tm  Tm12  1  0.810106  0.190835  0.810445  1
  Tm  Tm13  1  0.190828  0.810111  0.810444  1
  Tm  Tm14  1  0.652284  0.652287  0.040648  1
  Tm  Tm15  1  0.643163  0.643166  0.658495  1
  In  In16  1  0.418338  0.418210  0.414538  1
  In  In17  1  0.748058  0.417936  0.415901  1
  In  In18  1  0.417932  0.748065  0.415897  1
  In  In19  1  0.415204  0.415245  0.753140  1
  Ag  Ag20  1  0.858053  0.858056  0.426564  1
  Ru  Ru21  1  0.861313  0.861322  0.853383  1
  Ru  Ru22  1  0.426535  0.857899  0.852887  1
  Ru  Ru23  1  0.857900  0.426540  0.852873  1
