# generated using pymatgen
data_Ho7Er3Ir5Pt
_symmetry_space_group_name_H-M   'P 1'
_cell_length_a   10.88058743
_cell_length_b   10.88064100
_cell_length_c   6.31742900
_cell_angle_alpha   90.00000000
_cell_angle_beta   89.94636552
_cell_angle_gamma   90.00000000
_symmetry_Int_Tables_number   1
_chemical_formula_structural   Ho7Er3Ir5Pt
_chemical_formula_sum   'Ho14 Er6 Ir10 Pt2'
_cell_volume   747.90597678
_cell_formula_units_Z   2
loop_
 _symmetry_equiv_pos_site_id
 _symmetry_equiv_pos_as_xyz
  1  'x, y, z'
loop_
 _atom_site_type_symbol
 _atom_site_label
 _atom_site_symmetry_multiplicity
 _atom_site_fract_x
 _atom_site_fract_y
 _atom_site_fract_z
 _atom_site_occupancy
  Ho  Ho0  1  0.291030  0.088156  0.375693  1
  Ho  Ho1  1  0.291030  0.911844  0.875693  1
  Ho  Ho2  1  0.705742  0.089743  0.874027  1
  Ho  Ho3  1  0.705742  0.910257  0.374027  1
  Ho  Ho4  1  0.584560  0.790746  0.878028  1
  Ho  Ho5  1  0.584560  0.209254  0.378028  1
  Ho  Ho6  1  0.411113  0.791253  0.377110  1
  Ho  Ho7  1  0.411113  0.208747  0.877110  1
  Ho  Ho8  1  0.208981  0.411824  0.622591  1
  Ho  Ho9  1  0.208981  0.588176  0.122591  1
  Ho  Ho10  1  0.790829  0.414594  0.123033  1
  Ho  Ho11  1  0.790829  0.585406  0.623033  1
  Ho  Ho12  1  0.913695  0.707275  0.126651  1
  Ho  Ho13  1  0.913695  0.292725  0.626651  1
  Er  Er14  1  0.091099  0.706936  0.622756  1
  Er  Er15  1  0.091099  0.293064  0.122756  1
  Er  Er16  1  0.002835  0.999604  0.500008  1
  Er  Er17  1  0.002835  0.000396  0.000008  1
  Er  Er18  1  0.499896  0.499563  0.999979  1
  Er  Er19  1  0.499896  0.500437  0.499979  1
  Ir  Ir20  1  0.152440  0.153698  0.750551  1
  Ir  Ir21  1  0.152440  0.846302  0.250551  1
  Ir  Ir22  1  0.654601  0.346110  0.749554  1
  Ir  Ir23  1  0.654601  0.653890  0.249554  1
  Ir  Ir24  1  0.346626  0.346467  0.250153  1
  Ir  Ir25  1  0.346626  0.653533  0.750153  1
  Ir  Ir26  1  0.500695  0.999842  0.123270  1
  Ir  Ir27  1  0.500695  0.000158  0.623270  1
  Ir  Ir28  1  0.999767  0.500130  0.876971  1
  Ir  Ir29  1  0.999767  0.499870  0.376971  1
  Pt  Pt30  1  0.846092  0.153164  0.249623  1
  Pt  Pt31  1  0.846092  0.846836  0.749623  1
