# generated using pymatgen
data_SmDy3(Si5Pt3)2
_symmetry_space_group_name_H-M   'P 1'
_cell_length_a   8.17058767
_cell_length_b   8.17666792
_cell_length_c   8.17666764
_cell_angle_alpha   136.32724827
_cell_angle_beta   104.83733420
_cell_angle_gamma   91.19381698
_symmetry_Int_Tables_number   1
_chemical_formula_structural   SmDy3(Si5Pt3)2
_chemical_formula_sum   'Sm1 Dy3 Si10 Pt6'
_cell_volume   346.83379299
_cell_formula_units_Z   1
loop_
 _symmetry_equiv_pos_site_id
 _symmetry_equiv_pos_as_xyz
  1  'x, y, z'
loop_
 _atom_site_type_symbol
 _atom_site_label
 _atom_site_symmetry_multiplicity
 _atom_site_fract_x
 _atom_site_fract_y
 _atom_site_fract_z
 _atom_site_occupancy
  Sm  Sm0  1  0.899156  0.129509  0.769646  1
  Dy  Dy1  1  0.640824  0.370231  0.270593  1
  Dy  Dy2  1  0.359390  0.629825  0.729565  1
  Dy  Dy3  1  0.099856  0.870266  0.229590  1
  Si  Si4  1  0.272685  0.522389  0.250627  1
  Si  Si5  1  0.727969  0.478126  0.749837  1
  Si  Si6  1  0.727969  0.978133  0.249843  1
  Si  Si7  1  0.272685  0.022058  0.750296  1
  Si  Si8  1  0.460517  0.111712  0.348805  1
  Si  Si9  1  0.538112  0.887057  0.651055  1
  Si  Si10  1  0.763275  0.611784  0.151491  1
  Si  Si11  1  0.237374  0.388992  0.848382  1
  Si  Si12  1  0.000130  0.249650  0.250100  1
  Si  Si13  1  0.000130  0.750030  0.750480  1
  Pt  Pt14  1  0.249981  0.137579  0.112402  1
  Pt  Pt15  1  0.749724  0.861683  0.888041  1
  Pt  Pt16  1  0.026132  0.637460  0.388672  1
  Pt  Pt17  1  0.975260  0.363801  0.611459  1
  Pt  Pt18  1  0.499416  0.250272  0.749973  1
  Pt  Pt19  1  0.499416  0.749443  0.249144  1
