# generated using pymatgen
data_Nb4ZnSn(B2Ru5)2
_symmetry_space_group_name_H-M   'P 1'
_cell_length_a   9.42588700
_cell_length_b   9.42588700
_cell_length_c   3.01857400
_cell_angle_alpha   90.00000000
_cell_angle_beta   90.00000000
_cell_angle_gamma   90.00000000
_symmetry_Int_Tables_number   1
_chemical_formula_structural   Nb4ZnSn(B2Ru5)2
_chemical_formula_sum   'Nb4 Zn1 Sn1 B4 Ru10'
_cell_volume   268.19228781
_cell_formula_units_Z   1
loop_
 _symmetry_equiv_pos_site_id
 _symmetry_equiv_pos_as_xyz
  1  'x, y, z'
loop_
 _atom_site_type_symbol
 _atom_site_label
 _atom_site_symmetry_multiplicity
 _atom_site_fract_x
 _atom_site_fract_y
 _atom_site_fract_z
 _atom_site_occupancy
  Nb  Nb0  1  0.820997  0.673880  0.000000  1
  Nb  Nb1  1  0.179003  0.326120  0.000000  1
  Nb  Nb2  1  0.326120  0.820997  0.000000  1
  Nb  Nb3  1  0.673880  0.179003  0.000000  1
  Zn  Zn4  1  0.500000  0.500000  0.000000  1
  Sn  Sn5  1  0.000000  0.000000  0.000000  1
  B  B6  1  0.618135  0.870638  0.000000  1
  B  B7  1  0.381865  0.129362  0.000000  1
  B  B8  1  0.129362  0.618135  0.000000  1
  B  B9  1  0.870638  0.381865  0.000000  1
  Ru  Ru10  1  0.565882  0.715490  0.500000  1
  Ru  Ru11  1  0.434118  0.284510  0.500000  1
  Ru  Ru12  1  0.073493  0.777493  0.500000  1
  Ru  Ru13  1  0.926507  0.222507  0.500000  1
  Ru  Ru14  1  0.284510  0.565882  0.500000  1
  Ru  Ru15  1  0.715490  0.434118  0.500000  1
  Ru  Ru16  1  0.222507  0.073493  0.500000  1
  Ru  Ru17  1  0.777493  0.926507  0.500000  1
  Ru  Ru18  1  0.500000  0.000000  0.500000  1
  Ru  Ru19  1  0.000000  0.500000  0.500000  1
