# generated using pymatgen
data_Er6Tm2Sc12Si15Ge
_symmetry_space_group_name_H-M   'P 1'
_cell_length_a   7.07105780
_cell_length_b   7.36180582
_cell_length_c   13.93781136
_cell_angle_alpha   89.99205263
_cell_angle_beta   89.88810720
_cell_angle_gamma   90.03415387
_symmetry_Int_Tables_number   1
_chemical_formula_structural   Er6Tm2Sc12Si15Ge
_chemical_formula_sum   'Er6 Tm2 Sc12 Si15 Ge1'
_cell_volume   725.54176580
_cell_formula_units_Z   1
loop_
 _symmetry_equiv_pos_site_id
 _symmetry_equiv_pos_as_xyz
  1  'x, y, z'
loop_
 _atom_site_type_symbol
 _atom_site_label
 _atom_site_symmetry_multiplicity
 _atom_site_fract_x
 _atom_site_fract_y
 _atom_site_fract_z
 _atom_site_occupancy
  Er  Er0  1  0.012312  0.176290  0.096450  1
  Er  Er1  1  0.987920  0.823793  0.903584  1
  Er  Er2  1  0.488289  0.676472  0.903634  1
  Er  Er3  1  0.987408  0.824573  0.596589  1
  Er  Er4  1  0.512002  0.323634  0.096511  1
  Er  Er5  1  0.010849  0.175748  0.402935  1
  Tm  Tm6  1  0.512537  0.322185  0.402589  1
  Tm  Tm7  1  0.490974  0.678080  0.596958  1
  Sc  Sc8  1  0.161037  0.503343  0.751133  1
  Sc  Sc9  1  0.838871  0.496706  0.250060  1
  Sc  Sc10  1  0.339121  0.003257  0.249979  1
  Sc  Sc11  1  0.660951  0.996583  0.750019  1
  Sc  Sc12  1  0.332840  0.174628  0.626040  1
  Sc  Sc13  1  0.668264  0.823560  0.374413  1
  Sc  Sc14  1  0.168070  0.677535  0.374236  1
  Sc  Sc15  1  0.668892  0.822965  0.125212  1
  Sc  Sc16  1  0.829738  0.323155  0.625387  1
  Sc  Sc17  1  0.331132  0.176729  0.874744  1
  Sc  Sc18  1  0.831039  0.323010  0.874760  1
  Sc  Sc19  1  0.168859  0.677038  0.125285  1
  Si  Si20  1  0.033055  0.114455  0.750166  1
  Si  Si21  1  0.966998  0.886300  0.249557  1
  Si  Si22  1  0.466786  0.614133  0.249771  1
  Si  Si23  1  0.532635  0.386315  0.750209  1
  Si  Si24  1  0.285136  0.870584  0.750189  1
  Si  Si25  1  0.714866  0.128796  0.249686  1
  Si  Si26  1  0.214832  0.371108  0.250021  1
  Si  Si27  1  0.785532  0.628927  0.750020  1
  Si  Si28  1  0.835036  0.535745  0.459839  1
  Si  Si29  1  0.340256  0.965242  0.460477  1
  Si  Si30  1  0.840852  0.534633  0.039410  1
  Si  Si31  1  0.659531  0.035104  0.539355  1
  Si  Si32  1  0.159089  0.465353  0.960768  1
  Si  Si33  1  0.659147  0.034736  0.960577  1
  Si  Si34  1  0.340855  0.965263  0.039488  1
  Ge  Ge35  1  0.164291  0.464023  0.539950  1
