# generated using pymatgen
data_YFe4Tc7Os
_symmetry_space_group_name_H-M   'P 1'
_cell_length_a   4.76697749
_cell_length_b   6.71712834
_cell_length_c   6.71713003
_cell_angle_alpha   83.02447491
_cell_angle_beta   69.21651822
_cell_angle_gamma   69.21651771
_symmetry_Int_Tables_number   1
_chemical_formula_structural   YFe4Tc7Os
_chemical_formula_sum   'Y1 Fe4 Tc7 Os1'
_cell_volume   188.00144316
_cell_formula_units_Z   1
loop_
 _symmetry_equiv_pos_site_id
 _symmetry_equiv_pos_as_xyz
  1  'x, y, z'
loop_
 _atom_site_type_symbol
 _atom_site_label
 _atom_site_symmetry_multiplicity
 _atom_site_fract_x
 _atom_site_fract_y
 _atom_site_fract_z
 _atom_site_occupancy
  Y  Y0  1  0.000000  0.999603  0.000397  1
  Fe  Fe1  1  0.999956  0.999308  0.500678  1
  Fe  Fe2  1  0.500059  0.999308  0.500678  1
  Fe  Fe3  1  0.499941  0.499322  0.000692  1
  Fe  Fe4  1  0.000044  0.499322  0.000692  1
  Tc  Tc5  1  0.000000  0.361017  0.638983  1
  Tc  Tc6  1  0.000000  0.641331  0.358669  1
  Tc  Tc7  1  0.644107  0.356075  0.355712  1
  Tc  Tc8  1  0.355893  0.644288  0.643925  1
  Tc  Tc9  1  0.710111  0.789080  0.790698  1
  Tc  Tc10  1  0.289889  0.209302  0.210920  1
  Tc  Tc11  1  0.500000  0.221829  0.778171  1
  Os  Os12  1  0.500000  0.780212  0.219788  1
