# generated using pymatgen
data_Ho12Mn2AlIn2
_symmetry_space_group_name_H-M   'P 1'
_cell_length_a   8.39297082
_cell_length_b   8.39297156
_cell_length_c   8.39297145
_cell_angle_alpha   109.82881457
_cell_angle_beta   109.82881534
_cell_angle_gamma   108.75837470
_symmetry_Int_Tables_number   1
_chemical_formula_structural   Ho12Mn2AlIn2
_chemical_formula_sum   'Ho12 Mn2 Al1 In2'
_cell_volume   455.06661503
_cell_formula_units_Z   1
loop_
 _symmetry_equiv_pos_site_id
 _symmetry_equiv_pos_as_xyz
  1  'x, y, z'
loop_
 _atom_site_type_symbol
 _atom_site_label
 _atom_site_symmetry_multiplicity
 _atom_site_fract_x
 _atom_site_fract_y
 _atom_site_fract_z
 _atom_site_occupancy
  Ho  Ho0  1  0.449331  0.204983  0.244348  1
  Ho  Ho1  1  0.550669  0.795017  0.755652  1
  Ho  Ho2  1  0.960634  0.204983  0.755652  1
  Ho  Ho3  1  0.204983  0.960634  0.755652  1
  Ho  Ho4  1  0.039366  0.795017  0.244348  1
  Ho  Ho5  1  0.795017  0.039366  0.244348  1
  Ho  Ho6  1  0.204983  0.449331  0.244348  1
  Ho  Ho7  1  0.795017  0.550669  0.755652  1
  Ho  Ho8  1  0.303787  0.303787  0.607576  1
  Ho  Ho9  1  0.696213  0.696213  0.392424  1
  Ho  Ho10  1  0.303787  0.696213  0.000000  1
  Ho  Ho11  1  0.696213  0.303787  0.000000  1
  Mn  Mn12  1  0.392819  0.392819  0.000000  1
  Mn  Mn13  1  0.607181  0.607181  0.000000  1
  Al  Al14  1  0.000000  0.000000  0.000000  1
  In  In15  1  0.500000  0.000000  0.500000  1
  In  In16  1  0.000000  0.500000  0.500000  1
