# generated using pymatgen
data_Tb3HoAl10(Ga4Ir3)2
_symmetry_space_group_name_H-M   'P 1'
_cell_length_a   7.54466695
_cell_length_b   7.54420194
_cell_length_c   9.56792902
_cell_angle_alpha   90.10532792
_cell_angle_beta   89.84940973
_cell_angle_gamma   119.67237570
_symmetry_Int_Tables_number   1
_chemical_formula_structural   Tb3HoAl10(Ga4Ir3)2
_chemical_formula_sum   'Tb3 Ho1 Al10 Ga8 Ir6'
_cell_volume   473.17815650
_cell_formula_units_Z   1
loop_
 _symmetry_equiv_pos_site_id
 _symmetry_equiv_pos_as_xyz
  1  'x, y, z'
loop_
 _atom_site_type_symbol
 _atom_site_label
 _atom_site_symmetry_multiplicity
 _atom_site_fract_x
 _atom_site_fract_y
 _atom_site_fract_z
 _atom_site_occupancy
  Tb  Tb0  1  0.996496  0.666833  0.245678  1
  Tb  Tb1  1  0.003512  0.333157  0.754330  1
  Tb  Tb2  1  0.672389  0.998707  0.249156  1
  Ho  Ho3  1  0.327636  0.001294  0.750804  1
  Al  Al4  1  0.997601  0.665483  0.570895  1
  Al  Al5  1  0.334403  0.000832  0.427785  1
  Al  Al6  1  0.002592  0.334721  0.429231  1
  Al  Al7  1  0.665379  0.999151  0.572504  1
  Al  Al8  1  0.663869  0.996867  0.926618  1
  Al  Al9  1  0.335901  0.003112  0.073092  1
  Al  Al10  1  0.333700  0.333485  0.556302  1
  Al  Al11  1  0.666299  0.666326  0.443819  1
  Al  Al12  1  0.666642  0.666077  0.054541  1
  Al  Al13  1  0.333354  0.333731  0.945346  1
  Ga  Ga14  1  0.130117  0.126574  0.250619  1
  Ga  Ga15  1  0.870123  0.873537  0.749384  1
  Ga  Ga16  1  0.999990  0.333491  0.079804  1
  Ga  Ga17  1  0.000263  0.666774  0.920075  1
  Ga  Ga18  1  0.340989  0.548559  0.250880  1
  Ga  Ga19  1  0.658834  0.451182  0.749123  1
  Ga  Ga20  1  0.546095  0.339287  0.249999  1
  Ga  Ga21  1  0.453807  0.660822  0.750009  1
  Ir  Ir22  1  0.667134  0.325862  0.999101  1
  Ir  Ir23  1  0.332730  0.674090  0.000718  1
  Ir  Ir24  1  0.328058  0.671807  0.500928  1
  Ir  Ir25  1  0.671824  0.328194  0.499262  1
  Ir  Ir26  1  0.000133  0.000024  0.999902  1
  Ir  Ir27  1  0.000129  0.000021  0.500095  1
