# generated using pymatgen
data_LaY2WO7
_symmetry_space_group_name_H-M   'P 1'
_cell_length_a   6.54727795
_cell_length_b   6.54727492
_cell_length_c   7.64855800
_cell_angle_alpha   90.00000000
_cell_angle_beta   90.00000000
_cell_angle_gamma   108.98901122
_symmetry_Int_Tables_number   1
_chemical_formula_structural   LaY2WO7
_chemical_formula_sum   'La2 Y4 W2 O14'
_cell_volume   310.02709941
_cell_formula_units_Z   2
loop_
 _symmetry_equiv_pos_site_id
 _symmetry_equiv_pos_as_xyz
  1  'x, y, z'
loop_
 _atom_site_type_symbol
 _atom_site_label
 _atom_site_symmetry_multiplicity
 _atom_site_fract_x
 _atom_site_fract_y
 _atom_site_fract_z
 _atom_site_occupancy
  La  La0  1  0.501838  0.501838  0.250000  1
  La  La1  1  0.498162  0.498162  0.750000  1
  Y  Y2  1  0.998132  0.467383  0.499038  1
  Y  Y3  1  0.532617  0.001868  0.500962  1
  Y  Y4  1  0.001868  0.532617  0.999038  1
  Y  Y5  1  0.467383  0.998132  0.000962  1
  W  W6  1  0.999809  0.999809  0.250000  1
  W  W7  1  0.000191  0.000191  0.750000  1
  O  O8  1  0.068465  0.318545  0.219634  1
  O  O9  1  0.681455  0.931534  0.780366  1
  O  O10  1  0.931535  0.681455  0.719634  1
  O  O11  1  0.318545  0.068466  0.280366  1
  O  O12  1  0.679925  0.929360  0.221408  1
  O  O13  1  0.070639  0.320075  0.778592  1
  O  O14  1  0.320075  0.070640  0.721408  1
  O  O15  1  0.929361  0.679925  0.278592  1
  O  O16  1  0.361333  0.638666  0.500000  1
  O  O17  1  0.638667  0.361334  0.000000  1
  O  O18  1  0.357762  0.642238  0.000000  1
  O  O19  1  0.642238  0.357762  0.500000  1
  O  O20  1  0.929268  0.070732  0.500000  1
  O  O21  1  0.070732  0.929268  0.000000  1
