# generated using pymatgen
data_Nb3Cr(AsO4)6
_symmetry_space_group_name_H-M   'P 1'
_cell_length_a   9.36887666
_cell_length_b   9.36887585
_cell_length_c   9.36887557
_cell_angle_alpha   57.01136834
_cell_angle_beta   57.01137185
_cell_angle_gamma   57.01136948
_symmetry_Int_Tables_number   1
_chemical_formula_structural   Nb3Cr(AsO4)6
_chemical_formula_sum   'Nb3 Cr1 As6 O24'
_cell_volume   541.42774528
_cell_formula_units_Z   1
loop_
 _symmetry_equiv_pos_site_id
 _symmetry_equiv_pos_as_xyz
  1  'x, y, z'
loop_
 _atom_site_type_symbol
 _atom_site_label
 _atom_site_symmetry_multiplicity
 _atom_site_fract_x
 _atom_site_fract_y
 _atom_site_fract_z
 _atom_site_occupancy
  Nb  Nb0  1  0.856472  0.856472  0.856472  1
  Nb  Nb1  1  0.641647  0.641647  0.641647  1
  Nb  Nb2  1  0.362109  0.362109  0.362109  1
  Cr  Cr3  1  0.145787  0.145787  0.145787  1
  As  As4  1  0.255394  0.513725  0.972273  1
  As  As5  1  0.972273  0.255394  0.513725  1
  As  As6  1  0.513725  0.972273  0.255394  1
  As  As7  1  0.460418  0.030442  0.765190  1
  As  As8  1  0.030442  0.765190  0.460418  1
  As  As9  1  0.765190  0.460418  0.030442  1
  O  O10  1  0.701730  0.501495  0.866806  1
  O  O11  1  0.501495  0.866806  0.701730  1
  O  O12  1  0.048554  0.688088  0.966636  1
  O  O13  1  0.866806  0.701730  0.501495  1
  O  O14  1  0.412990  0.592355  0.770212  1
  O  O15  1  0.288122  0.312939  0.982531  1
  O  O16  1  0.966636  0.048554  0.688088  1
  O  O17  1  0.770212  0.412990  0.592355  1
  O  O18  1  0.592355  0.770212  0.412990  1
  O  O19  1  0.666513  0.010487  0.739815  1
  O  O20  1  0.303116  0.005385  0.974904  1
  O  O21  1  0.010487  0.739815  0.666513  1
  O  O22  1  0.982531  0.288122  0.312939  1
  O  O23  1  0.688088  0.966636  0.048554  1
  O  O24  1  0.312939  0.982531  0.288122  1
  O  O25  1  0.401311  0.234300  0.595668  1
  O  O26  1  0.234300  0.595668  0.401311  1
  O  O27  1  0.005385  0.974904  0.303116  1
  O  O28  1  0.739815  0.666513  0.010487  1
  O  O29  1  0.595668  0.401311  0.234300  1
  O  O30  1  0.141979  0.288266  0.502341  1
  O  O31  1  0.974904  0.303116  0.005385  1
  O  O32  1  0.502341  0.141979  0.288266  1
  O  O33  1  0.288266  0.502341  0.141979  1
