# generated using pymatgen
data_Dy3MnGaCo9B4
_symmetry_space_group_name_H-M   'P 1'
_cell_length_a   5.10089300
_cell_length_b   5.10089332
_cell_length_c   9.63131500
_cell_angle_alpha   90.00000000
_cell_angle_beta   90.00000000
_cell_angle_gamma   120.00000441
_symmetry_Int_Tables_number   1
_chemical_formula_structural   Dy3MnGaCo9B4
_chemical_formula_sum   'Dy3 Mn1 Ga1 Co9 B4'
_cell_volume   217.02444472
_cell_formula_units_Z   1
loop_
 _symmetry_equiv_pos_site_id
 _symmetry_equiv_pos_as_xyz
  1  'x, y, z'
loop_
 _atom_site_type_symbol
 _atom_site_label
 _atom_site_symmetry_multiplicity
 _atom_site_fract_x
 _atom_site_fract_y
 _atom_site_fract_z
 _atom_site_occupancy
  Dy  Dy0  1  0.000000  0.000000  0.659276  1
  Dy  Dy1  1  0.000000  0.000000  0.340724  1
  Dy  Dy2  1  0.000000  0.000000  0.000000  1
  Mn  Mn3  1  0.333333  0.666667  0.000000  1
  Ga  Ga4  1  0.666667  0.333333  0.000000  1
  Co  Co5  1  0.499814  0.500186  0.500000  1
  Co  Co6  1  0.000372  0.500186  0.500000  1
  Co  Co7  1  0.499370  0.998739  0.206924  1
  Co  Co8  1  0.499370  0.500630  0.206924  1
  Co  Co9  1  0.001261  0.500630  0.206924  1
  Co  Co10  1  0.499370  0.998739  0.793076  1
  Co  Co11  1  0.499370  0.500630  0.793076  1
  Co  Co12  1  0.001261  0.500630  0.793076  1
  Co  Co13  1  0.499814  0.999628  0.500000  1
  B  B14  1  0.333333  0.666667  0.650206  1
  B  B15  1  0.666667  0.333333  0.649865  1
  B  B16  1  0.666667  0.333333  0.350135  1
  B  B17  1  0.333333  0.666667  0.349794  1
