# generated using pymatgen
data_Dy8NbSi16Mo11
_symmetry_space_group_name_H-M   'P 1'
_cell_length_a   6.78546701
_cell_length_b   6.96193275
_cell_length_c   12.96301100
_cell_angle_alpha   90.00000000
_cell_angle_beta   90.00000000
_cell_angle_gamma   90.12440049
_symmetry_Int_Tables_number   1
_chemical_formula_structural   Dy8NbSi16Mo11
_chemical_formula_sum   'Dy8 Nb1 Si16 Mo11'
_cell_volume   612.37074265
_cell_formula_units_Z   1
loop_
 _symmetry_equiv_pos_site_id
 _symmetry_equiv_pos_as_xyz
  1  'x, y, z'
loop_
 _atom_site_type_symbol
 _atom_site_label
 _atom_site_symmetry_multiplicity
 _atom_site_fract_x
 _atom_site_fract_y
 _atom_site_fract_z
 _atom_site_occupancy
  Dy  Dy0  1  0.498202  0.332114  0.093936  1
  Dy  Dy1  1  0.995776  0.168546  0.406107  1
  Dy  Dy2  1  0.504098  0.667199  0.594417  1
  Dy  Dy3  1  0.004255  0.833523  0.905933  1
  Dy  Dy4  1  0.504098  0.667199  0.905583  1
  Dy  Dy5  1  0.004255  0.833523  0.594067  1
  Dy  Dy6  1  0.498202  0.332114  0.406064  1
  Dy  Dy7  1  0.995776  0.168546  0.093893  1
  Nb  Nb8  1  0.836374  0.504828  0.250000  1
  Si  Si9  1  0.805879  0.630032  0.750000  1
  Si  Si10  1  0.304547  0.870670  0.750000  1
  Si  Si11  1  0.201549  0.367899  0.250000  1
  Si  Si12  1  0.695015  0.125115  0.250000  1
  Si  Si13  1  0.534622  0.365574  0.750000  1
  Si  Si14  1  0.036672  0.135417  0.750000  1
  Si  Si15  1  0.459475  0.635068  0.250000  1
  Si  Si16  1  0.965568  0.871873  0.250000  1
  Si  Si17  1  0.659223  0.042387  0.547532  1
  Si  Si18  1  0.159888  0.456475  0.952573  1
  Si  Si19  1  0.339294  0.956927  0.047345  1
  Si  Si20  1  0.839430  0.543320  0.456708  1
  Si  Si21  1  0.339294  0.956927  0.452655  1
  Si  Si22  1  0.839430  0.543320  0.043292  1
  Si  Si23  1  0.659223  0.042387  0.952468  1
  Si  Si24  1  0.159888  0.456475  0.547427  1
  Mo  Mo25  1  0.667435  0.998562  0.750000  1
  Mo  Mo26  1  0.166134  0.500820  0.750000  1
  Mo  Mo27  1  0.332060  0.999595  0.250000  1
  Mo  Mo28  1  0.830235  0.336614  0.626502  1
  Mo  Mo29  1  0.331759  0.163876  0.874494  1
  Mo  Mo30  1  0.167638  0.662626  0.124713  1
  Mo  Mo31  1  0.667536  0.833669  0.375398  1
  Mo  Mo32  1  0.167638  0.662626  0.375287  1
  Mo  Mo33  1  0.667536  0.833669  0.124602  1
  Mo  Mo34  1  0.830235  0.336614  0.873498  1
  Mo  Mo35  1  0.331759  0.163876  0.625506  1
