# generated using pymatgen
data_Na4Li4Zr3Si24MoO60
_symmetry_space_group_name_H-M   'P 1'
_cell_length_a   11.40345300
_cell_length_b   11.40345352
_cell_length_c   10.30604400
_cell_angle_alpha   90.00000000
_cell_angle_beta   90.00000000
_cell_angle_gamma   100.61971793
_symmetry_Int_Tables_number   1
_chemical_formula_structural   Na4Li4Zr3Si24MoO60
_chemical_formula_sum   'Na4 Li4 Zr3 Si24 Mo1 O60'
_cell_volume   1317.23033146
_cell_formula_units_Z   1
loop_
 _symmetry_equiv_pos_site_id
 _symmetry_equiv_pos_as_xyz
  1  'x, y, z'
loop_
 _atom_site_type_symbol
 _atom_site_label
 _atom_site_symmetry_multiplicity
 _atom_site_fract_x
 _atom_site_fract_y
 _atom_site_fract_z
 _atom_site_occupancy
  Na  Na0  1  0.534245  0.965755  0.750000  1
  Na  Na1  1  0.965654  0.534346  0.250000  1
  Na  Na2  1  0.465694  0.034306  0.250000  1
  Na  Na3  1  0.032952  0.467048  0.750000  1
  Li  Li4  1  0.753725  0.752127  0.998993  1
  Li  Li5  1  0.253027  0.253081  0.500095  1
  Li  Li6  1  0.246919  0.246973  0.999905  1
  Li  Li7  1  0.747873  0.746275  0.501007  1
  Zr  Zr8  1  0.661802  0.838198  0.250000  1
  Zr  Zr9  1  0.161695  0.338305  0.250000  1
  Zr  Zr10  1  0.338369  0.161631  0.750000  1
  Si  Si11  1  0.235906  0.979129  0.482135  1
  Si  Si12  1  0.800201  0.418296  0.542862  1
  Si  Si13  1  0.081704  0.699799  0.957138  1
  Si  Si14  1  0.416060  0.800349  0.459559  1
  Si  Si15  1  0.183085  0.035989  0.188974  1
  Si  Si16  1  0.317525  0.463905  0.688777  1
  Si  Si17  1  0.036095  0.182475  0.811223  1
  Si  Si18  1  0.464011  0.316915  0.311026  1
  Si  Si19  1  0.817312  0.962005  0.809973  1
  Si  Si20  1  0.683352  0.536500  0.309938  1
  Si  Si21  1  0.963500  0.816648  0.190062  1
  Si  Si22  1  0.537995  0.682688  0.690027  1
  Si  Si23  1  0.699651  0.083940  0.040441  1
  Si  Si24  1  0.262919  0.520758  0.981085  1
  Si  Si25  1  0.585165  0.200054  0.541323  1
  Si  Si26  1  0.520871  0.264094  0.017865  1
  Si  Si27  1  0.763946  0.020371  0.517887  1
  Si  Si28  1  0.737101  0.480231  0.015772  1
  Si  Si29  1  0.019769  0.762899  0.484228  1
  Si  Si30  1  0.479629  0.736054  0.982113  1
  Si  Si31  1  0.299946  0.914835  0.958677  1
  Si  Si32  1  0.199671  0.584507  0.459031  1
  Si  Si33  1  0.915493  0.300329  0.040969  1
  Si  Si34  1  0.979242  0.237081  0.518915  1
  Mo  Mo35  1  0.836829  0.663171  0.750000  1
  O  O36  1  0.752145  0.593730  0.919442  1
  O  O37  1  0.321526  0.678794  0.426138  1
  O  O38  1  0.177905  0.820880  0.925153  1
  O  O39  1  0.679120  0.322095  0.574847  1
  O  O40  1  0.943774  0.055236  0.816986  1
  O  O41  1  0.556725  0.443693  0.316747  1
  O  O42  1  0.056307  0.943275  0.183253  1
  O  O43  1  0.444764  0.556226  0.683014  1
  O  O44  1  0.892666  0.107867  0.498204  1
  O  O45  1  0.607606  0.393285  0.997481  1
  O  O46  1  0.106715  0.892394  0.502519  1
  O  O47  1  0.392133  0.607334  0.001796  1
  O  O48  1  0.345686  0.995885  0.833797  1
  O  O49  1  0.154143  0.503995  0.333760  1
  O  O50  1  0.996005  0.345857  0.166240  1
  O  O51  1  0.504115  0.154314  0.666203  1
  O  O52  1  0.653968  0.003608  0.165768  1
  O  O53  1  0.843460  0.498941  0.669268  1
  O  O54  1  0.001059  0.656540  0.830732  1
  O  O55  1  0.496392  0.846032  0.334232  1
  O  O56  1  0.278599  0.996865  0.084794  1
  O  O57  1  0.221708  0.502791  0.584863  1
  O  O58  1  0.997209  0.278292  0.915137  1
  O  O59  1  0.832469  0.826259  0.839382  1
  O  O60  1  0.722082  0.000587  0.915476  1
  O  O61  1  0.779288  0.497864  0.414326  1
  O  O62  1  0.002136  0.720712  0.085674  1
  O  O63  1  0.499413  0.777918  0.584524  1
  O  O64  1  0.169073  0.171467  0.159493  1
  O  O65  1  0.331368  0.328396  0.659402  1
  O  O66  1  0.171604  0.168632  0.840598  1
  O  O67  1  0.328533  0.330927  0.340507  1
  O  O68  1  0.405445  0.844187  0.006450  1
  O  O69  1  0.094241  0.654882  0.507162  1
  O  O70  1  0.845118  0.405759  0.992838  1
  O  O71  1  0.655813  0.094555  0.493550  1
  O  O72  1  0.594797  0.155547  0.992748  1
  O  O73  1  0.906078  0.346688  0.497382  1
  O  O74  1  0.153312  0.593922  0.002618  1
  O  O75  1  0.344453  0.905203  0.507252  1
  O  O76  1  0.593867  0.751516  0.076781  1
  O  O77  1  0.906270  0.747855  0.580558  1
  O  O78  1  0.821206  0.178474  0.073862  1
  O  O79  1  0.748484  0.906133  0.423219  1
  O  O80  1  0.406529  0.248309  0.923153  1
  O  O81  1  0.092990  0.252483  0.423268  1
  O  O82  1  0.247517  0.407010  0.076732  1
  O  O83  1  0.251691  0.093471  0.576847  1
  O  O84  1  0.525615  0.749883  0.829716  1
  O  O85  1  0.973638  0.750625  0.331389  1
  O  O86  1  0.749375  0.526362  0.168611  1
  O  O87  1  0.750117  0.974385  0.670284  1
  O  O88  1  0.475525  0.250499  0.170495  1
  O  O89  1  0.024762  0.249229  0.671166  1
  O  O90  1  0.250771  0.475238  0.828834  1
  O  O91  1  0.249501  0.024475  0.329505  1
  O  O92  1  0.673741  0.667531  0.660618  1
  O  O93  1  0.828333  0.830951  0.159530  1
  O  O94  1  0.669049  0.671667  0.340470  1
  O  O95  1  0.503135  0.221401  0.415206  1
