# generated using pymatgen
data_CsCdMoF7
_symmetry_space_group_name_H-M   'P 1'
_cell_length_a   6.68334612
_cell_length_b   6.68334656
_cell_length_c   8.69709100
_cell_angle_alpha   90.00000000
_cell_angle_beta   90.00000000
_cell_angle_gamma   118.12425010
_symmetry_Int_Tables_number   1
_chemical_formula_structural   CsCdMoF7
_chemical_formula_sum   'Cs2 Cd2 Mo2 F14'
_cell_volume   342.60587156
_cell_formula_units_Z   2
loop_
 _symmetry_equiv_pos_site_id
 _symmetry_equiv_pos_as_xyz
  1  'x, y, z'
loop_
 _atom_site_type_symbol
 _atom_site_label
 _atom_site_symmetry_multiplicity
 _atom_site_fract_x
 _atom_site_fract_y
 _atom_site_fract_z
 _atom_site_occupancy
  Cs  Cs0  1  0.500000  0.500000  0.500000  1
  Cs  Cs1  1  0.500000  0.500000  0.000000  1
  Cd  Cd2  1  0.811347  0.188653  0.750000  1
  Cd  Cd3  1  0.188653  0.811347  0.250000  1
  Mo  Mo4  1  0.807120  0.192880  0.250000  1
  Mo  Mo5  1  0.192880  0.807120  0.750000  1
  F  F6  1  0.801913  0.198087  0.012596  1
  F  F7  1  0.144339  0.434096  0.250000  1
  F  F8  1  0.565904  0.855661  0.250000  1
  F  F9  1  0.516711  0.831781  0.750000  1
  F  F10  1  0.168219  0.483289  0.750000  1
  F  F11  1  0.801913  0.198087  0.487404  1
  F  F12  1  0.434096  0.144339  0.750000  1
  F  F13  1  0.831781  0.516711  0.250000  1
  F  F14  1  0.483289  0.168219  0.250000  1
  F  F15  1  0.984514  0.015486  0.250000  1
  F  F16  1  0.198087  0.801913  0.512596  1
  F  F17  1  0.198087  0.801913  0.987404  1
  F  F18  1  0.015486  0.984514  0.750000  1
  F  F19  1  0.855661  0.565904  0.750000  1
