# generated using pymatgen
data_ZnFe3(IrO3)8
_symmetry_space_group_name_H-M   'P 1'
_cell_length_a   4.57013257
_cell_length_b   9.14383513
_cell_length_c   9.44731800
_cell_angle_alpha   90.00000000
_cell_angle_beta   90.00000000
_cell_angle_gamma   89.83795316
_symmetry_Int_Tables_number   1
_chemical_formula_structural   ZnFe3(IrO3)8
_chemical_formula_sum   'Zn1 Fe3 Ir8 O24'
_cell_volume   394.78803580
_cell_formula_units_Z   1
loop_
 _symmetry_equiv_pos_site_id
 _symmetry_equiv_pos_as_xyz
  1  'x, y, z'
loop_
 _atom_site_type_symbol
 _atom_site_label
 _atom_site_symmetry_multiplicity
 _atom_site_fract_x
 _atom_site_fract_y
 _atom_site_fract_z
 _atom_site_occupancy
  Zn  Zn0  1  0.000000  0.500000  0.000000  1
  Fe  Fe1  1  0.499719  0.750149  0.500000  1
  Fe  Fe2  1  0.000000  0.000000  0.000000  1
  Fe  Fe3  1  0.500281  0.249851  0.500000  1
  Ir  Ir4  1  0.000000  0.000000  0.331752  1
  Ir  Ir5  1  0.000000  0.500000  0.331862  1
  Ir  Ir6  1  0.497545  0.250598  0.831429  1
  Ir  Ir7  1  0.502455  0.749402  0.831429  1
  Ir  Ir8  1  0.497545  0.250598  0.168571  1
  Ir  Ir9  1  0.502455  0.749402  0.168571  1
  Ir  Ir10  1  0.000000  0.000000  0.668248  1
  Ir  Ir11  1  0.000000  0.500000  0.668138  1
  O  O12  1  0.309145  0.155565  0.000000  1
  O  O13  1  0.316503  0.657645  0.000000  1
  O  O14  1  0.189853  0.404769  0.500000  1
  O  O15  1  0.189399  0.905630  0.500000  1
  O  O16  1  0.810601  0.094370  0.500000  1
  O  O17  1  0.810147  0.595231  0.500000  1
  O  O18  1  0.683497  0.342355  0.000000  1
  O  O19  1  0.690855  0.844435  0.000000  1
  O  O20  1  0.304282  0.151159  0.333376  1
  O  O21  1  0.303174  0.652585  0.333560  1
  O  O22  1  0.197640  0.400862  0.828522  1
  O  O23  1  0.196915  0.901848  0.833127  1
  O  O24  1  0.803085  0.098152  0.833127  1
  O  O25  1  0.802360  0.599138  0.828522  1
  O  O26  1  0.803085  0.098152  0.166873  1
  O  O27  1  0.802360  0.599138  0.171478  1
  O  O28  1  0.197640  0.400862  0.171478  1
  O  O29  1  0.196915  0.901848  0.166873  1
  O  O30  1  0.696826  0.347415  0.333560  1
  O  O31  1  0.695718  0.848841  0.333376  1
  O  O32  1  0.304282  0.151159  0.666624  1
  O  O33  1  0.303174  0.652585  0.666440  1
  O  O34  1  0.696826  0.347415  0.666440  1
  O  O35  1  0.695718  0.848841  0.666624  1
