# generated using pymatgen
data_Pr2ThIn3Pt2Rh
_symmetry_space_group_name_H-M   'P 1'
_cell_length_a   7.81550938
_cell_length_b   7.83141381
_cell_length_c   4.00519300
_cell_angle_alpha   90.00000000
_cell_angle_beta   90.00000000
_cell_angle_gamma   120.06732904
_symmetry_Int_Tables_number   1
_chemical_formula_structural   Pr2ThIn3Pt2Rh
_chemical_formula_sum   'Pr2 Th1 In3 Pt2 Rh1'
_cell_volume   212.15657375
_cell_formula_units_Z   1
loop_
 _symmetry_equiv_pos_site_id
 _symmetry_equiv_pos_as_xyz
  1  'x, y, z'
loop_
 _atom_site_type_symbol
 _atom_site_label
 _atom_site_symmetry_multiplicity
 _atom_site_fract_x
 _atom_site_fract_y
 _atom_site_fract_z
 _atom_site_occupancy
  Pr  Pr0  1  0.408676  0.411333  0.500000  1
  Pr  Pr1  1  0.591324  0.002657  0.500000  1
  Th  Th2  1  0.000000  0.591503  0.500000  1
  In  In3  1  0.742672  0.750318  0.000000  1
  In  In4  1  0.000000  0.241268  0.000000  1
  In  In5  1  0.257328  0.007647  0.000000  1
  Pt  Pt6  1  0.314351  0.662780  0.000000  1
  Pt  Pt7  1  0.685649  0.348428  0.000000  1
  Rh  Rh8  1  0.000000  0.984067  0.500000  1
