# generated using pymatgen
data_NdSc2U(ReB6)2
_symmetry_space_group_name_H-M   'P 1'
_cell_length_a   3.62890300
_cell_length_b   9.02343910
_cell_length_c   11.42565873
_cell_angle_alpha   89.79777004
_cell_angle_beta   90.00000000
_cell_angle_gamma   90.00000000
_symmetry_Int_Tables_number   1
_chemical_formula_structural   NdSc2U(ReB6)2
_chemical_formula_sum   'Nd2 Sc4 U2 Re4 B24'
_cell_volume   374.13298095
_cell_formula_units_Z   2
loop_
 _symmetry_equiv_pos_site_id
 _symmetry_equiv_pos_as_xyz
  1  'x, y, z'
loop_
 _atom_site_type_symbol
 _atom_site_label
 _atom_site_symmetry_multiplicity
 _atom_site_fract_x
 _atom_site_fract_y
 _atom_site_fract_z
 _atom_site_occupancy
  Nd  Nd0  1  0.000000  0.321354  0.414103  1
  Nd  Nd1  1  0.000000  0.678646  0.585897  1
  Sc  Sc2  1  0.000000  0.944841  0.372309  1
  Sc  Sc3  1  0.000000  0.055159  0.627691  1
  Sc  Sc4  1  0.000000  0.446001  0.125651  1
  Sc  Sc5  1  0.000000  0.553999  0.874349  1
  U  U6  1  0.000000  0.821424  0.085226  1
  U  U7  1  0.000000  0.178576  0.914774  1
  Re  Re8  1  0.000000  0.645275  0.312358  1
  Re  Re9  1  0.000000  0.354725  0.687642  1
  Re  Re10  1  0.000000  0.136548  0.175548  1
  Re  Re11  1  0.000000  0.863452  0.824452  1
  B  B12  1  0.500000  0.556446  0.428920  1
  B  B13  1  0.500000  0.443554  0.571080  1
  B  B14  1  0.500000  0.053808  0.065457  1
  B  B15  1  0.500000  0.946192  0.934543  1
  B  B16  1  0.500000  0.754547  0.415530  1
  B  B17  1  0.500000  0.245453  0.584470  1
  B  B18  1  0.500000  0.252600  0.079346  1
  B  B19  1  0.500000  0.747400  0.920654  1
  B  B20  1  0.500000  0.795932  0.262244  1
  B  B21  1  0.500000  0.204068  0.737756  1
  B  B22  1  0.500000  0.293427  0.231969  1
  B  B23  1  0.500000  0.706573  0.768031  1
  B  B24  1  0.500000  0.631875  0.180453  1
  B  B25  1  0.500000  0.368125  0.819547  1
  B  B26  1  0.500000  0.127572  0.314505  1
  B  B27  1  0.500000  0.872428  0.685495  1
  B  B28  1  0.500000  0.981032  0.212285  1
  B  B29  1  0.500000  0.018968  0.787715  1
  B  B30  1  0.500000  0.483087  0.282725  1
  B  B31  1  0.500000  0.516913  0.717275  1
  B  B32  1  0.500000  0.601790  0.027085  1
  B  B33  1  0.500000  0.398210  0.972915  1
  B  B34  1  0.500000  0.095352  0.473762  1
  B  B35  1  0.500000  0.904648  0.526238  1
