# generated using pymatgen
data_Ta(BiO2)7
_symmetry_space_group_name_H-M   'P 1'
_cell_length_a   6.74064781
_cell_length_b   6.93265401
_cell_length_c   7.81080916
_cell_angle_alpha   73.42369279
_cell_angle_beta   89.56275614
_cell_angle_gamma   78.15780987
_symmetry_Int_Tables_number   1
_chemical_formula_structural   Ta(BiO2)7
_chemical_formula_sum   'Ta1 Bi7 O14'
_cell_volume   341.88389356
_cell_formula_units_Z   1
loop_
 _symmetry_equiv_pos_site_id
 _symmetry_equiv_pos_as_xyz
  1  'x, y, z'
loop_
 _atom_site_type_symbol
 _atom_site_label
 _atom_site_symmetry_multiplicity
 _atom_site_fract_x
 _atom_site_fract_y
 _atom_site_fract_z
 _atom_site_occupancy
  Ta  Ta0  1  0.000000  0.000000  0.000000  1
  Bi  Bi1  1  0.740204  0.515191  0.115332  1
  Bi  Bi2  1  0.477993  0.005301  0.249819  1
  Bi  Bi3  1  0.269731  0.506037  0.383220  1
  Bi  Bi4  1  0.000000  0.000000  0.500000  1
  Bi  Bi5  1  0.730269  0.493963  0.616779  1
  Bi  Bi6  1  0.522007  0.994698  0.750182  1
  Bi  Bi7  1  0.259796  0.484810  0.884668  1
  O  O8  1  0.087225  0.699846  0.018889  1
  O  O9  1  0.724509  0.950252  0.062395  1
  O  O10  1  0.469090  0.370790  0.181125  1
  O  O11  1  0.102249  0.921884  0.259913  1
  O  O12  1  0.530249  0.655691  0.364146  1
  O  O13  1  0.892632  0.327120  0.381111  1
  O  O14  1  0.711475  0.921591  0.482463  1
  O  O15  1  0.288526  0.078410  0.517536  1
  O  O16  1  0.107367  0.672879  0.618889  1
  O  O17  1  0.469750  0.344309  0.635855  1
  O  O18  1  0.897751  0.078115  0.740086  1
  O  O19  1  0.530911  0.629209  0.818876  1
  O  O20  1  0.275492  0.049748  0.937606  1
  O  O21  1  0.912774  0.300153  0.981111  1
