# generated using pymatgen
data_Ho7ErLu2(SiB4)4
_symmetry_space_group_name_H-M   'P 1'
_cell_length_a   7.18635200
_cell_length_b   7.18626300
_cell_length_c   7.99212400
_cell_angle_alpha   90.00092126
_cell_angle_beta   90.00166079
_cell_angle_gamma   89.99842136
_symmetry_Int_Tables_number   1
_chemical_formula_structural   Ho7ErLu2(SiB4)4
_chemical_formula_sum   'Ho7 Er1 Lu2 Si4 B16'
_cell_volume   412.73738328
_cell_formula_units_Z   1
loop_
 _symmetry_equiv_pos_site_id
 _symmetry_equiv_pos_as_xyz
  1  'x, y, z'
loop_
 _atom_site_type_symbol
 _atom_site_label
 _atom_site_symmetry_multiplicity
 _atom_site_fract_x
 _atom_site_fract_y
 _atom_site_fract_z
 _atom_site_occupancy
  Ho  Ho0  1  0.319742  0.819753  0.774810  1
  Ho  Ho1  1  0.319741  0.819747  0.225201  1
  Ho  Ho2  1  0.819782  0.680228  0.225264  1
  Ho  Ho3  1  0.819788  0.680183  0.774753  1
  Ho  Ho4  1  0.680279  0.180275  0.774875  1
  Ho  Ho5  1  0.180177  0.319778  0.774744  1
  Ho  Ho6  1  0.180226  0.319787  0.225262  1
  Er  Er7  1  0.680241  0.180222  0.224556  1
  Lu  Lu8  1  0.999917  0.000036  0.499950  1
  Lu  Lu9  1  0.500044  0.499925  0.499928  1
  Si  Si10  1  0.116128  0.616132  0.499992  1
  Si  Si11  1  0.883736  0.383734  0.499871  1
  Si  Si12  1  0.383950  0.116230  0.499896  1
  Si  Si13  1  0.616229  0.883946  0.499888  1
  B  B14  1  0.172719  0.039178  0.000047  1
  B  B15  1  0.827199  0.960937  0.000095  1
  B  B16  1  0.960718  0.172765  0.000080  1
  B  B17  1  0.327297  0.539144  0.000036  1
  B  B18  1  0.039147  0.827303  0.000036  1
  B  B19  1  0.672766  0.460719  0.000078  1
  B  B20  1  0.539182  0.672721  0.000044  1
  B  B21  1  0.460932  0.327194  0.000100  1
  B  B22  1  0.089551  0.589552  0.000023  1
  B  B23  1  0.910423  0.410425  0.000021  1
  B  B24  1  0.410620  0.089519  0.000113  1
  B  B25  1  0.589518  0.910614  0.000112  1
  B  B26  1  0.999845  0.000080  0.164894  1
  B  B27  1  0.999987  0.000038  0.835219  1
  B  B28  1  0.500041  0.499992  0.835218  1
  B  B29  1  0.500075  0.499842  0.164895  1
