# generated using pymatgen
data_Lu4Ga4Cu2RuRh
_symmetry_space_group_name_H-M   'P 1'
_cell_length_a   4.31355500
_cell_length_b   6.73718702
_cell_length_c   7.53209103
_cell_angle_alpha   89.99062823
_cell_angle_beta   90.00000000
_cell_angle_gamma   90.00000000
_symmetry_Int_Tables_number   1
_chemical_formula_structural   Lu4Ga4Cu2RuRh
_chemical_formula_sum   'Lu4 Ga4 Cu2 Ru1 Rh1'
_cell_volume   218.89180238
_cell_formula_units_Z   1
loop_
 _symmetry_equiv_pos_site_id
 _symmetry_equiv_pos_as_xyz
  1  'x, y, z'
loop_
 _atom_site_type_symbol
 _atom_site_label
 _atom_site_symmetry_multiplicity
 _atom_site_fract_x
 _atom_site_fract_y
 _atom_site_fract_z
 _atom_site_occupancy
  Lu  Lu0  1  0.250000  0.021872  0.812799  1
  Lu  Lu1  1  0.250000  0.522500  0.687593  1
  Lu  Lu2  1  0.750000  0.989234  0.204314  1
  Lu  Lu3  1  0.750000  0.491012  0.297733  1
  Ga  Ga4  1  0.250000  0.174124  0.433077  1
  Ga  Ga5  1  0.250000  0.674459  0.067048  1
  Ga  Ga6  1  0.750000  0.822743  0.580608  1
  Ga  Ga7  1  0.750000  0.324659  0.917951  1
  Cu  Cu8  1  0.750000  0.214862  0.600348  1
  Cu  Cu9  1  0.750000  0.714363  0.899495  1
  Ru  Ru10  1  0.250000  0.774759  0.397036  1
  Rh  Rh11  1  0.250000  0.275414  0.101998  1
