# generated using pymatgen
data_Y2B4IrOs3
_symmetry_space_group_name_H-M   'P 1'
_cell_length_a   6.71527091
_cell_length_b   5.97167912
_cell_length_c   5.58237968
_cell_angle_alpha   70.97940718
_cell_angle_beta   57.21578499
_cell_angle_gamma   51.94894397
_symmetry_Int_Tables_number   1
_chemical_formula_structural   Y2B4IrOs3
_chemical_formula_sum   'Y2 B4 Ir1 Os3'
_cell_volume   148.19298850
_cell_formula_units_Z   1
loop_
 _symmetry_equiv_pos_site_id
 _symmetry_equiv_pos_as_xyz
  1  'x, y, z'
loop_
 _atom_site_type_symbol
 _atom_site_label
 _atom_site_symmetry_multiplicity
 _atom_site_fract_x
 _atom_site_fract_y
 _atom_site_fract_z
 _atom_site_occupancy
  Y  Y0  1  0.746775  0.746775  0.753225  1
  Y  Y1  1  0.499166  0.499166  0.500834  1
  B  B2  1  0.064706  0.441687  0.052022  1
  B  B3  1  0.814116  0.183540  0.814925  1
  B  B4  1  0.441687  0.064706  0.441585  1
  B  B5  1  0.183540  0.814116  0.187420  1
  Ir  Ir6  1  0.113117  0.113117  0.386883  1
  Os  Os7  1  0.387243  0.387243  0.112757  1
  Os  Os8  1  0.137565  0.137565  0.862435  1
  Os  Os9  1  0.862085  0.862085  0.137915  1
