# generated using pymatgen
data_Dy10Y10Ir7Rh5
_symmetry_space_group_name_H-M   'P 1'
_cell_length_a   10.90915806
_cell_length_b   10.91079754
_cell_length_c   6.40335922
_cell_angle_alpha   89.98795095
_cell_angle_beta   90.01982151
_cell_angle_gamma   89.93992039
_symmetry_Int_Tables_number   1
_chemical_formula_structural   Dy10Y10Ir7Rh5
_chemical_formula_sum   'Dy10 Y10 Ir7 Rh5'
_cell_volume   762.17609399
_cell_formula_units_Z   1
loop_
 _symmetry_equiv_pos_site_id
 _symmetry_equiv_pos_as_xyz
  1  'x, y, z'
loop_
 _atom_site_type_symbol
 _atom_site_label
 _atom_site_symmetry_multiplicity
 _atom_site_fract_x
 _atom_site_fract_y
 _atom_site_fract_z
 _atom_site_occupancy
  Dy  Dy0  1  0.790568  0.412431  0.119680  1
  Dy  Dy1  1  0.790943  0.589313  0.619799  1
  Dy  Dy2  1  0.910991  0.709488  0.119249  1
  Dy  Dy3  1  0.911362  0.291458  0.620688  1
  Dy  Dy4  1  0.089123  0.709228  0.619858  1
  Dy  Dy5  1  0.090856  0.291383  0.119125  1
  Dy  Dy6  1  0.999915  0.999783  0.499952  1
  Dy  Dy7  1  0.000226  0.000047  0.000212  1
  Dy  Dy8  1  0.499926  0.499740  0.999752  1
  Dy  Dy9  1  0.500281  0.500089  0.500075  1
  Y  Y10  1  0.290007  0.089131  0.380377  1
  Y  Y11  1  0.290296  0.910766  0.879716  1
  Y  Y12  1  0.709101  0.088773  0.878856  1
  Y  Y13  1  0.709127  0.909038  0.380340  1
  Y  Y14  1  0.589212  0.790100  0.880238  1
  Y  Y15  1  0.587666  0.210007  0.379934  1
  Y  Y16  1  0.410460  0.790310  0.379959  1
  Y  Y17  1  0.410659  0.209545  0.879739  1
  Y  Y18  1  0.209696  0.410864  0.619770  1
  Y  Y19  1  0.209569  0.589478  0.119932  1
  Ir  Ir20  1  0.846933  0.846466  0.750437  1
  Ir  Ir21  1  0.152235  0.153778  0.750712  1
  Ir  Ir22  1  0.153008  0.846179  0.250720  1
  Ir  Ir23  1  0.655013  0.346281  0.750489  1
  Ir  Ir24  1  0.654541  0.652693  0.250178  1
  Ir  Ir25  1  0.346505  0.346413  0.249968  1
  Ir  Ir26  1  0.346221  0.653387  0.749712  1
  Rh  Rh27  1  0.846756  0.154487  0.250483  1
  Rh  Rh28  1  0.500623  0.000260  0.125304  1
  Rh  Rh29  1  0.500443  0.000213  0.624656  1
  Rh  Rh30  1  0.998890  0.499500  0.875387  1
  Rh  Rh31  1  0.998851  0.499370  0.374704  1
