# generated using pymatgen
data_PmBe5
_symmetry_space_group_name_H-M   'P 1'
_cell_length_a   4.79368400
_cell_length_b   4.79368441
_cell_length_c   3.69758800
_cell_angle_alpha   90.00000000
_cell_angle_beta   90.00000000
_cell_angle_gamma   59.99992876
_symmetry_Int_Tables_number   1
_chemical_formula_structural   PmBe5
_chemical_formula_sum   'Pm1 Be5'
_cell_volume   73.58472650
_cell_formula_units_Z   1
loop_
 _symmetry_equiv_pos_site_id
 _symmetry_equiv_pos_as_xyz
  1  'x, y, z'
loop_
 _atom_site_type_symbol
 _atom_site_label
 _atom_site_symmetry_multiplicity
 _atom_site_fract_x
 _atom_site_fract_y
 _atom_site_fract_z
 _atom_site_occupancy
  Pm  Pm0  1  0.999999  0.000001  0.000000  1
  Be  Be1  1  0.333331  0.333333  0.000000  1
  Be  Be2  1  0.666667  0.666669  0.000000  1
  Be  Be3  1  0.500136  0.000001  0.499999  1
  Be  Be4  1  0.999999  0.499863  0.499999  1
  Be  Be5  1  0.499862  0.500137  0.499999  1
