# generated using pymatgen
data_Ho10Hg7Pd4Pb
_symmetry_space_group_name_H-M   'P 1'
_cell_length_a   3.63743000
_cell_length_b   7.95484870
_cell_length_c   18.21661453
_cell_angle_alpha   89.80541935
_cell_angle_beta   90.00000000
_cell_angle_gamma   90.00000000
_symmetry_Int_Tables_number   1
_chemical_formula_structural   Ho10Hg7Pd4Pb
_chemical_formula_sum   'Ho10 Hg7 Pd4 Pb1'
_cell_volume   527.09844172
_cell_formula_units_Z   1
loop_
 _symmetry_equiv_pos_site_id
 _symmetry_equiv_pos_as_xyz
  1  'x, y, z'
loop_
 _atom_site_type_symbol
 _atom_site_label
 _atom_site_symmetry_multiplicity
 _atom_site_fract_x
 _atom_site_fract_y
 _atom_site_fract_z
 _atom_site_occupancy
  Ho  Ho0  1  0.000000  0.497785  0.500519  1
  Ho  Ho1  1  0.000000  0.001752  0.002300  1
  Ho  Ho2  1  0.000000  0.734652  0.284716  1
  Ho  Ho3  1  0.000000  0.268755  0.712154  1
  Ho  Ho4  1  0.000000  0.752896  0.780943  1
  Ho  Ho5  1  0.000000  0.237198  0.216267  1
  Ho  Ho6  1  0.000000  0.615549  0.085344  1
  Ho  Ho7  1  0.000000  0.392271  0.917804  1
  Ho  Ho8  1  0.000000  0.886121  0.583467  1
  Ho  Ho9  1  0.000000  0.113787  0.415354  1
  Hg  Hg10  1  0.500000  0.709852  0.935180  1
  Hg  Hg11  1  0.500000  0.291401  0.065531  1
  Hg  Hg12  1  0.500000  0.788346  0.435314  1
  Hg  Hg13  1  0.500000  0.209932  0.564919  1
  Hg  Hg14  1  0.500000  0.583661  0.647411  1
  Hg  Hg15  1  0.500000  0.418932  0.352606  1
  Hg  Hg16  1  0.500000  0.918874  0.148110  1
  Pd  Pd17  1  0.500000  0.525736  0.196783  1
  Pd  Pd18  1  0.500000  0.472200  0.803792  1
  Pd  Pd19  1  0.500000  0.974443  0.695969  1
  Pd  Pd20  1  0.500000  0.024211  0.303762  1
  Pb  Pb21  1  0.500000  0.081647  0.851757  1
