# generated using pymatgen
data_Hf18V2Re6SiRh
_symmetry_space_group_name_H-M   'P 1'
_cell_length_a   8.62369100
_cell_length_b   8.62369083
_cell_length_c   8.51332700
_cell_angle_alpha   90.00000000
_cell_angle_beta   90.00000000
_cell_angle_gamma   120.00000447
_symmetry_Int_Tables_number   1
_chemical_formula_structural   Hf18V2Re6SiRh
_chemical_formula_sum   'Hf18 V2 Re6 Si1 Rh1'
_cell_volume   548.29753354
_cell_formula_units_Z   1
loop_
 _symmetry_equiv_pos_site_id
 _symmetry_equiv_pos_as_xyz
  1  'x, y, z'
loop_
 _atom_site_type_symbol
 _atom_site_label
 _atom_site_symmetry_multiplicity
 _atom_site_fract_x
 _atom_site_fract_y
 _atom_site_fract_z
 _atom_site_occupancy
  Hf  Hf0  1  0.196695  0.803305  0.446880  1
  Hf  Hf1  1  0.196695  0.393389  0.446880  1
  Hf  Hf2  1  0.606611  0.803305  0.446880  1
  Hf  Hf3  1  0.807235  0.192765  0.549264  1
  Hf  Hf4  1  0.807235  0.614470  0.549264  1
  Hf  Hf5  1  0.385530  0.192765  0.549264  1
  Hf  Hf6  1  0.807235  0.192765  0.950736  1
  Hf  Hf7  1  0.807235  0.614470  0.950736  1
  Hf  Hf8  1  0.385530  0.192765  0.950736  1
  Hf  Hf9  1  0.196695  0.803305  0.053120  1
  Hf  Hf10  1  0.196695  0.393389  0.053120  1
  Hf  Hf11  1  0.606611  0.803305  0.053120  1
  Hf  Hf12  1  0.542082  0.457918  0.250000  1
  Hf  Hf13  1  0.542082  0.084164  0.250000  1
  Hf  Hf14  1  0.915836  0.457918  0.250000  1
  Hf  Hf15  1  0.460630  0.539370  0.750000  1
  Hf  Hf16  1  0.460630  0.921259  0.750000  1
  Hf  Hf17  1  0.078741  0.539370  0.750000  1
  V  V18  1  0.000000  0.000000  0.500574  1
  V  V19  1  0.000000  0.000000  0.999426  1
  Re  Re20  1  0.890421  0.109579  0.250000  1
  Re  Re21  1  0.890421  0.780845  0.250000  1
  Re  Re22  1  0.219155  0.109579  0.250000  1
  Re  Re23  1  0.109248  0.890752  0.750000  1
  Re  Re24  1  0.109248  0.218496  0.750000  1
  Re  Re25  1  0.781504  0.890752  0.750000  1
  Si  Si26  1  0.666667  0.333333  0.750000  1
  Rh  Rh27  1  0.333333  0.666667  0.250000  1
