# generated using pymatgen
data_Zr8Fe9Si16RuW2
_symmetry_space_group_name_H-M   'P 1'
_cell_length_a   9.77156142
_cell_length_b   9.76915739
_cell_length_c   13.04167381
_cell_angle_alpha   53.72623239
_cell_angle_beta   53.73108523
_cell_angle_gamma   31.10546194
_symmetry_Int_Tables_number   1
_chemical_formula_structural   Zr8Fe9Si16RuW2
_chemical_formula_sum   'Zr8 Fe9 Si16 Ru1 W2'
_cell_volume   507.60494359
_cell_formula_units_Z   1
loop_
 _symmetry_equiv_pos_site_id
 _symmetry_equiv_pos_as_xyz
  1  'x, y, z'
loop_
 _atom_site_type_symbol
 _atom_site_label
 _atom_site_symmetry_multiplicity
 _atom_site_fract_x
 _atom_site_fract_y
 _atom_site_fract_z
 _atom_site_occupancy
  Zr  Zr0  1  0.040876  0.289044  0.639888  1
  Zr  Zr1  1  0.705149  0.960588  0.862112  1
  Zr  Zr2  1  0.959508  0.705104  0.361575  1
  Zr  Zr3  1  0.292141  0.040706  0.139585  1
  Zr  Zr4  1  0.295028  0.565093  0.641664  1
  Zr  Zr5  1  0.436527  0.705300  0.856522  1
  Zr  Zr6  1  0.708361  0.437617  0.353543  1
  Zr  Zr7  1  0.567052  0.292785  0.143112  1
  Fe  Fe8  1  0.902010  0.141224  0.582544  1
  Fe  Fe9  1  0.858712  0.095873  0.918517  1
  Fe  Fe10  1  0.096849  0.857920  0.417931  1
  Fe  Fe11  1  0.142794  0.900170  0.081194  1
  Fe  Fe12  1  0.829552  0.647502  0.778050  1
  Fe  Fe13  1  0.351554  0.171956  0.723244  1
  Fe  Fe14  1  0.172295  0.352625  0.221511  1
  Fe  Fe15  1  0.647803  0.830013  0.275728  1
  Fe  Fe16  1  0.239463  0.519472  0.938533  1
  Si  Si17  1  0.966799  0.255810  0.892198  1
  Si  Si18  1  0.743932  0.030090  0.607487  1
  Si  Si19  1  0.032430  0.741394  0.104624  1
  Si  Si20  1  0.256197  0.965492  0.392894  1
  Si  Si21  1  0.142244  0.397178  0.891981  1
  Si  Si22  1  0.610618  0.860697  0.609157  1
  Si  Si23  1  0.867236  0.612762  0.104332  1
  Si  Si24  1  0.393924  0.139098  0.390985  1
  Si  Si25  1  0.081387  0.574502  0.569643  1
  Si  Si26  1  0.408601  0.936136  0.928986  1
  Si  Si27  1  0.933129  0.410735  0.428687  1
  Si  Si28  1  0.566013  0.094389  0.066084  1
  Si  Si29  1  0.618352  0.371275  0.756587  1
  Si  Si30  1  0.370995  0.625161  0.251906  1
  Si  Si31  1  0.115301  0.875629  0.756076  1
  Si  Si32  1  0.884994  0.112609  0.251521  1
  Ru  Ru33  1  0.516701  0.241199  0.439292  1
  W  W34  1  0.492030  0.749668  0.562174  1
  W  W35  1  0.753443  0.493186  0.060132  1
