# generated using pymatgen
data_Er8In4Pd5Au3
_symmetry_space_group_name_H-M   'P 1'
_cell_length_a   7.81105207
_cell_length_b   7.81076847
_cell_length_c   7.33637697
_cell_angle_alpha   90.00562279
_cell_angle_beta   89.99529204
_cell_angle_gamma   90.45300272
_symmetry_Int_Tables_number   1
_chemical_formula_structural   Er8In4Pd5Au3
_chemical_formula_sum   'Er8 In4 Pd5 Au3'
_cell_volume   447.58070726
_cell_formula_units_Z   1
loop_
 _symmetry_equiv_pos_site_id
 _symmetry_equiv_pos_as_xyz
  1  'x, y, z'
loop_
 _atom_site_type_symbol
 _atom_site_label
 _atom_site_symmetry_multiplicity
 _atom_site_fract_x
 _atom_site_fract_y
 _atom_site_fract_z
 _atom_site_occupancy
  Er  Er0  1  0.157000  0.170680  0.003490  1
  Er  Er1  1  0.824327  0.837773  0.000724  1
  Er  Er2  1  0.671253  0.334824  0.496973  1
  Er  Er3  1  0.344910  0.661926  0.496912  1
  Er  Er4  1  0.682665  0.323010  0.002556  1
  Er  Er5  1  0.331666  0.675095  0.002450  1
  Er  Er6  1  0.813271  0.823991  0.499369  1
  Er  Er7  1  0.171813  0.182955  0.497184  1
  In  In8  1  0.500982  0.005662  0.249477  1
  In  In9  1  0.502830  0.998502  0.749642  1
  In  In10  1  0.001510  0.498253  0.249675  1
  In  In11  1  0.994217  0.500192  0.749491  1
  Pd  Pd12  1  0.372061  0.368972  0.236977  1
  Pd  Pd13  1  0.631131  0.627194  0.763190  1
  Pd  Pd14  1  0.630638  0.625166  0.236633  1
  Pd  Pd15  1  0.870735  0.127706  0.736734  1
  Pd  Pd16  1  0.870403  0.126569  0.263910  1
  Au  Au17  1  0.375311  0.369913  0.763905  1
  Au  Au18  1  0.126113  0.870520  0.263464  1
  Au  Au19  1  0.127165  0.871096  0.737243  1
