# generated using pymatgen
data_Pr2Mn(Al2Pd)8
_symmetry_space_group_name_H-M   'P 1'
_cell_length_a   11.18279685
_cell_length_b   11.18279721
_cell_length_c   11.18282700
_cell_angle_alpha   158.46119813
_cell_angle_beta   116.12012816
_cell_angle_gamma   68.25802928
_symmetry_Int_Tables_number   1
_chemical_formula_structural   Pr2Mn(Al2Pd)8
_chemical_formula_sum   'Pr2 Mn1 Al16 Pd8'
_cell_volume   457.73529305
_cell_formula_units_Z   1
loop_
 _symmetry_equiv_pos_site_id
 _symmetry_equiv_pos_as_xyz
  1  'x, y, z'
loop_
 _atom_site_type_symbol
 _atom_site_label
 _atom_site_symmetry_multiplicity
 _atom_site_fract_x
 _atom_site_fract_y
 _atom_site_fract_z
 _atom_site_occupancy
  Pr  Pr0  1  0.229917  0.230626  0.999300  1
  Pr  Pr1  1  0.768674  0.769382  0.999300  1
  Mn  Mn2  1  0.778556  0.500046  0.278602  1
  Al  Al3  1  0.276310  0.393490  0.882814  1
  Al  Al4  1  0.091074  0.923369  0.167698  1
  Al  Al5  1  0.505915  0.202216  0.303697  1
  Al  Al6  1  0.244329  0.076624  0.167698  1
  Al  Al7  1  0.910592  0.416646  0.493937  1
  Al  Al8  1  0.723408  0.598425  0.124987  1
  Al  Al9  1  0.902754  0.208016  0.694742  1
  Al  Al10  1  0.486726  0.791988  0.694742  1
  Al  Al11  1  0.388122  0.999993  0.388115  1
  Al  Al12  1  0.624921  0.999995  0.624915  1
  Al  Al13  1  0.489325  0.606504  0.882814  1
  Al  Al14  1  0.101481  0.797781  0.303697  1
  Al  Al15  1  0.902071  0.082544  0.819551  1
  Al  Al16  1  0.737007  0.917481  0.819551  1
  Al  Al17  1  0.526561  0.401579  0.124987  1
  Al  Al18  1  0.077291  0.583346  0.493937  1
  Pd  Pd19  1  0.028238  0.344125  0.684105  1
  Pd  Pd20  1  0.628385  0.124876  0.503504  1
  Pd  Pd21  1  0.249729  0.499993  0.749721  1
  Pd  Pd22  1  0.378628  0.875118  0.503504  1
  Pd  Pd23  1  0.987092  0.999993  0.987085  1
  Pd  Pd24  1  0.649857  0.338390  0.311444  1
  Pd  Pd25  1  0.339980  0.655867  0.684105  1
  Pd  Pd26  1  0.973055  0.661588  0.311444  1
