# generated using pymatgen
data_CsCr2Tc4Se7
_symmetry_space_group_name_H-M   'P 1'
_cell_length_a   9.70657663
_cell_length_b   9.73872443
_cell_length_c   9.75705105
_cell_angle_alpha   61.05608504
_cell_angle_beta   61.00775616
_cell_angle_gamma   61.07572696
_symmetry_Int_Tables_number   1
_chemical_formula_structural   CsCr2Tc4Se7
_chemical_formula_sum   'Cs2 Cr4 Tc8 Se14'
_cell_volume   667.55493317
_cell_formula_units_Z   2
loop_
 _symmetry_equiv_pos_site_id
 _symmetry_equiv_pos_as_xyz
  1  'x, y, z'
loop_
 _atom_site_type_symbol
 _atom_site_label
 _atom_site_symmetry_multiplicity
 _atom_site_fract_x
 _atom_site_fract_y
 _atom_site_fract_z
 _atom_site_occupancy
  Cs  Cs0  1  0.376152  0.379057  0.380634  1
  Cs  Cs1  1  0.620913  0.621071  0.622625  1
  Cr  Cr2  1  0.295842  0.120969  0.001441  1
  Cr  Cr3  1  0.185799  0.896658  0.058738  1
  Cr  Cr4  1  0.892279  0.064047  0.188588  1
  Cr  Cr5  1  0.940951  0.812043  0.104657  1
  Tc  Tc6  1  0.807263  0.114604  0.936836  1
  Tc  Tc7  1  0.115357  0.940840  0.804761  1
  Tc  Tc8  1  0.994834  0.298028  0.126369  1
  Tc  Tc9  1  0.875023  0.004575  0.699223  1
  Tc  Tc10  1  0.121964  0.992408  0.296195  1
  Tc  Tc11  1  0.007481  0.698158  0.879607  1
  Tc  Tc12  1  0.699988  0.874431  0.008708  1
  Tc  Tc13  1  0.060262  0.195569  0.887752  1
  Se  Se14  1  0.986367  0.238374  0.640696  1
  Se  Se15  1  0.232970  0.652578  0.987618  1
  Se  Se16  1  0.653922  0.980693  0.232111  1
  Se  Se17  1  0.013203  0.773121  0.342373  1
  Se  Se18  1  0.761448  0.354266  0.019217  1
  Se  Se19  1  0.353155  0.014567  0.770597  1
  Se  Se20  1  0.175318  0.410687  0.825572  1
  Se  Se21  1  0.410171  0.818425  0.162128  1
  Se  Se22  1  0.814011  0.164112  0.414497  1
  Se  Se23  1  0.836665  0.586867  0.186013  1
  Se  Se24  1  0.580735  0.176693  0.834588  1
  Se  Se25  1  0.181740  0.828082  0.585289  1
  Se  Se26  1  0.778896  0.773618  0.782294  1
  Se  Se27  1  0.227289  0.215458  0.220872  1
