# generated using pymatgen
data_CaEu(CoN3)2
_symmetry_space_group_name_H-M   'P 1'
_cell_length_a   5.84209311
_cell_length_b   5.84209261
_cell_length_c   7.47268539
_cell_angle_alpha   104.85569601
_cell_angle_beta   104.85569745
_cell_angle_gamma   38.89162561
_symmetry_Int_Tables_number   1
_chemical_formula_structural   CaEu(CoN3)2
_chemical_formula_sum   'Ca1 Eu1 Co2 N6'
_cell_volume   154.09609372
_cell_formula_units_Z   1
loop_
 _symmetry_equiv_pos_site_id
 _symmetry_equiv_pos_as_xyz
  1  'x, y, z'
loop_
 _atom_site_type_symbol
 _atom_site_label
 _atom_site_symmetry_multiplicity
 _atom_site_fract_x
 _atom_site_fract_y
 _atom_site_fract_z
 _atom_site_occupancy
  Ca  Ca0  1  0.168858  0.168858  0.799598  1
  Eu  Eu1  1  0.830736  0.830736  0.198719  1
  Co  Co2  1  0.541836  0.541836  0.153395  1
  Co  Co3  1  0.459278  0.459278  0.847050  1
  N  N4  1  0.374013  0.374013  0.023987  1
  N  N5  1  0.607396  0.607396  0.388615  1
  N  N6  1  0.352923  0.352923  0.449895  1
  N  N7  1  0.646055  0.646055  0.551332  1
  N  N8  1  0.392905  0.392905  0.612829  1
  N  N9  1  0.625998  0.625998  0.974583  1
