# generated using pymatgen
data_Lu3Hg3IrAu
_symmetry_space_group_name_H-M   'P 1'
_cell_length_a   7.74246300
_cell_length_b   7.74246306
_cell_length_c   3.50991600
_cell_angle_alpha   90.00000000
_cell_angle_beta   90.00000000
_cell_angle_gamma   119.99999549
_symmetry_Int_Tables_number   1
_chemical_formula_structural   Lu3Hg3IrAu
_chemical_formula_sum   'Lu3 Hg3 Ir1 Au1'
_cell_volume   182.21564170
_cell_formula_units_Z   1
loop_
 _symmetry_equiv_pos_site_id
 _symmetry_equiv_pos_as_xyz
  1  'x, y, z'
loop_
 _atom_site_type_symbol
 _atom_site_label
 _atom_site_symmetry_multiplicity
 _atom_site_fract_x
 _atom_site_fract_y
 _atom_site_fract_z
 _atom_site_occupancy
  Lu  Lu0  1  0.590728  0.019377  0.500001  1
  Lu  Lu1  1  0.428649  0.409272  0.500001  1
  Lu  Lu2  1  0.980623  0.571351  0.500001  1
  Hg  Hg3  1  0.231918  0.001505  0.000000  1
  Hg  Hg4  1  0.998495  0.230414  0.000000  1
  Hg  Hg5  1  0.769587  0.768082  0.000000  1
  Ir  Ir6  1  0.666667  0.333334  0.000000  1
  Au  Au7  1  0.333334  0.666667  0.000000  1
