# generated using pymatgen
data_Tb4Lu4Sc11Si16Ru
_symmetry_space_group_name_H-M   'P 1'
_cell_length_a   6.97598053
_cell_length_b   7.34647352
_cell_length_c   13.82018022
_cell_angle_alpha   90.02345496
_cell_angle_beta   89.95808466
_cell_angle_gamma   89.98646054
_symmetry_Int_Tables_number   1
_chemical_formula_structural   Tb4Lu4Sc11Si16Ru
_chemical_formula_sum   'Tb4 Lu4 Sc11 Si16 Ru1'
_cell_volume   708.26816035
_cell_formula_units_Z   1
loop_
 _symmetry_equiv_pos_site_id
 _symmetry_equiv_pos_as_xyz
  1  'x, y, z'
loop_
 _atom_site_type_symbol
 _atom_site_label
 _atom_site_symmetry_multiplicity
 _atom_site_fract_x
 _atom_site_fract_y
 _atom_site_fract_z
 _atom_site_occupancy
  Tb  Tb0  1  0.512703  0.322233  0.092663  1
  Tb  Tb1  1  0.013096  0.178449  0.408431  1
  Tb  Tb2  1  0.513360  0.323400  0.405041  1
  Tb  Tb3  1  0.489457  0.673764  0.597614  1
  Lu  Lu4  1  0.013733  0.179369  0.091627  1
  Lu  Lu5  1  0.990509  0.816018  0.902185  1
  Lu  Lu6  1  0.488349  0.674002  0.902407  1
  Lu  Lu7  1  0.990587  0.816053  0.600390  1
  Sc  Sc8  1  0.842513  0.496648  0.249127  1
  Sc  Sc9  1  0.344618  0.003890  0.248829  1
  Sc  Sc10  1  0.652437  0.995171  0.750771  1
  Sc  Sc11  1  0.320796  0.174940  0.628641  1
  Sc  Sc12  1  0.675260  0.826306  0.374025  1
  Sc  Sc13  1  0.173483  0.674675  0.376662  1
  Sc  Sc14  1  0.674983  0.825742  0.123720  1
  Sc  Sc15  1  0.826542  0.330397  0.630964  1
  Sc  Sc16  1  0.320824  0.175063  0.872289  1
  Sc  Sc17  1  0.825567  0.328977  0.871107  1
  Sc  Sc18  1  0.173391  0.674119  0.122016  1
  Si  Si19  1  0.022668  0.102820  0.751198  1
  Si  Si20  1  0.976085  0.887970  0.248820  1
  Si  Si21  1  0.470696  0.617465  0.248956  1
  Si  Si22  1  0.512304  0.396559  0.751486  1
  Si  Si23  1  0.280135  0.857660  0.751490  1
  Si  Si24  1  0.721007  0.130499  0.248086  1
  Si  Si25  1  0.215198  0.371314  0.248474  1
  Si  Si26  1  0.794074  0.631802  0.751869  1
  Si  Si27  1  0.154874  0.467618  0.549166  1
  Si  Si28  1  0.844935  0.539009  0.465285  1
  Si  Si29  1  0.347340  0.964711  0.463476  1
  Si  Si30  1  0.845300  0.535912  0.035367  1
  Si  Si31  1  0.660205  0.034699  0.541230  1
  Si  Si32  1  0.157585  0.467701  0.950475  1
  Si  Si33  1  0.658523  0.031341  0.958176  1
  Si  Si34  1  0.343417  0.963369  0.035857  1
  Ru  Ru35  1  0.153445  0.510336  0.752080  1
