# generated using pymatgen
data_TbPa3Ga12Tc
_symmetry_space_group_name_H-M   'P 1'
_cell_length_a   7.51574933
_cell_length_b   7.46376385
_cell_length_c   7.46376500
_cell_angle_alpha   109.32969553
_cell_angle_beta   109.61237435
_cell_angle_gamma   109.61237893
_symmetry_Int_Tables_number   1
_chemical_formula_structural   TbPa3Ga12Tc
_chemical_formula_sum   'Tb1 Pa3 Ga12 Tc1'
_cell_volume   321.74122900
_cell_formula_units_Z   1
loop_
 _symmetry_equiv_pos_site_id
 _symmetry_equiv_pos_as_xyz
  1  'x, y, z'
loop_
 _atom_site_type_symbol
 _atom_site_label
 _atom_site_symmetry_multiplicity
 _atom_site_fract_x
 _atom_site_fract_y
 _atom_site_fract_z
 _atom_site_occupancy
  Tb  Tb0  1  0.500000  0.000000  0.000000  1
  Pa  Pa1  1  0.000000  0.000000  0.500000  1
  Pa  Pa2  1  0.000000  0.500000  0.000000  1
  Pa  Pa3  1  0.500000  0.500000  0.500000  1
  Ga  Ga4  1  0.750587  0.250587  0.501175  1
  Ga  Ga5  1  0.750587  0.501175  0.250587  1
  Ga  Ga6  1  0.500000  0.250587  0.749413  1
  Ga  Ga7  1  0.249413  0.498825  0.749413  1
  Ga  Ga8  1  0.249413  0.749413  0.498825  1
  Ga  Ga9  1  0.500000  0.749413  0.250587  1
  Ga  Ga10  1  0.706170  0.706412  0.000000  1
  Ga  Ga11  1  0.293830  0.000000  0.293588  1
  Ga  Ga12  1  0.999757  0.293588  0.293588  1
  Ga  Ga13  1  0.293830  0.293588  0.000000  1
  Ga  Ga14  1  0.706170  0.000000  0.706412  1
  Ga  Ga15  1  0.000243  0.706412  0.706412  1
  Tc  Tc16  1  0.000000  0.000000  0.000000  1
