# generated using pymatgen
data_CsEr6(CBr6)2
_symmetry_space_group_name_H-M   'P 1'
_cell_length_a   8.84837667
_cell_length_b   8.83810048
_cell_length_c   9.33425230
_cell_angle_alpha   72.65260865
_cell_angle_beta   71.53157790
_cell_angle_gamma   73.08395187
_symmetry_Int_Tables_number   1
_chemical_formula_structural   CsEr6(CBr6)2
_chemical_formula_sum   'Cs1 Er6 C2 Br12'
_cell_volume   645.12128647
_cell_formula_units_Z   1
loop_
 _symmetry_equiv_pos_site_id
 _symmetry_equiv_pos_as_xyz
  1  'x, y, z'
loop_
 _atom_site_type_symbol
 _atom_site_label
 _atom_site_symmetry_multiplicity
 _atom_site_fract_x
 _atom_site_fract_y
 _atom_site_fract_z
 _atom_site_occupancy
  Cs  Cs0  1  0.000027  0.499973  0.999989  1
  Er  Er1  1  0.471621  0.115541  0.184580  1
  Er  Er2  1  0.773726  0.033251  0.408044  1
  Er  Er3  1  0.591438  0.728624  0.475609  1
  Er  Er4  1  0.408561  0.271389  0.524384  1
  Er  Er5  1  0.226267  0.966749  0.591962  1
  Er  Er6  1  0.528372  0.884456  0.815433  1
  C  C7  1  0.491952  0.026415  0.422059  1
  C  C8  1  0.508035  0.973594  0.577952  1
  Br  Br9  1  0.793810  0.154539  0.085175  1
  Br  Br10  1  0.579848  0.787806  0.140421  1
  Br  Br11  1  0.352159  0.430799  0.225771  1
  Br  Br12  1  0.134337  0.069228  0.297979  1
  Br  Br13  1  0.918536  0.724520  0.356109  1
  Br  Br14  1  0.711333  0.363501  0.433023  1
  Br  Br15  1  0.288662  0.636495  0.566963  1
  Br  Br16  1  0.081482  0.275480  0.643881  1
  Br  Br17  1  0.865664  0.930767  0.702023  1
  Br  Br18  1  0.647840  0.569240  0.774230  1
  Br  Br19  1  0.420143  0.212191  0.859584  1
  Br  Br20  1  0.206191  0.845441  0.914827  1
