# generated using pymatgen
data_Nd2Be(Co3P2)3
_symmetry_space_group_name_H-M   'P 1'
_cell_length_a   5.99305647
_cell_length_b   5.99305722
_cell_length_c   11.26695385
_cell_angle_alpha   91.10436551
_cell_angle_beta   88.89563354
_cell_angle_gamma   145.00612533
_symmetry_Int_Tables_number   1
_chemical_formula_structural   Nd2Be(Co3P2)3
_chemical_formula_sum   'Nd2 Be1 Co9 P6'
_cell_volume   232.02757305
_cell_formula_units_Z   1
loop_
 _symmetry_equiv_pos_site_id
 _symmetry_equiv_pos_as_xyz
  1  'x, y, z'
loop_
 _atom_site_type_symbol
 _atom_site_label
 _atom_site_symmetry_multiplicity
 _atom_site_fract_x
 _atom_site_fract_y
 _atom_site_fract_z
 _atom_site_occupancy
  Nd  Nd0  1  0.334830  0.665170  0.246949  1
  Nd  Nd1  1  0.665170  0.334830  0.753051  1
  Be  Be2  1  0.500000  0.500000  0.500000  1
  Co  Co3  1  0.051374  0.948626  0.146173  1
  Co  Co4  1  0.046755  0.953245  0.366152  1
  Co  Co5  1  0.689070  0.310930  0.437710  1
  Co  Co6  1  0.310930  0.689070  0.562290  1
  Co  Co7  1  0.302644  0.697356  0.930502  1
  Co  Co8  1  0.697356  0.302644  0.069498  1
  Co  Co9  1  0.500000  0.500000  0.000000  1
  Co  Co10  1  0.953245  0.046755  0.633848  1
  Co  Co11  1  0.948626  0.051374  0.853827  1
  P  P12  1  0.607224  0.392776  0.251988  1
  P  P13  1  0.392776  0.607224  0.748012  1
  P  P14  1  0.124038  0.875962  0.542256  1
  P  P15  1  0.875962  0.124038  0.457744  1
  P  P16  1  0.882581  0.117419  0.038356  1
  P  P17  1  0.117419  0.882581  0.961644  1
