# generated using pymatgen
data_Tb16Zn3Co4Hg
_symmetry_space_group_name_H-M   'P 1'
_cell_length_a   9.44534634
_cell_length_b   9.44534675
_cell_length_c   9.44534658
_cell_angle_alpha   59.96716085
_cell_angle_beta   59.96715863
_cell_angle_gamma   59.96716036
_symmetry_Int_Tables_number   1
_chemical_formula_structural   Tb16Zn3Co4Hg
_chemical_formula_sum   'Tb16 Zn3 Co4 Hg1'
_cell_volume   595.40865842
_cell_formula_units_Z   1
loop_
 _symmetry_equiv_pos_site_id
 _symmetry_equiv_pos_as_xyz
  1  'x, y, z'
loop_
 _atom_site_type_symbol
 _atom_site_label
 _atom_site_symmetry_multiplicity
 _atom_site_fract_x
 _atom_site_fract_y
 _atom_site_fract_z
 _atom_site_occupancy
  Tb  Tb0  1  0.349801  0.349801  0.349801  1
  Tb  Tb1  1  0.348831  0.348831  0.952654  1
  Tb  Tb2  1  0.348831  0.952654  0.348831  1
  Tb  Tb3  1  0.952654  0.348831  0.348831  1
  Tb  Tb4  1  0.809470  0.190349  0.190349  1
  Tb  Tb5  1  0.189291  0.809748  0.809748  1
  Tb  Tb6  1  0.190349  0.809470  0.190349  1
  Tb  Tb7  1  0.809748  0.189291  0.809748  1
  Tb  Tb8  1  0.190349  0.190349  0.809470  1
  Tb  Tb9  1  0.809748  0.809748  0.189291  1
  Tb  Tb10  1  0.941404  0.561700  0.561700  1
  Tb  Tb11  1  0.562445  0.937870  0.937870  1
  Tb  Tb12  1  0.561700  0.941404  0.561700  1
  Tb  Tb13  1  0.937870  0.562445  0.937870  1
  Tb  Tb14  1  0.561700  0.561700  0.941404  1
  Tb  Tb15  1  0.937870  0.937870  0.562445  1
  Zn  Zn16  1  0.577118  0.577118  0.263581  1
  Zn  Zn17  1  0.577118  0.263581  0.577118  1
  Zn  Zn18  1  0.263581  0.577118  0.577118  1
  Co  Co19  1  0.141131  0.141131  0.141131  1
  Co  Co20  1  0.141887  0.141887  0.575349  1
  Co  Co21  1  0.141887  0.575349  0.141887  1
  Co  Co22  1  0.575349  0.141887  0.141887  1
  Hg  Hg23  1  0.579864  0.579864  0.579864  1
