# generated using pymatgen
data_Ti9Sn9HgMo3
_symmetry_space_group_name_H-M   'P 1'
_cell_length_a   9.28538900
_cell_length_b   9.28538946
_cell_length_c   5.62076100
_cell_angle_alpha   90.00000000
_cell_angle_beta   90.00000000
_cell_angle_gamma   120.00000193
_symmetry_Int_Tables_number   1
_chemical_formula_structural   Ti9Sn9HgMo3
_chemical_formula_sum   'Ti9 Sn9 Hg1 Mo3'
_cell_volume   419.68743707
_cell_formula_units_Z   1
loop_
 _symmetry_equiv_pos_site_id
 _symmetry_equiv_pos_as_xyz
  1  'x, y, z'
loop_
 _atom_site_type_symbol
 _atom_site_label
 _atom_site_symmetry_multiplicity
 _atom_site_fract_x
 _atom_site_fract_y
 _atom_site_fract_z
 _atom_site_occupancy
  Ti  Ti0  1  0.843213  0.686426  0.761521  1
  Ti  Ti1  1  0.156787  0.843213  0.238479  1
  Ti  Ti2  1  0.686426  0.843213  0.238479  1
  Ti  Ti3  1  0.313574  0.156787  0.761521  1
  Ti  Ti4  1  0.843213  0.156787  0.761521  1
  Ti  Ti5  1  0.156787  0.313574  0.238479  1
  Ti  Ti6  1  0.500000  0.000000  0.500000  1
  Ti  Ti7  1  0.000000  0.500000  0.500000  1
  Ti  Ti8  1  0.500000  0.500000  0.500000  1
  Sn  Sn9  1  0.203808  0.407615  0.743039  1
  Sn  Sn10  1  0.796192  0.203808  0.256961  1
  Sn  Sn11  1  0.407615  0.203808  0.256961  1
  Sn  Sn12  1  0.592385  0.796192  0.743039  1
  Sn  Sn13  1  0.203808  0.796192  0.743039  1
  Sn  Sn14  1  0.796192  0.592385  0.256961  1
  Sn  Sn15  1  0.666667  0.333333  0.771643  1
  Sn  Sn16  1  0.333333  0.666667  0.228357  1
  Sn  Sn17  1  0.000000  0.000000  0.000000  1
  Hg  Hg18  1  0.000000  0.000000  0.500000  1
  Mo  Mo19  1  0.500000  0.500000  0.000000  1
  Mo  Mo20  1  0.000000  0.500000  0.000000  1
  Mo  Mo21  1  0.500000  0.000000  0.000000  1
