# generated using pymatgen
data_Y16Cd4Ru3Au
_symmetry_space_group_name_H-M   'P 1'
_cell_length_a   9.70490005
_cell_length_b   9.67168375
_cell_length_c   9.70490000
_cell_angle_alpha   59.88632639
_cell_angle_beta   60.00000017
_cell_angle_gamma   59.88632238
_symmetry_Int_Tables_number   1
_chemical_formula_structural   Y16Cd4Ru3Au
_chemical_formula_sum   'Y16 Cd4 Ru3 Au1'
_cell_volume   643.01465833
_cell_formula_units_Z   1
loop_
 _symmetry_equiv_pos_site_id
 _symmetry_equiv_pos_as_xyz
  1  'x, y, z'
loop_
 _atom_site_type_symbol
 _atom_site_label
 _atom_site_symmetry_multiplicity
 _atom_site_fract_x
 _atom_site_fract_y
 _atom_site_fract_z
 _atom_site_occupancy
  Y  Y0  1  0.437917  0.435285  0.063399  1
  Y  Y1  1  0.067424  0.057813  0.437382  1
  Y  Y2  1  0.437382  0.057813  0.067424  1
  Y  Y3  1  0.854393  0.844140  0.854393  1
  Y  Y4  1  0.690207  0.319835  0.299752  1
  Y  Y5  1  0.063399  0.435285  0.437917  1
  Y  Y6  1  0.311829  0.688448  0.687893  1
  Y  Y7  1  0.299752  0.319835  0.690207  1
  Y  Y8  1  0.854393  0.844140  0.447074  1
  Y  Y9  1  0.687893  0.688448  0.311829  1
  Y  Y10  1  0.447074  0.844140  0.854393  1
  Y  Y11  1  0.063399  0.435285  0.063399  1
  Y  Y12  1  0.847100  0.458699  0.847100  1
  Y  Y13  1  0.437382  0.057813  0.437382  1
  Y  Y14  1  0.311829  0.688448  0.311829  1
  Y  Y15  1  0.690207  0.319835  0.690207  1
  Cd  Cd16  1  0.081116  0.756651  0.081116  1
  Cd  Cd17  1  0.079858  0.080758  0.759525  1
  Cd  Cd18  1  0.759525  0.080758  0.079858  1
  Cd  Cd19  1  0.079858  0.080758  0.079858  1
  Ru  Ru20  1  0.640147  0.644834  0.640147  1
  Ru  Ru21  1  0.640147  0.644834  0.074871  1
  Ru  Ru22  1  0.074871  0.644834  0.640147  1
  Au  Au23  1  0.642896  0.071311  0.642896  1
