# generated using pymatgen
data_Ti8TcOs7
_symmetry_space_group_name_H-M   'P 1'
_cell_length_a   4.38349500
_cell_length_b   12.37704001
_cell_length_c   4.38205600
_cell_angle_alpha   90.00000000
_cell_angle_beta   90.00000000
_cell_angle_gamma   90.00527894
_symmetry_Int_Tables_number   1
_chemical_formula_structural   Ti8TcOs7
_chemical_formula_sum   'Ti8 Tc1 Os7'
_cell_volume   237.74710229
_cell_formula_units_Z   1
loop_
 _symmetry_equiv_pos_site_id
 _symmetry_equiv_pos_as_xyz
  1  'x, y, z'
loop_
 _atom_site_type_symbol
 _atom_site_label
 _atom_site_symmetry_multiplicity
 _atom_site_fract_x
 _atom_site_fract_y
 _atom_site_fract_z
 _atom_site_occupancy
  Ti  Ti0  1  0.917419  0.001185  0.000000  1
  Ti  Ti1  1  0.915936  0.248820  0.000000  1
  Ti  Ti2  1  0.915989  0.499606  0.000000  1
  Ti  Ti3  1  0.917368  0.750372  0.000000  1
  Ti  Ti4  1  0.417349  0.001195  0.500000  1
  Ti  Ti5  1  0.415939  0.248804  0.500000  1
  Ti  Ti6  1  0.415956  0.499625  0.500000  1
  Ti  Ti7  1  0.417333  0.750393  0.500000  1
  Tc  Tc8  1  0.416671  0.125000  0.000000  1
  Os  Os9  1  0.415880  0.375729  0.000000  1
  Os  Os10  1  0.416673  0.625001  0.000000  1
  Os  Os11  1  0.417474  0.874271  0.000000  1
  Os  Os12  1  0.916649  0.125000  0.500000  1
  Os  Os13  1  0.915859  0.375630  0.500000  1
  Os  Os14  1  0.916649  0.625000  0.500000  1
  Os  Os15  1  0.917444  0.874370  0.500000  1
