# generated using pymatgen
data_Th2Fe2Si3Au
_symmetry_space_group_name_H-M   'P 1'
_cell_length_a   8.84212433
_cell_length_b   8.84212409
_cell_length_c   4.11992600
_cell_angle_alpha   90.00000000
_cell_angle_beta   90.00000000
_cell_angle_gamma   153.18350530
_symmetry_Int_Tables_number   1
_chemical_formula_structural   Th2Fe2Si3Au
_chemical_formula_sum   'Th2 Fe2 Si3 Au1'
_cell_volume   145.31440397
_cell_formula_units_Z   1
loop_
 _symmetry_equiv_pos_site_id
 _symmetry_equiv_pos_as_xyz
  1  'x, y, z'
loop_
 _atom_site_type_symbol
 _atom_site_label
 _atom_site_symmetry_multiplicity
 _atom_site_fract_x
 _atom_site_fract_y
 _atom_site_fract_z
 _atom_site_occupancy
  Th  Th0  1  0.617162  0.382838  0.250000  1
  Th  Th1  1  0.379366  0.620634  0.750000  1
  Fe  Fe2  1  0.249462  0.750538  0.250000  1
  Fe  Fe3  1  0.750405  0.249595  0.750000  1
  Si  Si4  1  0.042577  0.957423  0.750000  1
  Si  Si5  1  0.812706  0.187294  0.250000  1
  Si  Si6  1  0.185234  0.814766  0.750000  1
  Au  Au7  1  0.963091  0.036909  0.250000  1
