# generated using pymatgen
data_Ac7P12Pd17
_symmetry_space_group_name_H-M   'P 1'
_cell_length_a   12.68568141
_cell_length_b   12.68568150
_cell_length_c   13.90060113
_cell_angle_alpha   68.44625600
_cell_angle_beta   68.44625523
_cell_angle_gamma   19.06561964
_symmetry_Int_Tables_number   1
_chemical_formula_structural   Ac7P12Pd17
_chemical_formula_sum   'Ac7 P12 Pd17'
_cell_volume   678.11697154
_cell_formula_units_Z   1
loop_
 _symmetry_equiv_pos_site_id
 _symmetry_equiv_pos_as_xyz
  1  'x, y, z'
loop_
 _atom_site_type_symbol
 _atom_site_label
 _atom_site_symmetry_multiplicity
 _atom_site_fract_x
 _atom_site_fract_y
 _atom_site_fract_z
 _atom_site_occupancy
  Ac  Ac0  1  0.500000  0.500000  0.500000  1
  Ac  Ac1  1  0.365937  0.365937  0.999375  1
  Ac  Ac2  1  0.634063  0.634063  0.000625  1
  Ac  Ac3  1  0.233887  0.233887  0.313544  1
  Ac  Ac4  1  0.766113  0.766113  0.686456  1
  Ac  Ac5  1  0.417621  0.417621  0.262215  1
  Ac  Ac6  1  0.582379  0.582379  0.737785  1
  P  P7  1  0.058561  0.058561  0.928558  1
  P  P8  1  0.941439  0.941439  0.071442  1
  P  P9  1  0.885865  0.885865  0.823545  1
  P  P10  1  0.114135  0.114135  0.176455  1
  P  P11  1  0.188544  0.188544  0.615764  1
  P  P12  1  0.811456  0.811456  0.384236  1
  P  P13  1  0.365395  0.365395  0.577641  1
  P  P14  1  0.634605  0.634605  0.422359  1
  P  P15  1  0.009258  0.009258  0.674523  1
  P  P16  1  0.990742  0.990742  0.325477  1
  P  P17  1  0.235935  0.235935  0.884867  1
  P  P18  1  0.764065  0.764065  0.115133  1
  Pd  Pd19  1  0.838454  0.838454  0.191439  1
  Pd  Pd20  1  0.161546  0.161546  0.808561  1
  Pd  Pd21  1  0.025545  0.025545  0.126971  1
  Pd  Pd22  1  0.974455  0.974455  0.873029  1
  Pd  Pd23  1  0.890272  0.890272  0.459234  1
  Pd  Pd24  1  0.109728  0.109728  0.540766  1
  Pd  Pd25  1  0.500000  0.500000  0.000000  1
  Pd  Pd26  1  0.549094  0.549094  0.253012  1
  Pd  Pd27  1  0.450906  0.450906  0.746988  1
  Pd  Pd28  1  0.298349  0.298349  0.486886  1
  Pd  Pd29  1  0.701651  0.701651  0.513114  1
  Pd  Pd30  1  0.664172  0.664172  0.225301  1
  Pd  Pd31  1  0.335828  0.335828  0.774699  1
  Pd  Pd32  1  0.905892  0.905892  0.642865  1
  Pd  Pd33  1  0.094108  0.094108  0.357135  1
  Pd  Pd34  1  0.217742  0.217742  0.073027  1
  Pd  Pd35  1  0.782258  0.782258  0.926973  1
