# generated using pymatgen
data_La13Nd7Si15Au
_symmetry_space_group_name_H-M   'P 1'
_cell_length_a   8.02218967
_cell_length_b   8.01975847
_cell_length_c   15.46262700
_cell_angle_alpha   89.98113898
_cell_angle_beta   89.64420376
_cell_angle_gamma   90.00517672
_symmetry_Int_Tables_number   1
_chemical_formula_structural   La13Nd7Si15Au
_chemical_formula_sum   'La13 Nd7 Si15 Au1'
_cell_volume   994.78469649
_cell_formula_units_Z   1
loop_
 _symmetry_equiv_pos_site_id
 _symmetry_equiv_pos_as_xyz
  1  'x, y, z'
loop_
 _atom_site_type_symbol
 _atom_site_label
 _atom_site_symmetry_multiplicity
 _atom_site_fract_x
 _atom_site_fract_y
 _atom_site_fract_z
 _atom_site_occupancy
  La  La0  1  0.306368  0.305266  0.998859  1
  La  La1  1  0.190944  0.809325  0.250252  1
  La  La2  1  0.806552  0.185113  0.751678  1
  La  La3  1  0.694032  0.688574  0.498858  1
  La  La4  1  0.373947  0.011729  0.447914  1
  La  La5  1  0.490974  0.870961  0.698875  1
  La  La6  1  0.510879  0.123450  0.197926  1
  La  La7  1  0.876981  0.488155  0.301040  1
  La  La8  1  0.122266  0.516913  0.801585  1
  La  La9  1  0.626774  0.987146  0.949773  1
  La  La10  1  0.002502  0.381040  0.549190  1
  La  La11  1  0.989487  0.625710  0.052221  1
  La  La12  1  0.132379  0.985975  0.877826  1
  Nd  Nd13  1  0.516181  0.629896  0.126717  1
  Nd  Nd14  1  0.484796  0.371028  0.625982  1
  Nd  Nd15  1  0.629291  0.517460  0.875389  1
  Nd  Nd16  1  0.371980  0.485078  0.372896  1
  Nd  Nd17  1  0.871219  0.018342  0.375260  1
  Nd  Nd18  1  0.983678  0.128381  0.125163  1
  Nd  Nd19  1  0.013109  0.865873  0.622005  1
  Si  Si20  1  0.336042  0.695540  0.952252  1
  Si  Si21  1  0.661502  0.301302  0.449939  1
  Si  Si22  1  0.699436  0.337087  0.050849  1
  Si  Si23  1  0.303501  0.667563  0.548478  1
  Si  Si24  1  0.803428  0.833554  0.201821  1
  Si  Si25  1  0.166776  0.199219  0.299474  1
  Si  Si26  1  0.834047  0.800055  0.798287  1
  Si  Si27  1  0.289886  0.919787  0.060323  1
  Si  Si28  1  0.580150  0.787344  0.308787  1
  Si  Si29  1  0.433038  0.214501  0.812092  1
  Si  Si30  1  0.785112  0.578620  0.691334  1
  Si  Si31  1  0.213314  0.420911  0.191193  1
  Si  Si32  1  0.707138  0.077837  0.557334  1
  Si  Si33  1  0.919113  0.290738  0.942870  1
  Si  Si34  1  0.080900  0.713411  0.440875  1
  Au  Au35  1  0.192275  0.167118  0.694680  1
