# generated using pymatgen
data_Sc4MnOsC4
_symmetry_space_group_name_H-M   'P 1'
_cell_length_a   4.73554100
_cell_length_b   6.16762245
_cell_length_c   9.19889687
_cell_angle_alpha   90.91049090
_cell_angle_beta   90.00000000
_cell_angle_gamma   90.00000000
_symmetry_Int_Tables_number   1
_chemical_formula_structural   Sc4MnOsC4
_chemical_formula_sum   'Sc8 Mn2 Os2 C8'
_cell_volume   268.63852488
_cell_formula_units_Z   2
loop_
 _symmetry_equiv_pos_site_id
 _symmetry_equiv_pos_as_xyz
  1  'x, y, z'
loop_
 _atom_site_type_symbol
 _atom_site_label
 _atom_site_symmetry_multiplicity
 _atom_site_fract_x
 _atom_site_fract_y
 _atom_site_fract_z
 _atom_site_occupancy
  Sc  Sc0  1  0.250000  0.671111  0.562309  1
  Sc  Sc1  1  0.750000  0.328889  0.437691  1
  Sc  Sc2  1  0.750000  0.831190  0.056606  1
  Sc  Sc3  1  0.250000  0.168810  0.943394  1
  Sc  Sc4  1  0.250000  0.534893  0.216920  1
  Sc  Sc5  1  0.750000  0.465107  0.783080  1
  Sc  Sc6  1  0.750000  0.965757  0.717382  1
  Sc  Sc7  1  0.250000  0.034243  0.282618  1
  Mn  Mn8  1  0.250000  0.716932  0.870067  1
  Mn  Mn9  1  0.750000  0.283068  0.129933  1
  Os  Os10  1  0.750000  0.788304  0.370348  1
  Os  Os11  1  0.250000  0.211696  0.629652  1
  C  C12  1  0.250000  0.453531  0.767053  1
  C  C13  1  0.750000  0.546469  0.232947  1
  C  C14  1  0.750000  0.059431  0.254188  1
  C  C15  1  0.250000  0.940569  0.745812  1
  C  C16  1  0.250000  0.824252  0.052775  1
  C  C17  1  0.750000  0.175748  0.947225  1
  C  C18  1  0.750000  0.666617  0.563192  1
  C  C19  1  0.250000  0.333383  0.436808  1
