# generated using pymatgen
data_La2Nd4OsBr10
_symmetry_space_group_name_H-M   'P 1'
_cell_length_a   7.74065576
_cell_length_b   9.42468854
_cell_length_c   9.78016341
_cell_angle_alpha   108.58197898
_cell_angle_beta   97.35027646
_cell_angle_gamma   105.21572420
_symmetry_Int_Tables_number   1
_chemical_formula_structural   La2Nd4OsBr10
_chemical_formula_sum   'La2 Nd4 Os1 Br10'
_cell_volume   634.89267842
_cell_formula_units_Z   1
loop_
 _symmetry_equiv_pos_site_id
 _symmetry_equiv_pos_as_xyz
  1  'x, y, z'
loop_
 _atom_site_type_symbol
 _atom_site_label
 _atom_site_symmetry_multiplicity
 _atom_site_fract_x
 _atom_site_fract_y
 _atom_site_fract_z
 _atom_site_occupancy
  La  La0  1  0.533686  0.214142  0.413815  1
  La  La1  1  0.466314  0.785858  0.586185  1
  Nd  Nd2  1  0.128426  0.355957  0.312774  1
  Nd  Nd3  1  0.871574  0.644043  0.687226  1
  Nd  Nd4  1  0.627870  0.549386  0.247724  1
  Nd  Nd5  1  0.372130  0.450614  0.752276  1
  Os  Os6  1  0.500000  0.500000  0.500000  1
  Br  Br7  1  0.147487  0.041822  0.226687  1
  Br  Br8  1  0.852513  0.958178  0.773313  1
  Br  Br9  1  0.248389  0.415076  0.048032  1
  Br  Br10  1  0.751611  0.584924  0.951968  1
  Br  Br11  1  0.704417  0.244389  0.152223  1
  Br  Br12  1  0.295583  0.755611  0.847777  1
  Br  Br13  1  0.044950  0.674855  0.417436  1
  Br  Br14  1  0.955050  0.325145  0.582564  1
  Br  Br15  1  0.413172  0.132620  0.675008  1
  Br  Br16  1  0.586828  0.867380  0.324992  1
