# generated using pymatgen
data_Sm2Mg2Co3P6Rh5
_symmetry_space_group_name_H-M   'P 1'
_cell_length_a   3.83985400
_cell_length_b   10.81909800
_cell_length_c   12.69260900
_cell_angle_alpha   90.00000000
_cell_angle_beta   90.00000000
_cell_angle_gamma   90.00000000
_symmetry_Int_Tables_number   1
_chemical_formula_structural   Sm2Mg2Co3P6Rh5
_chemical_formula_sum   'Sm4 Mg4 Co6 P12 Rh10'
_cell_volume   527.29866059
_cell_formula_units_Z   2
loop_
 _symmetry_equiv_pos_site_id
 _symmetry_equiv_pos_as_xyz
  1  'x, y, z'
loop_
 _atom_site_type_symbol
 _atom_site_label
 _atom_site_symmetry_multiplicity
 _atom_site_fract_x
 _atom_site_fract_y
 _atom_site_fract_z
 _atom_site_occupancy
  Sm  Sm0  1  0.250000  0.578712  0.712935  1
  Sm  Sm1  1  0.250000  0.921288  0.212935  1
  Sm  Sm2  1  0.750000  0.416490  0.290182  1
  Sm  Sm3  1  0.750000  0.083510  0.790182  1
  Mg  Mg4  1  0.250000  0.702967  0.986232  1
  Mg  Mg5  1  0.250000  0.797033  0.486232  1
  Mg  Mg6  1  0.750000  0.291505  0.008998  1
  Mg  Mg7  1  0.750000  0.208495  0.508998  1
  Co  Co8  1  0.750000  0.119614  0.307861  1
  Co  Co9  1  0.750000  0.380386  0.807861  1
  Co  Co10  1  0.250000  0.463114  0.935202  1
  Co  Co11  1  0.250000  0.036886  0.435202  1
  Co  Co12  1  0.750000  0.531361  0.062819  1
  Co  Co13  1  0.750000  0.968639  0.562819  1
  P  P14  1  0.250000  0.424289  0.109431  1
  P  P15  1  0.250000  0.075711  0.609431  1
  P  P16  1  0.750000  0.565685  0.887476  1
  P  P17  1  0.750000  0.934315  0.387476  1
  P  P18  1  0.250000  0.276787  0.859043  1
  P  P19  1  0.250000  0.223213  0.359043  1
  P  P20  1  0.750000  0.729029  0.138506  1
  P  P21  1  0.750000  0.770971  0.638506  1
  P  P22  1  0.250000  0.594512  0.386623  1
  P  P23  1  0.250000  0.905488  0.886623  1
  P  P24  1  0.750000  0.405725  0.621558  1
  P  P25  1  0.750000  0.094275  0.121558  1
  Rh  Rh26  1  0.250000  0.401916  0.476203  1
  Rh  Rh27  1  0.250000  0.098084  0.976203  1
  Rh  Rh28  1  0.750000  0.595816  0.522981  1
  Rh  Rh29  1  0.750000  0.904184  0.022981  1
  Rh  Rh30  1  0.250000  0.217658  0.174553  1
  Rh  Rh31  1  0.250000  0.282342  0.674553  1
  Rh  Rh32  1  0.750000  0.776553  0.827262  1
  Rh  Rh33  1  0.750000  0.723447  0.327262  1
  Rh  Rh34  1  0.250000  0.880878  0.692135  1
  Rh  Rh35  1  0.250000  0.619122  0.192135  1
