# generated using pymatgen
data_Tm7Lu13GaBi11
_symmetry_space_group_name_H-M   'P 1'
_cell_length_a   8.09868856
_cell_length_b   9.37095100
_cell_length_c   11.83747556
_cell_angle_alpha   90.00000000
_cell_angle_beta   89.73548199
_cell_angle_gamma   90.00000000
_symmetry_Int_Tables_number   1
_chemical_formula_structural   Tm7Lu13GaBi11
_chemical_formula_sum   'Tm7 Lu13 Ga1 Bi11'
_cell_volume   898.36501723
_cell_formula_units_Z   1
loop_
 _symmetry_equiv_pos_site_id
 _symmetry_equiv_pos_as_xyz
  1  'x, y, z'
loop_
 _atom_site_type_symbol
 _atom_site_label
 _atom_site_symmetry_multiplicity
 _atom_site_fract_x
 _atom_site_fract_y
 _atom_site_fract_z
 _atom_site_occupancy
  Tm  Tm0  1  0.647487  0.750000  0.717069  1
  Tm  Tm1  1  0.148413  0.750000  0.782020  1
  Tm  Tm2  1  0.853396  0.250000  0.216346  1
  Tm  Tm3  1  0.193338  0.250000  0.777207  1
  Tm  Tm4  1  0.810177  0.750000  0.217907  1
  Tm  Tm5  1  0.312183  0.750000  0.281356  1
  Tm  Tm6  1  0.674344  0.250000  0.710307  1
  Lu  Lu7  1  0.037381  0.250000  0.509475  1
  Lu  Lu8  1  0.979974  0.750000  0.490358  1
  Lu  Lu9  1  0.476025  0.750000  0.010377  1
  Lu  Lu10  1  0.524979  0.250000  0.989319  1
  Lu  Lu11  1  0.355913  0.250000  0.293831  1
  Lu  Lu12  1  0.194192  0.067188  0.060945  1
  Lu  Lu13  1  0.806196  0.933722  0.940689  1
  Lu  Lu14  1  0.308570  0.949077  0.559017  1
  Lu  Lu15  1  0.806196  0.566278  0.940689  1
  Lu  Lu16  1  0.684432  0.073424  0.444944  1
  Lu  Lu17  1  0.194192  0.432812  0.060945  1
  Lu  Lu18  1  0.684432  0.426576  0.444944  1
  Lu  Lu19  1  0.308570  0.550923  0.559017  1
  Ga  Ga20  1  0.407255  0.250000  0.539397  1
  Bi  Bi21  1  0.594496  0.750000  0.457491  1
  Bi  Bi22  1  0.095103  0.750000  0.042666  1
  Bi  Bi23  1  0.906909  0.250000  0.954274  1
  Bi  Bi24  1  0.063474  0.002675  0.324705  1
  Bi  Bi25  1  0.934800  0.998071  0.674741  1
  Bi  Bi26  1  0.435316  0.996064  0.825772  1
  Bi  Bi27  1  0.934800  0.501929  0.674741  1
  Bi  Bi28  1  0.564333  0.004902  0.174485  1
  Bi  Bi29  1  0.063474  0.497325  0.324705  1
  Bi  Bi30  1  0.564333  0.495098  0.174485  1
  Bi  Bi31  1  0.435316  0.503936  0.825772  1
