# generated using pymatgen
data_Ta12MnAlGa7Rh3C4
_symmetry_space_group_name_H-M   'P 1'
_cell_length_a   8.31217720
_cell_length_b   8.31217857
_cell_length_c   8.31217700
_cell_angle_alpha   60.00315411
_cell_angle_beta   60.00314866
_cell_angle_gamma   60.00315220
_symmetry_Int_Tables_number   1
_chemical_formula_structural   Ta12MnAlGa7Rh3C4
_chemical_formula_sum   'Ta12 Mn1 Al1 Ga7 Rh3 C4'
_cell_volume   406.12570031
_cell_formula_units_Z   1
loop_
 _symmetry_equiv_pos_site_id
 _symmetry_equiv_pos_as_xyz
  1  'x, y, z'
loop_
 _atom_site_type_symbol
 _atom_site_label
 _atom_site_symmetry_multiplicity
 _atom_site_fract_x
 _atom_site_fract_y
 _atom_site_fract_z
 _atom_site_occupancy
  Ta  Ta0  1  0.563741  0.937282  0.563741  1
  Ta  Ta1  1  0.311860  0.687721  0.687721  1
  Ta  Ta2  1  0.695821  0.308987  0.308987  1
  Ta  Ta3  1  0.308987  0.695821  0.308987  1
  Ta  Ta4  1  0.687721  0.687721  0.311860  1
  Ta  Ta5  1  0.308987  0.308987  0.695821  1
  Ta  Ta6  1  0.563741  0.563741  0.937282  1
  Ta  Ta7  1  0.937282  0.563741  0.563741  1
  Ta  Ta8  1  0.551239  0.942357  0.942357  1
  Ta  Ta9  1  0.942357  0.942357  0.551239  1
  Ta  Ta10  1  0.687721  0.311860  0.687721  1
  Ta  Ta11  1  0.942357  0.551239  0.942357  1
  Mn  Mn12  1  0.124852  0.124852  0.124852  1
  Al  Al13  1  0.333657  0.333657  0.333657  1
  Ga  Ga14  1  0.912622  0.912622  0.912622  1
  Ga  Ga15  1  0.996215  0.332698  0.332698  1
  Ga  Ga16  1  0.332698  0.996215  0.332698  1
  Ga  Ga17  1  0.332698  0.332698  0.996215  1
  Ga  Ga18  1  0.917678  0.252829  0.917678  1
  Ga  Ga19  1  0.917678  0.917678  0.252829  1
  Ga  Ga20  1  0.252829  0.917678  0.917678  1
  Rh  Rh21  1  0.624284  0.126164  0.126164  1
  Rh  Rh22  1  0.126164  0.624284  0.126164  1
  Rh  Rh23  1  0.126164  0.126164  0.624284  1
  C  C24  1  0.624843  0.624843  0.624843  1
  C  C25  1  0.124980  0.625413  0.625413  1
  C  C26  1  0.625413  0.124980  0.625413  1
  C  C27  1  0.625413  0.625413  0.124980  1
