# generated using pymatgen
data_Eu2Zn21Co
_symmetry_space_group_name_H-M   'P 1'
_cell_length_a   8.34690384
_cell_length_b   8.36644661
_cell_length_c   8.34690300
_cell_angle_alpha   100.26714013
_cell_angle_beta   98.92065191
_cell_angle_gamma   131.66099229
_symmetry_Int_Tables_number   1
_chemical_formula_structural   Eu2Zn21Co
_chemical_formula_sum   'Eu2 Zn21 Co1'
_cell_volume   397.73327657
_cell_formula_units_Z   1
loop_
 _symmetry_equiv_pos_site_id
 _symmetry_equiv_pos_as_xyz
  1  'x, y, z'
loop_
 _atom_site_type_symbol
 _atom_site_label
 _atom_site_symmetry_multiplicity
 _atom_site_fract_x
 _atom_site_fract_y
 _atom_site_fract_z
 _atom_site_occupancy
  Eu  Eu0  1  0.999763  0.001851  0.002088  1
  Eu  Eu1  1  0.250237  0.748149  0.497912  1
  Zn  Zn2  1  0.057156  0.648961  0.828647  1
  Zn  Zn3  1  0.823524  0.239167  0.173545  1
  Zn  Zn4  1  0.738667  0.252975  0.514308  1
  Zn  Zn5  1  0.511333  0.497025  0.985692  1
  Zn  Zn6  1  0.625000  0.375000  0.250000  1
  Zn  Zn7  1  0.125000  0.375000  0.750000  1
  Zn  Zn8  1  0.625000  0.875000  0.250000  1
  Zn  Zn9  1  0.820313  0.648961  0.591805  1
  Zn  Zn10  1  0.905482  0.817732  0.331776  1
  Zn  Zn11  1  0.493103  0.565584  0.677504  1
  Zn  Zn12  1  0.065622  0.239167  0.415642  1
  Zn  Zn13  1  0.764044  0.932268  0.587751  1
  Zn  Zn14  1  0.361920  0.184416  0.427519  1
  Zn  Zn15  1  0.426476  0.510833  0.326455  1
  Zn  Zn16  1  0.192844  0.101039  0.671353  1
  Zn  Zn17  1  0.429687  0.101039  0.908195  1
  Zn  Zn18  1  0.344518  0.932268  0.168224  1
  Zn  Zn19  1  0.756897  0.184416  0.822496  1
  Zn  Zn20  1  0.184378  0.510833  0.084358  1
  Zn  Zn21  1  0.485956  0.817732  0.912249  1
  Zn  Zn22  1  0.888080  0.565584  0.072481  1
  Co  Co23  1  0.625000  0.375000  0.750000  1
