# generated using pymatgen
data_Y7Er(Si4W3)4
_symmetry_space_group_name_H-M   'P 1'
_cell_length_a   6.78778022
_cell_length_b   6.94851620
_cell_length_c   12.92223305
_cell_angle_alpha   89.94081688
_cell_angle_beta   90.03073860
_cell_angle_gamma   90.02921730
_symmetry_Int_Tables_number   1
_chemical_formula_structural   Y7Er(Si4W3)4
_chemical_formula_sum   'Y7 Er1 Si16 W12'
_cell_volume   609.47663977
_cell_formula_units_Z   1
loop_
 _symmetry_equiv_pos_site_id
 _symmetry_equiv_pos_as_xyz
  1  'x, y, z'
loop_
 _atom_site_type_symbol
 _atom_site_label
 _atom_site_symmetry_multiplicity
 _atom_site_fract_x
 _atom_site_fract_y
 _atom_site_fract_z
 _atom_site_occupancy
  Y  Y0  1  0.495779  0.667508  0.593420  1
  Y  Y1  1  0.996066  0.832572  0.906645  1
  Y  Y2  1  0.504431  0.332523  0.093512  1
  Y  Y3  1  0.004034  0.167565  0.407009  1
  Y  Y4  1  0.503856  0.332378  0.406959  1
  Y  Y5  1  0.004080  0.167695  0.093498  1
  Y  Y6  1  0.495692  0.667563  0.906127  1
  Er  Er7  1  0.995040  0.831940  0.593443  1
  Si  Si8  1  0.661393  0.957324  0.453263  1
  Si  Si9  1  0.161353  0.542656  0.047143  1
  Si  Si10  1  0.339185  0.042714  0.952676  1
  Si  Si11  1  0.838928  0.458039  0.547203  1
  Si  Si12  1  0.337573  0.041700  0.547178  1
  Si  Si13  1  0.838909  0.457568  0.952768  1
  Si  Si14  1  0.661190  0.957189  0.047171  1
  Si  Si15  1  0.161029  0.543216  0.453225  1
  Si  Si16  1  0.463930  0.369567  0.749826  1
  Si  Si17  1  0.964295  0.129134  0.749454  1
  Si  Si18  1  0.536172  0.630366  0.250157  1
  Si  Si19  1  0.036080  0.870112  0.250111  1
  Si  Si20  1  0.697676  0.866937  0.749687  1
  Si  Si21  1  0.196351  0.633280  0.749428  1
  Si  Si22  1  0.302916  0.132926  0.250157  1
  Si  Si23  1  0.803029  0.367615  0.250391  1
  W  W24  1  0.668336  0.162837  0.625499  1
  W  W25  1  0.167685  0.336393  0.873923  1
  W  W26  1  0.331929  0.836902  0.125624  1
  W  W27  1  0.832117  0.664022  0.374873  1
  W  W28  1  0.331805  0.836642  0.374485  1
  W  W29  1  0.832319  0.663538  0.125838  1
  W  W30  1  0.668733  0.163169  0.874126  1
  W  W31  1  0.168146  0.336528  0.625460  1
  W  W32  1  0.833970  0.499122  0.749624  1
  W  W33  1  0.333782  0.000391  0.749517  1
  W  W34  1  0.166191  0.501290  0.250238  1
  W  W35  1  0.666000  0.999079  0.250339  1
