# generated using pymatgen
data_NaDyY2(Rh2O7)2
_symmetry_space_group_name_H-M   'P 1'
_cell_length_a   7.28906865
_cell_length_b   7.23895164
_cell_length_c   7.28906900
_cell_angle_alpha   120.04033274
_cell_angle_beta   120.25686944
_cell_angle_gamma   89.93969801
_symmetry_Int_Tables_number   1
_chemical_formula_structural   NaDyY2(Rh2O7)2
_chemical_formula_sum   'Na1 Dy1 Y2 Rh4 O14'
_cell_volume   270.87729930
_cell_formula_units_Z   1
loop_
 _symmetry_equiv_pos_site_id
 _symmetry_equiv_pos_as_xyz
  1  'x, y, z'
loop_
 _atom_site_type_symbol
 _atom_site_label
 _atom_site_symmetry_multiplicity
 _atom_site_fract_x
 _atom_site_fract_y
 _atom_site_fract_z
 _atom_site_occupancy
  Na  Na0  1  0.500000  0.000000  0.000000  1
  Dy  Dy1  1  0.500000  0.500000  0.500000  1
  Y  Y2  1  0.500000  0.500000  0.000000  1
  Y  Y3  1  0.000000  0.500000  0.500000  1
  Rh  Rh4  1  0.000000  0.000000  0.500000  1
  Rh  Rh5  1  0.000000  0.500000  0.000000  1
  Rh  Rh6  1  0.000000  0.000000  0.000000  1
  Rh  Rh7  1  0.500000  0.000000  0.500000  1
  O  O8  1  0.370626  0.610959  0.740335  1
  O  O9  1  0.629374  0.389041  0.259665  1
  O  O10  1  0.327243  0.086143  0.258910  1
  O  O11  1  0.917543  0.666184  0.248637  1
  O  O12  1  0.332138  0.665237  0.248415  1
  O  O13  1  0.933372  0.085670  0.259457  1
  O  O14  1  0.326214  0.085665  0.652287  1
  O  O15  1  0.916809  0.665222  0.833085  1
  O  O16  1  0.672757  0.913857  0.741090  1
  O  O17  1  0.082457  0.333816  0.751363  1
  O  O18  1  0.667862  0.334763  0.751585  1
  O  O19  1  0.066628  0.914330  0.740543  1
  O  O20  1  0.673786  0.914335  0.347713  1
  O  O21  1  0.083191  0.334778  0.166915  1
