# generated using pymatgen
data_Zr3CoSi3
_symmetry_space_group_name_H-M   'P 1'
_cell_length_a   5.35050151
_cell_length_b   5.35050187
_cell_length_c   12.87004101
_cell_angle_alpha   70.96089609
_cell_angle_beta   70.96089498
_cell_angle_gamma   42.22511549
_symmetry_Int_Tables_number   1
_chemical_formula_structural   Zr3CoSi3
_chemical_formula_sum   'Zr6 Co2 Si6'
_cell_volume   231.97722357
_cell_formula_units_Z   2
loop_
 _symmetry_equiv_pos_site_id
 _symmetry_equiv_pos_as_xyz
  1  'x, y, z'
loop_
 _atom_site_type_symbol
 _atom_site_label
 _atom_site_symmetry_multiplicity
 _atom_site_fract_x
 _atom_site_fract_y
 _atom_site_fract_z
 _atom_site_occupancy
  Zr  Zr0  1  0.747138  0.747138  0.773011  1
  Zr  Zr1  1  0.392856  0.392856  0.920233  1
  Zr  Zr2  1  0.607144  0.607144  0.079767  1
  Zr  Zr3  1  0.478517  0.478517  0.379211  1
  Zr  Zr4  1  0.252862  0.252862  0.226989  1
  Zr  Zr5  1  0.521483  0.521483  0.620789  1
  Co  Co6  1  0.760976  0.760976  0.412608  1
  Co  Co7  1  0.239024  0.239024  0.587392  1
  Si  Si8  1  0.041299  0.041299  0.761297  1
  Si  Si9  1  0.133685  0.133685  0.451735  1
  Si  Si10  1  0.866315  0.866315  0.548265  1
  Si  Si11  1  0.958701  0.958701  0.238703  1
  Si  Si12  1  0.886023  0.886023  0.075876  1
  Si  Si13  1  0.113977  0.113977  0.924124  1
