# generated using pymatgen
data_Nd3Zn2Pd3Au
_symmetry_space_group_name_H-M   'P 1'
_cell_length_a   7.47124771
_cell_length_b   7.47124857
_cell_length_c   3.97168000
_cell_angle_alpha   90.00000000
_cell_angle_beta   90.00000000
_cell_angle_gamma   118.52525339
_symmetry_Int_Tables_number   1
_chemical_formula_structural   Nd3Zn2Pd3Au
_chemical_formula_sum   'Nd3 Zn2 Pd3 Au1'
_cell_volume   194.78481198
_cell_formula_units_Z   1
loop_
 _symmetry_equiv_pos_site_id
 _symmetry_equiv_pos_as_xyz
  1  'x, y, z'
loop_
 _atom_site_type_symbol
 _atom_site_label
 _atom_site_symmetry_multiplicity
 _atom_site_fract_x
 _atom_site_fract_y
 _atom_site_fract_z
 _atom_site_occupancy
  Nd  Nd0  1  0.408487  0.408487  0.000000  1
  Nd  Nd1  1  0.598012  0.992610  0.000000  1
  Nd  Nd2  1  0.992610  0.598012  0.000000  1
  Zn  Zn3  1  0.249595  0.999241  0.500000  1
  Zn  Zn4  1  0.999241  0.249595  0.500000  1
  Pd  Pd5  1  0.025204  0.025204  0.000000  1
  Pd  Pd6  1  0.662424  0.317073  0.500000  1
  Pd  Pd7  1  0.317073  0.662424  0.500000  1
  Au  Au8  1  0.747355  0.747355  0.500000  1
