# generated using pymatgen
data_Ca4MgSc(OsO6)2
_symmetry_space_group_name_H-M   'P 1'
_cell_length_a   5.63765983
_cell_length_b   5.46518686
_cell_length_c   9.53466563
_cell_angle_alpha   55.08986881
_cell_angle_beta   89.87802868
_cell_angle_gamma   89.97515891
_symmetry_Int_Tables_number   1
_chemical_formula_structural   Ca4MgSc(OsO6)2
_chemical_formula_sum   'Ca4 Mg1 Sc1 Os2 O12'
_cell_volume   240.90669436
_cell_formula_units_Z   1
loop_
 _symmetry_equiv_pos_site_id
 _symmetry_equiv_pos_as_xyz
  1  'x, y, z'
loop_
 _atom_site_type_symbol
 _atom_site_label
 _atom_site_symmetry_multiplicity
 _atom_site_fract_x
 _atom_site_fract_y
 _atom_site_fract_z
 _atom_site_occupancy
  Ca  Ca0  1  0.949294  0.232397  0.755284  1
  Ca  Ca1  1  0.556260  0.243503  0.243505  1
  Ca  Ca2  1  0.050706  0.767603  0.244716  1
  Ca  Ca3  1  0.443740  0.756497  0.756495  1
  Mg  Mg4  1  0.000000  0.500000  0.000000  1
  Sc  Sc5  1  0.500000  0.500000  0.500000  1
  Os  Os6  1  0.000000  0.000000  0.500000  1
  Os  Os7  1  0.500000  0.000000  0.000000  1
  O  O8  1  0.530428  0.336098  0.757612  1
  O  O9  1  0.970521  0.332459  0.259383  1
  O  O10  1  0.469572  0.663902  0.242388  1
  O  O11  1  0.029479  0.667541  0.740617  1
  O  O12  1  0.696019  0.757981  0.953776  1
  O  O13  1  0.804530  0.757164  0.451138  1
  O  O14  1  0.303981  0.242019  0.046224  1
  O  O15  1  0.195470  0.242836  0.548862  1
  O  O16  1  0.785997  0.142160  0.049185  1
  O  O17  1  0.710149  0.139160  0.551051  1
  O  O18  1  0.214003  0.857840  0.950815  1
  O  O19  1  0.289851  0.860840  0.448949  1
