# generated using pymatgen
data_PuCoH4
_symmetry_space_group_name_H-M   'P 1'
_cell_length_a   6.07005823
_cell_length_b   6.07005769
_cell_length_c   4.80733500
_cell_angle_alpha   90.00000000
_cell_angle_beta   90.00000000
_cell_angle_gamma   144.83848697
_symmetry_Int_Tables_number   1
_chemical_formula_structural   PuCoH4
_chemical_formula_sum   'Pu2 Co2 H8'
_cell_volume   102.00572332
_cell_formula_units_Z   2
loop_
 _symmetry_equiv_pos_site_id
 _symmetry_equiv_pos_as_xyz
  1  'x, y, z'
loop_
 _atom_site_type_symbol
 _atom_site_label
 _atom_site_symmetry_multiplicity
 _atom_site_fract_x
 _atom_site_fract_y
 _atom_site_fract_z
 _atom_site_occupancy
  Pu  Pu0  1  0.868910  0.131090  0.750000  1
  Pu  Pu1  1  0.131090  0.868910  0.250000  1
  Co  Co2  1  0.596369  0.403631  0.750000  1
  Co  Co3  1  0.403631  0.596369  0.250000  1
  H  H4  1  0.088394  0.911606  0.750000  1
  H  H5  1  0.911606  0.088394  0.250000  1
  H  H6  1  0.693614  0.306386  0.508033  1
  H  H7  1  0.306386  0.693614  0.491967  1
  H  H8  1  0.693614  0.306386  0.991967  1
  H  H9  1  0.306386  0.693614  0.008033  1
  H  H10  1  0.500000  0.500000  0.000000  1
  H  H11  1  0.500000  0.500000  0.500000  1
