# generated using pymatgen
data_Sr6Sn8SbBr
_symmetry_space_group_name_H-M   'P 1'
_cell_length_a   8.99757582
_cell_length_b   8.99757542
_cell_length_c   8.99757605
_cell_angle_alpha   120.18393331
_cell_angle_beta   120.18393151
_cell_angle_gamma   89.68171767
_symmetry_Int_Tables_number   1
_chemical_formula_structural   Sr6Sn8SbBr
_chemical_formula_sum   'Sr6 Sn8 Sb1 Br1'
_cell_volume   513.62385113
_cell_formula_units_Z   1
loop_
 _symmetry_equiv_pos_site_id
 _symmetry_equiv_pos_as_xyz
  1  'x, y, z'
loop_
 _atom_site_type_symbol
 _atom_site_label
 _atom_site_symmetry_multiplicity
 _atom_site_fract_x
 _atom_site_fract_y
 _atom_site_fract_z
 _atom_site_occupancy
  Sr  Sr0  1  0.248563  0.248563  0.000000  1
  Sr  Sr1  1  0.751437  0.751437  0.000000  1
  Sr  Sr2  1  0.166620  0.659669  0.826289  1
  Sr  Sr3  1  0.833380  0.340331  0.173711  1
  Sr  Sr4  1  0.659669  0.833380  0.493050  1
  Sr  Sr5  1  0.340331  0.166620  0.506950  1
  Sn  Sn6  1  0.830728  0.331607  0.784588  1
  Sn  Sn7  1  0.169272  0.668393  0.215412  1
  Sn  Sn8  1  0.547019  0.046140  0.215412  1
  Sn  Sn9  1  0.331607  0.547019  0.500878  1
  Sn  Sn10  1  0.953860  0.169272  0.500878  1
  Sn  Sn11  1  0.452981  0.953860  0.784588  1
  Sn  Sn12  1  0.668393  0.452981  0.499122  1
  Sn  Sn13  1  0.046140  0.830728  0.499122  1
  Sb  Sb14  1  0.500000  0.500000  0.000000  1
  Br  Br15  1  0.000000  0.000000  0.000000  1
