# generated using pymatgen
data_La16Tb3HoIr12
_symmetry_space_group_name_H-M   'P 1'
_cell_length_a   11.38532200
_cell_length_b   11.38532200
_cell_length_c   6.55074000
_cell_angle_alpha   90.00000000
_cell_angle_beta   90.00000000
_cell_angle_gamma   90.00000000
_symmetry_Int_Tables_number   1
_chemical_formula_structural   La16Tb3HoIr12
_chemical_formula_sum   'La16 Tb3 Ho1 Ir12'
_cell_volume   849.14332155
_cell_formula_units_Z   1
loop_
 _symmetry_equiv_pos_site_id
 _symmetry_equiv_pos_as_xyz
  1  'x, y, z'
loop_
 _atom_site_type_symbol
 _atom_site_label
 _atom_site_symmetry_multiplicity
 _atom_site_fract_x
 _atom_site_fract_y
 _atom_site_fract_z
 _atom_site_occupancy
  La  La0  1  0.288140  0.088669  0.386480  1
  La  La1  1  0.288276  0.911348  0.886346  1
  La  La2  1  0.711724  0.088652  0.886346  1
  La  La3  1  0.711860  0.911331  0.386480  1
  La  La4  1  0.588648  0.788341  0.886413  1
  La  La5  1  0.588716  0.211645  0.386336  1
  La  La6  1  0.411284  0.788355  0.386336  1
  La  La7  1  0.411352  0.211659  0.886413  1
  La  La8  1  0.211645  0.411284  0.613664  1
  La  La9  1  0.211659  0.588648  0.113587  1
  La  La10  1  0.788341  0.411352  0.113587  1
  La  La11  1  0.788355  0.588716  0.613664  1
  La  La12  1  0.911348  0.711724  0.113654  1
  La  La13  1  0.911331  0.288140  0.613520  1
  La  La14  1  0.088669  0.711860  0.613520  1
  La  La15  1  0.088652  0.288276  0.113654  1
  Tb  Tb16  1  0.000000  0.000000  0.000000  1
  Tb  Tb17  1  0.500000  0.500000  0.000000  1
  Tb  Tb18  1  0.500000  0.500000  0.500000  1
  Ho  Ho19  1  0.000000  0.000000  0.500000  1
  Ir  Ir20  1  0.851076  0.148951  0.250571  1
  Ir  Ir21  1  0.851049  0.851076  0.749429  1
  Ir  Ir22  1  0.148951  0.148924  0.749429  1
  Ir  Ir23  1  0.148924  0.851049  0.250571  1
  Ir  Ir24  1  0.649305  0.350684  0.750017  1
  Ir  Ir25  1  0.649316  0.649305  0.249983  1
  Ir  Ir26  1  0.350684  0.350695  0.249983  1
  Ir  Ir27  1  0.350695  0.649316  0.750017  1
  Ir  Ir28  1  0.500000  0.000000  0.117935  1
  Ir  Ir29  1  0.500000  0.000000  0.617982  1
  Ir  Ir30  1  0.000000  0.500000  0.882065  1
  Ir  Ir31  1  0.000000  0.500000  0.382018  1
