# generated using pymatgen
data_Tm5NiSb2
_symmetry_space_group_name_H-M   'P 1'
_cell_length_a   7.79847900
_cell_length_b   8.73699100
_cell_length_c   11.96317700
_cell_angle_alpha   90.00000000
_cell_angle_beta   90.00000000
_cell_angle_gamma   90.00000000
_symmetry_Int_Tables_number   1
_chemical_formula_structural   Tm5NiSb2
_chemical_formula_sum   'Tm20 Ni4 Sb8'
_cell_volume   815.11394607
_cell_formula_units_Z   4
loop_
 _symmetry_equiv_pos_site_id
 _symmetry_equiv_pos_as_xyz
  1  'x, y, z'
loop_
 _atom_site_type_symbol
 _atom_site_label
 _atom_site_symmetry_multiplicity
 _atom_site_fract_x
 _atom_site_fract_y
 _atom_site_fract_z
 _atom_site_occupancy
  Tm  Tm0  1  0.321076  0.541841  0.434037  1
  Tm  Tm1  1  0.875700  0.250000  0.804183  1
  Tm  Tm2  1  0.178924  0.541841  0.934037  1
  Tm  Tm3  1  0.321076  0.958159  0.434037  1
  Tm  Tm4  1  0.124300  0.750000  0.195817  1
  Tm  Tm5  1  0.841258  0.750000  0.792819  1
  Tm  Tm6  1  0.375700  0.750000  0.695817  1
  Tm  Tm7  1  0.952679  0.750000  0.500374  1
  Tm  Tm8  1  0.452679  0.250000  0.999626  1
  Tm  Tm9  1  0.678924  0.458159  0.565963  1
  Tm  Tm10  1  0.821076  0.041841  0.065963  1
  Tm  Tm11  1  0.658742  0.750000  0.292819  1
  Tm  Tm12  1  0.547321  0.750000  0.000374  1
  Tm  Tm13  1  0.047321  0.250000  0.499626  1
  Tm  Tm14  1  0.678924  0.041841  0.565963  1
  Tm  Tm15  1  0.178924  0.958159  0.934037  1
  Tm  Tm16  1  0.624300  0.250000  0.304183  1
  Tm  Tm17  1  0.341258  0.250000  0.707181  1
  Tm  Tm18  1  0.821076  0.458159  0.065963  1
  Tm  Tm19  1  0.158742  0.250000  0.207181  1
  Ni  Ni20  1  0.924029  0.750000  0.012364  1
  Ni  Ni21  1  0.575971  0.750000  0.512364  1
  Ni  Ni22  1  0.075971  0.250000  0.987636  1
  Ni  Ni23  1  0.424029  0.250000  0.487636  1
  Sb  Sb24  1  0.929500  0.490902  0.327725  1
  Sb  Sb25  1  0.429500  0.509098  0.172275  1
  Sb  Sb26  1  0.429500  0.990902  0.172275  1
  Sb  Sb27  1  0.570500  0.490902  0.827725  1
  Sb  Sb28  1  0.070500  0.509098  0.672275  1
  Sb  Sb29  1  0.570500  0.009098  0.827725  1
  Sb  Sb30  1  0.929500  0.009098  0.327725  1
  Sb  Sb31  1  0.070500  0.990902  0.672275  1
