# generated using pymatgen
data_Dy2Ho2ReB12Ru
_symmetry_space_group_name_H-M   'P 1'
_cell_length_a   3.66681400
_cell_length_b   9.14911864
_cell_length_c   11.53953338
_cell_angle_alpha   89.79522865
_cell_angle_beta   90.00000000
_cell_angle_gamma   90.00000000
_symmetry_Int_Tables_number   1
_chemical_formula_structural   Dy2Ho2ReB12Ru
_chemical_formula_sum   'Dy4 Ho4 Re2 B24 Ru2'
_cell_volume   387.12713579
_cell_formula_units_Z   2
loop_
 _symmetry_equiv_pos_site_id
 _symmetry_equiv_pos_as_xyz
  1  'x, y, z'
loop_
 _atom_site_type_symbol
 _atom_site_label
 _atom_site_symmetry_multiplicity
 _atom_site_fract_x
 _atom_site_fract_y
 _atom_site_fract_z
 _atom_site_occupancy
  Dy  Dy0  1  0.000000  0.324784  0.415368  1
  Dy  Dy1  1  0.000000  0.675216  0.584632  1
  Dy  Dy2  1  0.000000  0.821402  0.087626  1
  Dy  Dy3  1  0.000000  0.178598  0.912374  1
  Ho  Ho4  1  0.000000  0.943025  0.370854  1
  Ho  Ho5  1  0.000000  0.056975  0.629146  1
  Ho  Ho6  1  0.000000  0.442802  0.129331  1
  Ho  Ho7  1  0.000000  0.557198  0.870669  1
  Re  Re8  1  0.000000  0.638624  0.320203  1
  Re  Re9  1  0.000000  0.361376  0.679797  1
  B  B10  1  0.500000  0.553155  0.432960  1
  B  B11  1  0.500000  0.446845  0.567040  1
  B  B12  1  0.500000  0.053888  0.067174  1
  B  B13  1  0.500000  0.946112  0.932826  1
  B  B14  1  0.500000  0.748905  0.418974  1
  B  B15  1  0.500000  0.251095  0.581026  1
  B  B16  1  0.500000  0.248442  0.081104  1
  B  B17  1  0.500000  0.751558  0.918896  1
  B  B18  1  0.500000  0.791904  0.265428  1
  B  B19  1  0.500000  0.208096  0.734572  1
  B  B20  1  0.500000  0.290702  0.233886  1
  B  B21  1  0.500000  0.709298  0.766114  1
  B  B22  1  0.500000  0.631375  0.185064  1
  B  B23  1  0.500000  0.368625  0.814936  1
  B  B24  1  0.500000  0.131081  0.313978  1
  B  B25  1  0.500000  0.868919  0.686022  1
  B  B26  1  0.500000  0.983409  0.212094  1
  B  B27  1  0.500000  0.016591  0.787906  1
  B  B28  1  0.500000  0.482734  0.287317  1
  B  B29  1  0.500000  0.517266  0.712683  1
  B  B30  1  0.500000  0.603897  0.028606  1
  B  B31  1  0.500000  0.396103  0.971394  1
  B  B32  1  0.500000  0.103449  0.471204  1
  B  B33  1  0.500000  0.896551  0.528796  1
  Ru  Ru34  1  0.000000  0.137936  0.178663  1
  Ru  Ru35  1  0.000000  0.862064  0.821337  1
