# generated using pymatgen
data_YHo5Tm10(InIr)4
_symmetry_space_group_name_H-M   'P 1'
_cell_length_a   9.58121654
_cell_length_b   9.57402693
_cell_length_c   9.59131100
_cell_angle_alpha   59.94026636
_cell_angle_beta   59.96514559
_cell_angle_gamma   59.93952989
_symmetry_Int_Tables_number   1
_chemical_formula_structural   YHo5Tm10(InIr)4
_chemical_formula_sum   'Y1 Ho5 Tm10 In4 Ir4'
_cell_volume   621.39653431
_cell_formula_units_Z   1
loop_
 _symmetry_equiv_pos_site_id
 _symmetry_equiv_pos_as_xyz
  1  'x, y, z'
loop_
 _atom_site_type_symbol
 _atom_site_label
 _atom_site_symmetry_multiplicity
 _atom_site_fract_x
 _atom_site_fract_y
 _atom_site_fract_z
 _atom_site_occupancy
  Y  Y0  1  0.438736  0.439601  0.060831  1
  Ho  Ho1  1  0.438631  0.060241  0.060081  1
  Ho  Ho2  1  0.059810  0.060538  0.439826  1
  Ho  Ho3  1  0.649593  0.048361  0.651023  1
  Ho  Ho4  1  0.810711  0.808928  0.190180  1
  Ho  Ho5  1  0.438631  0.060241  0.441046  1
  Tm  Tm6  1  0.651134  0.650799  0.045607  1
  Tm  Tm7  1  0.191138  0.809919  0.189885  1
  Tm  Tm8  1  0.059336  0.439653  0.059795  1
  Tm  Tm9  1  0.191138  0.809919  0.809059  1
  Tm  Tm10  1  0.059336  0.439653  0.441217  1
  Tm  Tm11  1  0.811305  0.190969  0.189169  1
  Tm  Tm12  1  0.651134  0.650799  0.652462  1
  Tm  Tm13  1  0.811305  0.190969  0.808556  1
  Tm  Tm14  1  0.189846  0.190408  0.809873  1
  Tm  Tm15  1  0.047497  0.649550  0.651477  1
  In  In16  1  0.415805  0.417651  0.416501  1
  In  In17  1  0.415805  0.417651  0.750044  1
  In  In18  1  0.416391  0.748573  0.417519  1
  In  In19  1  0.750545  0.417608  0.415923  1
  Ir  Ir20  1  0.422910  0.858357  0.859366  1
  Ir  Ir21  1  0.859927  0.857863  0.858429  1
  Ir  Ir22  1  0.859412  0.423885  0.858351  1
  Ir  Ir23  1  0.859927  0.857863  0.423779  1
