# generated using pymatgen
data_Pr3In2SnPt3
_symmetry_space_group_name_H-M   'P 1'
_cell_length_a   7.77497000
_cell_length_b   7.75170279
_cell_length_c   4.09912400
_cell_angle_alpha   90.00000000
_cell_angle_beta   90.00000000
_cell_angle_gamma   120.09933207
_symmetry_Int_Tables_number   1
_chemical_formula_structural   Pr3In2SnPt3
_chemical_formula_sum   'Pr3 In2 Sn1 Pt3'
_cell_volume   213.73810323
_cell_formula_units_Z   1
loop_
 _symmetry_equiv_pos_site_id
 _symmetry_equiv_pos_as_xyz
  1  'x, y, z'
loop_
 _atom_site_type_symbol
 _atom_site_label
 _atom_site_symmetry_multiplicity
 _atom_site_fract_x
 _atom_site_fract_y
 _atom_site_fract_z
 _atom_site_occupancy
  Pr  Pr0  1  0.589561  0.588152  0.000000  1
  Pr  Pr1  1  0.409711  0.000000  0.000000  1
  Pr  Pr2  1  0.001409  0.411848  0.000000  1
  In  In3  1  0.000576  0.748060  0.500000  1
  In  In4  1  0.252516  0.251940  0.500000  1
  Sn  Sn5  1  0.749080  0.000000  0.500000  1
  Pt  Pt6  1  0.665793  0.332336  0.500000  1
  Pt  Pt7  1  0.997899  0.000000  0.000000  1
  Pt  Pt8  1  0.333456  0.667664  0.500000  1
