# generated using pymatgen
data_TaNbAlCr3
_symmetry_space_group_name_H-M   'P 1'
_cell_length_a   4.85897400
_cell_length_b   4.85897407
_cell_length_c   8.35910000
_cell_angle_alpha   90.00000000
_cell_angle_beta   90.00000000
_cell_angle_gamma   119.99999953
_symmetry_Int_Tables_number   1
_chemical_formula_structural   TaNbAlCr3
_chemical_formula_sum   'Ta2 Nb2 Al2 Cr6'
_cell_volume   170.91465828
_cell_formula_units_Z   2
loop_
 _symmetry_equiv_pos_site_id
 _symmetry_equiv_pos_as_xyz
  1  'x, y, z'
loop_
 _atom_site_type_symbol
 _atom_site_label
 _atom_site_symmetry_multiplicity
 _atom_site_fract_x
 _atom_site_fract_y
 _atom_site_fract_z
 _atom_site_occupancy
  Ta  Ta0  1  0.666667  0.333333  0.934517  1
  Ta  Ta1  1  0.333333  0.666667  0.065483  1
  Nb  Nb2  1  0.333333  0.666667  0.434363  1
  Nb  Nb3  1  0.666667  0.333333  0.565637  1
  Al  Al4  1  0.000000  0.000000  0.500000  1
  Al  Al5  1  0.000000  0.000000  0.000000  1
  Cr  Cr6  1  0.827231  0.172769  0.248847  1
  Cr  Cr7  1  0.827231  0.654463  0.248847  1
  Cr  Cr8  1  0.345537  0.172769  0.248847  1
  Cr  Cr9  1  0.172769  0.827231  0.751153  1
  Cr  Cr10  1  0.172769  0.345537  0.751153  1
  Cr  Cr11  1  0.654463  0.827231  0.751153  1
