# generated using pymatgen
data_ErLu5Co16(TcP6)2
_symmetry_space_group_name_H-M   'P 1'
_cell_length_a   3.68321100
_cell_length_b   10.47345800
_cell_length_c   12.13043300
_cell_angle_alpha   90.00000000
_cell_angle_beta   90.00000000
_cell_angle_gamma   90.00000000
_symmetry_Int_Tables_number   1
_chemical_formula_structural   ErLu5Co16(TcP6)2
_chemical_formula_sum   'Er1 Lu5 Co16 Tc2 P12'
_cell_volume   467.94304620
_cell_formula_units_Z   1
loop_
 _symmetry_equiv_pos_site_id
 _symmetry_equiv_pos_as_xyz
  1  'x, y, z'
loop_
 _atom_site_type_symbol
 _atom_site_label
 _atom_site_symmetry_multiplicity
 _atom_site_fract_x
 _atom_site_fract_y
 _atom_site_fract_z
 _atom_site_occupancy
  Er  Er0  1  0.000000  0.500000  0.525996  1
  Lu  Lu1  1  0.500000  0.000000  0.473670  1
  Lu  Lu2  1  0.500000  0.818686  0.205981  1
  Lu  Lu3  1  0.500000  0.181314  0.205981  1
  Lu  Lu4  1  0.000000  0.681598  0.794422  1
  Lu  Lu5  1  0.000000  0.318402  0.794422  1
  Co  Co6  1  0.500000  0.500000  0.702758  1
  Co  Co7  1  0.000000  0.000000  0.298143  1
  Co  Co8  1  0.000000  0.500000  0.986894  1
  Co  Co9  1  0.500000  0.000000  0.013258  1
  Co  Co10  1  0.500000  0.332048  0.988963  1
  Co  Co11  1  0.500000  0.667952  0.988963  1
  Co  Co12  1  0.000000  0.167672  0.011058  1
  Co  Co13  1  0.000000  0.832328  0.011058  1
  Co  Co14  1  0.500000  0.296223  0.431474  1
  Co  Co15  1  0.500000  0.703777  0.431474  1
  Co  Co16  1  0.000000  0.202387  0.568412  1
  Co  Co17  1  0.000000  0.797613  0.568412  1
  Co  Co18  1  0.500000  0.877918  0.706920  1
  Co  Co19  1  0.500000  0.122082  0.706920  1
  Co  Co20  1  0.000000  0.622450  0.292714  1
  Co  Co21  1  0.000000  0.377550  0.292714  1
  Tc  Tc22  1  0.500000  0.500000  0.156902  1
  Tc  Tc23  1  0.000000  0.000000  0.842547  1
  P  P24  1  0.500000  0.500000  0.879666  1
  P  P25  1  0.000000  0.000000  0.120703  1
  P  P26  1  0.500000  0.500000  0.350175  1
  P  P27  1  0.000000  0.000000  0.648757  1
  P  P28  1  0.500000  0.312603  0.617366  1
  P  P29  1  0.500000  0.687397  0.617366  1
  P  P30  1  0.000000  0.186724  0.383024  1
  P  P31  1  0.000000  0.813276  0.383024  1
  P  P32  1  0.500000  0.845533  0.891416  1
  P  P33  1  0.500000  0.154467  0.891416  1
  P  P34  1  0.000000  0.654810  0.108515  1
  P  P35  1  0.000000  0.345190  0.108515  1
