# generated using pymatgen
data_Nb2B(Te2Mo)2
_symmetry_space_group_name_H-M   'P 1'
_cell_length_a   4.69185800
_cell_length_b   10.80846600
_cell_length_c   18.71235500
_cell_angle_alpha   90.00000000
_cell_angle_beta   90.00000000
_cell_angle_gamma   90.00000000
_symmetry_Int_Tables_number   1
_chemical_formula_structural   Nb2B(Te2Mo)2
_chemical_formula_sum   'Nb8 B4 Te16 Mo8'
_cell_volume   948.93697356
_cell_formula_units_Z   4
loop_
 _symmetry_equiv_pos_site_id
 _symmetry_equiv_pos_as_xyz
  1  'x, y, z'
loop_
 _atom_site_type_symbol
 _atom_site_label
 _atom_site_symmetry_multiplicity
 _atom_site_fract_x
 _atom_site_fract_y
 _atom_site_fract_z
 _atom_site_occupancy
  Nb  Nb0  1  0.000000  0.675473  0.446677  1
  Nb  Nb1  1  0.000000  0.324527  0.553323  1
  Nb  Nb2  1  0.000000  0.175473  0.053323  1
  Nb  Nb3  1  0.000000  0.824527  0.946677  1
  Nb  Nb4  1  0.000000  0.408317  0.398997  1
  Nb  Nb5  1  0.000000  0.591683  0.601003  1
  Nb  Nb6  1  0.000000  0.908317  0.101003  1
  Nb  Nb7  1  0.000000  0.091683  0.898997  1
  B  B8  1  0.279456  0.500000  0.500000  1
  B  B9  1  0.720544  0.000000  0.000000  1
  B  B10  1  0.720544  0.500000  0.500000  1
  B  B11  1  0.279456  0.000000  0.000000  1
  Te  Te12  1  0.000000  0.845499  0.562596  1
  Te  Te13  1  0.000000  0.154501  0.437404  1
  Te  Te14  1  0.000000  0.345499  0.937404  1
  Te  Te15  1  0.000000  0.654501  0.062596  1
  Te  Te16  1  0.500000  0.335423  0.318100  1
  Te  Te17  1  0.500000  0.664577  0.681900  1
  Te  Te18  1  0.500000  0.835423  0.181900  1
  Te  Te19  1  0.500000  0.164577  0.818100  1
  Te  Te20  1  0.500000  0.816166  0.403443  1
  Te  Te21  1  0.500000  0.183834  0.596557  1
  Te  Te22  1  0.500000  0.316166  0.096557  1
  Te  Te23  1  0.500000  0.683834  0.903443  1
  Te  Te24  1  0.000000  0.606998  0.299929  1
  Te  Te25  1  0.000000  0.393002  0.700071  1
  Te  Te26  1  0.000000  0.106998  0.200071  1
  Te  Te27  1  0.000000  0.893002  0.799929  1
  Mo  Mo28  1  0.500000  0.558529  0.393104  1
  Mo  Mo29  1  0.500000  0.441471  0.606896  1
  Mo  Mo30  1  0.500000  0.058529  0.106896  1
  Mo  Mo31  1  0.500000  0.941471  0.893104  1
  Mo  Mo32  1  0.500000  0.685472  0.532799  1
  Mo  Mo33  1  0.500000  0.314528  0.467201  1
  Mo  Mo34  1  0.500000  0.185472  0.967201  1
  Mo  Mo35  1  0.500000  0.814528  0.032799  1
