# generated using pymatgen
data_SrAcMn2O6
_symmetry_space_group_name_H-M   'P 1'
_cell_length_a   6.83065123
_cell_length_b   6.83065375
_cell_length_c   6.83065700
_cell_angle_alpha   70.39235375
_cell_angle_beta   70.48083204
_cell_angle_gamma   109.28704678
_symmetry_Int_Tables_number   1
_chemical_formula_structural   SrAcMn2O6
_chemical_formula_sum   'Sr2 Ac2 Mn4 O12'
_cell_volume   245.33594546
_cell_formula_units_Z   2
loop_
 _symmetry_equiv_pos_site_id
 _symmetry_equiv_pos_as_xyz
  1  'x, y, z'
loop_
 _atom_site_type_symbol
 _atom_site_label
 _atom_site_symmetry_multiplicity
 _atom_site_fract_x
 _atom_site_fract_y
 _atom_site_fract_z
 _atom_site_occupancy
  Sr  Sr0  1  0.500000  0.999999  0.000002  1
  Sr  Sr1  1  0.000002  0.000001  0.499999  1
  Ac  Ac2  1  0.500000  0.500001  0.500000  1
  Ac  Ac3  1  0.000000  0.499999  0.000000  1
  Mn  Mn4  1  0.499982  0.000004  0.500010  1
  Mn  Mn5  1  0.000011  0.500004  0.499988  1
  Mn  Mn6  1  0.000004  0.999999  0.999998  1
  Mn  Mn7  1  0.500006  0.500002  0.999996  1
  O  O8  1  0.750002  0.499999  0.749998  1
  O  O9  1  0.249998  0.499999  0.250002  1
  O  O10  1  0.250000  0.999999  0.750001  1
  O  O11  1  0.750000  0.000000  0.250001  1
  O  O12  1  0.504478  0.254477  0.250002  1
  O  O13  1  0.004478  0.254479  0.750000  1
  O  O14  1  0.495521  0.745523  0.749999  1
  O  O15  1  0.995521  0.745520  0.250000  1
  O  O16  1  0.249998  0.255215  0.994784  1
  O  O17  1  0.750000  0.255235  0.494766  1
  O  O18  1  0.750001  0.744783  0.005218  1
  O  O19  1  0.249999  0.744763  0.505236  1
