# generated using pymatgen
data_Ho16In4IrRuRh2
_symmetry_space_group_name_H-M   'P 1'
_cell_length_a   9.62502347
_cell_length_b   9.63346203
_cell_length_c   9.62502440
_cell_angle_alpha   59.88206645
_cell_angle_beta   59.84678941
_cell_angle_gamma   59.88207355
_symmetry_Int_Tables_number   1
_chemical_formula_structural   Ho16In4IrRuRh2
_chemical_formula_sum   'Ho16 In4 Ir1 Ru1 Rh2'
_cell_volume   629.20330619
_cell_formula_units_Z   1
loop_
 _symmetry_equiv_pos_site_id
 _symmetry_equiv_pos_as_xyz
  1  'x, y, z'
loop_
 _atom_site_type_symbol
 _atom_site_label
 _atom_site_symmetry_multiplicity
 _atom_site_fract_x
 _atom_site_fract_y
 _atom_site_fract_z
 _atom_site_occupancy
  Ho  Ho0  1  0.188868  0.189758  0.809986  1
  Ho  Ho1  1  0.599743  0.600896  0.201917  1
  Ho  Ho2  1  0.439939  0.057592  0.439939  1
  Ho  Ho3  1  0.439701  0.439961  0.059553  1
  Ho  Ho4  1  0.812351  0.188091  0.812351  1
  Ho  Ho5  1  0.190908  0.810581  0.190908  1
  Ho  Ho6  1  0.438013  0.057754  0.062168  1
  Ho  Ho7  1  0.188698  0.813414  0.809087  1
  Ho  Ho8  1  0.059684  0.438546  0.059684  1
  Ho  Ho9  1  0.809087  0.813414  0.188698  1
  Ho  Ho10  1  0.201917  0.600896  0.599743  1
  Ho  Ho11  1  0.059553  0.439961  0.439701  1
  Ho  Ho12  1  0.062168  0.057754  0.438013  1
  Ho  Ho13  1  0.809986  0.189758  0.188868  1
  Ho  Ho14  1  0.600367  0.201011  0.600367  1
  Ho  Ho15  1  0.597857  0.599466  0.597857  1
  In  In16  1  0.833197  0.833302  0.833197  1
  In  In17  1  0.832793  0.833208  0.500829  1
  In  In18  1  0.500829  0.833208  0.832793  1
  In  In19  1  0.832160  0.502494  0.832160  1
  Ir  Ir20  1  0.392324  0.391099  0.392324  1
  Ru  Ru21  1  0.392178  0.825059  0.392178  1
  Rh  Rh22  1  0.825899  0.391389  0.391779  1
  Rh  Rh23  1  0.391779  0.391389  0.825899  1
