# generated using pymatgen
data_Tm13Lu7Ir12
_symmetry_space_group_name_H-M   'P 1'
_cell_length_a   10.70993804
_cell_length_b   10.71665701
_cell_length_c   6.28873402
_cell_angle_alpha   90.00156958
_cell_angle_beta   89.99092616
_cell_angle_gamma   90.00313405
_symmetry_Int_Tables_number   1
_chemical_formula_structural   Tm13Lu7Ir12
_chemical_formula_sum   'Tm13 Lu7 Ir12'
_cell_volume   721.78775450
_cell_formula_units_Z   1
loop_
 _symmetry_equiv_pos_site_id
 _symmetry_equiv_pos_as_xyz
  1  'x, y, z'
loop_
 _atom_site_type_symbol
 _atom_site_label
 _atom_site_symmetry_multiplicity
 _atom_site_fract_x
 _atom_site_fract_y
 _atom_site_fract_z
 _atom_site_occupancy
  Tm  Tm0  1  0.708721  0.912893  0.377162  1
  Tm  Tm1  1  0.587192  0.791576  0.877045  1
  Tm  Tm2  1  0.587241  0.208568  0.377062  1
  Tm  Tm3  1  0.412382  0.791620  0.377086  1
  Tm  Tm4  1  0.412584  0.208468  0.877012  1
  Tm  Tm5  1  0.208817  0.412579  0.622911  1
  Tm  Tm6  1  0.208844  0.587412  0.122954  1
  Tm  Tm7  1  0.791170  0.412591  0.122928  1
  Tm  Tm8  1  0.791168  0.587389  0.622994  1
  Tm  Tm9  1  0.912614  0.708834  0.123025  1
  Tm  Tm10  1  0.912355  0.290952  0.623260  1
  Tm  Tm11  1  0.087644  0.709064  0.623024  1
  Tm  Tm12  1  0.087683  0.290949  0.123127  1
  Lu  Lu13  1  0.291651  0.087025  0.377605  1
  Lu  Lu14  1  0.291615  0.912983  0.877637  1
  Lu  Lu15  1  0.708221  0.087141  0.877658  1
  Lu  Lu16  1  0.000335  0.000158  0.499874  1
  Lu  Lu17  1  0.000063  0.000069  0.999746  1
  Lu  Lu18  1  0.499952  0.499925  0.999685  1
  Lu  Lu19  1  0.499944  0.499984  0.499829  1
  Ir  Ir20  1  0.846810  0.152718  0.248686  1
  Ir  Ir21  1  0.846949  0.847527  0.750177  1
  Ir  Ir22  1  0.153596  0.152252  0.748930  1
  Ir  Ir23  1  0.153533  0.847795  0.248998  1
  Ir  Ir24  1  0.652948  0.346326  0.750479  1
  Ir  Ir25  1  0.652834  0.652919  0.250012  1
  Ir  Ir26  1  0.347073  0.346327  0.250478  1
  Ir  Ir27  1  0.347039  0.653602  0.750492  1
  Ir  Ir28  1  0.499461  0.000263  0.122041  1
  Ir  Ir29  1  0.499478  0.000206  0.622996  1
  Ir  Ir30  1  0.000061  0.499993  0.877503  1
  Ir  Ir31  1  0.000022  0.499891  0.377584  1
