# generated using pymatgen
data_Na2Ni10Mo2P7
_symmetry_space_group_name_H-M   'P 1'
_cell_length_a   9.15987442
_cell_length_b   9.13890102
_cell_length_c   3.64963100
_cell_angle_alpha   90.00000000
_cell_angle_beta   90.00000000
_cell_angle_gamma   119.82433470
_symmetry_Int_Tables_number   1
_chemical_formula_structural   Na2Ni10Mo2P7
_chemical_formula_sum   'Na2 Ni10 Mo2 P7'
_cell_volume   265.05079851
_cell_formula_units_Z   1
loop_
 _symmetry_equiv_pos_site_id
 _symmetry_equiv_pos_as_xyz
  1  'x, y, z'
loop_
 _atom_site_type_symbol
 _atom_site_label
 _atom_site_symmetry_multiplicity
 _atom_site_fract_x
 _atom_site_fract_y
 _atom_site_fract_z
 _atom_site_occupancy
  Na  Na0  1  0.666627  0.333207  0.500000  1
  Na  Na1  1  0.336559  0.667334  0.000000  1
  Ni  Ni2  1  0.718984  0.874311  0.000000  1
  Ni  Ni3  1  0.939091  0.374256  0.000000  1
  Ni  Ni4  1  0.162744  0.288262  0.000000  1
  Ni  Ni5  1  0.388587  0.441605  0.500000  1
  Ni  Ni6  1  0.117863  0.835420  0.000000  1
  Ni  Ni7  1  0.429625  0.058295  0.000000  1
  Ni  Ni8  1  0.046916  0.614398  0.500000  1
  Ni  Ni9  1  0.561052  0.946780  0.500000  1
  Ni  Ni10  1  0.629448  0.566109  0.000000  1
  Ni  Ni11  1  0.876462  0.781026  0.500000  1
  Mo  Mo12  1  0.216476  0.097427  0.500000  1
  Mo  Mo13  1  0.906068  0.121570  0.500000  1
  P  P14  1  0.414628  0.299586  0.000000  1
  P  P15  1  0.291235  0.880262  0.500000  1
  P  P16  1  0.701084  0.113848  0.000000  1
  P  P17  1  0.597182  0.709957  0.500000  1
  P  P18  1  0.881148  0.586783  0.000000  1
  P  P19  1  0.119390  0.412249  0.500000  1
  P  P20  1  0.998833  0.997314  0.000000  1
