# generated using pymatgen
data_TaTi3(InC)2
_symmetry_space_group_name_H-M   'P 1'
_cell_length_a   3.14121800
_cell_length_b   3.14121786
_cell_length_c   14.33562900
_cell_angle_alpha   90.00000000
_cell_angle_beta   90.00000000
_cell_angle_gamma   119.99998044
_symmetry_Int_Tables_number   1
_chemical_formula_structural   TaTi3(InC)2
_chemical_formula_sum   'Ta1 Ti3 In2 C2'
_cell_volume   122.50212028
_cell_formula_units_Z   1
loop_
 _symmetry_equiv_pos_site_id
 _symmetry_equiv_pos_as_xyz
  1  'x, y, z'
loop_
 _atom_site_type_symbol
 _atom_site_label
 _atom_site_symmetry_multiplicity
 _atom_site_fract_x
 _atom_site_fract_y
 _atom_site_fract_z
 _atom_site_occupancy
  Ta  Ta0  1  0.333333  0.666667  0.417876  1
  Ti  Ti1  1  0.333333  0.666667  0.077372  1
  Ti  Ti2  1  0.666667  0.333333  0.582077  1
  Ti  Ti3  1  0.666667  0.333333  0.921955  1
  In  In4  1  0.333333  0.666667  0.751767  1
  In  In5  1  0.666667  0.333333  0.245342  1
  C  C6  1  0.000000  0.000000  0.999381  1
  C  C7  1  0.000000  0.000000  0.504231  1
