# generated using pymatgen
data_Hf5Zn6InRh12
_symmetry_space_group_name_H-M   'P 1'
_cell_length_a   4.47357300
_cell_length_b   6.25961400
_cell_length_c   13.32803200
_cell_angle_alpha   90.00000000
_cell_angle_beta   89.99861627
_cell_angle_gamma   90.00000000
_symmetry_Int_Tables_number   1
_chemical_formula_structural   Hf5Zn6InRh12
_chemical_formula_sum   'Hf5 Zn6 In1 Rh12'
_cell_volume   373.22274997
_cell_formula_units_Z   1
loop_
 _symmetry_equiv_pos_site_id
 _symmetry_equiv_pos_as_xyz
  1  'x, y, z'
loop_
 _atom_site_type_symbol
 _atom_site_label
 _atom_site_symmetry_multiplicity
 _atom_site_fract_x
 _atom_site_fract_y
 _atom_site_fract_z
 _atom_site_occupancy
  Hf  Hf0  1  0.999998  0.000000  0.999096  1
  Hf  Hf1  1  0.499886  0.500000  0.166745  1
  Hf  Hf2  1  0.999885  0.000000  0.333328  1
  Hf  Hf3  1  0.500001  0.500000  0.499927  1
  Hf  Hf4  1  0.000127  0.000000  0.667582  1
  Zn  Zn5  1  0.999988  0.500000  0.001354  1
  Zn  Zn6  1  0.499876  0.000000  0.165012  1
  Zn  Zn7  1  0.999884  0.500000  0.333319  1
  Zn  Zn8  1  0.500001  0.000000  0.501663  1
  Zn  Zn9  1  0.000120  0.500000  0.665315  1
  Zn  Zn10  1  0.500114  0.000000  0.833322  1
  In  In11  1  0.500175  0.500000  0.833369  1
  Rh  Rh12  1  0.499992  0.250401  0.000207  1
  Rh  Rh13  1  0.499992  0.749600  0.000207  1
  Rh  Rh14  1  0.999889  0.250199  0.167020  1
  Rh  Rh15  1  0.999889  0.749800  0.167020  1
  Rh  Rh16  1  0.499883  0.249440  0.333325  1
  Rh  Rh17  1  0.499883  0.750559  0.333325  1
  Rh  Rh18  1  0.000003  0.250201  0.499639  1
  Rh  Rh19  1  0.000003  0.749799  0.499639  1
  Rh  Rh20  1  0.500120  0.250422  0.666458  1
  Rh  Rh21  1  0.500120  0.749577  0.666458  1
  Rh  Rh22  1  0.000086  0.249431  0.833336  1
  Rh  Rh23  1  0.000086  0.750568  0.833336  1
