# generated using pymatgen
data_Zr5Re23Tc
_symmetry_space_group_name_H-M   'P 1'
_cell_length_a   8.49516323
_cell_length_b   8.49516339
_cell_length_c   8.49716700
_cell_angle_alpha   109.47211174
_cell_angle_beta   109.47211673
_cell_angle_gamma   109.51901207
_symmetry_Int_Tables_number   1
_chemical_formula_structural   Zr5Re23Tc
_chemical_formula_sum   'Zr5 Re23 Tc1'
_cell_volume   471.76925972
_cell_formula_units_Z   1
loop_
 _symmetry_equiv_pos_site_id
 _symmetry_equiv_pos_as_xyz
  1  'x, y, z'
loop_
 _atom_site_type_symbol
 _atom_site_label
 _atom_site_symmetry_multiplicity
 _atom_site_fract_x
 _atom_site_fract_y
 _atom_site_fract_z
 _atom_site_occupancy
  Zr  Zr0  1  0.999546  0.999546  0.999317  1
  Zr  Zr1  1  0.001565  0.001565  0.628981  1
  Zr  Zr2  1  0.628331  0.999612  0.999291  1
  Zr  Zr3  1  0.999612  0.628331  0.999291  1
  Zr  Zr4  1  0.371093  0.371093  0.371522  1
  Re  Re5  1  0.397008  0.677479  0.001450  1
  Re  Re6  1  0.677479  0.397008  0.001450  1
  Re  Re7  1  0.603717  0.279551  0.603813  1
  Re  Re8  1  0.396565  0.001605  0.677105  1
  Re  Re9  1  0.001605  0.396565  0.677105  1
  Re  Re10  1  0.279551  0.603717  0.603813  1
  Re  Re11  1  0.720427  0.323174  0.323941  1
  Re  Re12  1  0.323174  0.720427  0.323941  1
  Re  Re13  1  0.676853  0.000348  0.396661  1
  Re  Re14  1  0.000348  0.676853  0.396661  1
  Re  Re15  1  0.603561  0.603561  0.279394  1
  Re  Re16  1  0.804494  0.804494  0.180554  1
  Re  Re17  1  0.377080  0.194519  0.001093  1
  Re  Re18  1  0.194519  0.377080  0.001093  1
  Re  Re19  1  0.623466  0.817432  0.623180  1
  Re  Re20  1  0.376547  0.000302  0.194252  1
  Re  Re21  1  0.000302  0.376547  0.194252  1
  Re  Re22  1  0.817432  0.623466  0.623180  1
  Re  Re23  1  0.181726  0.805493  0.805459  1
  Re  Re24  1  0.805493  0.181726  0.805459  1
  Re  Re25  1  0.193999  0.999842  0.375938  1
  Re  Re26  1  0.999842  0.193999  0.375938  1
  Re  Re27  1  0.622091  0.622091  0.816377  1
  Tc  Tc28  1  0.322572  0.322572  0.719490  1
