# generated using pymatgen
data_TbPa3Si4(IrPt)2
_symmetry_space_group_name_H-M   'P 1'
_cell_length_a   4.28465300
_cell_length_b   7.06276810
_cell_length_c   7.49118351
_cell_angle_alpha   89.67904240
_cell_angle_beta   90.00000000
_cell_angle_gamma   90.00000000
_symmetry_Int_Tables_number   1
_chemical_formula_structural   TbPa3Si4(IrPt)2
_chemical_formula_sum   'Tb1 Pa3 Si4 Ir2 Pt2'
_cell_volume   226.69097206
_cell_formula_units_Z   1
loop_
 _symmetry_equiv_pos_site_id
 _symmetry_equiv_pos_as_xyz
  1  'x, y, z'
loop_
 _atom_site_type_symbol
 _atom_site_label
 _atom_site_symmetry_multiplicity
 _atom_site_fract_x
 _atom_site_fract_y
 _atom_site_fract_z
 _atom_site_occupancy
  Tb  Tb0  1  0.750000  0.505499  0.793458  1
  Pa  Pa1  1  0.250000  0.997828  0.301554  1
  Pa  Pa2  1  0.250000  0.494360  0.210244  1
  Pa  Pa3  1  0.750000  0.002387  0.701424  1
  Si  Si4  1  0.250000  0.304470  0.588326  1
  Si  Si5  1  0.250000  0.798337  0.909309  1
  Si  Si6  1  0.750000  0.683135  0.416610  1
  Si  Si7  1  0.750000  0.192471  0.086752  1
  Ir  Ir8  1  0.250000  0.728190  0.576512  1
  Ir  Ir9  1  0.750000  0.281740  0.410353  1
  Pt  Pt10  1  0.250000  0.213312  0.917246  1
  Pt  Pt11  1  0.750000  0.798271  0.088213  1
