# generated using pymatgen
data_Pr8Dy11ErSn16
_symmetry_space_group_name_H-M   'P 1'
_cell_length_a   8.10585000
_cell_length_b   8.30487214
_cell_length_c   15.66291800
_cell_angle_alpha   90.00000000
_cell_angle_beta   90.00000000
_cell_angle_gamma   89.98960312
_symmetry_Int_Tables_number   1
_chemical_formula_structural   Pr8Dy11ErSn16
_chemical_formula_sum   'Pr8 Dy11 Er1 Sn16'
_cell_volume   1054.39704540
_cell_formula_units_Z   1
loop_
 _symmetry_equiv_pos_site_id
 _symmetry_equiv_pos_as_xyz
  1  'x, y, z'
loop_
 _atom_site_type_symbol
 _atom_site_label
 _atom_site_symmetry_multiplicity
 _atom_site_fract_x
 _atom_site_fract_y
 _atom_site_fract_z
 _atom_site_occupancy
  Pr  Pr0  1  0.511571  0.322625  0.902923  1
  Pr  Pr1  1  0.012198  0.178693  0.596854  1
  Pr  Pr2  1  0.488625  0.677979  0.404007  1
  Pr  Pr3  1  0.988478  0.821999  0.096152  1
  Pr  Pr4  1  0.488625  0.677979  0.095993  1
  Pr  Pr5  1  0.988478  0.821999  0.403848  1
  Pr  Pr6  1  0.511571  0.322625  0.597077  1
  Pr  Pr7  1  0.012198  0.178693  0.903146  1
  Dy  Dy8  1  0.355944  0.835520  0.875898  1
  Dy  Dy9  1  0.856030  0.664352  0.623937  1
  Dy  Dy10  1  0.644014  0.164807  0.376663  1
  Dy  Dy11  1  0.143677  0.335166  0.122714  1
  Dy  Dy12  1  0.644014  0.164807  0.123337  1
  Dy  Dy13  1  0.143677  0.335166  0.377286  1
  Dy  Dy14  1  0.355944  0.835520  0.624102  1
  Dy  Dy15  1  0.856030  0.664352  0.876063  1
  Dy  Dy16  1  0.689053  0.998407  0.750000  1
  Dy  Dy17  1  0.810199  0.498058  0.250000  1
  Dy  Dy18  1  0.310220  0.001706  0.250000  1
  Er  Er19  1  0.188918  0.502560  0.750000  1
  Sn  Sn20  1  0.308187  0.040553  0.041355  1
  Sn  Sn21  1  0.807502  0.459182  0.458602  1
  Sn  Sn22  1  0.692333  0.959213  0.542181  1
  Sn  Sn23  1  0.192709  0.540013  0.956695  1
  Sn  Sn24  1  0.692333  0.959213  0.957819  1
  Sn  Sn25  1  0.192709  0.540013  0.543305  1
  Sn  Sn26  1  0.308187  0.040553  0.458645  1
  Sn  Sn27  1  0.807502  0.459182  0.041398  1
  Sn  Sn28  1  0.553313  0.621505  0.750000  1
  Sn  Sn29  1  0.055048  0.876064  0.750000  1
  Sn  Sn30  1  0.444334  0.376470  0.250000  1
  Sn  Sn31  1  0.944957  0.123607  0.250000  1
  Sn  Sn32  1  0.318668  0.144641  0.750000  1
  Sn  Sn33  1  0.821180  0.357938  0.750000  1
  Sn  Sn34  1  0.680819  0.857352  0.250000  1
  Sn  Sn35  1  0.180755  0.641483  0.250000  1
