# generated using pymatgen
data_LiSc6Ru2Pt3
_symmetry_space_group_name_H-M   'P 1'
_cell_length_a   4.59027900
_cell_length_b   6.62328300
_cell_length_c   13.78837300
_cell_angle_alpha   90.00000000
_cell_angle_beta   90.00060291
_cell_angle_gamma   90.00000000
_symmetry_Int_Tables_number   1
_chemical_formula_structural   LiSc6Ru2Pt3
_chemical_formula_sum   'Li2 Sc12 Ru4 Pt6'
_cell_volume   419.20400035
_cell_formula_units_Z   2
loop_
 _symmetry_equiv_pos_site_id
 _symmetry_equiv_pos_as_xyz
  1  'x, y, z'
loop_
 _atom_site_type_symbol
 _atom_site_label
 _atom_site_symmetry_multiplicity
 _atom_site_fract_x
 _atom_site_fract_y
 _atom_site_fract_z
 _atom_site_occupancy
  Li  Li0  1  0.000004  0.000000  0.999719  1
  Li  Li1  1  0.499962  0.500000  0.166938  1
  Sc  Sc2  1  0.500007  0.256251  0.994682  1
  Sc  Sc3  1  0.500007  0.743749  0.994682  1
  Sc  Sc4  1  0.999985  0.243656  0.172246  1
  Sc  Sc5  1  0.999985  0.756343  0.172246  1
  Sc  Sc6  1  0.499992  0.246834  0.337838  1
  Sc  Sc7  1  0.499992  0.753166  0.337838  1
  Sc  Sc8  1  0.000000  0.250652  0.499959  1
  Sc  Sc9  1  0.000000  0.749348  0.499959  1
  Sc  Sc10  1  0.500019  0.249095  0.666529  1
  Sc  Sc11  1  0.500019  0.750905  0.666529  1
  Sc  Sc12  1  0.000010  0.252867  0.828825  1
  Sc  Sc13  1  0.000010  0.747132  0.828825  1
  Ru  Ru14  1  0.999985  0.000000  0.334988  1
  Ru  Ru15  1  0.499993  0.500000  0.500442  1
  Ru  Ru16  1  0.000004  0.000000  0.666179  1
  Ru  Ru17  1  0.500029  0.500000  0.831691  1
  Pt  Pt18  1  0.999999  0.500000  0.002220  1
  Pt  Pt19  1  0.499978  0.000000  0.164364  1
  Pt  Pt20  1  0.999990  0.500000  0.329573  1
  Pt  Pt21  1  0.500002  0.000000  0.501571  1
  Pt  Pt22  1  0.000014  0.500000  0.665269  1
  Pt  Pt23  1  0.500016  0.000000  0.836888  1
