# generated using pymatgen
data_Hf2Zr3Co16Si7Pt
_symmetry_space_group_name_H-M   'P 1'
_cell_length_a   8.00932642
_cell_length_b   8.02758172
_cell_length_c   8.02430311
_cell_angle_alpha   59.82528943
_cell_angle_beta   60.05406967
_cell_angle_gamma   60.02256762
_symmetry_Int_Tables_number   1
_chemical_formula_structural   Hf2Zr3Co16Si7Pt
_chemical_formula_sum   'Hf2 Zr3 Co16 Si7 Pt1'
_cell_volume   364.54144491
_cell_formula_units_Z   1
loop_
 _symmetry_equiv_pos_site_id
 _symmetry_equiv_pos_as_xyz
  1  'x, y, z'
loop_
 _atom_site_type_symbol
 _atom_site_label
 _atom_site_symmetry_multiplicity
 _atom_site_fract_x
 _atom_site_fract_y
 _atom_site_fract_z
 _atom_site_occupancy
  Hf  Hf0  1  0.296439  0.288833  0.703597  1
  Hf  Hf1  1  0.286611  0.712954  0.713430  1
  Zr  Zr2  1  0.710600  0.703497  0.289365  1
  Zr  Zr3  1  0.297267  0.702265  0.290612  1
  Zr  Zr4  1  0.709297  0.290168  0.702847  1
  Co  Co5  1  0.122119  0.117481  0.639882  1
  Co  Co6  1  0.670712  0.982786  0.674815  1
  Co  Co7  1  0.360103  0.879303  0.877697  1
  Co  Co8  1  0.018203  0.328106  0.328008  1
  Co  Co9  1  0.997796  0.666834  0.667855  1
  Co  Co10  1  0.331739  0.332738  0.002798  1
  Co  Co11  1  0.671687  0.674473  0.982139  1
  Co  Co12  1  0.644933  0.121395  0.120911  1
  Co  Co13  1  0.667699  0.668248  0.668247  1
  Co  Co14  1  0.878897  0.887626  0.355035  1
  Co  Co15  1  0.113657  0.121509  0.119541  1
  Co  Co16  1  0.880274  0.354620  0.886757  1
  Co  Co17  1  0.883498  0.878367  0.877634  1
  Co  Co18  1  0.325352  0.328179  0.329005  1
  Co  Co19  1  0.122183  0.639525  0.116830  1
  Co  Co20  1  0.331419  0.004752  0.332429  1
  Si  Si21  1  0.997422  0.492002  0.002185  1
  Si  Si22  1  0.996987  0.002509  0.492350  1
  Si  Si23  1  0.003527  0.995868  0.996414  1
  Si  Si24  1  0.508075  0.492093  0.002807  1
  Si  Si25  1  0.507407  0.002991  0.492865  1
  Si  Si26  1  0.497328  0.002190  0.001525  1
  Si  Si27  1  0.998526  0.501032  0.502659  1
  Pt  Pt28  1  0.670240  0.327654  0.329765  1
