# generated using pymatgen
data_Nd2Dy2Zn4Si3Ge
_symmetry_space_group_name_H-M   'P 1'
_cell_length_a   4.21413300
_cell_length_b   4.21413082
_cell_length_c   16.12373200
_cell_angle_alpha   90.00000000
_cell_angle_beta   90.00000000
_cell_angle_gamma   120.00000929
_symmetry_Int_Tables_number   1
_chemical_formula_structural   Nd2Dy2Zn4Si3Ge
_chemical_formula_sum   'Nd2 Dy2 Zn4 Si3 Ge1'
_cell_volume   247.97757745
_cell_formula_units_Z   1
loop_
 _symmetry_equiv_pos_site_id
 _symmetry_equiv_pos_as_xyz
  1  'x, y, z'
loop_
 _atom_site_type_symbol
 _atom_site_label
 _atom_site_symmetry_multiplicity
 _atom_site_fract_x
 _atom_site_fract_y
 _atom_site_fract_z
 _atom_site_occupancy
  Nd  Nd0  1  0.000000  0.000000  0.001908  1
  Nd  Nd1  1  0.000000  0.000000  0.499670  1
  Dy  Dy2  1  0.000000  0.000000  0.250535  1
  Dy  Dy3  1  0.000000  0.000000  0.748090  1
  Zn  Zn4  1  0.333333  0.666667  0.144281  1
  Zn  Zn5  1  0.666667  0.333333  0.852499  1
  Zn  Zn6  1  0.666667  0.333333  0.642069  1
  Zn  Zn7  1  0.333333  0.666667  0.357146  1
  Si  Si8  1  0.333333  0.666667  0.621162  1
  Si  Si9  1  0.666667  0.333333  0.378520  1
  Si  Si10  1  0.666667  0.333333  0.122354  1
  Ge  Ge11  1  0.333333  0.666667  0.881765  1
