# generated using pymatgen
data_Sc2CuBRh5
_symmetry_space_group_name_H-M   'P 1'
_cell_length_a   5.73433494
_cell_length_b   5.63375075
_cell_length_c   5.63375138
_cell_angle_alpha   61.18475639
_cell_angle_beta   59.40762832
_cell_angle_gamma   59.40763332
_symmetry_Int_Tables_number   1
_chemical_formula_structural   Sc2CuBRh5
_chemical_formula_sum   'Sc2 Cu1 B1 Rh5'
_cell_volume   128.61197506
_cell_formula_units_Z   1
loop_
 _symmetry_equiv_pos_site_id
 _symmetry_equiv_pos_as_xyz
  1  'x, y, z'
loop_
 _atom_site_type_symbol
 _atom_site_label
 _atom_site_symmetry_multiplicity
 _atom_site_fract_x
 _atom_site_fract_y
 _atom_site_fract_z
 _atom_site_occupancy
  Sc  Sc0  1  0.249615  0.250385  0.250385  1
  Sc  Sc1  1  0.749615  0.750385  0.750385  1
  Cu  Cu2  1  0.736573  0.263428  0.263428  1
  B  B3  1  0.998637  0.001363  0.001363  1
  Rh  Rh4  1  0.257224  0.742777  0.255296  1
  Rh  Rh5  1  0.744703  0.742775  0.255298  1
  Rh  Rh6  1  0.257224  0.255296  0.742777  1
  Rh  Rh7  1  0.744703  0.255298  0.742775  1
  Rh  Rh8  1  0.261705  0.738296  0.738296  1
