# generated using pymatgen
data_Ca2PrSi2(AsPd5)4
_symmetry_space_group_name_H-M   'P 1'
_cell_length_a   8.84293753
_cell_length_b   8.84289909
_cell_length_c   8.93577700
_cell_angle_alpha   59.65284998
_cell_angle_beta   59.65250667
_cell_angle_gamma   60.70416798
_symmetry_Int_Tables_number   1
_chemical_formula_structural   Ca2PrSi2(AsPd5)4
_chemical_formula_sum   'Ca2 Pr1 Si2 As4 Pd20'
_cell_volume   494.01666614
_cell_formula_units_Z   1
loop_
 _symmetry_equiv_pos_site_id
 _symmetry_equiv_pos_as_xyz
  1  'x, y, z'
loop_
 _atom_site_type_symbol
 _atom_site_label
 _atom_site_symmetry_multiplicity
 _atom_site_fract_x
 _atom_site_fract_y
 _atom_site_fract_z
 _atom_site_occupancy
  Ca  Ca0  1  0.249981  0.249981  0.250027  1
  Ca  Ca1  1  0.000001  0.000001  0.999999  1
  Pr  Pr2  1  0.750023  0.750023  0.749974  1
  Si  Si3  1  0.267254  0.267254  0.732745  1
  Si  Si4  1  0.732745  0.732745  0.267255  1
  As  As5  1  0.737103  0.262902  0.262889  1
  As  As6  1  0.262897  0.737098  0.737110  1
  As  As7  1  0.262899  0.737105  0.262888  1
  As  As8  1  0.737101  0.262896  0.737111  1
  Pd  Pd9  1  0.382848  0.382848  0.389216  1
  Pd  Pd10  1  0.616665  0.616666  0.610838  1
  Pd  Pd11  1  0.382843  0.382841  0.845101  1
  Pd  Pd12  1  0.389252  0.845081  0.382837  1
  Pd  Pd13  1  0.616672  0.616672  0.155817  1
  Pd  Pd14  1  0.610801  0.155835  0.616679  1
  Pd  Pd15  1  0.845080  0.389253  0.382836  1
  Pd  Pd16  1  0.155835  0.610801  0.616679  1
  Pd  Pd17  1  0.348363  0.008572  0.990547  1
  Pd  Pd18  1  0.652681  0.990381  0.008406  1
  Pd  Pd19  1  0.008554  0.348384  0.652533  1
  Pd  Pd20  1  0.990399  0.652663  0.348513  1
  Pd  Pd21  1  0.008570  0.348364  0.990549  1
  Pd  Pd22  1  0.652663  0.990400  0.348513  1
  Pd  Pd23  1  0.990383  0.652680  0.008406  1
  Pd  Pd24  1  0.348383  0.008552  0.652533  1
  Pd  Pd25  1  0.999490  0.999494  0.349042  1
  Pd  Pd26  1  0.999502  0.999497  0.651967  1
  Pd  Pd27  1  0.651964  0.349047  0.999495  1
  Pd  Pd28  1  0.349048  0.651965  0.999492  1
