# generated using pymatgen
data_Y6FeP12Rh17
_symmetry_space_group_name_H-M   'P 1'
_cell_length_a   3.89404000
_cell_length_b   11.23052600
_cell_length_c   12.73725700
_cell_angle_alpha   90.00000000
_cell_angle_beta   90.00000000
_cell_angle_gamma   90.00000000
_symmetry_Int_Tables_number   1
_chemical_formula_structural   Y6FeP12Rh17
_chemical_formula_sum   'Y6 Fe1 P12 Rh17'
_cell_volume   557.02721931
_cell_formula_units_Z   1
loop_
 _symmetry_equiv_pos_site_id
 _symmetry_equiv_pos_as_xyz
  1  'x, y, z'
loop_
 _atom_site_type_symbol
 _atom_site_label
 _atom_site_symmetry_multiplicity
 _atom_site_fract_x
 _atom_site_fract_y
 _atom_site_fract_z
 _atom_site_occupancy
  Y  Y0  1  0.000000  0.500000  0.520338  1
  Y  Y1  1  0.500000  0.000000  0.479053  1
  Y  Y2  1  0.500000  0.819699  0.202491  1
  Y  Y3  1  0.500000  0.180301  0.202491  1
  Y  Y4  1  0.000000  0.686963  0.796901  1
  Y  Y5  1  0.000000  0.313037  0.796901  1
  Fe  Fe6  1  0.500000  0.000000  0.014348  1
  P  P7  1  0.500000  0.314575  0.619195  1
  P  P8  1  0.500000  0.685425  0.619195  1
  P  P9  1  0.000000  0.184865  0.380614  1
  P  P10  1  0.000000  0.815135  0.380614  1
  P  P11  1  0.500000  0.500000  0.878447  1
  P  P12  1  0.000000  0.000000  0.116809  1
  P  P13  1  0.500000  0.852661  0.896736  1
  P  P14  1  0.500000  0.147339  0.896736  1
  P  P15  1  0.000000  0.654572  0.107198  1
  P  P16  1  0.000000  0.345428  0.107198  1
  P  P17  1  0.500000  0.500000  0.350378  1
  P  P18  1  0.000000  0.000000  0.649937  1
  Rh  Rh19  1  0.000000  0.500000  0.979967  1
  Rh  Rh20  1  0.500000  0.293494  0.430456  1
  Rh  Rh21  1  0.500000  0.706506  0.430456  1
  Rh  Rh22  1  0.000000  0.205799  0.569364  1
  Rh  Rh23  1  0.000000  0.794201  0.569364  1
  Rh  Rh24  1  0.500000  0.873949  0.712034  1
  Rh  Rh25  1  0.500000  0.126051  0.712034  1
  Rh  Rh26  1  0.000000  0.627613  0.288291  1
  Rh  Rh27  1  0.000000  0.372387  0.288291  1
  Rh  Rh28  1  0.500000  0.332989  0.993964  1
  Rh  Rh29  1  0.500000  0.667011  0.993964  1
  Rh  Rh30  1  0.000000  0.163294  0.006986  1
  Rh  Rh31  1  0.000000  0.836706  0.006986  1
  Rh  Rh32  1  0.500000  0.500000  0.167851  1
  Rh  Rh33  1  0.000000  0.000000  0.835153  1
  Rh  Rh34  1  0.500000  0.500000  0.700712  1
  Rh  Rh35  1  0.000000  0.000000  0.298547  1
