# generated using pymatgen
data_Li4B4IrRh3
_symmetry_space_group_name_H-M   'P 1'
_cell_length_a   6.96493102
_cell_length_b   6.06729979
_cell_length_c   5.52812370
_cell_angle_alpha   73.66932945
_cell_angle_beta   56.71760964
_cell_angle_gamma   49.73166142
_symmetry_Int_Tables_number   1
_chemical_formula_structural   Li4B4IrRh3
_chemical_formula_sum   'Li4 B4 Ir1 Rh3'
_cell_volume   148.01939272
_cell_formula_units_Z   1
loop_
 _symmetry_equiv_pos_site_id
 _symmetry_equiv_pos_as_xyz
  1  'x, y, z'
loop_
 _atom_site_type_symbol
 _atom_site_label
 _atom_site_symmetry_multiplicity
 _atom_site_fract_x
 _atom_site_fract_y
 _atom_site_fract_z
 _atom_site_occupancy
  Li  Li0  1  0.125490  0.625070  0.626011  1
  Li  Li1  1  0.621627  0.627092  0.626451  1
  Li  Li2  1  0.627092  0.621627  0.124830  1
  Li  Li3  1  0.625070  0.125490  0.623430  1
  B  B4  1  0.427072  0.070501  0.420789  1
  B  B5  1  0.177079  0.823856  0.176937  1
  B  B6  1  0.070501  0.427072  0.081638  1
  B  B7  1  0.823856  0.177079  0.822128  1
  Ir  Ir8  1  0.116993  0.116993  0.383007  1
  Rh  Rh9  1  0.383356  0.383356  0.116644  1
  Rh  Rh10  1  0.867934  0.867934  0.132066  1
  Rh  Rh11  1  0.133931  0.133931  0.866069  1
