# generated using pymatgen
data_Tb2HoEr2(ReO6)2
_symmetry_space_group_name_H-M   'P 1'
_cell_length_a   6.82286928
_cell_length_b   6.82286997
_cell_length_c   7.53113080
_cell_angle_alpha   73.91094355
_cell_angle_beta   73.91093923
_cell_angle_gamma   49.11986139
_symmetry_Int_Tables_number   1
_chemical_formula_structural   Tb2HoEr2(ReO6)2
_chemical_formula_sum   'Tb2 Ho1 Er2 Re2 O12'
_cell_volume   252.46665602
_cell_formula_units_Z   1
loop_
 _symmetry_equiv_pos_site_id
 _symmetry_equiv_pos_as_xyz
  1  'x, y, z'
loop_
 _atom_site_type_symbol
 _atom_site_label
 _atom_site_symmetry_multiplicity
 _atom_site_fract_x
 _atom_site_fract_y
 _atom_site_fract_z
 _atom_site_occupancy
  Tb  Tb0  1  0.696457  0.696457  0.642151  1
  Tb  Tb1  1  0.303521  0.303521  0.358145  1
  Ho  Ho2  1  0.685602  0.685602  0.174981  1
  Er  Er3  1  0.314387  0.314387  0.824753  1
  Er  Er4  1  0.999965  0.999965  0.500133  1
  Re  Re5  1  0.786056  0.214012  0.999872  1
  Re  Re6  1  0.214012  0.786056  0.999872  1
  O  O7  1  0.000400  0.000400  0.207570  1
  O  O8  1  0.999593  0.999593  0.792455  1
  O  O9  1  0.582208  0.086850  0.083112  1
  O  O10  1  0.416982  0.914433  0.916222  1
  O  O11  1  0.914433  0.416982  0.916222  1
  O  O12  1  0.086850  0.582208  0.083112  1
  O  O13  1  0.499763  0.499763  0.176629  1
  O  O14  1  0.499839  0.499839  0.823159  1
  O  O15  1  0.404304  0.901035  0.424670  1
  O  O16  1  0.595082  0.099512  0.576136  1
  O  O17  1  0.099512  0.595082  0.576136  1
  O  O18  1  0.901035  0.404304  0.424670  1
