# generated using pymatgen
data_ErU7(B6Mo)4
_symmetry_space_group_name_H-M   'P 1'
_cell_length_a   3.69111800
_cell_length_b   9.26846738
_cell_length_c   11.36790746
_cell_angle_alpha   89.96730057
_cell_angle_beta   90.00000000
_cell_angle_gamma   90.00000000
_symmetry_Int_Tables_number   1
_chemical_formula_structural   ErU7(B6Mo)4
_chemical_formula_sum   'Er1 U7 B24 Mo4'
_cell_volume   388.90749582
_cell_formula_units_Z   1
loop_
 _symmetry_equiv_pos_site_id
 _symmetry_equiv_pos_as_xyz
  1  'x, y, z'
loop_
 _atom_site_type_symbol
 _atom_site_label
 _atom_site_symmetry_multiplicity
 _atom_site_fract_x
 _atom_site_fract_y
 _atom_site_fract_z
 _atom_site_occupancy
  Er  Er0  1  0.000000  0.335076  0.407965  1
  U  U1  1  0.000000  0.664295  0.591961  1
  U  U2  1  0.000000  0.834454  0.092696  1
  U  U3  1  0.000000  0.165296  0.907621  1
  U  U4  1  0.000000  0.956575  0.394656  1
  U  U5  1  0.000000  0.044657  0.604801  1
  U  U6  1  0.000000  0.455946  0.105356  1
  U  U7  1  0.000000  0.543903  0.894835  1
  B  B8  1  0.500000  0.551806  0.433358  1
  B  B9  1  0.500000  0.451211  0.568479  1
  B  B10  1  0.500000  0.049543  0.066802  1
  B  B11  1  0.500000  0.950210  0.932990  1
  B  B12  1  0.500000  0.742633  0.424694  1
  B  B13  1  0.500000  0.256262  0.576443  1
  B  B14  1  0.500000  0.243626  0.076015  1
  B  B15  1  0.500000  0.756721  0.924292  1
  B  B16  1  0.500000  0.803342  0.272862  1
  B  B17  1  0.500000  0.196682  0.727318  1
  B  B18  1  0.500000  0.302788  0.225681  1
  B  B19  1  0.500000  0.696470  0.772327  1
  B  B20  1  0.500000  0.643791  0.187733  1
  B  B21  1  0.500000  0.355473  0.812675  1
  B  B22  1  0.500000  0.143234  0.311953  1
  B  B23  1  0.500000  0.855543  0.687371  1
  B  B24  1  0.500000  0.985510  0.218401  1
  B  B25  1  0.500000  0.014648  0.781331  1
  B  B26  1  0.500000  0.486643  0.280640  1
  B  B27  1  0.500000  0.515411  0.718033  1
  B  B28  1  0.500000  0.642308  0.039329  1
  B  B29  1  0.500000  0.357984  0.960819  1
  B  B30  1  0.500000  0.139268  0.461296  1
  B  B31  1  0.500000  0.857566  0.539608  1
  Mo  Mo32  1  0.000000  0.647401  0.319380  1
  Mo  Mo33  1  0.000000  0.355348  0.682217  1
  Mo  Mo34  1  0.000000  0.143182  0.177760  1
  Mo  Mo35  1  0.000000  0.855194  0.820302  1
