# generated using pymatgen
data_DyY4Zr3(Ni4P3)4
_symmetry_space_group_name_H-M   'P 1'
_cell_length_a   12.35138600
_cell_length_b   12.35138559
_cell_length_c   3.80783200
_cell_angle_alpha   90.00000000
_cell_angle_beta   90.00000000
_cell_angle_gamma   120.00000645
_symmetry_Int_Tables_number   1
_chemical_formula_structural   DyY4Zr3(Ni4P3)4
_chemical_formula_sum   'Dy1 Y4 Zr3 Ni16 P12'
_cell_volume   503.08313316
_cell_formula_units_Z   1
loop_
 _symmetry_equiv_pos_site_id
 _symmetry_equiv_pos_as_xyz
  1  'x, y, z'
loop_
 _atom_site_type_symbol
 _atom_site_label
 _atom_site_symmetry_multiplicity
 _atom_site_fract_x
 _atom_site_fract_y
 _atom_site_fract_z
 _atom_site_occupancy
  Dy  Dy0  1  0.333333  0.666667  0.000000  1
  Y  Y1  1  0.184474  0.184477  0.500000  1
  Y  Y2  1  0.815523  0.999998  0.500000  1
  Y  Y3  1  0.000002  0.815526  0.500000  1
  Y  Y4  1  0.666667  0.333333  0.000000  1
  Zr  Zr5  1  0.561688  0.561729  0.000000  1
  Zr  Zr6  1  0.438271  0.999960  0.000000  1
  Zr  Zr7  1  0.000040  0.438312  0.000000  1
  Ni  Ni8  1  0.726680  0.726798  0.500000  1
  Ni  Ni9  1  0.273202  0.999882  0.500000  1
  Ni  Ni10  1  0.000118  0.273320  0.500000  1
  Ni  Ni11  1  0.185918  0.377156  0.000000  1
  Ni  Ni12  1  0.622844  0.808762  0.000000  1
  Ni  Ni13  1  0.191238  0.814082  0.000000  1
  Ni  Ni14  1  0.808985  0.623151  0.000000  1
  Ni  Ni15  1  0.814167  0.191015  0.000000  1
  Ni  Ni16  1  0.376849  0.185833  0.000000  1
  Ni  Ni17  1  0.360515  0.485149  0.500000  1
  Ni  Ni18  1  0.514851  0.875367  0.500000  1
  Ni  Ni19  1  0.124633  0.639485  0.500000  1
  Ni  Ni20  1  0.875842  0.515359  0.500000  1
  Ni  Ni21  1  0.639518  0.124158  0.500000  1
  Ni  Ni22  1  0.484641  0.360482  0.500000  1
  Ni  Ni23  1  0.000000  0.000000  0.000000  1
  P  P24  1  0.821931  0.821985  0.000000  1
  P  P25  1  0.178015  0.999946  0.000000  1
  P  P26  1  0.000054  0.178069  0.000000  1
  P  P27  1  0.170954  0.475953  0.500000  1
  P  P28  1  0.524047  0.695001  0.500000  1
  P  P29  1  0.304999  0.829046  0.500000  1
  P  P30  1  0.695155  0.524379  0.500000  1
  P  P31  1  0.829225  0.304845  0.500000  1
  P  P32  1  0.475621  0.170775  0.500000  1
  P  P33  1  0.356591  0.356668  0.000000  1
  P  P34  1  0.643332  0.999923  0.000000  1
  P  P35  1  0.000077  0.643409  0.000000  1
