# generated using pymatgen
data_Yb2LuCo7C2
_symmetry_space_group_name_H-M   'P 1'
_cell_length_a   5.02972200
_cell_length_b   5.02972148
_cell_length_c   13.56865200
_cell_angle_alpha   90.00000000
_cell_angle_beta   90.00000000
_cell_angle_gamma   119.99999028
_symmetry_Int_Tables_number   1
_chemical_formula_structural   Yb2LuCo7C2
_chemical_formula_sum   'Yb4 Lu2 Co14 C4'
_cell_volume   297.27288401
_cell_formula_units_Z   2
loop_
 _symmetry_equiv_pos_site_id
 _symmetry_equiv_pos_as_xyz
  1  'x, y, z'
loop_
 _atom_site_type_symbol
 _atom_site_label
 _atom_site_symmetry_multiplicity
 _atom_site_fract_x
 _atom_site_fract_y
 _atom_site_fract_z
 _atom_site_occupancy
  Yb  Yb0  1  0.333333  0.666667  0.536867  1
  Yb  Yb1  1  0.666667  0.333333  0.036867  1
  Yb  Yb2  1  0.333333  0.666667  0.746518  1
  Yb  Yb3  1  0.666667  0.333333  0.246518  1
  Lu  Lu4  1  0.666667  0.333333  0.464864  1
  Lu  Lu5  1  0.333333  0.666667  0.964864  1
  Co  Co6  1  0.000000  0.000000  0.000557  1
  Co  Co7  1  0.000000  0.000000  0.500557  1
  Co  Co8  1  0.164959  0.329918  0.154120  1
  Co  Co9  1  0.835041  0.670082  0.654120  1
  Co  Co10  1  0.670082  0.835041  0.154120  1
  Co  Co11  1  0.164959  0.835041  0.154120  1
  Co  Co12  1  0.835041  0.164959  0.654120  1
  Co  Co13  1  0.329918  0.164959  0.654120  1
  Co  Co14  1  0.835362  0.670723  0.846046  1
  Co  Co15  1  0.835362  0.164638  0.846046  1
  Co  Co16  1  0.329277  0.164638  0.846046  1
  Co  Co17  1  0.670723  0.835362  0.346046  1
  Co  Co18  1  0.164638  0.835362  0.346046  1
  Co  Co19  1  0.164638  0.329277  0.346046  1
  C  C20  1  0.333333  0.666667  0.250554  1
  C  C21  1  0.666667  0.333333  0.750554  1
  C  C22  1  0.000000  0.000000  0.250142  1
  C  C23  1  0.000000  0.000000  0.750142  1
