# generated using pymatgen
data_Dy3Tm3(Al3Os)8
_symmetry_space_group_name_H-M   'P 1'
_cell_length_a   8.78468318
_cell_length_b   8.79387554
_cell_length_c   9.61919100
_cell_angle_alpha   90.00000000
_cell_angle_beta   90.00000000
_cell_angle_gamma   119.91588417
_symmetry_Int_Tables_number   1
_chemical_formula_structural   Dy3Tm3(Al3Os)8
_chemical_formula_sum   'Dy3 Tm3 Al24 Os8'
_cell_volume   644.08485212
_cell_formula_units_Z   1
loop_
 _symmetry_equiv_pos_site_id
 _symmetry_equiv_pos_as_xyz
  1  'x, y, z'
loop_
 _atom_site_type_symbol
 _atom_site_label
 _atom_site_symmetry_multiplicity
 _atom_site_fract_x
 _atom_site_fract_y
 _atom_site_fract_z
 _atom_site_occupancy
  Dy  Dy0  1  0.385555  0.192432  0.750000  1
  Dy  Dy1  1  0.192561  0.808462  0.250000  1
  Dy  Dy2  1  0.807477  0.192535  0.750000  1
  Tm  Tm3  1  0.195487  0.390200  0.250000  1
  Tm  Tm4  1  0.804734  0.608351  0.750000  1
  Tm  Tm5  1  0.611286  0.806025  0.250000  1
  Al  Al6  1  0.333391  0.667045  0.023829  1
  Al  Al7  1  0.666571  0.333022  0.978689  1
  Al  Al8  1  0.666571  0.333022  0.521311  1
  Al  Al9  1  0.333391  0.667045  0.476171  1
  Al  Al10  1  0.164198  0.328091  0.574677  1
  Al  Al11  1  0.836104  0.672904  0.424753  1
  Al  Al12  1  0.672480  0.835638  0.575078  1
  Al  Al13  1  0.836104  0.672904  0.075247  1
  Al  Al14  1  0.327706  0.164406  0.423825  1
  Al  Al15  1  0.164198  0.328091  0.925323  1
  Al  Al16  1  0.163609  0.835681  0.575845  1
  Al  Al17  1  0.327706  0.164406  0.076175  1
  Al  Al18  1  0.836681  0.163903  0.423725  1
  Al  Al19  1  0.672480  0.835638  0.924922  1
  Al  Al20  1  0.836681  0.163903  0.076275  1
  Al  Al21  1  0.163609  0.835681  0.924155  1
  Al  Al22  1  0.562439  0.124090  0.250000  1
  Al  Al23  1  0.438092  0.875273  0.750000  1
  Al  Al24  1  0.876740  0.438560  0.250000  1
  Al  Al25  1  0.124406  0.561897  0.750000  1
  Al  Al26  1  0.562302  0.439039  0.250000  1
  Al  Al27  1  0.438393  0.562081  0.750000  1
  Al  Al28  1  0.998794  0.003067  0.250000  1
  Al  Al29  1  0.997766  0.994807  0.750000  1
  Os  Os30  1  0.500404  0.999731  0.000519  1
  Os  Os31  1  0.000077  0.500182  0.999987  1
  Os  Os32  1  0.500404  0.999731  0.499481  1
  Os  Os33  1  0.500281  0.500636  0.000587  1
  Os  Os34  1  0.000077  0.500182  0.500013  1
  Os  Os35  1  0.500281  0.500636  0.499413  1
  Os  Os36  1  0.000481  0.000350  0.000087  1
  Os  Os37  1  0.000481  0.000350  0.499913  1
