# generated using pymatgen
data_TmPa3(Ni2Sn)2
_symmetry_space_group_name_H-M   'P 1'
_cell_length_a   7.43549660
_cell_length_b   7.43549660
_cell_length_c   3.57482500
_cell_angle_alpha   90.00000000
_cell_angle_beta   90.00000000
_cell_angle_gamma   90.96308637
_symmetry_Int_Tables_number   1
_chemical_formula_structural   TmPa3(Ni2Sn)2
_chemical_formula_sum   'Tm1 Pa3 Ni4 Sn2'
_cell_volume   197.61203446
_cell_formula_units_Z   1
loop_
 _symmetry_equiv_pos_site_id
 _symmetry_equiv_pos_as_xyz
  1  'x, y, z'
loop_
 _atom_site_type_symbol
 _atom_site_label
 _atom_site_symmetry_multiplicity
 _atom_site_fract_x
 _atom_site_fract_y
 _atom_site_fract_z
 _atom_site_occupancy
  Tm  Tm0  1  0.826880  0.673120  0.500000  1
  Pa  Pa1  1  0.674111  0.173071  0.500000  1
  Pa  Pa2  1  0.326929  0.825889  0.500000  1
  Pa  Pa3  1  0.171113  0.328887  0.500000  1
  Ni  Ni4  1  0.879609  0.365448  0.000000  1
  Ni  Ni5  1  0.134552  0.620391  0.000000  1
  Ni  Ni6  1  0.370360  0.129640  0.000000  1
  Ni  Ni7  1  0.612723  0.887277  0.000000  1
  Sn  Sn8  1  0.508873  0.505151  0.000000  1
  Sn  Sn9  1  0.994849  0.991127  0.000000  1
