# generated using pymatgen
data_PrGdNp6F30
_symmetry_space_group_name_H-M   'P 1'
_cell_length_a   8.67767431
_cell_length_b   8.67767341
_cell_length_c   8.68694700
_cell_angle_alpha   79.60055842
_cell_angle_beta   79.60055281
_cell_angle_gamma   100.36364508
_symmetry_Int_Tables_number   1
_chemical_formula_structural   PrGdNp6F30
_chemical_formula_sum   'Pr1 Gd1 Np6 F30'
_cell_volume   617.37780868
_cell_formula_units_Z   1
loop_
 _symmetry_equiv_pos_site_id
 _symmetry_equiv_pos_as_xyz
  1  'x, y, z'
loop_
 _atom_site_type_symbol
 _atom_site_label
 _atom_site_symmetry_multiplicity
 _atom_site_fract_x
 _atom_site_fract_y
 _atom_site_fract_z
 _atom_site_occupancy
  Pr  Pr0  1  0.177392  0.822608  0.250000  1
  Gd  Gd1  1  0.822814  0.177186  0.750000  1
  Np  Np2  1  0.749403  0.250597  0.250000  1
  Np  Np3  1  0.250644  0.749356  0.750000  1
  Np  Np4  1  0.752504  0.676737  0.678589  1
  Np  Np5  1  0.323263  0.247496  0.821411  1
  Np  Np6  1  0.245532  0.322685  0.323526  1
  Np  Np7  1  0.677315  0.754468  0.176474  1
  F  F8  1  0.322542  0.344543  0.050832  1
  F  F9  1  0.938829  0.814590  0.152600  1
  F  F10  1  0.840083  0.451042  0.682447  1
  F  F11  1  0.457824  0.846559  0.176379  1
  F  F12  1  0.812369  0.940267  0.660478  1
  F  F13  1  0.345964  0.323542  0.549971  1
  F  F14  1  0.676458  0.654036  0.950028  1
  F  F15  1  0.059733  0.187631  0.839522  1
  F  F16  1  0.153441  0.542176  0.323621  1
  F  F17  1  0.548958  0.159917  0.817553  1
  F  F18  1  0.185410  0.061171  0.347400  1
  F  F19  1  0.655457  0.677458  0.449168  1
  F  F20  1  0.778238  0.277300  0.993611  1
  F  F21  1  0.011588  0.278565  0.216129  1
  F  F22  1  0.779535  0.509649  0.220960  1
  F  F23  1  0.509271  0.779302  0.722033  1
  F  F24  1  0.280228  0.011452  0.716103  1
  F  F25  1  0.283296  0.776627  0.493984  1
  F  F26  1  0.223373  0.716704  0.006016  1
  F  F27  1  0.988548  0.719772  0.783897  1
  F  F28  1  0.220698  0.490729  0.777967  1
  F  F29  1  0.490351  0.220465  0.279040  1
  F  F30  1  0.721435  0.988412  0.283871  1
  F  F31  1  0.722700  0.221762  0.506389  1
  F  F32  1  0.465641  0.534359  0.250000  1
  F  F33  1  0.752019  0.963212  0.968717  1
  F  F34  1  0.036788  0.247981  0.531283  1
  F  F35  1  0.249511  0.040829  0.026831  1
  F  F36  1  0.959171  0.750489  0.473169  1
  F  F37  1  0.531677  0.468323  0.750000  1
