# generated using pymatgen
data_Tb4Sc(GaSb)2
_symmetry_space_group_name_H-M   'P 1'
_cell_length_a   8.55727704
_cell_length_b   8.55727784
_cell_length_c   7.88049400
_cell_angle_alpha   90.00000000
_cell_angle_beta   90.00000000
_cell_angle_gamma   125.17499014
_symmetry_Int_Tables_number   1
_chemical_formula_structural   Tb4Sc(GaSb)2
_chemical_formula_sum   'Tb8 Sc2 Ga4 Sb4'
_cell_volume   471.69080194
_cell_formula_units_Z   2
loop_
 _symmetry_equiv_pos_site_id
 _symmetry_equiv_pos_as_xyz
  1  'x, y, z'
loop_
 _atom_site_type_symbol
 _atom_site_label
 _atom_site_symmetry_multiplicity
 _atom_site_fract_x
 _atom_site_fract_y
 _atom_site_fract_z
 _atom_site_occupancy
  Tb  Tb0  1  0.041098  0.301983  0.330521  1
  Tb  Tb1  1  0.958902  0.698017  0.669479  1
  Tb  Tb2  1  0.458902  0.198017  0.830521  1
  Tb  Tb3  1  0.801983  0.541098  0.169479  1
  Tb  Tb4  1  0.541098  0.801983  0.169479  1
  Tb  Tb5  1  0.198017  0.458902  0.830521  1
  Tb  Tb6  1  0.698017  0.958902  0.669479  1
  Tb  Tb7  1  0.301983  0.041098  0.330521  1
  Sc  Sc8  1  0.000000  0.000000  0.000000  1
  Sc  Sc9  1  0.500000  0.500000  0.500000  1
  Ga  Ga10  1  0.374407  0.374407  0.125440  1
  Ga  Ga11  1  0.625593  0.625593  0.874560  1
  Ga  Ga12  1  0.125593  0.125593  0.625440  1
  Ga  Ga13  1  0.874407  0.874407  0.374560  1
  Sb  Sb14  1  0.796795  0.203205  0.000000  1
  Sb  Sb15  1  0.203205  0.796795  0.000000  1
  Sb  Sb16  1  0.703205  0.296795  0.500000  1
  Sb  Sb17  1  0.296795  0.703205  0.500000  1
