# generated using pymatgen
data_Ho3Ga24MoPd8
_symmetry_space_group_name_H-M   'P 1'
_cell_length_a   8.48318790
_cell_length_b   8.48318822
_cell_length_c   8.48318939
_cell_angle_alpha   89.82363976
_cell_angle_beta   89.82363782
_cell_angle_gamma   89.82364086
_symmetry_Int_Tables_number   1
_chemical_formula_structural   Ho3Ga24MoPd8
_chemical_formula_sum   'Ho3 Ga24 Mo1 Pd8'
_cell_volume   610.47965238
_cell_formula_units_Z   1
loop_
 _symmetry_equiv_pos_site_id
 _symmetry_equiv_pos_as_xyz
  1  'x, y, z'
loop_
 _atom_site_type_symbol
 _atom_site_label
 _atom_site_symmetry_multiplicity
 _atom_site_fract_x
 _atom_site_fract_y
 _atom_site_fract_z
 _atom_site_occupancy
  Ho  Ho0  1  0.000000  0.500000  0.000000  1
  Ho  Ho1  1  0.500000  0.000000  0.000000  1
  Ho  Ho2  1  0.000000  0.000000  0.500000  1
  Ga  Ga3  1  0.990470  0.643067  0.643067  1
  Ga  Ga4  1  0.643067  0.643067  0.990470  1
  Ga  Ga5  1  0.643067  0.990470  0.643067  1
  Ga  Ga6  1  0.009530  0.356933  0.356933  1
  Ga  Ga7  1  0.356933  0.356933  0.009530  1
  Ga  Ga8  1  0.356933  0.009530  0.356933  1
  Ga  Ga9  1  0.736403  0.500000  0.263597  1
  Ga  Ga10  1  0.263597  0.500000  0.736403  1
  Ga  Ga11  1  0.500000  0.263597  0.736403  1
  Ga  Ga12  1  0.500000  0.736403  0.263597  1
  Ga  Ga13  1  0.263597  0.736403  0.500000  1
  Ga  Ga14  1  0.736403  0.263597  0.500000  1
  Ga  Ga15  1  0.839032  0.140702  0.839032  1
  Ga  Ga16  1  0.140702  0.839032  0.839032  1
  Ga  Ga17  1  0.839032  0.839032  0.140702  1
  Ga  Ga18  1  0.160968  0.859298  0.160968  1
  Ga  Ga19  1  0.859298  0.160968  0.160968  1
  Ga  Ga20  1  0.160968  0.160968  0.859298  1
  Ga  Ga21  1  0.728805  0.489961  0.728805  1
  Ga  Ga22  1  0.489961  0.728805  0.728805  1
  Ga  Ga23  1  0.728805  0.728805  0.489961  1
  Ga  Ga24  1  0.271195  0.510039  0.271195  1
  Ga  Ga25  1  0.510039  0.271195  0.271195  1
  Ga  Ga26  1  0.271195  0.271195  0.510039  1
  Mo  Mo27  1  0.500000  0.500000  0.500000  1
  Pd  Pd28  1  0.835137  0.835137  0.835137  1
  Pd  Pd29  1  0.164863  0.164863  0.164863  1
  Pd  Pd30  1  0.665569  0.334431  0.000000  1
  Pd  Pd31  1  0.000000  0.334431  0.665569  1
  Pd  Pd32  1  0.334431  0.000000  0.665569  1
  Pd  Pd33  1  0.334431  0.665569  0.000000  1
  Pd  Pd34  1  0.000000  0.665569  0.334431  1
  Pd  Pd35  1  0.665569  0.000000  0.334431  1
