# generated using pymatgen
data_Ca3(LuSn2)2
_symmetry_space_group_name_H-M   'P 1'
_cell_length_a   7.81862517
_cell_length_b   8.41075799
_cell_length_c   15.93612904
_cell_angle_alpha   90.01714240
_cell_angle_beta   90.02622901
_cell_angle_gamma   90.17457260
_symmetry_Int_Tables_number   1
_chemical_formula_structural   Ca3(LuSn2)2
_chemical_formula_sum   'Ca12 Lu8 Sn16'
_cell_volume   1047.96381394
_cell_formula_units_Z   4
loop_
 _symmetry_equiv_pos_site_id
 _symmetry_equiv_pos_as_xyz
  1  'x, y, z'
loop_
 _atom_site_type_symbol
 _atom_site_label
 _atom_site_symmetry_multiplicity
 _atom_site_fract_x
 _atom_site_fract_y
 _atom_site_fract_z
 _atom_site_occupancy
  Ca  Ca0  1  0.177208  0.333892  0.620483  1
  Ca  Ca1  1  0.501205  0.686443  0.593050  1
  Ca  Ca2  1  0.001300  0.814727  0.909324  1
  Ca  Ca3  1  0.495846  0.312909  0.091935  1
  Ca  Ca4  1  0.998530  0.187912  0.407111  1
  Ca  Ca5  1  0.496599  0.313223  0.408077  1
  Ca  Ca6  1  0.997577  0.186741  0.092081  1
  Ca  Ca7  1  0.501175  0.686474  0.907863  1
  Ca  Ca8  1  0.002932  0.813666  0.591410  1
  Ca  Ca9  1  0.333858  0.991674  0.749651  1
  Ca  Ca10  1  0.164844  0.489589  0.249259  1
  Ca  Ca11  1  0.666323  0.009738  0.250474  1
  Lu  Lu12  1  0.672841  0.164188  0.622522  1
  Lu  Lu13  1  0.173138  0.333947  0.878697  1
  Lu  Lu14  1  0.326639  0.834153  0.121673  1
  Lu  Lu15  1  0.827909  0.664440  0.377513  1
  Lu  Lu16  1  0.326625  0.834664  0.377197  1
  Lu  Lu17  1  0.826802  0.664779  0.121267  1
  Lu  Lu18  1  0.672379  0.163721  0.879152  1
  Lu  Lu19  1  0.837982  0.507589  0.748816  1
  Sn  Sn20  1  0.675164  0.960902  0.459683  1
  Sn  Sn21  1  0.170457  0.537728  0.040083  1
  Sn  Sn22  1  0.328202  0.037745  0.959603  1
  Sn  Sn23  1  0.823404  0.465893  0.542785  1
  Sn  Sn24  1  0.336820  0.033862  0.539819  1
  Sn  Sn25  1  0.827922  0.464644  0.955658  1
  Sn  Sn26  1  0.671306  0.961743  0.040965  1
  Sn  Sn27  1  0.167540  0.540061  0.456573  1
  Sn  Sn28  1  0.477808  0.379803  0.754346  1
  Sn  Sn29  1  0.966009  0.130061  0.751789  1
  Sn  Sn30  1  0.529825  0.630850  0.249480  1
  Sn  Sn31  1  0.029692  0.869137  0.248279  1
  Sn  Sn32  1  0.719562  0.865690  0.751490  1
  Sn  Sn33  1  0.210133  0.627419  0.753639  1
  Sn  Sn34  1  0.283376  0.125564  0.249249  1
  Sn  Sn35  1  0.781065  0.374429  0.249001  1
