# generated using pymatgen
data_Cs6ScIn(IrBr9)2
_symmetry_space_group_name_H-M   'P 1'
_cell_length_a   7.85946000
_cell_length_b   7.85945898
_cell_length_c   19.84451000
_cell_angle_alpha   90.00000000
_cell_angle_beta   90.00000000
_cell_angle_gamma   119.99998745
_symmetry_Int_Tables_number   1
_chemical_formula_structural   Cs6ScIn(IrBr9)2
_chemical_formula_sum   'Cs6 Sc1 In1 Ir2 Br18'
_cell_volume   1061.58904006
_cell_formula_units_Z   1
loop_
 _symmetry_equiv_pos_site_id
 _symmetry_equiv_pos_as_xyz
  1  'x, y, z'
loop_
 _atom_site_type_symbol
 _atom_site_label
 _atom_site_symmetry_multiplicity
 _atom_site_fract_x
 _atom_site_fract_y
 _atom_site_fract_z
 _atom_site_occupancy
  Cs  Cs0  1  0.333333  0.666667  0.068120  1
  Cs  Cs1  1  0.666667  0.333333  0.930887  1
  Cs  Cs2  1  0.666667  0.333333  0.569477  1
  Cs  Cs3  1  0.333333  0.666667  0.431107  1
  Cs  Cs4  1  0.000000  0.000000  0.255314  1
  Cs  Cs5  1  0.000000  0.000000  0.745357  1
  Sc  Sc6  1  0.333333  0.666667  0.836715  1
  In  In7  1  0.666667  0.333333  0.156964  1
  Ir  Ir8  1  0.333333  0.666667  0.668812  1
  Ir  Ir9  1  0.666667  0.333333  0.335173  1
  Br  Br10  1  0.183284  0.366567  0.596304  1
  Br  Br11  1  0.817669  0.635339  0.406441  1
  Br  Br12  1  0.633433  0.816716  0.596304  1
  Br  Br13  1  0.833127  0.666255  0.090409  1
  Br  Br14  1  0.364661  0.182331  0.406441  1
  Br  Br15  1  0.172826  0.345652  0.906329  1
  Br  Br16  1  0.183284  0.816716  0.596304  1
  Br  Br17  1  0.333745  0.166873  0.090409  1
  Br  Br18  1  0.817669  0.182331  0.406441  1
  Br  Br19  1  0.654348  0.827174  0.906329  1
  Br  Br20  1  0.833127  0.166873  0.090409  1
  Br  Br21  1  0.172826  0.827174  0.906329  1
  Br  Br22  1  0.517571  0.035143  0.257050  1
  Br  Br23  1  0.485550  0.971100  0.744157  1
  Br  Br24  1  0.964857  0.482429  0.257050  1
  Br  Br25  1  0.028900  0.514450  0.744157  1
  Br  Br26  1  0.517571  0.482429  0.257050  1
  Br  Br27  1  0.485550  0.514450  0.744157  1
