# generated using pymatgen
data_YbDy3VRe3B16
_symmetry_space_group_name_H-M   'P 1'
_cell_length_a   3.57563100
_cell_length_b   5.98041563
_cell_length_c   11.56583935
_cell_angle_alpha   89.85913902
_cell_angle_beta   90.00000000
_cell_angle_gamma   90.00000000
_symmetry_Int_Tables_number   1
_chemical_formula_structural   YbDy3VRe3B16
_chemical_formula_sum   'Yb1 Dy3 V1 Re3 B16'
_cell_volume   247.32037973
_cell_formula_units_Z   1
loop_
 _symmetry_equiv_pos_site_id
 _symmetry_equiv_pos_as_xyz
  1  'x, y, z'
loop_
 _atom_site_type_symbol
 _atom_site_label
 _atom_site_symmetry_multiplicity
 _atom_site_fract_x
 _atom_site_fract_y
 _atom_site_fract_z
 _atom_site_occupancy
  Yb  Yb0  1  0.000000  0.625679  0.351615  1
  Dy  Dy1  1  0.000000  0.375382  0.647466  1
  Dy  Dy2  1  0.000000  0.127594  0.153434  1
  Dy  Dy3  1  0.000000  0.872372  0.846307  1
  V  V4  1  0.000000  0.872377  0.582075  1
  Re  Re5  1  0.000000  0.633256  0.085484  1
  Re  Re6  1  0.000000  0.367395  0.914988  1
  Re  Re7  1  0.000000  0.127163  0.416955  1
  B  B8  1  0.500000  0.784173  0.186735  1
  B  B9  1  0.500000  0.215273  0.813770  1
  B  B10  1  0.500000  0.285685  0.315939  1
  B  B11  1  0.500000  0.713573  0.684328  1
  B  B12  1  0.500000  0.864540  0.031716  1
  B  B13  1  0.500000  0.135758  0.968445  1
  B  B14  1  0.500000  0.364534  0.467471  1
  B  B15  1  0.500000  0.634905  0.532867  1
  B  B16  1  0.500000  0.884924  0.453234  1
  B  B17  1  0.500000  0.113055  0.546763  1
  B  B18  1  0.500000  0.387053  0.047783  1
  B  B19  1  0.500000  0.613950  0.952249  1
  B  B20  1  0.500000  0.976886  0.308306  1
  B  B21  1  0.500000  0.023587  0.691962  1
  B  B22  1  0.500000  0.476723  0.193198  1
  B  B23  1  0.500000  0.524164  0.806913  1
