# generated using pymatgen
data_La17Nd3(Ge2Rh)4
_symmetry_space_group_name_H-M   'P 1'
_cell_length_a   8.19145956
_cell_length_b   8.97309800
_cell_length_c   12.56724188
_cell_angle_alpha   90.00000000
_cell_angle_beta   90.04270057
_cell_angle_gamma   90.00000000
_symmetry_Int_Tables_number   1
_chemical_formula_structural   La17Nd3(Ge2Rh)4
_chemical_formula_sum   'La17 Nd3 Ge8 Rh4'
_cell_volume   923.72682574
_cell_formula_units_Z   1
loop_
 _symmetry_equiv_pos_site_id
 _symmetry_equiv_pos_as_xyz
  1  'x, y, z'
loop_
 _atom_site_type_symbol
 _atom_site_label
 _atom_site_symmetry_multiplicity
 _atom_site_fract_x
 _atom_site_fract_y
 _atom_site_fract_z
 _atom_site_occupancy
  La  La0  1  0.682253  0.465806  0.074000  1
  La  La1  1  0.181798  0.533572  0.425965  1
  La  La2  1  0.317876  0.965975  0.925980  1
  La  La3  1  0.818021  0.034575  0.573934  1
  La  La4  1  0.317876  0.534025  0.925980  1
  La  La5  1  0.818021  0.465425  0.573934  1
  La  La6  1  0.682253  0.034194  0.074000  1
  La  La7  1  0.181798  0.966428  0.425965  1
  La  La8  1  0.542103  0.750000  0.500464  1
  La  La9  1  0.352880  0.750000  0.203979  1
  La  La10  1  0.852897  0.250000  0.295159  1
  La  La11  1  0.646393  0.250000  0.795576  1
  La  La12  1  0.145851  0.750000  0.705320  1
  La  La13  1  0.832603  0.750000  0.283524  1
  La  La14  1  0.331770  0.250000  0.215688  1
  La  La15  1  0.167651  0.250000  0.716220  1
  La  La16  1  0.668062  0.750000  0.784530  1
  Nd  Nd17  1  0.960062  0.750000  0.999495  1
  Nd  Nd18  1  0.459939  0.250000  0.500448  1
  Nd  Nd19  1  0.039881  0.250000  0.000110  1
  Ge  Ge20  1  0.561049  0.494005  0.329308  1
  Ge  Ge21  1  0.060774  0.504866  0.169526  1
  Ge  Ge22  1  0.438131  0.996554  0.670492  1
  Ge  Ge23  1  0.938997  0.004677  0.830503  1
  Ge  Ge24  1  0.438131  0.503446  0.670492  1
  Ge  Ge25  1  0.938997  0.495323  0.830503  1
  Ge  Ge26  1  0.561049  0.005995  0.329308  1
  Ge  Ge27  1  0.060774  0.995134  0.169526  1
  Rh  Rh28  1  0.580455  0.750000  0.016308  1
  Rh  Rh29  1  0.080011  0.250000  0.483527  1
  Rh  Rh30  1  0.420051  0.250000  0.983647  1
  Rh  Rh31  1  0.921594  0.750000  0.516587  1
