# generated using pymatgen
data_Er13Th3Cd4Ir3Rh
_symmetry_space_group_name_H-M   'P 1'
_cell_length_a   9.65476284
_cell_length_b   9.66537572
_cell_length_c   9.66537640
_cell_angle_alpha   59.95448997
_cell_angle_beta   59.90915303
_cell_angle_gamma   59.90916521
_symmetry_Int_Tables_number   1
_chemical_formula_structural   Er13Th3Cd4Ir3Rh
_chemical_formula_sum   'Er13 Th3 Cd4 Ir3 Rh1'
_cell_volume   636.67421671
_cell_formula_units_Z   1
loop_
 _symmetry_equiv_pos_site_id
 _symmetry_equiv_pos_as_xyz
  1  'x, y, z'
loop_
 _atom_site_type_symbol
 _atom_site_label
 _atom_site_symmetry_multiplicity
 _atom_site_fract_x
 _atom_site_fract_y
 _atom_site_fract_z
 _atom_site_occupancy
  Er  Er0  1  0.197077  0.601552  0.601552  1
  Er  Er1  1  0.061032  0.439336  0.439336  1
  Er  Er2  1  0.436484  0.063237  0.063237  1
  Er  Er3  1  0.437140  0.062283  0.437459  1
  Er  Er4  1  0.061935  0.438588  0.060248  1
  Er  Er5  1  0.437140  0.437459  0.062283  1
  Er  Er6  1  0.061935  0.060248  0.438588  1
  Er  Er7  1  0.186472  0.814227  0.814227  1
  Er  Er8  1  0.816468  0.184279  0.184279  1
  Er  Er9  1  0.816116  0.184795  0.815744  1
  Er  Er10  1  0.185924  0.814461  0.186110  1
  Er  Er11  1  0.816116  0.815744  0.184795  1
  Er  Er12  1  0.185924  0.186110  0.814461  1
  Th  Th13  1  0.597961  0.600081  0.600081  1
  Th  Th14  1  0.598347  0.600736  0.200491  1
  Th  Th15  1  0.598347  0.200491  0.600736  1
  Cd  Cd16  1  0.835548  0.831128  0.831128  1
  Cd  Cd17  1  0.835287  0.831162  0.501530  1
  Cd  Cd18  1  0.835287  0.501530  0.831162  1
  Cd  Cd19  1  0.499334  0.833223  0.833223  1
  Ir  Ir20  1  0.392460  0.391852  0.822865  1
  Ir  Ir21  1  0.392460  0.822865  0.391852  1
  Ir  Ir22  1  0.822018  0.392408  0.392408  1
  Rh  Rh23  1  0.393189  0.392200  0.392200  1
