# generated using pymatgen
data_TbSm2Y3Ta2O14
_symmetry_space_group_name_H-M   'P 1'
_cell_length_a   6.50207844
_cell_length_b   6.50490882
_cell_length_c   7.59360500
_cell_angle_alpha   90.00000000
_cell_angle_beta   90.00000000
_cell_angle_gamma   109.49659262
_symmetry_Int_Tables_number   1
_chemical_formula_structural   TbSm2Y3Ta2O14
_chemical_formula_sum   'Tb1 Sm2 Y3 Ta2 O14'
_cell_volume   302.75903830
_cell_formula_units_Z   1
loop_
 _symmetry_equiv_pos_site_id
 _symmetry_equiv_pos_as_xyz
  1  'x, y, z'
loop_
 _atom_site_type_symbol
 _atom_site_label
 _atom_site_symmetry_multiplicity
 _atom_site_fract_x
 _atom_site_fract_y
 _atom_site_fract_z
 _atom_site_occupancy
  Tb  Tb0  1  0.534151  0.000464  0.750000  1
  Sm  Sm1  1  0.499931  0.499865  0.500014  1
  Sm  Sm2  1  0.499931  0.499865  0.999986  1
  Y  Y3  1  0.000494  0.533432  0.250000  1
  Y  Y4  1  0.466489  0.999546  0.250000  1
  Y  Y5  1  0.999592  0.466710  0.750000  1
  Ta  Ta6  1  0.000006  0.999997  0.499855  1
  Ta  Ta7  1  0.000006  0.999997  0.000145  1
  O  O8  1  0.679384  0.929322  0.468191  1
  O  O9  1  0.929416  0.679582  0.531554  1
  O  O10  1  0.679384  0.929322  0.031809  1
  O  O11  1  0.929416  0.679582  0.968446  1
  O  O12  1  0.320698  0.070794  0.531436  1
  O  O13  1  0.070545  0.320471  0.468421  1
  O  O14  1  0.320698  0.070794  0.968564  1
  O  O15  1  0.070545  0.320471  0.031579  1
  O  O16  1  0.936264  0.063572  0.750000  1
  O  O17  1  0.063614  0.936394  0.250000  1
  O  O18  1  0.366261  0.631974  0.750000  1
  O  O19  1  0.633094  0.366787  0.250000  1
  O  O20  1  0.640142  0.360809  0.750000  1
  O  O21  1  0.359937  0.640246  0.250000  1
