# generated using pymatgen
data_SrP12(IrRu)2
_symmetry_space_group_name_H-M   'P 1'
_cell_length_a   7.03682966
_cell_length_b   7.04971853
_cell_length_c   7.03683100
_cell_angle_alpha   109.48108715
_cell_angle_beta   109.38980823
_cell_angle_gamma   109.46857733
_symmetry_Int_Tables_number   1
_chemical_formula_structural   SrP12(IrRu)2
_chemical_formula_sum   'Sr1 P12 Ir2 Ru2'
_cell_volume   268.96811812
_cell_formula_units_Z   1
loop_
 _symmetry_equiv_pos_site_id
 _symmetry_equiv_pos_as_xyz
  1  'x, y, z'
loop_
 _atom_site_type_symbol
 _atom_site_label
 _atom_site_symmetry_multiplicity
 _atom_site_fract_x
 _atom_site_fract_y
 _atom_site_fract_z
 _atom_site_occupancy
  Sr  Sr0  1  0.000000  0.000000  0.000000  1
  P  P1  1  0.355940  0.212486  0.856546  1
  P  P2  1  0.644060  0.787514  0.143454  1
  P  P3  1  0.641981  0.500801  0.858820  1
  P  P4  1  0.358019  0.499199  0.141180  1
  P  P5  1  0.214626  0.859875  0.359124  1
  P  P6  1  0.785374  0.140125  0.640876  1
  P  P7  1  0.500753  0.859875  0.645249  1
  P  P8  1  0.499247  0.140125  0.354751  1
  P  P9  1  0.854987  0.354346  0.214621  1
  P  P10  1  0.145013  0.645654  0.785379  1
  P  P11  1  0.860275  0.645654  0.500641  1
  P  P12  1  0.139725  0.354346  0.499359  1
  Ir  Ir13  1  0.000000  0.500000  0.000000  1
  Ir  Ir14  1  0.500000  0.500000  0.500000  1
  Ru  Ru15  1  0.000000  0.000000  0.500000  1
  Ru  Ru16  1  0.500000  0.000000  0.000000  1
