# generated using pymatgen
data_CsCd2Au3
_symmetry_space_group_name_H-M   'P 1'
_cell_length_a   6.34685000
_cell_length_b   7.29249100
_cell_length_c   14.23725500
_cell_angle_alpha   90.00000000
_cell_angle_beta   90.00000000
_cell_angle_gamma   90.00000000
_symmetry_Int_Tables_number   1
_chemical_formula_structural   CsCd2Au3
_chemical_formula_sum   'Cs4 Cd8 Au12'
_cell_volume   658.96204368
_cell_formula_units_Z   4
loop_
 _symmetry_equiv_pos_site_id
 _symmetry_equiv_pos_as_xyz
  1  'x, y, z'
loop_
 _atom_site_type_symbol
 _atom_site_label
 _atom_site_symmetry_multiplicity
 _atom_site_fract_x
 _atom_site_fract_y
 _atom_site_fract_z
 _atom_site_occupancy
  Cs  Cs0  1  0.250000  0.101498  0.077810  1
  Cs  Cs1  1  0.250000  0.398502  0.577810  1
  Cs  Cs2  1  0.750000  0.898502  0.922190  1
  Cs  Cs3  1  0.750000  0.601498  0.422190  1
  Cd  Cd4  1  0.004328  0.899791  0.652364  1
  Cd  Cd5  1  0.495672  0.600209  0.152364  1
  Cd  Cd6  1  0.504328  0.100209  0.347636  1
  Cd  Cd7  1  0.995672  0.399791  0.847636  1
  Cd  Cd8  1  0.995672  0.100209  0.347636  1
  Cd  Cd9  1  0.504328  0.399791  0.847636  1
  Cd  Cd10  1  0.495672  0.899791  0.652364  1
  Cd  Cd11  1  0.004328  0.600209  0.152364  1
  Au  Au12  1  0.250000  0.103564  0.792542  1
  Au  Au13  1  0.250000  0.396436  0.292542  1
  Au  Au14  1  0.750000  0.896436  0.207458  1
  Au  Au15  1  0.750000  0.603564  0.707458  1
  Au  Au16  1  0.250000  0.720896  0.799693  1
  Au  Au17  1  0.250000  0.779104  0.299693  1
  Au  Au18  1  0.750000  0.279104  0.200307  1
  Au  Au19  1  0.750000  0.220896  0.700307  1
  Au  Au20  1  0.250000  0.591922  0.986847  1
  Au  Au21  1  0.250000  0.908078  0.486847  1
  Au  Au22  1  0.750000  0.408078  0.013153  1
  Au  Au23  1  0.750000  0.091922  0.513153  1
