# generated using pymatgen
data_Ac2La(CdAu)3
_symmetry_space_group_name_H-M   'P 1'
_cell_length_a   8.00983590
_cell_length_b   8.03471945
_cell_length_c   4.37631300
_cell_angle_alpha   90.00000000
_cell_angle_beta   90.00000000
_cell_angle_gamma   120.10282209
_symmetry_Int_Tables_number   1
_chemical_formula_structural   Ac2La(CdAu)3
_chemical_formula_sum   'Ac2 La1 Cd3 Au3'
_cell_volume   243.65898794
_cell_formula_units_Z   1
loop_
 _symmetry_equiv_pos_site_id
 _symmetry_equiv_pos_as_xyz
  1  'x, y, z'
loop_
 _atom_site_type_symbol
 _atom_site_label
 _atom_site_symmetry_multiplicity
 _atom_site_fract_x
 _atom_site_fract_y
 _atom_site_fract_z
 _atom_site_occupancy
  Ac  Ac0  1  0.407795  0.000633  0.000000  1
  Ac  Ac1  1  0.592205  0.592838  0.000000  1
  La  La2  1  0.000000  0.406515  0.000000  1
  Cd  Cd3  1  0.757512  0.003051  0.500000  1
  Cd  Cd4  1  0.242488  0.245539  0.500000  1
  Cd  Cd5  1  0.000000  0.751151  0.500000  1
  Au  Au6  1  0.671684  0.334418  0.500000  1
  Au  Au7  1  0.328316  0.662735  0.500000  1
  Au  Au8  1  0.000000  0.003120  0.000000  1
