# generated using pymatgen
data_YEr8Tm11Bi12
_symmetry_space_group_name_H-M   'P 1'
_cell_length_a   8.18009325
_cell_length_b   9.46575621
_cell_length_c   11.93324464
_cell_angle_alpha   89.98883201
_cell_angle_beta   89.93724021
_cell_angle_gamma   89.99661857
_symmetry_Int_Tables_number   1
_chemical_formula_structural   YEr8Tm11Bi12
_chemical_formula_sum   'Y1 Er8 Tm11 Bi12'
_cell_volume   923.99972864
_cell_formula_units_Z   1
loop_
 _symmetry_equiv_pos_site_id
 _symmetry_equiv_pos_as_xyz
  1  'x, y, z'
loop_
 _atom_site_type_symbol
 _atom_site_label
 _atom_site_symmetry_multiplicity
 _atom_site_fract_x
 _atom_site_fract_y
 _atom_site_fract_z
 _atom_site_occupancy
  Y  Y0  1  0.146575  0.249401  0.716312  1
  Er  Er1  1  0.186429  0.749965  0.718260  1
  Er  Er2  1  0.686820  0.749994  0.781803  1
  Er  Er3  1  0.813063  0.249564  0.281413  1
  Er  Er4  1  0.313215  0.249804  0.218130  1
  Er  Er5  1  0.807662  0.436339  0.559323  1
  Er  Er6  1  0.354293  0.749817  0.216587  1
  Er  Er7  1  0.853680  0.749498  0.283320  1
  Er  Er8  1  0.645309  0.249240  0.783608  1
  Tm  Tm9  1  0.023914  0.749780  0.988992  1
  Tm  Tm10  1  0.524150  0.749800  0.511071  1
  Tm  Tm11  1  0.975886  0.249871  0.011611  1
  Tm  Tm12  1  0.475796  0.249961  0.488694  1
  Tm  Tm13  1  0.307944  0.434466  0.941198  1
  Tm  Tm14  1  0.807340  0.066401  0.559486  1
  Tm  Tm15  1  0.692268  0.934258  0.059372  1
  Tm  Tm16  1  0.192133  0.565939  0.440477  1
  Tm  Tm17  1  0.692162  0.565721  0.059405  1
  Tm  Tm18  1  0.193032  0.934716  0.440100  1
  Tm  Tm19  1  0.307966  0.065341  0.941435  1
  Bi  Bi20  1  0.434143  0.003031  0.673562  1
  Bi  Bi21  1  0.932646  0.496559  0.826829  1
  Bi  Bi22  1  0.566822  0.503722  0.326350  1
  Bi  Bi23  1  0.066652  0.995732  0.173584  1
  Bi  Bi24  1  0.566795  0.995840  0.326375  1
  Bi  Bi25  1  0.066858  0.503764  0.173526  1
  Bi  Bi26  1  0.433928  0.496418  0.673607  1
  Bi  Bi27  1  0.932563  0.003076  0.827018  1
  Bi  Bi28  1  0.405131  0.749905  0.956968  1
  Bi  Bi29  1  0.905658  0.751853  0.542691  1
  Bi  Bi30  1  0.595068  0.250058  0.043060  1
  Bi  Bi31  1  0.094102  0.250164  0.455837  1
