# generated using pymatgen
data_Ho6IO12
_symmetry_space_group_name_H-M   'P 1'
_cell_length_a   6.49583898
_cell_length_b   6.49582776
_cell_length_c   6.49582908
_cell_angle_alpha   98.67151055
_cell_angle_beta   98.67159454
_cell_angle_gamma   98.67140704
_symmetry_Int_Tables_number   1
_chemical_formula_structural   Ho6IO12
_chemical_formula_sum   'Ho6 I1 O12'
_cell_volume   263.61119140
_cell_formula_units_Z   1
loop_
 _symmetry_equiv_pos_site_id
 _symmetry_equiv_pos_as_xyz
  1  'x, y, z'
loop_
 _atom_site_type_symbol
 _atom_site_label
 _atom_site_symmetry_multiplicity
 _atom_site_fract_x
 _atom_site_fract_y
 _atom_site_fract_z
 _atom_site_occupancy
  Ho  Ho0  1  0.610532  0.318973  0.145160  1
  Ho  Ho1  1  0.145161  0.610529  0.318973  1
  Ho  Ho2  1  0.681029  0.854841  0.389470  1
  Ho  Ho3  1  0.318971  0.145160  0.610531  1
  Ho  Ho4  1  0.854840  0.389471  0.681028  1
  Ho  Ho5  1  0.389469  0.681028  0.854841  1
  I  I6  1  0.000000  0.000000  0.000000  1
  O  O7  1  0.694161  0.929094  0.039954  1
  O  O8  1  0.960044  0.305840  0.070907  1
  O  O9  1  0.431281  0.591267  0.177766  1
  O  O10  1  0.070905  0.960044  0.305840  1
  O  O11  1  0.822235  0.568720  0.408732  1
  O  O12  1  0.591266  0.177765  0.431279  1
  O  O13  1  0.408734  0.822235  0.568721  1
  O  O14  1  0.177765  0.431279  0.591268  1
  O  O15  1  0.929095  0.039955  0.694160  1
  O  O16  1  0.568719  0.408733  0.822234  1
  O  O17  1  0.039955  0.694160  0.929093  1
  O  O18  1  0.305839  0.070906  0.960046  1
