# generated using pymatgen
data_Y3Er7(Bi2P)2
_symmetry_space_group_name_H-M   'P 1'
_cell_length_a   7.96127170
_cell_length_b   8.92641000
_cell_length_c   12.10977547
_cell_angle_alpha   90.00000000
_cell_angle_beta   90.02141248
_cell_angle_gamma   90.00000000
_symmetry_Int_Tables_number   1
_chemical_formula_structural   Y3Er7(Bi2P)2
_chemical_formula_sum   'Y6 Er14 Bi8 P4'
_cell_volume   860.58810063
_cell_formula_units_Z   2
loop_
 _symmetry_equiv_pos_site_id
 _symmetry_equiv_pos_as_xyz
  1  'x, y, z'
loop_
 _atom_site_type_symbol
 _atom_site_label
 _atom_site_symmetry_multiplicity
 _atom_site_fract_x
 _atom_site_fract_y
 _atom_site_fract_z
 _atom_site_occupancy
  Y  Y0  1  0.650295  0.750000  0.705691  1
  Y  Y1  1  0.349705  0.250000  0.294309  1
  Y  Y2  1  0.150926  0.250000  0.793316  1
  Y  Y3  1  0.849074  0.750000  0.206684  1
  Y  Y4  1  0.126078  0.750000  0.800206  1
  Y  Y5  1  0.873922  0.250000  0.199794  1
  Er  Er6  1  0.626497  0.250000  0.698926  1
  Er  Er7  1  0.373503  0.750000  0.301074  1
  Er  Er8  1  0.540426  0.750000  0.997956  1
  Er  Er9  1  0.459574  0.250000  0.002044  1
  Er  Er10  1  0.040373  0.250000  0.501475  1
  Er  Er11  1  0.959627  0.750000  0.498525  1
  Er  Er12  1  0.817998  0.449529  0.935432  1
  Er  Er13  1  0.182002  0.550471  0.064568  1
  Er  Er14  1  0.318009  0.550265  0.564069  1
  Er  Er15  1  0.182002  0.949529  0.064568  1
  Er  Er16  1  0.681991  0.449735  0.435931  1
  Er  Er17  1  0.817998  0.050471  0.935432  1
  Er  Er18  1  0.681991  0.050265  0.435931  1
  Er  Er19  1  0.318009  0.949735  0.564069  1
  Bi  Bi20  1  0.923599  0.009657  0.672115  1
  Bi  Bi21  1  0.076401  0.990343  0.327885  1
  Bi  Bi22  1  0.425601  0.991888  0.827117  1
  Bi  Bi23  1  0.076401  0.509657  0.327885  1
  Bi  Bi24  1  0.574399  0.008112  0.172883  1
  Bi  Bi25  1  0.923599  0.490343  0.672115  1
  Bi  Bi26  1  0.574399  0.491888  0.172883  1
  Bi  Bi27  1  0.425601  0.508112  0.827117  1
  P  P28  1  0.925266  0.750000  0.987548  1
  P  P29  1  0.074734  0.250000  0.012452  1
  P  P30  1  0.426053  0.250000  0.513804  1
  P  P31  1  0.573947  0.750000  0.486196  1
