# generated using pymatgen
data_Ta6Al6V3ReC
_symmetry_space_group_name_H-M   'P 1'
_cell_length_a   7.68658400
_cell_length_b   7.68658486
_cell_length_c   5.04895900
_cell_angle_alpha   90.00000000
_cell_angle_beta   90.00000000
_cell_angle_gamma   119.99999632
_symmetry_Int_Tables_number   1
_chemical_formula_structural   Ta6Al6V3ReC
_chemical_formula_sum   'Ta6 Al6 V3 Re1 C1'
_cell_volume   258.34454473
_cell_formula_units_Z   1
loop_
 _symmetry_equiv_pos_site_id
 _symmetry_equiv_pos_as_xyz
  1  'x, y, z'
loop_
 _atom_site_type_symbol
 _atom_site_label
 _atom_site_symmetry_multiplicity
 _atom_site_fract_x
 _atom_site_fract_y
 _atom_site_fract_z
 _atom_site_occupancy
  Ta  Ta0  1  0.999868  0.768067  0.244098  1
  Ta  Ta1  1  0.231933  0.231800  0.244098  1
  Ta  Ta2  1  0.768200  0.000132  0.244098  1
  Ta  Ta3  1  0.999868  0.231800  0.755902  1
  Ta  Ta4  1  0.768200  0.768067  0.755902  1
  Ta  Ta5  1  0.231933  0.000132  0.755902  1
  Al  Al6  1  0.998876  0.410599  0.250954  1
  Al  Al7  1  0.589401  0.588277  0.250954  1
  Al  Al8  1  0.411723  0.001124  0.250954  1
  Al  Al9  1  0.998876  0.588277  0.749046  1
  Al  Al10  1  0.411723  0.410599  0.749046  1
  Al  Al11  1  0.589401  0.001124  0.749046  1
  V  V12  1  0.666667  0.333333  0.500000  1
  V  V13  1  0.666667  0.333333  0.000000  1
  V  V14  1  0.333333  0.666667  0.000000  1
  Re  Re15  1  0.333333  0.666667  0.500000  1
  C  C16  1  0.000000  0.000000  0.500000  1
