# generated using pymatgen
data_Sm3Ag2Hg3Ru
_symmetry_space_group_name_H-M   'P 1'
_cell_length_a   7.97629700
_cell_length_b   7.97629603
_cell_length_c   3.89585100
_cell_angle_alpha   90.00000000
_cell_angle_beta   90.00000000
_cell_angle_gamma   119.99999987
_symmetry_Int_Tables_number   1
_chemical_formula_structural   Sm3Ag2Hg3Ru
_chemical_formula_sum   'Sm3 Ag2 Hg3 Ru1'
_cell_volume   214.65230256
_cell_formula_units_Z   1
loop_
 _symmetry_equiv_pos_site_id
 _symmetry_equiv_pos_as_xyz
  1  'x, y, z'
loop_
 _atom_site_type_symbol
 _atom_site_label
 _atom_site_symmetry_multiplicity
 _atom_site_fract_x
 _atom_site_fract_y
 _atom_site_fract_z
 _atom_site_occupancy
  Sm  Sm0  1  0.035928  0.421371  0.500000  1
  Sm  Sm1  1  0.578629  0.614557  0.500000  1
  Sm  Sm2  1  0.385443  0.964072  0.500000  1
  Ag  Ag3  1  0.666667  0.333333  0.000000  1
  Ag  Ag4  1  0.000000  0.000000  0.500000  1
  Hg  Hg5  1  0.998702  0.726043  0.000000  1
  Hg  Hg6  1  0.273957  0.272660  0.000000  1
  Hg  Hg7  1  0.727340  0.001298  0.000000  1
  Ru  Ru8  1  0.333333  0.666667  0.000000  1
