# generated using pymatgen
data_AgIr2PtRhPb3O14
_symmetry_space_group_name_H-M   'P 1'
_cell_length_a   7.33576163
_cell_length_b   7.24238664
_cell_length_c   7.33576200
_cell_angle_alpha   59.68885844
_cell_angle_beta   59.93087251
_cell_angle_gamma   59.68885624
_symmetry_Int_Tables_number   1
_chemical_formula_structural   AgIr2PtRhPb3O14
_chemical_formula_sum   'Ag1 Ir2 Pt1 Rh1 Pb3 O14'
_cell_volume   274.14060407
_cell_formula_units_Z   1
loop_
 _symmetry_equiv_pos_site_id
 _symmetry_equiv_pos_as_xyz
  1  'x, y, z'
loop_
 _atom_site_type_symbol
 _atom_site_label
 _atom_site_symmetry_multiplicity
 _atom_site_fract_x
 _atom_site_fract_y
 _atom_site_fract_z
 _atom_site_occupancy
  Ag  Ag0  1  0.125000  0.625000  0.125000  1
  Ir  Ir1  1  0.125000  0.625000  0.625000  1
  Ir  Ir2  1  0.625000  0.625000  0.125000  1
  Pt  Pt3  1  0.625000  0.625000  0.625000  1
  Rh  Rh4  1  0.625000  0.125000  0.625000  1
  Pb  Pb5  1  0.625000  0.125000  0.125000  1
  Pb  Pb6  1  0.125000  0.125000  0.625000  1
  Pb  Pb7  1  0.125000  0.125000  0.125000  1
  O  O8  1  0.698803  0.708786  0.292501  1
  O  O9  1  0.292465  0.293255  0.708246  1
  O  O10  1  0.709045  0.289225  0.709045  1
  O  O11  1  0.303482  0.707286  0.303482  1
  O  O12  1  0.292501  0.708786  0.698803  1
  O  O13  1  0.708246  0.293255  0.292465  1
  O  O14  1  0.551197  0.541214  0.957499  1
  O  O15  1  0.957535  0.956745  0.541754  1
  O  O16  1  0.540955  0.960775  0.540955  1
  O  O17  1  0.946518  0.542714  0.946518  1
  O  O18  1  0.957499  0.541214  0.551197  1
  O  O19  1  0.541754  0.956745  0.957535  1
  O  O20  1  0.244927  0.268782  0.244927  1
  O  O21  1  0.005073  0.981218  0.005073  1
