# generated using pymatgen
data_Ni9P3(W6C)2
_symmetry_space_group_name_H-M   'P 1'
_cell_length_a   7.68748449
_cell_length_b   7.74438263
_cell_length_c   7.68748500
_cell_angle_alpha   60.24274345
_cell_angle_beta   60.00000210
_cell_angle_gamma   60.24274029
_symmetry_Int_Tables_number   1
_chemical_formula_structural   Ni9P3(W6C)2
_chemical_formula_sum   'Ni9 P3 W12 C2'
_cell_volume   324.80603061
_cell_formula_units_Z   1
loop_
 _symmetry_equiv_pos_site_id
 _symmetry_equiv_pos_as_xyz
  1  'x, y, z'
loop_
 _atom_site_type_symbol
 _atom_site_label
 _atom_site_symmetry_multiplicity
 _atom_site_fract_x
 _atom_site_fract_y
 _atom_site_fract_z
 _atom_site_occupancy
  Ni  Ni0  1  0.415081  0.427053  0.742785  1
  Ni  Ni1  1  0.417171  0.748488  0.417171  1
  Ni  Ni2  1  0.742785  0.427053  0.415081  1
  Ni  Ni3  1  0.415081  0.427053  0.415081  1
  Ni  Ni4  1  0.834919  0.822947  0.507215  1
  Ni  Ni5  1  0.832829  0.501512  0.832829  1
  Ni  Ni6  1  0.507215  0.822947  0.834919  1
  Ni  Ni7  1  0.834919  0.822947  0.834919  1
  Ni  Ni8  1  0.625000  0.125000  0.625000  1
  P  P9  1  0.625000  0.625000  0.125000  1
  P  P10  1  0.125000  0.625000  0.625000  1
  P  P11  1  0.625000  0.625000  0.625000  1
  W  W12  1  0.050276  0.054902  0.447411  1
  W  W13  1  0.447411  0.054902  0.447411  1
  W  W14  1  0.055652  0.444876  0.443820  1
  W  W15  1  0.443820  0.444876  0.055652  1
  W  W16  1  0.055652  0.444876  0.055652  1
  W  W17  1  0.447411  0.054902  0.050276  1
  W  W18  1  0.199724  0.195098  0.802589  1
  W  W19  1  0.802589  0.195098  0.802589  1
  W  W20  1  0.194348  0.805124  0.806180  1
  W  W21  1  0.806180  0.805124  0.194348  1
  W  W22  1  0.194348  0.805124  0.194348  1
  W  W23  1  0.802589  0.195098  0.199724  1
  C  C24  1  0.251783  0.244651  0.251783  1
  C  C25  1  0.998217  0.005349  0.998217  1
