# generated using pymatgen
data_LiY9Ho7Cd3Co4
_symmetry_space_group_name_H-M   'P 1'
_cell_length_a   9.52062809
_cell_length_b   9.50519749
_cell_length_c   9.54569849
_cell_angle_alpha   60.14669781
_cell_angle_beta   60.01104521
_cell_angle_gamma   60.06521821
_symmetry_Int_Tables_number   1
_chemical_formula_structural   LiY9Ho7Cd3Co4
_chemical_formula_sum   'Li1 Y9 Ho7 Cd3 Co4'
_cell_volume   611.85578256
_cell_formula_units_Z   1
loop_
 _symmetry_equiv_pos_site_id
 _symmetry_equiv_pos_as_xyz
  1  'x, y, z'
loop_
 _atom_site_type_symbol
 _atom_site_label
 _atom_site_symmetry_multiplicity
 _atom_site_fract_x
 _atom_site_fract_y
 _atom_site_fract_z
 _atom_site_occupancy
  Li  Li0  1  0.571162  0.570868  0.286255  1
  Y  Y1  1  0.937879  0.938024  0.562588  1
  Y  Y2  1  0.812943  0.185804  0.185607  1
  Y  Y3  1  0.937985  0.562450  0.563477  1
  Y  Y4  1  0.940391  0.560095  0.938434  1
  Y  Y5  1  0.813095  0.813091  0.185121  1
  Y  Y6  1  0.343969  0.343919  0.346663  1
  Y  Y7  1  0.559619  0.940818  0.939007  1
  Y  Y8  1  0.563104  0.937362  0.564022  1
  Y  Y9  1  0.188703  0.811551  0.809767  1
  Ho  Ho10  1  0.188626  0.188575  0.809490  1
  Ho  Ho11  1  0.347223  0.347179  0.959071  1
  Ho  Ho12  1  0.344158  0.967413  0.346772  1
  Ho  Ho13  1  0.811232  0.189044  0.809807  1
  Ho  Ho14  1  0.560251  0.560103  0.939137  1
  Ho  Ho15  1  0.185998  0.812840  0.185689  1
  Ho  Ho16  1  0.967254  0.344297  0.346855  1
  Cd  Cd17  1  0.258696  0.581255  0.578049  1
  Cd  Cd18  1  0.581329  0.581380  0.576770  1
  Cd  Cd19  1  0.581257  0.258806  0.577755  1
  Co  Co20  1  0.576409  0.144143  0.135786  1
  Co  Co21  1  0.145010  0.141452  0.136910  1
  Co  Co22  1  0.144171  0.576468  0.139252  1
  Co  Co23  1  0.139542  0.143068  0.577722  1
