# generated using pymatgen
data_Nd2Th(AlNi)3
_symmetry_space_group_name_H-M   'P 1'
_cell_length_a   7.14150500
_cell_length_b   7.07363345
_cell_length_c   4.03756700
_cell_angle_alpha   90.00000000
_cell_angle_beta   90.00000000
_cell_angle_gamma   120.31790635
_symmetry_Int_Tables_number   1
_chemical_formula_structural   Nd2Th(AlNi)3
_chemical_formula_sum   'Nd2 Th1 Al3 Ni3'
_cell_volume   176.06884005
_cell_formula_units_Z   1
loop_
 _symmetry_equiv_pos_site_id
 _symmetry_equiv_pos_as_xyz
  1  'x, y, z'
loop_
 _atom_site_type_symbol
 _atom_site_label
 _atom_site_symmetry_multiplicity
 _atom_site_fract_x
 _atom_site_fract_y
 _atom_site_fract_z
 _atom_site_occupancy
  Nd  Nd0  1  0.999131  0.418437  0.500000  1
  Nd  Nd1  1  0.580693  0.581563  0.500000  1
  Th  Th2  1  0.420423  0.000000  0.500000  1
  Al  Al3  1  0.997497  0.768413  0.000000  1
  Al  Al4  1  0.229084  0.231587  0.000000  1
  Al  Al5  1  0.776488  0.000000  0.000000  1
  Ni  Ni6  1  0.336391  0.687021  0.000000  1
  Ni  Ni7  1  0.649371  0.312979  0.000000  1
  Ni  Ni8  1  0.010923  0.000000  0.500000  1
