# generated using pymatgen
data_Er20Cd3Co2Hg3
_symmetry_space_group_name_H-M   'P 1'
_cell_length_a   9.48169100
_cell_length_b   9.48169051
_cell_length_c   9.57458500
_cell_angle_alpha   90.00000000
_cell_angle_beta   90.00000000
_cell_angle_gamma   119.99999822
_symmetry_Int_Tables_number   1
_chemical_formula_structural   Er20Cd3Co2Hg3
_chemical_formula_sum   'Er20 Cd3 Co2 Hg3'
_cell_volume   745.45627004
_cell_formula_units_Z   1
loop_
 _symmetry_equiv_pos_site_id
 _symmetry_equiv_pos_as_xyz
  1  'x, y, z'
loop_
 _atom_site_type_symbol
 _atom_site_label
 _atom_site_symmetry_multiplicity
 _atom_site_fract_x
 _atom_site_fract_y
 _atom_site_fract_z
 _atom_site_occupancy
  Er  Er0  1  0.000000  0.000000  0.490092  1
  Er  Er1  1  0.000000  0.000000  0.009908  1
  Er  Er2  1  0.542027  0.457973  0.250000  1
  Er  Er3  1  0.542027  0.084055  0.250000  1
  Er  Er4  1  0.915945  0.457973  0.250000  1
  Er  Er5  1  0.457718  0.542282  0.750000  1
  Er  Er6  1  0.457718  0.915436  0.750000  1
  Er  Er7  1  0.084564  0.542282  0.750000  1
  Er  Er8  1  0.211896  0.788104  0.436767  1
  Er  Er9  1  0.211896  0.423793  0.436767  1
  Er  Er10  1  0.576207  0.788104  0.436767  1
  Er  Er11  1  0.788190  0.211810  0.563049  1
  Er  Er12  1  0.788190  0.576381  0.563049  1
  Er  Er13  1  0.423619  0.211810  0.563049  1
  Er  Er14  1  0.788190  0.211810  0.936951  1
  Er  Er15  1  0.788190  0.576381  0.936951  1
  Er  Er16  1  0.423619  0.211810  0.936951  1
  Er  Er17  1  0.211896  0.788104  0.063233  1
  Er  Er18  1  0.211896  0.423793  0.063233  1
  Er  Er19  1  0.576207  0.788104  0.063233  1
  Cd  Cd20  1  0.113127  0.886873  0.750000  1
  Cd  Cd21  1  0.113127  0.226254  0.750000  1
  Cd  Cd22  1  0.773746  0.886873  0.750000  1
  Co  Co23  1  0.333333  0.666667  0.250000  1
  Co  Co24  1  0.666667  0.333333  0.750000  1
  Hg  Hg25  1  0.879285  0.120715  0.250000  1
  Hg  Hg26  1  0.879285  0.758571  0.250000  1
  Hg  Hg27  1  0.241429  0.120715  0.250000  1
