# generated using pymatgen
data_YZr3Ge6Ir7
_symmetry_space_group_name_H-M   'P 1'
_cell_length_a   7.18204672
_cell_length_b   7.18204609
_cell_length_c   7.18204640
_cell_angle_alpha   109.57087120
_cell_angle_beta   109.57087177
_cell_angle_gamma   109.57088130
_symmetry_Int_Tables_number   1
_chemical_formula_structural   YZr3Ge6Ir7
_chemical_formula_sum   'Y1 Zr3 Ge6 Ir7'
_cell_volume   284.12532802
_cell_formula_units_Z   1
loop_
 _symmetry_equiv_pos_site_id
 _symmetry_equiv_pos_as_xyz
  1  'x, y, z'
loop_
 _atom_site_type_symbol
 _atom_site_label
 _atom_site_symmetry_multiplicity
 _atom_site_fract_x
 _atom_site_fract_y
 _atom_site_fract_z
 _atom_site_occupancy
  Y  Y0  1  0.500000  0.500000  0.500000  1
  Zr  Zr1  1  0.000000  0.000000  0.500000  1
  Zr  Zr2  1  0.000000  0.500000  0.000000  1
  Zr  Zr3  1  0.500000  0.000000  0.000000  1
  Ge  Ge4  1  0.998868  0.314884  0.314884  1
  Ge  Ge5  1  0.001132  0.685116  0.685116  1
  Ge  Ge6  1  0.314884  0.998868  0.314884  1
  Ge  Ge7  1  0.685116  0.001132  0.685116  1
  Ge  Ge8  1  0.314884  0.314884  0.998868  1
  Ge  Ge9  1  0.685116  0.685116  0.001132  1
  Ir  Ir10  1  0.500000  0.752881  0.247119  1
  Ir  Ir11  1  0.500000  0.247119  0.752881  1
  Ir  Ir12  1  0.247119  0.500000  0.752881  1
  Ir  Ir13  1  0.752881  0.500000  0.247119  1
  Ir  Ir14  1  0.752881  0.247119  0.500000  1
  Ir  Ir15  1  0.247119  0.752881  0.500000  1
  Ir  Ir16  1  0.000000  0.000000  0.000000  1
