# generated using pymatgen
data_RbCr2Tc4S7
_symmetry_space_group_name_H-M   'P 1'
_cell_length_a   9.22124775
_cell_length_b   9.25178840
_cell_length_c   9.26919800
_cell_angle_alpha   61.05608553
_cell_angle_beta   61.00775475
_cell_angle_gamma   61.07572931
_symmetry_Int_Tables_number   1
_chemical_formula_structural   RbCr2Tc4S7
_chemical_formula_sum   'Rb2 Cr4 Tc8 S14'
_cell_volume   572.34489502
_cell_formula_units_Z   2
loop_
 _symmetry_equiv_pos_site_id
 _symmetry_equiv_pos_as_xyz
  1  'x, y, z'
loop_
 _atom_site_type_symbol
 _atom_site_label
 _atom_site_symmetry_multiplicity
 _atom_site_fract_x
 _atom_site_fract_y
 _atom_site_fract_z
 _atom_site_occupancy
  Rb  Rb0  1  0.375272  0.379071  0.380119  1
  Rb  Rb1  1  0.621557  0.621607  0.622690  1
  Cr  Cr2  1  0.305137  0.123893  0.998342  1
  Cr  Cr3  1  0.192367  0.888606  0.059444  1
  Cr  Cr4  1  0.884059  0.064377  0.195429  1
  Cr  Cr5  1  0.941884  0.806929  0.111746  1
  Tc  Tc6  1  0.799506  0.122346  0.935559  1
  Tc  Tc7  1  0.121716  0.939708  0.797729  1
  Tc  Tc8  1  0.991768  0.309322  0.129688  1
  Tc  Tc9  1  0.870229  0.007118  0.688304  1
  Tc  Tc10  1  0.124850  0.988384  0.306869  1
  Tc  Tc11  1  0.010967  0.687255  0.876939  1
  Tc  Tc12  1  0.690277  0.870350  0.012596  1
  Tc  Tc13  1  0.062389  0.205118  0.878467  1
  S  S14  1  0.983639  0.239084  0.640303  1
  S  S15  1  0.233428  0.652661  0.986128  1
  S  S16  1  0.655555  0.978828  0.232611  1
  S  S17  1  0.013261  0.773842  0.342038  1
  S  S18  1  0.761641  0.354021  0.022719  1
  S  S19  1  0.352856  0.016861  0.771695  1
  S  S20  1  0.180304  0.408226  0.826236  1
  S  S21  1  0.406963  0.820217  0.163092  1
  S  S22  1  0.815238  0.165934  0.410368  1
  S  S23  1  0.835664  0.590254  0.187249  1
  S  S24  1  0.580731  0.175342  0.832551  1
  S  S25  1  0.182062  0.824271  0.586933  1
  S  S26  1  0.778110  0.771329  0.782187  1
  S  S27  1  0.228569  0.215045  0.221968  1
