# generated using pymatgen
data_Ho11Er(BCl3)4
_symmetry_space_group_name_H-M   'P 1'
_cell_length_a   9.39830407
_cell_length_b   9.39828353
_cell_length_c   9.39507295
_cell_angle_alpha   109.40991901
_cell_angle_beta   109.41034631
_cell_angle_gamma   109.60479408
_symmetry_Int_Tables_number   1
_chemical_formula_structural   Ho11Er(BCl3)4
_chemical_formula_sum   'Ho11 Er1 B4 Cl12'
_cell_volume   638.72504206
_cell_formula_units_Z   1
loop_
 _symmetry_equiv_pos_site_id
 _symmetry_equiv_pos_as_xyz
  1  'x, y, z'
loop_
 _atom_site_type_symbol
 _atom_site_label
 _atom_site_symmetry_multiplicity
 _atom_site_fract_x
 _atom_site_fract_y
 _atom_site_fract_z
 _atom_site_occupancy
  Ho  Ho0  1  0.468794  0.484340  0.234144  1
  Ho  Ho1  1  0.750337  0.234306  0.265943  1
  Ho  Ho2  1  0.750137  0.015526  0.484400  1
  Ho  Ho3  1  0.234284  0.468767  0.484465  1
  Ho  Ho4  1  0.265695  0.749660  0.234060  1
  Ho  Ho5  1  0.031228  0.265713  0.015532  1
  Ho  Ho6  1  0.015659  0.031205  0.265852  1
  Ho  Ho7  1  0.484470  0.749860  0.015599  1
  Ho  Ho8  1  0.484370  0.234253  0.468789  1
  Ho  Ho9  1  0.015748  0.484255  0.750004  1
  Ho  Ho10  1  0.265748  0.015624  0.031208  1
  Er  Er11  1  0.233899  0.266105  0.750004  1
  B  B12  1  0.250039  0.249960  0.249998  1
  B  B13  1  0.499942  0.000053  0.250000  1
  B  B14  1  0.000517  0.249915  0.500419  1
  B  B15  1  0.250084  0.499482  0.999583  1
  Cl  Cl16  1  0.249880  0.755109  0.744788  1
  Cl  Cl17  1  0.509180  0.503758  0.755270  1
  Cl  Cl18  1  0.989567  0.744722  0.994700  1
  Cl  Cl19  1  0.744895  0.250117  0.755207  1
  Cl  Cl20  1  0.996246  0.990828  0.744727  1
  Cl  Cl21  1  0.250168  0.996185  0.506578  1
  Cl  Cl22  1  0.755274  0.510431  0.505297  1
  Cl  Cl23  1  0.503825  0.249842  0.993430  1
  Cl  Cl24  1  0.755205  0.744801  0.250004  1
  Cl  Cl25  1  0.744853  0.994913  0.989739  1
  Cl  Cl26  1  0.994875  0.505125  0.250001  1
  Cl  Cl27  1  0.505081  0.755146  0.510258  1
