# generated using pymatgen
data_Dy7Er3(CoRu)2
_symmetry_space_group_name_H-M   'P 1'
_cell_length_a   6.29485850
_cell_length_b   7.09892813
_cell_length_c   8.47967744
_cell_angle_alpha   96.61957663
_cell_angle_beta   111.52087689
_cell_angle_gamma   90.00570789
_symmetry_Int_Tables_number   1
_chemical_formula_structural   Dy7Er3(CoRu)2
_chemical_formula_sum   'Dy7 Er3 Co2 Ru2'
_cell_volume   349.79315013
_cell_formula_units_Z   1
loop_
 _symmetry_equiv_pos_site_id
 _symmetry_equiv_pos_as_xyz
  1  'x, y, z'
loop_
 _atom_site_type_symbol
 _atom_site_label
 _atom_site_symmetry_multiplicity
 _atom_site_fract_x
 _atom_site_fract_y
 _atom_site_fract_z
 _atom_site_occupancy
  Dy  Dy0  1  0.787986  0.588133  0.811347  1
  Dy  Dy1  1  0.977328  0.911850  0.189586  1
  Dy  Dy2  1  0.198646  0.416745  0.185163  1
  Dy  Dy3  1  0.014162  0.082997  0.814570  1
  Dy  Dy4  1  0.215805  0.689879  0.568110  1
  Dy  Dy5  1  0.647651  0.811551  0.431710  1
  Dy  Dy6  1  0.791945  0.317000  0.433364  1
  Er  Er7  1  0.359206  0.182541  0.567723  1
  Er  Er8  1  0.427629  0.749587  0.999482  1
  Er  Er9  1  0.576231  0.249497  0.998900  1
  Co  Co10  1  0.602273  0.923909  0.778230  1
  Co  Co11  1  0.824505  0.576535  0.221957  1
  Ru  Ru12  1  0.397559  0.072363  0.220380  1
  Ru  Ru13  1  0.179074  0.427416  0.779478  1
