# generated using pymatgen
data_Y4Zr4Sc2Al12Os7
_symmetry_space_group_name_H-M   'P 1'
_cell_length_a   9.10356300
_cell_length_b   9.10356477
_cell_length_c   9.12975754
_cell_angle_alpha   59.91110519
_cell_angle_beta   59.91109565
_cell_angle_gamma   60.19238804
_symmetry_Int_Tables_number   1
_chemical_formula_structural   Y4Zr4Sc2Al12Os7
_chemical_formula_sum   'Y4 Zr4 Sc2 Al12 Os7'
_cell_volume   535.06682369
_cell_formula_units_Z   1
loop_
 _symmetry_equiv_pos_site_id
 _symmetry_equiv_pos_as_xyz
  1  'x, y, z'
loop_
 _atom_site_type_symbol
 _atom_site_label
 _atom_site_symmetry_multiplicity
 _atom_site_fract_x
 _atom_site_fract_y
 _atom_site_fract_z
 _atom_site_occupancy
  Y  Y0  1  0.702010  0.702010  0.297915  1
  Y  Y1  1  0.295100  0.705508  0.294810  1
  Y  Y2  1  0.705508  0.295100  0.294810  1
  Y  Y3  1  0.298087  0.298087  0.703068  1
  Zr  Zr4  1  0.878590  0.878590  0.362076  1
  Zr  Zr5  1  0.879675  0.360018  0.877699  1
  Zr  Zr6  1  0.360018  0.879675  0.877699  1
  Zr  Zr7  1  0.881506  0.881506  0.878901  1
  Sc  Sc8  1  0.708969  0.290288  0.709391  1
  Sc  Sc9  1  0.290288  0.708969  0.709391  1
  Al  Al10  1  0.118886  0.118886  0.639202  1
  Al  Al11  1  0.122183  0.637920  0.117267  1
  Al  Al12  1  0.637920  0.122183  0.117267  1
  Al  Al13  1  0.121352  0.121352  0.120637  1
  Al  Al14  1  0.668643  0.668643  0.993955  1
  Al  Al15  1  0.668530  0.999187  0.668354  1
  Al  Al16  1  0.999187  0.668530  0.668354  1
  Al  Al17  1  0.663325  0.663325  0.668275  1
  Al  Al18  1  0.334660  0.334660  0.999579  1
  Al  Al19  1  0.330875  0.004599  0.334091  1
  Al  Al20  1  0.004599  0.330875  0.334091  1
  Al  Al21  1  0.330145  0.330145  0.330664  1
  Os  Os22  1  0.000032  0.000032  0.000942  1
  Os  Os23  1  0.001006  0.001006  0.501162  1
  Os  Os24  1  0.498440  0.998755  0.501136  1
  Os  Os25  1  0.998755  0.498440  0.501136  1
  Os  Os26  1  0.498952  0.498952  0.998769  1
  Os  Os27  1  0.002534  0.500224  0.999677  1
  Os  Os28  1  0.500224  0.002534  0.999677  1
