# generated using pymatgen
data_Tm2NpCo2Si7
_symmetry_space_group_name_H-M   'P 1'
_cell_length_a   3.96138958
_cell_length_b   3.96420900
_cell_length_c   12.38349687
_cell_angle_alpha   90.00000000
_cell_angle_beta   99.20379478
_cell_angle_gamma   90.00000000
_symmetry_Int_Tables_number   1
_chemical_formula_structural   Tm2NpCo2Si7
_chemical_formula_sum   'Tm2 Np1 Co2 Si7'
_cell_volume   191.96402342
_cell_formula_units_Z   1
loop_
 _symmetry_equiv_pos_site_id
 _symmetry_equiv_pos_as_xyz
  1  'x, y, z'
loop_
 _atom_site_type_symbol
 _atom_site_label
 _atom_site_symmetry_multiplicity
 _atom_site_fract_x
 _atom_site_fract_y
 _atom_site_fract_z
 _atom_site_occupancy
  Tm  Tm0  1  0.316370  0.000000  0.632741  1
  Tm  Tm1  1  0.683630  0.000000  0.367259  1
  Np  Np2  1  0.000000  0.500000  0.000000  1
  Co  Co3  1  0.129013  0.500000  0.258028  1
  Co  Co4  1  0.870987  0.500000  0.741972  1
  Si  Si5  1  0.500000  0.000000  0.000000  1
  Si  Si6  1  0.414186  0.500000  0.828373  1
  Si  Si7  1  0.585814  0.500000  0.171627  1
  Si  Si8  1  0.085685  0.000000  0.171369  1
  Si  Si9  1  0.914315  0.000000  0.828631  1
  Si  Si10  1  0.221278  0.500000  0.442554  1
  Si  Si11  1  0.778722  0.500000  0.557446  1
