# generated using pymatgen
data_CaPr2Si(AsPd4)5
_symmetry_space_group_name_H-M   'P 1'
_cell_length_a   8.89882722
_cell_length_b   8.89882716
_cell_length_c   8.94328400
_cell_angle_alpha   59.83460192
_cell_angle_beta   59.83460215
_cell_angle_gamma   60.33079957
_symmetry_Int_Tables_number   1
_chemical_formula_structural   CaPr2Si(AsPd4)5
_chemical_formula_sum   'Ca1 Pr2 Si1 As5 Pd20'
_cell_volume   500.75557692
_cell_formula_units_Z   1
loop_
 _symmetry_equiv_pos_site_id
 _symmetry_equiv_pos_as_xyz
  1  'x, y, z'
loop_
 _atom_site_type_symbol
 _atom_site_label
 _atom_site_symmetry_multiplicity
 _atom_site_fract_x
 _atom_site_fract_y
 _atom_site_fract_z
 _atom_site_occupancy
  Ca  Ca0  1  0.999861  0.999861  0.000139  1
  Pr  Pr1  1  0.249905  0.249905  0.250095  1
  Pr  Pr2  1  0.749905  0.749905  0.750095  1
  Si  Si3  1  0.735610  0.735610  0.264390  1
  As  As4  1  0.737539  0.261975  0.262461  1
  As  As5  1  0.261975  0.737539  0.738025  1
  As  As6  1  0.261975  0.737539  0.262461  1
  As  As7  1  0.737539  0.261975  0.738025  1
  As  As8  1  0.262141  0.262141  0.737859  1
  Pd  Pd9  1  0.385273  0.385273  0.383970  1
  Pd  Pd10  1  0.618096  0.618096  0.608482  1
  Pd  Pd11  1  0.385273  0.385273  0.845485  1
  Pd  Pd12  1  0.391518  0.844674  0.381904  1
  Pd  Pd13  1  0.618096  0.618096  0.155326  1
  Pd  Pd14  1  0.616030  0.154515  0.614727  1
  Pd  Pd15  1  0.844674  0.391518  0.381904  1
  Pd  Pd16  1  0.154515  0.616030  0.614727  1
  Pd  Pd17  1  0.351755  0.000840  0.999160  1
  Pd  Pd18  1  0.652424  0.992535  0.007465  1
  Pd  Pd19  1  0.000840  0.351755  0.648245  1
  Pd  Pd20  1  0.992535  0.652424  0.347576  1
  Pd  Pd21  1  0.000840  0.351755  0.999160  1
  Pd  Pd22  1  0.652424  0.992535  0.347576  1
  Pd  Pd23  1  0.992535  0.652424  0.007465  1
  Pd  Pd24  1  0.351755  0.000840  0.648245  1
  Pd  Pd25  1  0.998742  0.998742  0.351105  1
  Pd  Pd26  1  0.998742  0.998742  0.651412  1
  Pd  Pd27  1  0.648895  0.348588  0.001258  1
  Pd  Pd28  1  0.348588  0.648895  0.001258  1
