# generated using pymatgen
data_SrTh2Te5
_symmetry_space_group_name_H-M   'P 1'
_cell_length_a   8.53249300
_cell_length_b   9.39352413
_cell_length_c   13.63260908
_cell_angle_alpha   89.98453786
_cell_angle_beta   90.00000000
_cell_angle_gamma   90.00000000
_symmetry_Int_Tables_number   1
_chemical_formula_structural   SrTh2Te5
_chemical_formula_sum   'Sr4 Th8 Te20'
_cell_volume   1092.65601592
_cell_formula_units_Z   4
loop_
 _symmetry_equiv_pos_site_id
 _symmetry_equiv_pos_as_xyz
  1  'x, y, z'
loop_
 _atom_site_type_symbol
 _atom_site_label
 _atom_site_symmetry_multiplicity
 _atom_site_fract_x
 _atom_site_fract_y
 _atom_site_fract_z
 _atom_site_occupancy
  Sr  Sr0  1  0.965515  0.504258  0.824814  1
  Sr  Sr1  1  0.465515  0.495742  0.675186  1
  Sr  Sr2  1  0.034485  0.495742  0.175186  1
  Sr  Sr3  1  0.534485  0.504258  0.324814  1
  Th  Th4  1  0.577578  0.250602  0.008658  1
  Th  Th5  1  0.922422  0.250602  0.508658  1
  Th  Th6  1  0.422422  0.749398  0.991342  1
  Th  Th7  1  0.077578  0.749398  0.491342  1
  Th  Th8  1  0.519549  0.002923  0.319000  1
  Th  Th9  1  0.019549  0.997077  0.181000  1
  Th  Th10  1  0.480451  0.997077  0.681000  1
  Th  Th11  1  0.980451  0.002923  0.819000  1
  Te  Te12  1  0.837675  0.954621  0.601859  1
  Te  Te13  1  0.824994  0.775365  0.316895  1
  Te  Te14  1  0.675006  0.775365  0.816895  1
  Te  Te15  1  0.175006  0.224635  0.683105  1
  Te  Te16  1  0.541946  0.222384  0.501537  1
  Te  Te17  1  0.041946  0.777616  0.998463  1
  Te  Te18  1  0.458054  0.777616  0.498463  1
  Te  Te19  1  0.958054  0.222384  0.001537  1
  Te  Te20  1  0.198339  0.763531  0.716103  1
  Te  Te21  1  0.698339  0.236469  0.783897  1
  Te  Te22  1  0.801661  0.236469  0.283897  1
  Te  Te23  1  0.662325  0.954621  0.101859  1
  Te  Te24  1  0.827908  0.543303  0.590059  1
  Te  Te25  1  0.327908  0.456697  0.909941  1
  Te  Te26  1  0.172092  0.456697  0.409941  1
  Te  Te27  1  0.672092  0.543303  0.090059  1
  Te  Te28  1  0.301661  0.763531  0.216103  1
  Te  Te29  1  0.337675  0.045379  0.898141  1
  Te  Te30  1  0.162325  0.045379  0.398141  1
  Te  Te31  1  0.324994  0.224635  0.183105  1
