# generated using pymatgen
data_SrLi4Pr3Pt4
_symmetry_space_group_name_H-M   'P 1'
_cell_length_a   4.18732800
_cell_length_b   7.34556813
_cell_length_c   8.61463646
_cell_angle_alpha   90.71951862
_cell_angle_beta   90.00000000
_cell_angle_gamma   90.00000000
_symmetry_Int_Tables_number   1
_chemical_formula_structural   SrLi4Pr3Pt4
_chemical_formula_sum   'Sr1 Li4 Pr3 Pt4'
_cell_volume   264.95070637
_cell_formula_units_Z   1
loop_
 _symmetry_equiv_pos_site_id
 _symmetry_equiv_pos_as_xyz
  1  'x, y, z'
loop_
 _atom_site_type_symbol
 _atom_site_label
 _atom_site_symmetry_multiplicity
 _atom_site_fract_x
 _atom_site_fract_y
 _atom_site_fract_z
 _atom_site_occupancy
  Sr  Sr0  1  0.250000  0.536994  0.813741  1
  Li  Li1  1  0.750000  0.868061  0.945258  1
  Li  Li2  1  0.250000  0.123148  0.055693  1
  Li  Li3  1  0.750000  0.373571  0.554483  1
  Li  Li4  1  0.250000  0.635493  0.440683  1
  Pr  Pr5  1  0.750000  0.963470  0.315998  1
  Pr  Pr6  1  0.250000  0.041402  0.682784  1
  Pr  Pr7  1  0.750000  0.458659  0.183984  1
  Pt  Pt8  1  0.250000  0.755145  0.132271  1
  Pt  Pt9  1  0.750000  0.227215  0.885956  1
  Pt  Pt10  1  0.250000  0.257923  0.381743  1
  Pt  Pt11  1  0.750000  0.758919  0.607405  1
