# generated using pymatgen
data_PrNd3Ga24IrPt
_symmetry_space_group_name_H-M   'P 1'
_cell_length_a   6.17127000
_cell_length_b   6.17127104
_cell_length_c   15.57000400
_cell_angle_alpha   90.00000000
_cell_angle_beta   90.00000000
_cell_angle_gamma   89.96670659
_symmetry_Int_Tables_number   1
_chemical_formula_structural   PrNd3Ga24IrPt
_chemical_formula_sum   'Pr1 Nd3 Ga24 Ir1 Pt1'
_cell_volume   592.97696027
_cell_formula_units_Z   1
loop_
 _symmetry_equiv_pos_site_id
 _symmetry_equiv_pos_as_xyz
  1  'x, y, z'
loop_
 _atom_site_type_symbol
 _atom_site_label
 _atom_site_symmetry_multiplicity
 _atom_site_fract_x
 _atom_site_fract_y
 _atom_site_fract_z
 _atom_site_occupancy
  Pr  Pr0  1  0.250000  0.750000  0.757026  1
  Nd  Nd1  1  0.750000  0.250000  0.243955  1
  Nd  Nd2  1  0.250000  0.750000  0.242350  1
  Nd  Nd3  1  0.750000  0.250000  0.756293  1
  Ga  Ga4  1  0.250000  0.250000  0.188314  1
  Ga  Ga5  1  0.750000  0.750000  0.188314  1
  Ga  Ga6  1  0.750000  0.750000  0.811899  1
  Ga  Ga7  1  0.250000  0.250000  0.811899  1
  Ga  Ga8  1  0.250000  0.250000  0.347406  1
  Ga  Ga9  1  0.750000  0.750000  0.347406  1
  Ga  Ga10  1  0.750000  0.750000  0.652455  1
  Ga  Ga11  1  0.250000  0.250000  0.652455  1
  Ga  Ga12  1  0.502619  0.002619  0.912245  1
  Ga  Ga13  1  0.997460  0.002540  0.912481  1
  Ga  Ga14  1  0.502540  0.497460  0.912481  1
  Ga  Ga15  1  0.997381  0.497381  0.912245  1
  Ga  Ga16  1  0.502510  0.002510  0.087913  1
  Ga  Ga17  1  0.997423  0.002577  0.088186  1
  Ga  Ga18  1  0.502577  0.497423  0.088186  1
  Ga  Ga19  1  0.997490  0.497490  0.087913  1
  Ga  Ga20  1  0.583422  0.083422  0.432109  1
  Ga  Ga21  1  0.084060  0.915940  0.431144  1
  Ga  Ga22  1  0.415940  0.584060  0.431144  1
  Ga  Ga23  1  0.916578  0.416578  0.432109  1
  Ga  Ga24  1  0.416268  0.916268  0.568113  1
  Ga  Ga25  1  0.916944  0.083056  0.567746  1
  Ga  Ga26  1  0.583056  0.416944  0.567746  1
  Ga  Ga27  1  0.083732  0.583732  0.568113  1
  Ir  Ir28  1  0.750000  0.250000  0.000211  1
  Pt  Pt29  1  0.250000  0.750000  0.000145  1
