# generated using pymatgen
data_PrDy3(In2Cl5)4
_symmetry_space_group_name_H-M   'P 1'
_cell_length_a   8.25624850
_cell_length_b   8.65675500
_cell_length_c   13.04051261
_cell_angle_alpha   90.00000000
_cell_angle_beta   90.45661179
_cell_angle_gamma   90.00000000
_symmetry_Int_Tables_number   1
_chemical_formula_structural   PrDy3(In2Cl5)4
_chemical_formula_sum   'Pr1 Dy3 In8 Cl20'
_cell_volume   932.00609860
_cell_formula_units_Z   1
loop_
 _symmetry_equiv_pos_site_id
 _symmetry_equiv_pos_as_xyz
  1  'x, y, z'
loop_
 _atom_site_type_symbol
 _atom_site_label
 _atom_site_symmetry_multiplicity
 _atom_site_fract_x
 _atom_site_fract_y
 _atom_site_fract_z
 _atom_site_occupancy
  Pr  Pr0  1  0.425630  0.250000  0.994233  1
  Dy  Dy1  1  0.929212  0.750000  0.503821  1
  Dy  Dy2  1  0.574091  0.750000  0.004431  1
  Dy  Dy3  1  0.071311  0.250000  0.496095  1
  In  In4  1  0.940604  0.006606  0.828141  1
  In  In5  1  0.057328  0.991179  0.171522  1
  In  In6  1  0.558265  0.492682  0.330434  1
  In  In7  1  0.057328  0.508821  0.171522  1
  In  In8  1  0.940604  0.493394  0.828141  1
  In  In9  1  0.441885  0.508261  0.669332  1
  In  In10  1  0.558265  0.007318  0.330434  1
  In  In11  1  0.441885  0.991739  0.669332  1
  Cl  Cl12  1  0.597007  0.750000  0.508731  1
  Cl  Cl13  1  0.161645  0.955940  0.433818  1
  Cl  Cl14  1  0.838963  0.044239  0.565913  1
  Cl  Cl15  1  0.335661  0.551333  0.930428  1
  Cl  Cl16  1  0.161645  0.544060  0.433818  1
  Cl  Cl17  1  0.345639  0.250000  0.202557  1
  Cl  Cl18  1  0.335661  0.948667  0.930428  1
  Cl  Cl19  1  0.838963  0.455761  0.565913  1
  Cl  Cl20  1  0.402412  0.750000  0.178421  1
  Cl  Cl21  1  0.666181  0.038293  0.070334  1
  Cl  Cl22  1  0.151723  0.250000  0.696567  1
  Cl  Cl23  1  0.608585  0.250000  0.813023  1
  Cl  Cl24  1  0.403609  0.250000  0.492629  1
  Cl  Cl25  1  0.098405  0.750000  0.679191  1
  Cl  Cl26  1  0.666181  0.461707  0.070334  1
  Cl  Cl27  1  0.081638  0.250000  0.993521  1
  Cl  Cl28  1  0.907914  0.750000  0.007482  1
  Cl  Cl29  1  0.849343  0.750000  0.304126  1
  Cl  Cl30  1  0.651354  0.750000  0.804894  1
  Cl  Cl31  1  0.901062  0.250000  0.320433  1
