# generated using pymatgen
data_YLu7(Ga3Pt)4
_symmetry_space_group_name_H-M   'P 1'
_cell_length_a   8.82287301
_cell_length_b   8.82287327
_cell_length_c   6.92746100
_cell_angle_alpha   90.00000000
_cell_angle_beta   90.00000000
_cell_angle_gamma   120.00504428
_symmetry_Int_Tables_number   1
_chemical_formula_structural   YLu7(Ga3Pt)4
_chemical_formula_sum   'Y1 Lu7 Ga12 Pt4'
_cell_volume   466.98476627
_cell_formula_units_Z   1
loop_
 _symmetry_equiv_pos_site_id
 _symmetry_equiv_pos_as_xyz
  1  'x, y, z'
loop_
 _atom_site_type_symbol
 _atom_site_label
 _atom_site_symmetry_multiplicity
 _atom_site_fract_x
 _atom_site_fract_y
 _atom_site_fract_z
 _atom_site_occupancy
  Y  Y0  1  0.000124  0.999876  0.250000  1
  Lu  Lu1  1  0.999876  0.000124  0.750000  1
  Lu  Lu2  1  0.520511  0.041102  0.250000  1
  Lu  Lu3  1  0.520373  0.479627  0.250000  1
  Lu  Lu4  1  0.958898  0.479489  0.250000  1
  Lu  Lu5  1  0.479501  0.958903  0.750000  1
  Lu  Lu6  1  0.479620  0.520380  0.750000  1
  Lu  Lu7  1  0.041097  0.520499  0.750000  1
  Ga  Ga8  1  0.167234  0.334612  0.046376  1
  Ga  Ga9  1  0.167429  0.832571  0.453625  1
  Ga  Ga10  1  0.665388  0.832766  0.453624  1
  Ga  Ga11  1  0.665388  0.832766  0.046376  1
  Ga  Ga12  1  0.167429  0.832571  0.046375  1
  Ga  Ga13  1  0.833447  0.666752  0.952109  1
  Ga  Ga14  1  0.833250  0.166750  0.952127  1
  Ga  Ga15  1  0.333248  0.166553  0.952109  1
  Ga  Ga16  1  0.167234  0.334612  0.453624  1
  Ga  Ga17  1  0.333248  0.166553  0.547891  1
  Ga  Ga18  1  0.833447  0.666752  0.547891  1
  Ga  Ga19  1  0.833250  0.166750  0.547873  1
  Pt  Pt20  1  0.333429  0.666571  0.027942  1
  Pt  Pt21  1  0.333429  0.666571  0.472058  1
  Pt  Pt22  1  0.666574  0.333426  0.971893  1
  Pt  Pt23  1  0.666574  0.333426  0.528107  1
