# generated using pymatgen
data_Ca(Si2Ir3)2
_symmetry_space_group_name_H-M   'P 1'
_cell_length_a   7.05797900
_cell_length_b   7.05797592
_cell_length_c   3.82158900
_cell_angle_alpha   90.00000000
_cell_angle_beta   90.00000000
_cell_angle_gamma   119.99999100
_symmetry_Int_Tables_number   1
_chemical_formula_structural   Ca(Si2Ir3)2
_chemical_formula_sum   'Ca1 Si4 Ir6'
_cell_volume   164.86754971
_cell_formula_units_Z   1
loop_
 _symmetry_equiv_pos_site_id
 _symmetry_equiv_pos_as_xyz
  1  'x, y, z'
loop_
 _atom_site_type_symbol
 _atom_site_label
 _atom_site_symmetry_multiplicity
 _atom_site_fract_x
 _atom_site_fract_y
 _atom_site_fract_z
 _atom_site_occupancy
  Ca  Ca0  1  0.000000  0.000000  0.000000  1
  Si  Si1  1  0.803314  0.196686  0.500000  1
  Si  Si2  1  0.803314  0.606628  0.500000  1
  Si  Si3  1  0.393372  0.196686  0.500000  1
  Si  Si4  1  0.333333  0.666667  0.000000  1
  Ir  Ir5  1  0.533086  0.466914  0.000000  1
  Ir  Ir6  1  0.533086  0.066172  0.000000  1
  Ir  Ir7  1  0.933828  0.466914  0.000000  1
  Ir  Ir8  1  0.198532  0.801468  0.500000  1
  Ir  Ir9  1  0.198532  0.397063  0.500000  1
  Ir  Ir10  1  0.602937  0.801468  0.500000  1
