# generated using pymatgen
data_TbY3(Si3Ir)2
_symmetry_space_group_name_H-M   'P 1'
_cell_length_a   8.18005000
_cell_length_b   8.18005078
_cell_length_c   7.97554100
_cell_angle_alpha   90.00000000
_cell_angle_beta   90.00000000
_cell_angle_gamma   119.99999686
_symmetry_Int_Tables_number   1
_chemical_formula_structural   TbY3(Si3Ir)2
_chemical_formula_sum   'Tb2 Y6 Si12 Ir4'
_cell_volume   462.17106805
_cell_formula_units_Z   2
loop_
 _symmetry_equiv_pos_site_id
 _symmetry_equiv_pos_as_xyz
  1  'x, y, z'
loop_
 _atom_site_type_symbol
 _atom_site_label
 _atom_site_symmetry_multiplicity
 _atom_site_fract_x
 _atom_site_fract_y
 _atom_site_fract_z
 _atom_site_occupancy
  Tb  Tb0  1  0.000000  0.000000  0.250000  1
  Tb  Tb1  1  0.000000  0.000000  0.750000  1
  Y  Y2  1  0.509180  0.490820  0.250000  1
  Y  Y3  1  0.509180  0.018360  0.250000  1
  Y  Y4  1  0.981640  0.490820  0.250000  1
  Y  Y5  1  0.490820  0.509180  0.750000  1
  Y  Y6  1  0.490820  0.981640  0.750000  1
  Y  Y7  1  0.018360  0.509180  0.750000  1
  Si  Si8  1  0.166973  0.833027  0.499462  1
  Si  Si9  1  0.166973  0.333946  0.499462  1
  Si  Si10  1  0.666054  0.833027  0.499462  1
  Si  Si11  1  0.833027  0.166973  0.500538  1
  Si  Si12  1  0.833027  0.666054  0.500538  1
  Si  Si13  1  0.333946  0.166973  0.500538  1
  Si  Si14  1  0.833027  0.166973  0.999462  1
  Si  Si15  1  0.833027  0.666054  0.999462  1
  Si  Si16  1  0.333946  0.166973  0.999462  1
  Si  Si17  1  0.166973  0.833027  0.000538  1
  Si  Si18  1  0.166973  0.333946  0.000538  1
  Si  Si19  1  0.666054  0.833027  0.000538  1
  Ir  Ir20  1  0.333333  0.666667  0.467738  1
  Ir  Ir21  1  0.666667  0.333333  0.532262  1
  Ir  Ir22  1  0.666667  0.333333  0.967738  1
  Ir  Ir23  1  0.333333  0.666667  0.032262  1
