# generated using pymatgen
data_YHoCoSi5Rh2
_symmetry_space_group_name_H-M   'P 1'
_cell_length_a   8.05166815
_cell_length_b   8.05180134
_cell_length_c   8.05180105
_cell_angle_alpha   138.57412442
_cell_angle_beta   105.01335430
_cell_angle_gamma   89.49279202
_symmetry_Int_Tables_number   1
_chemical_formula_structural   YHoCoSi5Rh2
_chemical_formula_sum   'Y2 Ho2 Co2 Si10 Rh4'
_cell_volume   319.24923008
_cell_formula_units_Z   2
loop_
 _symmetry_equiv_pos_site_id
 _symmetry_equiv_pos_as_xyz
  1  'x, y, z'
loop_
 _atom_site_type_symbol
 _atom_site_label
 _atom_site_symmetry_multiplicity
 _atom_site_fract_x
 _atom_site_fract_y
 _atom_site_fract_z
 _atom_site_occupancy
  Y  Y0  1  0.599159  0.867221  0.731939  1
  Y  Y1  1  0.136024  0.367613  0.768409  1
  Ho  Ho2  1  0.864731  0.632811  0.231920  1
  Ho  Ho3  1  0.400836  0.132396  0.268440  1
  Co  Co4  1  0.471526  0.362408  0.109118  1
  Co  Co5  1  0.746651  0.137545  0.609104  1
  Si  Si6  1  0.776244  0.035531  0.265728  1
  Si  Si7  1  0.230153  0.989417  0.765750  1
  Si  Si8  1  0.776244  0.510516  0.740713  1
  Si  Si9  1  0.941122  0.107894  0.833230  1
  Si  Si10  1  0.048401  0.893661  0.154741  1
  Si  Si11  1  0.509935  0.250072  0.759908  1
  Si  Si12  1  0.509935  0.750028  0.259864  1
  Si  Si13  1  0.725353  0.392127  0.333226  1
  Si  Si14  1  0.261092  0.606364  0.654728  1
  Si  Si15  1  0.230153  0.464403  0.240736  1
  Rh  Rh16  1  0.995119  0.250044  0.245099  1
  Rh  Rh17  1  0.995119  0.750020  0.745076  1
  Rh  Rh18  1  0.252506  0.861394  0.391114  1
  Rh  Rh19  1  0.529695  0.638537  0.891157  1
