# generated using pymatgen
data_TbEr5NiI10
_symmetry_space_group_name_H-M   'P 1'
_cell_length_a   7.66102335
_cell_length_b   9.59666171
_cell_length_c   9.63090498
_cell_angle_alpha   106.95928977
_cell_angle_beta   96.89550171
_cell_angle_gamma   104.43037883
_symmetry_Int_Tables_number   1
_chemical_formula_structural   TbEr5NiI10
_chemical_formula_sum   'Tb1 Er5 Ni1 I10'
_cell_volume   641.55083023
_cell_formula_units_Z   1
loop_
 _symmetry_equiv_pos_site_id
 _symmetry_equiv_pos_as_xyz
  1  'x, y, z'
loop_
 _atom_site_type_symbol
 _atom_site_label
 _atom_site_symmetry_multiplicity
 _atom_site_fract_x
 _atom_site_fract_y
 _atom_site_fract_z
 _atom_site_occupancy
  Tb  Tb0  1  0.340831  0.120476  0.162285  1
  Er  Er1  1  0.663393  0.880765  0.839845  1
  Er  Er2  1  0.967188  0.276930  0.082037  1
  Er  Er3  1  0.031368  0.722586  0.917113  1
  Er  Er4  1  0.886757  0.958803  0.233669  1
  Er  Er5  1  0.110818  0.040217  0.765722  1
  Ni  Ni6  1  0.999854  0.999866  0.999900  1
  I  I7  1  0.347147  0.452463  0.272531  1
  I  I8  1  0.650946  0.550250  0.726581  1
  I  I9  1  0.777041  0.256885  0.345907  1
  I  I10  1  0.228459  0.745068  0.656906  1
  I  I11  1  0.545643  0.185795  0.904928  1
  I  I12  1  0.454836  0.811333  0.092132  1
  I  I13  1  0.742378  0.912638  0.536954  1
  I  I14  1  0.254568  0.086580  0.464553  1
  I  I15  1  0.913844  0.626260  0.179657  1
  I  I16  1  0.084928  0.373087  0.819281  1
