# generated using pymatgen
data_Y20Ir5Au7
_symmetry_space_group_name_H-M   'P 1'
_cell_length_a   6.33698386
_cell_length_b   11.33711244
_cell_length_c   11.33711438
_cell_angle_alpha   90.26539848
_cell_angle_beta   89.86642481
_cell_angle_gamma   89.86656336
_symmetry_Int_Tables_number   1
_chemical_formula_structural   Y20Ir5Au7
_chemical_formula_sum   'Y20 Ir5 Au7'
_cell_volume   814.48024572
_cell_formula_units_Z   1
loop_
 _symmetry_equiv_pos_site_id
 _symmetry_equiv_pos_as_xyz
  1  'x, y, z'
loop_
 _atom_site_type_symbol
 _atom_site_label
 _atom_site_symmetry_multiplicity
 _atom_site_fract_x
 _atom_site_fract_y
 _atom_site_fract_z
 _atom_site_occupancy
  Y  Y0  1  0.359169  0.830740  0.548657  1
  Y  Y1  1  0.860681  0.655911  0.548922  1
  Y  Y2  1  0.857805  0.832874  0.950738  1
  Y  Y3  1  0.356836  0.664894  0.949170  1
  Y  Y4  1  0.858854  0.542727  0.826538  1
  Y  Y5  1  0.359802  0.953163  0.833521  1
  Y  Y6  1  0.370681  0.541570  0.660899  1
  Y  Y7  1  0.858425  0.949643  0.665077  1
  Y  Y8  1  0.641145  0.173462  0.457269  1
  Y  Y9  1  0.129320  0.339099  0.458426  1
  Y  Y10  1  0.140198  0.166480  0.046842  1
  Y  Y11  1  0.641575  0.334922  0.050362  1
  Y  Y12  1  0.140830  0.451340  0.169263  1
  Y  Y13  1  0.642192  0.049266  0.167128  1
  Y  Y14  1  0.639320  0.451076  0.344085  1
  Y  Y15  1  0.143163  0.050833  0.335105  1
  Y  Y16  1  0.501009  0.749498  0.249167  1
  Y  Y17  1  0.998989  0.750833  0.250503  1
  Y  Y18  1  0.998663  0.253672  0.743570  1
  Y  Y19  1  0.501333  0.256431  0.746328  1
  Ir  Ir20  1  0.749997  0.402687  0.597311  1
  Ir  Ir21  1  0.108974  0.749497  0.749654  1
  Ir  Ir22  1  0.607103  0.750104  0.749333  1
  Ir  Ir23  1  0.892910  0.250668  0.249898  1
  Ir  Ir24  1  0.391042  0.250346  0.250503  1
  Au  Au25  1  0.249996  0.905991  0.094012  1
  Au  Au26  1  0.751408  0.593679  0.091388  1
  Au  Au27  1  0.748587  0.908619  0.406315  1
  Au  Au28  1  0.249997  0.595265  0.404730  1
  Au  Au29  1  0.749998  0.096306  0.903698  1
  Au  Au30  1  0.247814  0.406215  0.907817  1
  Au  Au31  1  0.252181  0.092186  0.593780  1
