# generated using pymatgen
data_LiHo2Lu4Co17P12
_symmetry_space_group_name_H-M   'P 1'
_cell_length_a   3.67392600
_cell_length_b   10.48294200
_cell_length_c   12.10241700
_cell_angle_alpha   90.00000000
_cell_angle_beta   90.00000000
_cell_angle_gamma   90.00000000
_symmetry_Int_Tables_number   1
_chemical_formula_structural   LiHo2Lu4Co17P12
_chemical_formula_sum   'Li1 Ho2 Lu4 Co17 P12'
_cell_volume   466.10708062
_cell_formula_units_Z   1
loop_
 _symmetry_equiv_pos_site_id
 _symmetry_equiv_pos_as_xyz
  1  'x, y, z'
loop_
 _atom_site_type_symbol
 _atom_site_label
 _atom_site_symmetry_multiplicity
 _atom_site_fract_x
 _atom_site_fract_y
 _atom_site_fract_z
 _atom_site_occupancy
  Li  Li0  1  0.500000  0.500000  0.152095  1
  Ho  Ho1  1  0.000000  0.500000  0.522840  1
  Ho  Ho2  1  0.500000  0.000000  0.477519  1
  Lu  Lu3  1  0.500000  0.820104  0.206307  1
  Lu  Lu4  1  0.500000  0.179896  0.206307  1
  Lu  Lu5  1  0.000000  0.681419  0.794688  1
  Lu  Lu6  1  0.000000  0.318581  0.794688  1
  Co  Co7  1  0.000000  0.500000  0.986200  1
  Co  Co8  1  0.500000  0.000000  0.012139  1
  Co  Co9  1  0.500000  0.296111  0.431741  1
  Co  Co10  1  0.500000  0.703889  0.431741  1
  Co  Co11  1  0.000000  0.202931  0.570688  1
  Co  Co12  1  0.000000  0.797069  0.570688  1
  Co  Co13  1  0.500000  0.878663  0.709532  1
  Co  Co14  1  0.500000  0.121337  0.709532  1
  Co  Co15  1  0.000000  0.623180  0.292012  1
  Co  Co16  1  0.000000  0.376820  0.292012  1
  Co  Co17  1  0.500000  0.330626  0.994997  1
  Co  Co18  1  0.500000  0.669374  0.994997  1
  Co  Co19  1  0.000000  0.165257  0.003403  1
  Co  Co20  1  0.000000  0.834743  0.003403  1
  Co  Co21  1  0.000000  0.000000  0.840137  1
  Co  Co22  1  0.500000  0.500000  0.705344  1
  Co  Co23  1  0.000000  0.000000  0.295739  1
  P  P24  1  0.500000  0.311223  0.618290  1
  P  P25  1  0.500000  0.688777  0.618290  1
  P  P26  1  0.000000  0.188788  0.383775  1
  P  P27  1  0.000000  0.811212  0.383775  1
  P  P28  1  0.500000  0.500000  0.883882  1
  P  P29  1  0.000000  0.000000  0.117444  1
  P  P30  1  0.500000  0.846631  0.890808  1
  P  P31  1  0.500000  0.153369  0.890808  1
  P  P32  1  0.000000  0.658332  0.106781  1
  P  P33  1  0.000000  0.341668  0.106781  1
  P  P34  1  0.500000  0.500000  0.345572  1
  P  P35  1  0.000000  0.000000  0.655047  1
