# generated using pymatgen
data_Ce2TmCo(CuSb2)2
_symmetry_space_group_name_H-M   'P 1'
_cell_length_a   8.29161906
_cell_length_b   8.28988204
_cell_length_c   8.29161957
_cell_angle_alpha   110.05495454
_cell_angle_beta   108.30378018
_cell_angle_gamma   110.05495115
_symmetry_Int_Tables_number   1
_chemical_formula_structural   Ce2TmCo(CuSb2)2
_chemical_formula_sum   'Ce4 Tm2 Co2 Cu4 Sb8'
_cell_volume   438.63581712
_cell_formula_units_Z   2
loop_
 _symmetry_equiv_pos_site_id
 _symmetry_equiv_pos_as_xyz
  1  'x, y, z'
loop_
 _atom_site_type_symbol
 _atom_site_label
 _atom_site_symmetry_multiplicity
 _atom_site_fract_x
 _atom_site_fract_y
 _atom_site_fract_z
 _atom_site_occupancy
  Ce  Ce0  1  0.249977  0.116601  0.866575  1
  Ce  Ce1  1  0.749994  0.383412  0.633463  1
  Ce  Ce2  1  0.133463  0.883412  0.249994  1
  Ce  Ce3  1  0.366575  0.616601  0.749977  1
  Tm  Tm4  1  0.875017  0.249935  0.125021  1
  Tm  Tm5  1  0.625021  0.749935  0.375017  1
  Co  Co6  1  0.374956  0.250071  0.625196  1
  Co  Co7  1  0.125196  0.750071  0.874956  1
  Cu  Cu8  1  0.249985  0.622513  0.372511  1
  Cu  Cu9  1  0.749947  0.877406  0.127419  1
  Cu  Cu10  1  0.627419  0.377406  0.249947  1
  Cu  Cu11  1  0.872511  0.122513  0.749985  1
  Sb  Sb12  1  0.656428  0.497171  0.997504  1
  Sb  Sb13  1  0.500320  0.002932  0.659352  1
  Sb  Sb14  1  0.999597  0.658960  0.502499  1
  Sb  Sb15  1  0.843602  0.840996  0.840637  1
  Sb  Sb16  1  0.497504  0.997171  0.156428  1
  Sb  Sb17  1  0.159352  0.502932  0.000320  1
  Sb  Sb18  1  0.002499  0.158960  0.499597  1
  Sb  Sb19  1  0.340637  0.340996  0.343602  1
