# generated using pymatgen
data_Nd4Al9Ga15NiPd
_symmetry_space_group_name_H-M   'P 1'
_cell_length_a   6.05502381
_cell_length_b   6.05502410
_cell_length_c   15.74886586
_cell_angle_alpha   90.17445358
_cell_angle_beta   90.17445465
_cell_angle_gamma   90.05270117
_symmetry_Int_Tables_number   1
_chemical_formula_structural   Nd4Al9Ga15NiPd
_chemical_formula_sum   'Nd4 Al9 Ga15 Ni1 Pd1'
_cell_volume   577.40002977
_cell_formula_units_Z   1
loop_
 _symmetry_equiv_pos_site_id
 _symmetry_equiv_pos_as_xyz
  1  'x, y, z'
loop_
 _atom_site_type_symbol
 _atom_site_label
 _atom_site_symmetry_multiplicity
 _atom_site_fract_x
 _atom_site_fract_y
 _atom_site_fract_z
 _atom_site_occupancy
  Nd  Nd0  1  0.751776  0.251776  0.250445  1
  Nd  Nd1  1  0.251213  0.751213  0.249080  1
  Nd  Nd2  1  0.248765  0.748765  0.751081  1
  Nd  Nd3  1  0.749082  0.249082  0.748937  1
  Al  Al4  1  0.506463  0.006463  0.914547  1
  Al  Al5  1  0.993260  0.006837  0.914764  1
  Al  Al6  1  0.506837  0.493260  0.914764  1
  Al  Al7  1  0.992609  0.492609  0.914576  1
  Al  Al8  1  0.507115  0.007115  0.085265  1
  Al  Al9  1  0.993061  0.006685  0.085241  1
  Al  Al10  1  0.506685  0.493061  0.085241  1
  Al  Al11  1  0.993586  0.493586  0.085294  1
  Al  Al12  1  0.582007  0.082007  0.433355  1
  Ga  Ga13  1  0.250347  0.250507  0.185307  1
  Ga  Ga14  1  0.750507  0.750347  0.185307  1
  Ga  Ga15  1  0.749527  0.749232  0.814720  1
  Ga  Ga16  1  0.249232  0.249527  0.814720  1
  Ga  Ga17  1  0.253390  0.249888  0.342798  1
  Ga  Ga18  1  0.749888  0.753390  0.342798  1
  Ga  Ga19  1  0.749418  0.748152  0.657143  1
  Ga  Ga20  1  0.248152  0.249418  0.657143  1
  Ga  Ga21  1  0.081006  0.921531  0.430560  1
  Ga  Ga22  1  0.421531  0.581006  0.430560  1
  Ga  Ga23  1  0.920074  0.420074  0.430977  1
  Ga  Ga24  1  0.418329  0.918329  0.569813  1
  Ga  Ga25  1  0.919226  0.076932  0.568341  1
  Ga  Ga26  1  0.576932  0.419226  0.568341  1
  Ga  Ga27  1  0.080162  0.580162  0.568920  1
  Ni  Ni28  1  0.749880  0.249880  0.000019  1
  Pd  Pd29  1  0.249937  0.749937  0.999941  1
