# generated using pymatgen
data_Tb7Tm(LuSb)12
_symmetry_space_group_name_H-M   'P 1'
_cell_length_a   8.09728044
_cell_length_b   9.13633900
_cell_length_c   11.79626209
_cell_angle_alpha   90.00000000
_cell_angle_beta   90.06832932
_cell_angle_gamma   90.00000000
_symmetry_Int_Tables_number   1
_chemical_formula_structural   Tb7Tm(LuSb)12
_chemical_formula_sum   'Tb7 Tm1 Lu12 Sb12'
_cell_volume   872.68094031
_cell_formula_units_Z   1
loop_
 _symmetry_equiv_pos_site_id
 _symmetry_equiv_pos_as_xyz
  1  'x, y, z'
loop_
 _atom_site_type_symbol
 _atom_site_label
 _atom_site_symmetry_multiplicity
 _atom_site_fract_x
 _atom_site_fract_y
 _atom_site_fract_z
 _atom_site_occupancy
  Tb  Tb0  1  0.175500  0.750000  0.228580  1
  Tb  Tb1  1  0.675741  0.250000  0.271070  1
  Tb  Tb2  1  0.824443  0.250000  0.771081  1
  Tb  Tb3  1  0.324232  0.750000  0.728959  1
  Tb  Tb4  1  0.658379  0.750000  0.290970  1
  Tb  Tb5  1  0.158415  0.250000  0.209115  1
  Tb  Tb6  1  0.341732  0.250000  0.709119  1
  Tm  Tm7  1  0.839906  0.750000  0.790620  1
  Lu  Lu8  1  0.809456  0.939006  0.065692  1
  Lu  Lu9  1  0.309616  0.061025  0.434066  1
  Lu  Lu10  1  0.190623  0.438939  0.934130  1
  Lu  Lu11  1  0.690727  0.561245  0.566534  1
  Lu  Lu12  1  0.190623  0.061061  0.934130  1
  Lu  Lu13  1  0.690727  0.938755  0.566534  1
  Lu  Lu14  1  0.809456  0.560994  0.065692  1
  Lu  Lu15  1  0.309616  0.438975  0.434066  1
  Lu  Lu16  1  0.525061  0.250000  0.995487  1
  Lu  Lu17  1  0.024662  0.750000  0.504905  1
  Lu  Lu18  1  0.475063  0.750000  0.004187  1
  Lu  Lu19  1  0.975083  0.250000  0.495811  1
  Sb  Sb20  1  0.937774  0.991449  0.328054  1
  Sb  Sb21  1  0.437678  0.008288  0.171831  1
  Sb  Sb22  1  0.061707  0.492408  0.672752  1
  Sb  Sb23  1  0.564186  0.509627  0.827965  1
  Sb  Sb24  1  0.061707  0.007592  0.672752  1
  Sb  Sb25  1  0.564186  0.990373  0.827965  1
  Sb  Sb26  1  0.937774  0.508551  0.328054  1
  Sb  Sb27  1  0.437678  0.491712  0.171831  1
  Sb  Sb28  1  0.901445  0.250000  0.024723  1
  Sb  Sb29  1  0.401443  0.750000  0.475322  1
  Sb  Sb30  1  0.096632  0.750000  0.973231  1
  Sb  Sb31  1  0.598732  0.250000  0.524770  1
