# generated using pymatgen
data_Dy2HoTm3FeSb2
_symmetry_space_group_name_H-M   'P 1'
_cell_length_a   8.12405904
_cell_length_b   8.12272631
_cell_length_c   4.12994000
_cell_angle_alpha   90.00000000
_cell_angle_beta   90.00000000
_cell_angle_gamma   119.99456008
_symmetry_Int_Tables_number   1
_chemical_formula_structural   Dy2HoTm3FeSb2
_chemical_formula_sum   'Dy2 Ho1 Tm3 Fe1 Sb2'
_cell_volume   236.03318604
_cell_formula_units_Z   1
loop_
 _symmetry_equiv_pos_site_id
 _symmetry_equiv_pos_as_xyz
  1  'x, y, z'
loop_
 _atom_site_type_symbol
 _atom_site_label
 _atom_site_symmetry_multiplicity
 _atom_site_fract_x
 _atom_site_fract_y
 _atom_site_fract_z
 _atom_site_occupancy
  Dy  Dy0  1  0.394873  0.394903  0.500000  1
  Dy  Dy1  1  0.605127  0.000030  0.500000  1
  Ho  Ho2  1  0.000000  0.605219  0.500000  1
  Tm  Tm3  1  0.233324  0.999832  0.000000  1
  Tm  Tm4  1  0.766676  0.766508  0.000000  1
  Tm  Tm5  1  0.000000  0.233451  0.000000  1
  Fe  Fe6  1  0.000000  0.999825  0.500000  1
  Sb  Sb7  1  0.333105  0.666668  0.000000  1
  Sb  Sb8  1  0.666895  0.333562  0.000000  1
