# generated using pymatgen
data_PuTlO4
_symmetry_space_group_name_H-M   'P 1'
_cell_length_a   7.46346736
_cell_length_b   7.46346745
_cell_length_c   5.49919200
_cell_angle_alpha   68.80630067
_cell_angle_beta   68.80630037
_cell_angle_gamma   43.82991335
_symmetry_Int_Tables_number   1
_chemical_formula_structural   PuTlO4
_chemical_formula_sum   'Pu2 Tl2 O8'
_cell_volume   195.36576475
_cell_formula_units_Z   2
loop_
 _symmetry_equiv_pos_site_id
 _symmetry_equiv_pos_as_xyz
  1  'x, y, z'
loop_
 _atom_site_type_symbol
 _atom_site_label
 _atom_site_symmetry_multiplicity
 _atom_site_fract_x
 _atom_site_fract_y
 _atom_site_fract_z
 _atom_site_occupancy
  Pu  Pu0  1  0.000000  0.500000  0.500000  1
  Pu  Pu1  1  0.500000  0.000000  0.000000  1
  Tl  Tl2  1  0.231693  0.768307  0.750000  1
  Tl  Tl3  1  0.768307  0.231693  0.250000  1
  O  O4  1  0.756272  0.472899  0.684251  1
  O  O5  1  0.527101  0.243728  0.815749  1
  O  O6  1  0.243728  0.527101  0.315749  1
  O  O7  1  0.472899  0.756272  0.184251  1
  O  O8  1  0.291151  0.113984  0.750719  1
  O  O9  1  0.886016  0.708849  0.749281  1
  O  O10  1  0.708849  0.886016  0.249281  1
  O  O11  1  0.113984  0.291151  0.250719  1
