# generated using pymatgen
data_Hf9VTcNiW2
_symmetry_space_group_name_H-M   'P 1'
_cell_length_a   8.66342538
_cell_length_b   8.64339104
_cell_length_c   8.38411000
_cell_angle_alpha   90.00000000
_cell_angle_beta   90.00000000
_cell_angle_gamma   119.92353337
_symmetry_Int_Tables_number   1
_chemical_formula_structural   Hf9VTcNiW2
_chemical_formula_sum   'Hf18 V2 Tc2 Ni2 W4'
_cell_volume   544.12104191
_cell_formula_units_Z   2
loop_
 _symmetry_equiv_pos_site_id
 _symmetry_equiv_pos_as_xyz
  1  'x, y, z'
loop_
 _atom_site_type_symbol
 _atom_site_label
 _atom_site_symmetry_multiplicity
 _atom_site_fract_x
 _atom_site_fract_y
 _atom_site_fract_z
 _atom_site_occupancy
  Hf  Hf0  1  0.199704  0.801409  0.442315  1
  Hf  Hf1  1  0.199704  0.398296  0.442315  1
  Hf  Hf2  1  0.601774  0.800889  0.442466  1
  Hf  Hf3  1  0.801979  0.198755  0.557222  1
  Hf  Hf4  1  0.801979  0.603223  0.557222  1
  Hf  Hf5  1  0.397813  0.198907  0.557259  1
  Hf  Hf6  1  0.801979  0.198755  0.942778  1
  Hf  Hf7  1  0.801979  0.603223  0.942778  1
  Hf  Hf8  1  0.397813  0.198907  0.942741  1
  Hf  Hf9  1  0.199704  0.801409  0.057685  1
  Hf  Hf10  1  0.199704  0.398296  0.057685  1
  Hf  Hf11  1  0.601774  0.800889  0.057534  1
  Hf  Hf12  1  0.542362  0.456397  0.250000  1
  Hf  Hf13  1  0.542362  0.085965  0.250000  1
  Hf  Hf14  1  0.914048  0.457024  0.250000  1
  Hf  Hf15  1  0.457283  0.542503  0.750000  1
  Hf  Hf16  1  0.457283  0.914782  0.750000  1
  Hf  Hf17  1  0.084554  0.542278  0.750000  1
  V  V18  1  0.998232  0.999117  0.495774  1
  V  V19  1  0.998232  0.999117  0.004226  1
  Tc  Tc20  1  0.889472  0.111843  0.250000  1
  Tc  Tc21  1  0.889472  0.777628  0.250000  1
  Ni  Ni22  1  0.334691  0.667345  0.250000  1
  Ni  Ni23  1  0.666824  0.333413  0.750000  1
  W  W24  1  0.222640  0.111320  0.250000  1
  W  W25  1  0.109321  0.888722  0.750000  1
  W  W26  1  0.109321  0.220597  0.750000  1
  W  W27  1  0.777995  0.888997  0.750000  1
