# generated using pymatgen
data_Er10ZnSiPb6
_symmetry_space_group_name_H-M   'P 1'
_cell_length_a   9.17124200
_cell_length_b   9.17124115
_cell_length_c   6.64691800
_cell_angle_alpha   90.00000000
_cell_angle_beta   90.00000000
_cell_angle_gamma   120.00001027
_symmetry_Int_Tables_number   1
_chemical_formula_structural   Er10ZnSiPb6
_chemical_formula_sum   'Er10 Zn1 Si1 Pb6'
_cell_volume   484.18036581
_cell_formula_units_Z   1
loop_
 _symmetry_equiv_pos_site_id
 _symmetry_equiv_pos_as_xyz
  1  'x, y, z'
loop_
 _atom_site_type_symbol
 _atom_site_label
 _atom_site_symmetry_multiplicity
 _atom_site_fract_x
 _atom_site_fract_y
 _atom_site_fract_z
 _atom_site_occupancy
  Er  Er0  1  0.253166  0.000000  0.236206  1
  Er  Er1  1  0.746834  0.000000  0.763794  1
  Er  Er2  1  0.000000  0.253166  0.236206  1
  Er  Er3  1  0.000000  0.746834  0.763794  1
  Er  Er4  1  0.746834  0.746834  0.236206  1
  Er  Er5  1  0.253166  0.253166  0.763794  1
  Er  Er6  1  0.333333  0.666667  0.000000  1
  Er  Er7  1  0.666667  0.333333  0.000000  1
  Er  Er8  1  0.666667  0.333333  0.500000  1
  Er  Er9  1  0.333333  0.666667  0.500000  1
  Zn  Zn10  1  0.000000  0.000000  0.500000  1
  Si  Si11  1  0.000000  0.000000  0.000000  1
  Pb  Pb12  1  0.607573  0.000000  0.248966  1
  Pb  Pb13  1  0.392427  0.000000  0.751034  1
  Pb  Pb14  1  0.000000  0.607573  0.248966  1
  Pb  Pb15  1  0.000000  0.392427  0.751034  1
  Pb  Pb16  1  0.392427  0.392427  0.248966  1
  Pb  Pb17  1  0.607573  0.607573  0.751034  1
