# generated using pymatgen
data_Lu3ZnGa4Pt
_symmetry_space_group_name_H-M   'P 1'
_cell_length_a   6.83413600
_cell_length_b   6.81353342
_cell_length_c   4.27828400
_cell_angle_alpha   90.00000000
_cell_angle_beta   90.00000000
_cell_angle_gamma   120.10008583
_symmetry_Int_Tables_number   1
_chemical_formula_structural   Lu3ZnGa4Pt
_chemical_formula_sum   'Lu3 Zn1 Ga4 Pt1'
_cell_volume   172.35241223
_cell_formula_units_Z   1
loop_
 _symmetry_equiv_pos_site_id
 _symmetry_equiv_pos_as_xyz
  1  'x, y, z'
loop_
 _atom_site_type_symbol
 _atom_site_label
 _atom_site_symmetry_multiplicity
 _atom_site_fract_x
 _atom_site_fract_y
 _atom_site_fract_z
 _atom_site_occupancy
  Lu  Lu0  1  0.581336  0.000000  0.500000  1
  Lu  Lu1  1  0.415003  0.413964  0.500000  1
  Lu  Lu2  1  0.001037  0.586036  0.500000  1
  Zn  Zn3  1  0.243637  0.000000  0.000000  1
  Ga  Ga4  1  0.003636  0.242290  0.000000  1
  Ga  Ga5  1  0.666140  0.332111  0.000000  1
  Ga  Ga6  1  0.334028  0.667889  0.000000  1
  Ga  Ga7  1  0.761346  0.757710  0.000000  1
  Pt  Pt8  1  0.993837  0.000000  0.500000  1
