# generated using pymatgen
data_ZrZn(Ni7B2)3
_symmetry_space_group_name_H-M   'P 1'
_cell_length_a   7.43546000
_cell_length_b   7.43533228
_cell_length_c   7.43519807
_cell_angle_alpha   60.00017907
_cell_angle_beta   60.00930512
_cell_angle_gamma   59.99449698
_symmetry_Int_Tables_number   1
_chemical_formula_structural   ZrZn(Ni7B2)3
_chemical_formula_sum   'Zr1 Zn1 Ni21 B6'
_cell_volume   290.66906897
_cell_formula_units_Z   1
loop_
 _symmetry_equiv_pos_site_id
 _symmetry_equiv_pos_as_xyz
  1  'x, y, z'
loop_
 _atom_site_type_symbol
 _atom_site_label
 _atom_site_symmetry_multiplicity
 _atom_site_fract_x
 _atom_site_fract_y
 _atom_site_fract_z
 _atom_site_occupancy
  Zr  Zr0  1  0.749960  0.749913  0.750171  1
  Zn  Zn1  1  0.250014  0.250028  0.249962  1
  Ni  Ni2  1  0.000058  0.999979  0.000008  1
  Ni  Ni3  1  0.611792  0.611776  0.164596  1
  Ni  Ni4  1  0.611804  0.164648  0.611781  1
  Ni  Ni5  1  0.164582  0.611817  0.611799  1
  Ni  Ni6  1  0.611771  0.611753  0.611827  1
  Ni  Ni7  1  0.381313  0.381366  0.855949  1
  Ni  Ni8  1  0.381335  0.855877  0.381359  1
  Ni  Ni9  1  0.855916  0.381351  0.381330  1
  Ni  Ni10  1  0.381368  0.381422  0.381340  1
  Ni  Ni11  1  0.999447  0.999442  0.338611  1
  Ni  Ni12  1  0.662504  0.999445  0.338614  1
  Ni  Ni13  1  0.999467  0.662448  0.338636  1
  Ni  Ni14  1  0.662417  0.338645  0.999451  1
  Ni  Ni15  1  0.999469  0.338671  0.999434  1
  Ni  Ni16  1  0.999472  0.338625  0.662441  1
  Ni  Ni17  1  0.338671  0.662386  0.999478  1
  Ni  Ni18  1  0.338632  0.999478  0.662448  1
  Ni  Ni19  1  0.338671  0.999492  0.999467  1
  Ni  Ni20  1  0.999438  0.999457  0.662526  1
  Ni  Ni21  1  0.999457  0.662443  0.999444  1
  Ni  Ni22  1  0.662460  0.999479  0.999437  1
  B  B23  1  0.728737  0.728710  0.271242  1
  B  B24  1  0.271275  0.728770  0.271133  1
  B  B25  1  0.728723  0.271326  0.271181  1
  B  B26  1  0.271274  0.271269  0.728762  1
  B  B27  1  0.728672  0.271314  0.728776  1
  B  B28  1  0.271300  0.728672  0.728796  1
