# generated using pymatgen
data_Eu3Co8TcP6
_symmetry_space_group_name_H-M   'P 1'
_cell_length_a   3.75297100
_cell_length_b   10.65560200
_cell_length_c   12.36737300
_cell_angle_alpha   90.00000000
_cell_angle_beta   90.00000000
_cell_angle_gamma   90.00000000
_symmetry_Int_Tables_number   1
_chemical_formula_structural   Eu3Co8TcP6
_chemical_formula_sum   'Eu6 Co16 Tc2 P12'
_cell_volume   494.57329052
_cell_formula_units_Z   2
loop_
 _symmetry_equiv_pos_site_id
 _symmetry_equiv_pos_as_xyz
  1  'x, y, z'
loop_
 _atom_site_type_symbol
 _atom_site_label
 _atom_site_symmetry_multiplicity
 _atom_site_fract_x
 _atom_site_fract_y
 _atom_site_fract_z
 _atom_site_occupancy
  Eu  Eu0  1  0.000000  0.500000  0.526257  1
  Eu  Eu1  1  0.500000  0.000000  0.473743  1
  Eu  Eu2  1  0.500000  0.820113  0.206212  1
  Eu  Eu3  1  0.500000  0.179887  0.206212  1
  Eu  Eu4  1  0.000000  0.679887  0.793788  1
  Eu  Eu5  1  0.000000  0.320113  0.793788  1
  Co  Co6  1  0.500000  0.500000  0.701658  1
  Co  Co7  1  0.000000  0.000000  0.298342  1
  Co  Co8  1  0.000000  0.500000  0.989314  1
  Co  Co9  1  0.500000  0.000000  0.010686  1
  Co  Co10  1  0.500000  0.331812  0.992456  1
  Co  Co11  1  0.500000  0.668188  0.992456  1
  Co  Co12  1  0.000000  0.168188  0.007544  1
  Co  Co13  1  0.000000  0.831812  0.007544  1
  Co  Co14  1  0.500000  0.297061  0.430955  1
  Co  Co15  1  0.500000  0.702939  0.430955  1
  Co  Co16  1  0.000000  0.202939  0.569045  1
  Co  Co17  1  0.000000  0.797061  0.569045  1
  Co  Co18  1  0.500000  0.881419  0.707882  1
  Co  Co19  1  0.500000  0.118581  0.707882  1
  Co  Co20  1  0.000000  0.618581  0.292118  1
  Co  Co21  1  0.000000  0.381419  0.292118  1
  Tc  Tc22  1  0.500000  0.500000  0.155524  1
  Tc  Tc23  1  0.000000  0.000000  0.844476  1
  P  P24  1  0.500000  0.500000  0.885489  1
  P  P25  1  0.000000  0.000000  0.114511  1
  P  P26  1  0.500000  0.500000  0.344245  1
  P  P27  1  0.000000  0.000000  0.655755  1
  P  P28  1  0.500000  0.305259  0.614988  1
  P  P29  1  0.500000  0.694741  0.614988  1
  P  P30  1  0.000000  0.194741  0.385012  1
  P  P31  1  0.000000  0.805259  0.385012  1
  P  P32  1  0.500000  0.846614  0.893950  1
  P  P33  1  0.500000  0.153386  0.893950  1
  P  P34  1  0.000000  0.653386  0.106050  1
  P  P35  1  0.000000  0.346614  0.106050  1
