# generated using pymatgen
data_AlFe3(AgBr4)4
_symmetry_space_group_name_H-M   'P 1'
_cell_length_a   7.31202092
_cell_length_b   7.60000634
_cell_length_c   14.34052058
_cell_angle_alpha   87.60664233
_cell_angle_beta   89.83322366
_cell_angle_gamma   89.84036127
_symmetry_Int_Tables_number   1
_chemical_formula_structural   AlFe3(AgBr4)4
_chemical_formula_sum   'Al1 Fe3 Ag4 Br16'
_cell_volume   796.22150376
_cell_formula_units_Z   1
loop_
 _symmetry_equiv_pos_site_id
 _symmetry_equiv_pos_as_xyz
  1  'x, y, z'
loop_
 _atom_site_type_symbol
 _atom_site_label
 _atom_site_symmetry_multiplicity
 _atom_site_fract_x
 _atom_site_fract_y
 _atom_site_fract_z
 _atom_site_occupancy
  Al  Al0  1  0.177045  0.708805  0.600489  1
  Fe  Fe1  1  0.825232  0.287879  0.399850  1
  Fe  Fe2  1  0.675004  0.288033  0.899857  1
  Fe  Fe3  1  0.324919  0.711416  0.100449  1
  Ag  Ag4  1  0.486907  0.846128  0.871118  1
  Ag  Ag5  1  0.515820  0.151906  0.131385  1
  Ag  Ag6  1  0.980695  0.157893  0.630485  1
  Ag  Ag7  1  0.012801  0.849935  0.365876  1
  Br  Br8  1  0.188744  0.446096  0.688992  1
  Br  Br9  1  0.814938  0.557400  0.313313  1
  Br  Br10  1  0.682905  0.559345  0.814570  1
  Br  Br11  1  0.316666  0.440477  0.185831  1
  Br  Br12  1  0.317758  0.931831  0.683145  1
  Br  Br13  1  0.676828  0.067136  0.313780  1
  Br  Br14  1  0.823923  0.069374  0.812451  1
  Br  Br15  1  0.176201  0.932486  0.186899  1
  Br  Br16  1  0.179473  0.687877  0.955368  1
  Br  Br17  1  0.819460  0.311951  0.045228  1
  Br  Br18  1  0.677681  0.311811  0.545238  1
  Br  Br19  1  0.319684  0.687723  0.456477  1
  Br  Br20  1  0.875413  0.803368  0.573401  1
  Br  Br21  1  0.131839  0.192480  0.426804  1
  Br  Br22  1  0.369189  0.188744  0.926151  1
  Br  Br23  1  0.630876  0.809907  0.072844  1
