# generated using pymatgen
data_Tb2Lu3Sc(AlAu)6
_symmetry_space_group_name_H-M   'P 1'
_cell_length_a   7.31848586
_cell_length_b   7.31823115
_cell_length_c   7.89025100
_cell_angle_alpha   90.00000000
_cell_angle_beta   90.00000000
_cell_angle_gamma   119.89820755
_symmetry_Int_Tables_number   1
_chemical_formula_structural   Tb2Lu3Sc(AlAu)6
_chemical_formula_sum   'Tb2 Lu3 Sc1 Al6 Au6'
_cell_volume   366.34761273
_cell_formula_units_Z   1
loop_
 _symmetry_equiv_pos_site_id
 _symmetry_equiv_pos_as_xyz
  1  'x, y, z'
loop_
 _atom_site_type_symbol
 _atom_site_label
 _atom_site_symmetry_multiplicity
 _atom_site_fract_x
 _atom_site_fract_y
 _atom_site_fract_z
 _atom_site_occupancy
  Tb  Tb0  1  0.998880  0.584477  0.250000  1
  Tb  Tb1  1  0.585096  0.000343  0.250000  1
  Lu  Lu2  1  0.589991  0.998790  0.750000  1
  Lu  Lu3  1  0.000390  0.590537  0.750000  1
  Lu  Lu4  1  0.413921  0.413424  0.250000  1
  Sc  Sc5  1  0.405928  0.406767  0.750000  1
  Al  Al6  1  0.749554  0.749431  0.995524  1
  Al  Al7  1  0.249885  0.002477  0.995614  1
  Al  Al8  1  0.002394  0.249789  0.995300  1
  Al  Al9  1  0.749554  0.749431  0.504476  1
  Al  Al10  1  0.249885  0.002477  0.504386  1
  Al  Al11  1  0.002394  0.249789  0.504700  1
  Au  Au12  1  0.003439  0.002588  0.750000  1
  Au  Au13  1  0.003712  0.004454  0.250000  1
  Au  Au14  1  0.662353  0.334999  0.987261  1
  Au  Au15  1  0.662353  0.334999  0.512739  1
  Au  Au16  1  0.335137  0.662613  0.510544  1
  Au  Au17  1  0.335137  0.662613  0.989456  1
