# generated using pymatgen
data_Zr10GaGeBi4
_symmetry_space_group_name_H-M   'P 1'
_cell_length_a   5.56528644
_cell_length_b   8.36025529
_cell_length_c   8.36025400
_cell_angle_alpha   96.36050120
_cell_angle_beta   109.44137457
_cell_angle_gamma   70.55862825
_symmetry_Int_Tables_number   1
_chemical_formula_structural   Zr10GaGeBi4
_chemical_formula_sum   'Zr10 Ga1 Ge1 Bi4'
_cell_volume   345.88669304
_cell_formula_units_Z   1
loop_
 _symmetry_equiv_pos_site_id
 _symmetry_equiv_pos_as_xyz
  1  'x, y, z'
loop_
 _atom_site_type_symbol
 _atom_site_label
 _atom_site_symmetry_multiplicity
 _atom_site_fract_x
 _atom_site_fract_y
 _atom_site_fract_z
 _atom_site_occupancy
  Zr  Zr0  1  0.426012  0.863421  0.715869  1
  Zr  Zr1  1  0.573561  0.136575  0.284126  1
  Zr  Zr2  1  0.926436  0.284131  0.136579  1
  Zr  Zr3  1  0.073991  0.715874  0.863425  1
  Zr  Zr4  1  0.710203  0.715898  0.136649  1
  Zr  Zr5  1  0.289457  0.284094  0.863349  1
  Zr  Zr6  1  0.789800  0.136651  0.715906  1
  Zr  Zr7  1  0.210546  0.863351  0.284102  1
  Zr  Zr8  1  0.249999  0.500001  0.499999  1
  Zr  Zr9  1  0.749997  0.500003  0.499997  1
  Ga  Ga10  1  0.750006  0.999994  0.000006  1
  Ge  Ge11  1  0.250004  0.999996  0.000004  1
  Bi  Bi12  1  0.335050  0.499928  0.170053  1
  Bi  Bi13  1  0.664920  0.500080  0.829944  1
  Bi  Bi14  1  0.835074  0.829947  0.500072  1
  Bi  Bi15  1  0.164945  0.170056  0.499920  1
