# generated using pymatgen
data_Eu3Mg(SnPt)4
_symmetry_space_group_name_H-M   'P 1'
_cell_length_a   4.63850400
_cell_length_b   7.41015178
_cell_length_c   8.10035405
_cell_angle_alpha   86.75072366
_cell_angle_beta   90.00000000
_cell_angle_gamma   90.00000000
_symmetry_Int_Tables_number   1
_chemical_formula_structural   Eu3Mg(SnPt)4
_chemical_formula_sum   'Eu3 Mg1 Sn4 Pt4'
_cell_volume   277.97792001
_cell_formula_units_Z   1
loop_
 _symmetry_equiv_pos_site_id
 _symmetry_equiv_pos_as_xyz
  1  'x, y, z'
loop_
 _atom_site_type_symbol
 _atom_site_label
 _atom_site_symmetry_multiplicity
 _atom_site_fract_x
 _atom_site_fract_y
 _atom_site_fract_z
 _atom_site_occupancy
  Eu  Eu0  1  0.250000  0.025484  0.686321  1
  Eu  Eu1  1  0.250000  0.518651  0.822448  1
  Eu  Eu2  1  0.750000  0.978253  0.314823  1
  Mg  Mg3  1  0.750000  0.465976  0.175675  1
  Sn  Sn4  1  0.750000  0.341995  0.563601  1
  Sn  Sn5  1  0.250000  0.664300  0.427141  1
  Sn  Sn6  1  0.250000  0.160495  0.076546  1
  Sn  Sn7  1  0.750000  0.830084  0.931311  1
  Pt  Pt8  1  0.750000  0.713857  0.615383  1
  Pt  Pt9  1  0.250000  0.303948  0.377120  1
  Pt  Pt10  1  0.250000  0.776791  0.107241  1
  Pt  Pt11  1  0.750000  0.220164  0.902390  1
