# generated using pymatgen
data_TbPa3(AlCo2)2
_symmetry_space_group_name_H-M   'P 1'
_cell_length_a   7.21014860
_cell_length_b   7.21014928
_cell_length_c   3.50986500
_cell_angle_alpha   90.00000000
_cell_angle_beta   90.00000000
_cell_angle_gamma   87.67739856
_symmetry_Int_Tables_number   1
_chemical_formula_structural   TbPa3(AlCo2)2
_chemical_formula_sum   'Tb1 Pa3 Al2 Co4'
_cell_volume   182.31481413
_cell_formula_units_Z   1
loop_
 _symmetry_equiv_pos_site_id
 _symmetry_equiv_pos_as_xyz
  1  'x, y, z'
loop_
 _atom_site_type_symbol
 _atom_site_label
 _atom_site_symmetry_multiplicity
 _atom_site_fract_x
 _atom_site_fract_y
 _atom_site_fract_z
 _atom_site_occupancy
  Tb  Tb0  1  0.325434  0.825434  0.500000  1
  Pa  Pa1  1  0.674722  0.174722  0.500000  1
  Pa  Pa2  1  0.177745  0.328473  0.500000  1
  Pa  Pa3  1  0.828473  0.677745  0.500000  1
  Al  Al4  1  0.003186  0.002773  0.000000  1
  Al  Al5  1  0.502773  0.503186  0.000000  1
  Co  Co6  1  0.852789  0.352789  0.000000  1
  Co  Co7  1  0.372693  0.156910  0.000000  1
  Co  Co8  1  0.656910  0.872693  0.000000  1
  Co  Co9  1  0.105275  0.605275  0.000000  1
