# generated using pymatgen
data_Ac3AlO6
_symmetry_space_group_name_H-M   'P 1'
_cell_length_a   7.82813556
_cell_length_b   7.82813494
_cell_length_c   5.81433800
_cell_angle_alpha   90.00000000
_cell_angle_beta   90.00000000
_cell_angle_gamma   103.04841524
_symmetry_Int_Tables_number   1
_chemical_formula_structural   Ac3AlO6
_chemical_formula_sum   'Ac6 Al2 O12'
_cell_volume   347.10107656
_cell_formula_units_Z   2
loop_
 _symmetry_equiv_pos_site_id
 _symmetry_equiv_pos_as_xyz
  1  'x, y, z'
loop_
 _atom_site_type_symbol
 _atom_site_label
 _atom_site_symmetry_multiplicity
 _atom_site_fract_x
 _atom_site_fract_y
 _atom_site_fract_z
 _atom_site_occupancy
  Ac  Ac0  1  0.083963  0.301969  0.467035  1
  Ac  Ac1  1  0.301969  0.083963  0.967035  1
  Ac  Ac2  1  0.606248  0.393752  0.433566  1
  Ac  Ac3  1  0.393752  0.606248  0.933566  1
  Ac  Ac4  1  0.698031  0.916037  0.467035  1
  Ac  Ac5  1  0.916037  0.698031  0.967035  1
  Al  Al6  1  0.806580  0.193420  0.009864  1
  Al  Al7  1  0.193420  0.806580  0.509864  1
  O  O8  1  0.331104  0.350877  0.203816  1
  O  O9  1  0.350877  0.331104  0.703816  1
  O  O10  1  0.113986  0.598421  0.653142  1
  O  O11  1  0.598421  0.113986  0.153142  1
  O  O12  1  0.944178  0.055822  0.119066  1
  O  O13  1  0.789064  0.210936  0.703467  1
  O  O14  1  0.210936  0.789064  0.203467  1
  O  O15  1  0.055822  0.944178  0.619066  1
  O  O16  1  0.886014  0.401579  0.153142  1
  O  O17  1  0.401579  0.886014  0.653142  1
  O  O18  1  0.649123  0.668896  0.203816  1
  O  O19  1  0.668896  0.649123  0.703816  1
