# generated using pymatgen
data_La12Pr2Pd5Rh
_symmetry_space_group_name_H-M   'P 1'
_cell_length_a   10.35037584
_cell_length_b   10.35037624
_cell_length_c   6.59712057
_cell_angle_alpha   90.01042965
_cell_angle_beta   89.98957583
_cell_angle_gamma   120.09033685
_symmetry_Int_Tables_number   1
_chemical_formula_structural   La12Pr2Pd5Rh
_chemical_formula_sum   'La12 Pr2 Pd5 Rh1'
_cell_volume   611.50673503
_cell_formula_units_Z   1
loop_
 _symmetry_equiv_pos_site_id
 _symmetry_equiv_pos_as_xyz
  1  'x, y, z'
loop_
 _atom_site_type_symbol
 _atom_site_label
 _atom_site_symmetry_multiplicity
 _atom_site_fract_x
 _atom_site_fract_y
 _atom_site_fract_z
 _atom_site_occupancy
  La  La0  1  0.126750  0.873250  0.245268  1
  La  La1  1  0.748950  0.880244  0.243646  1
  La  La2  1  0.119756  0.251050  0.243646  1
  La  La3  1  0.872833  0.127167  0.752136  1
  La  La4  1  0.253259  0.126151  0.746168  1
  La  La5  1  0.873849  0.746741  0.746168  1
  La  La6  1  0.537992  0.462008  0.442922  1
  La  La7  1  0.920512  0.455746  0.438835  1
  La  La8  1  0.544254  0.079488  0.438835  1
  La  La9  1  0.461827  0.538173  0.942334  1
  La  La10  1  0.076419  0.537434  0.941527  1
  La  La11  1  0.462566  0.923581  0.941527  1
  Pr  Pr12  1  0.333113  0.666887  0.453691  1
  Pr  Pr13  1  0.668476  0.331524  0.958775  1
  Pd  Pd14  1  0.375229  0.187986  0.191118  1
  Pd  Pd15  1  0.812014  0.624771  0.191118  1
  Pd  Pd16  1  0.187885  0.812115  0.691778  1
  Pd  Pd17  1  0.624330  0.812143  0.691378  1
  Pd  Pd18  1  0.187857  0.375670  0.691378  1
  Rh  Rh19  1  0.812131  0.187869  0.193541  1
