# generated using pymatgen
data_YEr2CdSn3Ir2
_symmetry_space_group_name_H-M   'P 1'
_cell_length_a   7.66135579
_cell_length_b   7.68539545
_cell_length_c   3.94600700
_cell_angle_alpha   90.00000000
_cell_angle_beta   90.00000000
_cell_angle_gamma   120.11360885
_symmetry_Int_Tables_number   1
_chemical_formula_structural   YEr2CdSn3Ir2
_chemical_formula_sum   'Y1 Er2 Cd1 Sn3 Ir2'
_cell_volume   200.98424500
_cell_formula_units_Z   1
loop_
 _symmetry_equiv_pos_site_id
 _symmetry_equiv_pos_as_xyz
  1  'x, y, z'
loop_
 _atom_site_type_symbol
 _atom_site_label
 _atom_site_symmetry_multiplicity
 _atom_site_fract_x
 _atom_site_fract_y
 _atom_site_fract_z
 _atom_site_occupancy
  Y  Y0  1  0.384659  0.410036  0.500000  1
  Er  Er1  1  0.589249  0.971337  0.500000  1
  Er  Er2  1  0.028733  0.618365  0.500000  1
  Cd  Cd3  1  0.668251  0.333213  0.000000  1
  Sn  Sn4  1  0.743992  0.743664  0.000000  1
  Sn  Sn5  1  0.255766  0.999828  0.000000  1
  Sn  Sn6  1  0.998862  0.255374  0.000000  1
  Ir  Ir7  1  0.332424  0.670043  0.000000  1
  Ir  Ir8  1  0.998064  0.998141  0.500000  1
