# generated using pymatgen
data_NbCd2Hg2Sb3O14
_symmetry_space_group_name_H-M   'P 1'
_cell_length_a   7.35522914
_cell_length_b   7.42317214
_cell_length_c   7.47671815
_cell_angle_alpha   60.88054876
_cell_angle_beta   60.53606869
_cell_angle_gamma   60.30230896
_symmetry_Int_Tables_number   1
_chemical_formula_structural   NbCd2Hg2Sb3O14
_chemical_formula_sum   'Nb1 Cd2 Hg2 Sb3 O14'
_cell_volume   292.37802367
_cell_formula_units_Z   1
loop_
 _symmetry_equiv_pos_site_id
 _symmetry_equiv_pos_as_xyz
  1  'x, y, z'
loop_
 _atom_site_type_symbol
 _atom_site_label
 _atom_site_symmetry_multiplicity
 _atom_site_fract_x
 _atom_site_fract_y
 _atom_site_fract_z
 _atom_site_occupancy
  Nb  Nb0  1  0.625000  0.625000  0.125000  1
  Cd  Cd1  1  0.125000  0.125000  0.625000  1
  Cd  Cd2  1  0.125000  0.625000  0.125000  1
  Hg  Hg3  1  0.625000  0.125000  0.125000  1
  Hg  Hg4  1  0.125000  0.125000  0.125000  1
  Sb  Sb5  1  0.625000  0.125000  0.625000  1
  Sb  Sb6  1  0.125000  0.625000  0.625000  1
  Sb  Sb7  1  0.625000  0.625000  0.625000  1
  O  O8  1  0.252922  0.250093  0.244062  1
  O  O9  1  0.997078  0.999907  0.005938  1
  O  O10  1  0.545186  0.947421  0.557736  1
  O  O11  1  0.304969  0.687221  0.311443  1
  O  O12  1  0.553633  0.562779  0.938557  1
  O  O13  1  0.950767  0.549245  0.549222  1
  O  O14  1  0.561560  0.940228  0.936650  1
  O  O15  1  0.949658  0.947421  0.557736  1
  O  O16  1  0.945031  0.562779  0.938557  1
  O  O17  1  0.688440  0.309772  0.313350  1
  O  O18  1  0.299233  0.700755  0.700778  1
  O  O19  1  0.704814  0.302579  0.692264  1
  O  O20  1  0.300342  0.302579  0.692264  1
  O  O21  1  0.696367  0.687221  0.311443  1
