# generated using pymatgen
data_Mn2Sb12OsAu
_symmetry_space_group_name_H-M   'P 1'
_cell_length_a   8.23110126
_cell_length_b   8.21377373
_cell_length_c   8.22067400
_cell_angle_alpha   109.47152711
_cell_angle_beta   109.64061641
_cell_angle_gamma   109.64262343
_symmetry_Int_Tables_number   1
_chemical_formula_structural   Mn2Sb12OsAu
_chemical_formula_sum   'Mn2 Sb12 Os1 Au1'
_cell_volume   426.03320830
_cell_formula_units_Z   1
loop_
 _symmetry_equiv_pos_site_id
 _symmetry_equiv_pos_as_xyz
  1  'x, y, z'
loop_
 _atom_site_type_symbol
 _atom_site_label
 _atom_site_symmetry_multiplicity
 _atom_site_fract_x
 _atom_site_fract_y
 _atom_site_fract_z
 _atom_site_occupancy
  Mn  Mn0  1  0.000000  0.000000  0.500000  1
  Mn  Mn1  1  0.000000  0.500000  0.000000  1
  Sb  Sb2  1  0.155168  0.823982  0.665754  1
  Sb  Sb3  1  0.844832  0.176018  0.334246  1
  Sb  Sb4  1  0.859785  0.501187  0.667701  1
  Sb  Sb5  1  0.140215  0.498813  0.332299  1
  Sb  Sb6  1  0.824647  0.664025  0.158172  1
  Sb  Sb7  1  0.175353  0.335975  0.841828  1
  Sb  Sb8  1  0.504434  0.664000  0.858174  1
  Sb  Sb9  1  0.495566  0.336000  0.141826  1
  Sb  Sb10  1  0.668650  0.158275  0.824561  1
  Sb  Sb11  1  0.331350  0.841725  0.175439  1
  Sb  Sb12  1  0.666223  0.860361  0.501760  1
  Sb  Sb13  1  0.333777  0.139639  0.498240  1
  Os  Os14  1  0.500000  0.000000  0.000000  1
  Au  Au15  1  0.500000  0.500000  0.500000  1
