# generated using pymatgen
data_Nd8P(Pd7Pt)3
_symmetry_space_group_name_H-M   'P 1'
_cell_length_a   8.46836500
_cell_length_b   8.47869600
_cell_length_c   8.48772300
_cell_angle_alpha   90.00000000
_cell_angle_beta   90.00000000
_cell_angle_gamma   90.00000000
_symmetry_Int_Tables_number   1
_chemical_formula_structural   Nd8P(Pd7Pt)3
_chemical_formula_sum   'Nd8 P1 Pd21 Pt3'
_cell_volume   609.42438874
_cell_formula_units_Z   1
loop_
 _symmetry_equiv_pos_site_id
 _symmetry_equiv_pos_as_xyz
  1  'x, y, z'
loop_
 _atom_site_type_symbol
 _atom_site_label
 _atom_site_symmetry_multiplicity
 _atom_site_fract_x
 _atom_site_fract_y
 _atom_site_fract_z
 _atom_site_occupancy
  Nd  Nd0  1  0.253129  0.252369  0.252613  1
  Nd  Nd1  1  0.745889  0.745062  0.745403  1
  Nd  Nd2  1  0.745889  0.745062  0.254597  1
  Nd  Nd3  1  0.746871  0.252369  0.747387  1
  Nd  Nd4  1  0.253129  0.252369  0.747387  1
  Nd  Nd5  1  0.254111  0.745062  0.254597  1
  Nd  Nd6  1  0.254111  0.745062  0.745403  1
  Nd  Nd7  1  0.746871  0.252369  0.252613  1
  P  P8  1  0.000000  0.016753  0.000000  1
  Pd  Pd9  1  0.258069  0.500813  0.000000  1
  Pd  Pd10  1  0.741931  0.500813  0.000000  1
  Pd  Pd11  1  0.000000  0.257008  0.500000  1
  Pd  Pd12  1  0.500000  0.251833  0.000000  1
  Pd  Pd13  1  0.000000  0.740012  0.500000  1
  Pd  Pd14  1  0.500000  0.744137  0.000000  1
  Pd  Pd15  1  0.500000  0.999107  0.253034  1
  Pd  Pd16  1  0.259619  0.999878  0.500000  1
  Pd  Pd17  1  0.500000  0.999107  0.746966  1
  Pd  Pd18  1  0.740381  0.999878  0.500000  1
  Pd  Pd19  1  0.000000  0.500917  0.256188  1
  Pd  Pd20  1  0.000000  0.500917  0.743812  1
  Pd  Pd21  1  0.252840  0.498442  0.500000  1
  Pd  Pd22  1  0.747160  0.498442  0.500000  1
  Pd  Pd23  1  0.500000  0.251404  0.500000  1
  Pd  Pd24  1  0.500000  0.747560  0.500000  1
  Pd  Pd25  1  0.500000  0.498799  0.251668  1
  Pd  Pd26  1  0.500000  0.498799  0.748332  1
  Pd  Pd27  1  0.000000  0.732650  0.000000  1
  Pd  Pd28  1  0.000000  0.997345  0.280055  1
  Pd  Pd29  1  0.000000  0.997345  0.719945  1
  Pt  Pt30  1  0.272566  0.994959  0.000000  1
  Pt  Pt31  1  0.727434  0.994959  0.000000  1
  Pt  Pt32  1  0.000000  0.288403  0.000000  1
