# generated using pymatgen
data_DyY7(LuPb3)2
_symmetry_space_group_name_H-M   'P 1'
_cell_length_a   9.04117500
_cell_length_b   9.04117542
_cell_length_c   6.62358900
_cell_angle_alpha   90.00000000
_cell_angle_beta   90.00000000
_cell_angle_gamma   119.99999482
_symmetry_Int_Tables_number   1
_chemical_formula_structural   DyY7(LuPb3)2
_chemical_formula_sum   'Dy1 Y7 Lu2 Pb6'
_cell_volume   468.89305646
_cell_formula_units_Z   1
loop_
 _symmetry_equiv_pos_site_id
 _symmetry_equiv_pos_as_xyz
  1  'x, y, z'
loop_
 _atom_site_type_symbol
 _atom_site_label
 _atom_site_symmetry_multiplicity
 _atom_site_fract_x
 _atom_site_fract_y
 _atom_site_fract_z
 _atom_site_occupancy
  Dy  Dy0  1  0.666667  0.333333  0.500000  1
  Y  Y1  1  0.238468  0.238475  0.750797  1
  Y  Y2  1  0.238468  0.999993  0.249203  1
  Y  Y3  1  0.000007  0.761532  0.750797  1
  Y  Y4  1  0.761525  0.761532  0.249203  1
  Y  Y5  1  0.000007  0.238475  0.249203  1
  Y  Y6  1  0.761525  0.999993  0.750797  1
  Y  Y7  1  0.333333  0.666667  0.500000  1
  Lu  Lu8  1  0.333333  0.666667  0.000000  1
  Lu  Lu9  1  0.666667  0.333333  0.000000  1
  Pb  Pb10  1  0.999930  0.395635  0.752967  1
  Pb  Pb11  1  0.395705  0.395635  0.247033  1
  Pb  Pb12  1  0.604365  0.000070  0.247033  1
  Pb  Pb13  1  0.604365  0.604295  0.752967  1
  Pb  Pb14  1  0.395705  0.000070  0.752967  1
  Pb  Pb15  1  0.999930  0.604295  0.247033  1
