# generated using pymatgen
data_Zn2InCl5
_symmetry_space_group_name_H-M   'P 1'
_cell_length_a   11.16425127
_cell_length_b   11.16425154
_cell_length_c   11.16425100
_cell_angle_alpha   59.99999862
_cell_angle_beta   59.99999783
_cell_angle_gamma   59.99999764
_symmetry_Int_Tables_number   1
_chemical_formula_structural   Zn2InCl5
_chemical_formula_sum   'Zn8 In4 Cl20'
_cell_volume   983.95172136
_cell_formula_units_Z   4
loop_
 _symmetry_equiv_pos_site_id
 _symmetry_equiv_pos_as_xyz
  1  'x, y, z'
loop_
 _atom_site_type_symbol
 _atom_site_label
 _atom_site_symmetry_multiplicity
 _atom_site_fract_x
 _atom_site_fract_y
 _atom_site_fract_z
 _atom_site_occupancy
  Zn  Zn0  1  0.996543  0.334485  0.334485  1
  Zn  Zn1  1  0.334485  0.996543  0.334485  1
  Zn  Zn2  1  0.334485  0.334485  0.996543  1
  Zn  Zn3  1  0.334485  0.334485  0.334485  1
  Zn  Zn4  1  0.253457  0.915515  0.915515  1
  Zn  Zn5  1  0.915515  0.253457  0.915515  1
  Zn  Zn6  1  0.915515  0.915515  0.253457  1
  Zn  Zn7  1  0.915515  0.915515  0.915515  1
  In  In8  1  0.125000  0.625000  0.625000  1
  In  In9  1  0.625000  0.125000  0.625000  1
  In  In10  1  0.625000  0.625000  0.125000  1
  In  In11  1  0.625000  0.625000  0.625000  1
  Cl  Cl12  1  0.081111  0.081111  0.418889  1
  Cl  Cl13  1  0.418889  0.418889  0.081111  1
  Cl  Cl14  1  0.081111  0.418889  0.081111  1
  Cl  Cl15  1  0.418889  0.081111  0.418889  1
  Cl  Cl16  1  0.418889  0.081111  0.081111  1
  Cl  Cl17  1  0.081111  0.418889  0.418889  1
  Cl  Cl18  1  0.168889  0.168889  0.831111  1
  Cl  Cl19  1  0.831111  0.831111  0.168889  1
  Cl  Cl20  1  0.168889  0.831111  0.168889  1
  Cl  Cl21  1  0.831111  0.168889  0.831111  1
  Cl  Cl22  1  0.831111  0.168889  0.168889  1
  Cl  Cl23  1  0.168889  0.831111  0.831111  1
  Cl  Cl24  1  0.751078  0.416307  0.416307  1
  Cl  Cl25  1  0.416307  0.751078  0.416307  1
  Cl  Cl26  1  0.416307  0.416307  0.751078  1
  Cl  Cl27  1  0.416307  0.416307  0.416307  1
  Cl  Cl28  1  0.498922  0.833693  0.833693  1
  Cl  Cl29  1  0.833693  0.498922  0.833693  1
  Cl  Cl30  1  0.833693  0.833693  0.498922  1
  Cl  Cl31  1  0.833693  0.833693  0.833693  1
