# generated using pymatgen
data_Sm2Nb3Si7Pt9
_symmetry_space_group_name_H-M   'P 1'
_cell_length_a   9.90715900
_cell_length_b   9.90715979
_cell_length_c   4.04861200
_cell_angle_alpha   90.00000000
_cell_angle_beta   90.00000000
_cell_angle_gamma   120.00000069
_symmetry_Int_Tables_number   1
_chemical_formula_structural   Sm2Nb3Si7Pt9
_chemical_formula_sum   'Sm2 Nb3 Si7 Pt9'
_cell_volume   344.13994702
_cell_formula_units_Z   1
loop_
 _symmetry_equiv_pos_site_id
 _symmetry_equiv_pos_as_xyz
  1  'x, y, z'
loop_
 _atom_site_type_symbol
 _atom_site_label
 _atom_site_symmetry_multiplicity
 _atom_site_fract_x
 _atom_site_fract_y
 _atom_site_fract_z
 _atom_site_occupancy
  Sm  Sm0  1  0.000000  0.000000  0.000000  1
  Sm  Sm1  1  0.333333  0.666667  0.500000  1
  Nb  Nb2  1  0.881834  0.454689  0.500000  1
  Nb  Nb3  1  0.572856  0.118166  0.500000  1
  Nb  Nb4  1  0.545311  0.427144  0.500000  1
  Si  Si5  1  0.259097  0.214089  0.500000  1
  Si  Si6  1  0.785911  0.045010  0.500000  1
  Si  Si7  1  0.954990  0.740903  0.500000  1
  Si  Si8  1  0.554958  0.635809  0.000000  1
  Si  Si9  1  0.364191  0.919147  0.000000  1
  Si  Si10  1  0.080853  0.445042  0.000000  1
  Si  Si11  1  0.666667  0.333333  0.000000  1
  Pt  Pt12  1  0.225372  0.942826  0.500000  1
  Pt  Pt13  1  0.057174  0.282546  0.500000  1
  Pt  Pt14  1  0.717454  0.774628  0.500000  1
  Pt  Pt15  1  0.305186  0.407131  0.000000  1
  Pt  Pt16  1  0.592869  0.898055  0.000000  1
  Pt  Pt17  1  0.101945  0.694814  0.000000  1
  Pt  Pt18  1  0.387357  0.174399  0.000000  1
  Pt  Pt19  1  0.825601  0.212959  0.000000  1
  Pt  Pt20  1  0.787041  0.612643  0.000000  1
