# generated using pymatgen
data_GdDyAs4O9
_symmetry_space_group_name_H-M   'P 1'
_cell_length_a   6.79934729
_cell_length_b   7.57027707
_cell_length_c   9.85877647
_cell_angle_alpha   94.80152309
_cell_angle_beta   104.03316727
_cell_angle_gamma   104.85499371
_symmetry_Int_Tables_number   1
_chemical_formula_structural   GdDyAs4O9
_chemical_formula_sum   'Gd2 Dy2 As8 O18'
_cell_volume   470.06836381
_cell_formula_units_Z   2
loop_
 _symmetry_equiv_pos_site_id
 _symmetry_equiv_pos_as_xyz
  1  'x, y, z'
loop_
 _atom_site_type_symbol
 _atom_site_label
 _atom_site_symmetry_multiplicity
 _atom_site_fract_x
 _atom_site_fract_y
 _atom_site_fract_z
 _atom_site_occupancy
  Gd  Gd0  1  0.244184  0.939592  0.615472  1
  Gd  Gd1  1  0.755816  0.060408  0.384528  1
  Dy  Dy2  1  0.720101  0.529744  0.409123  1
  Dy  Dy3  1  0.279899  0.470256  0.590877  1
  As  As4  1  0.680891  0.774583  0.077243  1
  As  As5  1  0.319109  0.225417  0.922757  1
  As  As6  1  0.173026  0.752346  0.913316  1
  As  As7  1  0.826974  0.247654  0.086684  1
  As  As8  1  0.744097  0.914493  0.709514  1
  As  As9  1  0.255903  0.085507  0.290486  1
  As  As10  1  0.809399  0.351967  0.700884  1
  As  As11  1  0.190601  0.648033  0.299116  1
  O  O12  1  0.720170  0.746822  0.256548  1
  O  O13  1  0.279830  0.253178  0.743452  1
  O  O14  1  0.316509  0.979156  0.872117  1
  O  O15  1  0.683491  0.020844  0.127883  1
  O  O16  1  0.607008  0.322744  0.985493  1
  O  O17  1  0.392992  0.677256  0.014507  1
  O  O18  1  0.131469  0.646525  0.739632  1
  O  O19  1  0.868531  0.353475  0.260368  1
  O  O20  1  0.844360  0.870479  0.559795  1
  O  O21  1  0.155640  0.129521  0.440205  1
  O  O22  1  0.485248  0.767385  0.667027  1
  O  O23  1  0.514752  0.232615  0.332973  1
  O  O24  1  0.373645  0.535999  0.380895  1
  O  O25  1  0.626355  0.464001  0.619105  1
  O  O26  1  0.088003  0.666637  0.452640  1
  O  O27  1  0.911997  0.333363  0.547360  1
  O  O28  1  0.372500  0.899184  0.358911  1
  O  O29  1  0.627500  0.100816  0.641089  1
