# generated using pymatgen
data_Dy7HoSe12
_symmetry_space_group_name_H-M   'P 1'
_cell_length_a   7.09704339
_cell_length_b   7.09883821
_cell_length_c   12.94679239
_cell_angle_alpha   100.68263754
_cell_angle_beta   100.67811607
_cell_angle_gamma   108.91449576
_symmetry_Int_Tables_number   1
_chemical_formula_structural   Dy7HoSe12
_chemical_formula_sum   'Dy7 Ho1 Se12'
_cell_volume   584.84957904
_cell_formula_units_Z   1
loop_
 _symmetry_equiv_pos_site_id
 _symmetry_equiv_pos_as_xyz
  1  'x, y, z'
loop_
 _atom_site_type_symbol
 _atom_site_label
 _atom_site_symmetry_multiplicity
 _atom_site_fract_x
 _atom_site_fract_y
 _atom_site_fract_z
 _atom_site_occupancy
  Dy  Dy0  1  0.372177  0.622184  0.244346  1
  Dy  Dy1  1  0.877786  0.127792  0.255590  1
  Dy  Dy2  1  0.458918  0.208920  0.417861  1
  Dy  Dy3  1  0.541077  0.791075  0.582126  1
  Dy  Dy4  1  0.122227  0.872221  0.744433  1
  Dy  Dy5  1  0.627819  0.377812  0.755646  1
  Dy  Dy6  1  0.708953  0.958951  0.917922  1
  Ho  Ho7  1  0.291115  0.041104  0.082190  1
  Se  Se8  1  0.039295  0.282616  0.088020  1
  Se  Se9  1  0.548669  0.805496  0.087978  1
  Se  Se10  1  0.616746  0.366724  0.249777  1
  Se  Se11  1  0.133035  0.883017  0.249743  1
  Se  Se12  1  0.217025  0.461082  0.411947  1
  Se  Se13  1  0.694849  0.950913  0.411986  1
  Se  Se14  1  0.305168  0.049105  0.588023  1
  Se  Se15  1  0.782965  0.538909  0.588061  1
  Se  Se16  1  0.867115  0.117142  0.750014  1
  Se  Se17  1  0.382873  0.632873  0.749985  1
  Se  Se18  1  0.450704  0.194676  0.912201  1
  Se  Se19  1  0.961491  0.717392  0.912159  1
