# generated using pymatgen
data_Ac6OsI10
_symmetry_space_group_name_H-M   'P 1'
_cell_length_a   8.46884296
_cell_length_b   10.49761228
_cell_length_c   10.54789316
_cell_angle_alpha   107.78960363
_cell_angle_beta   97.44322553
_cell_angle_gamma   105.65131300
_symmetry_Int_Tables_number   1
_chemical_formula_structural   Ac6OsI10
_chemical_formula_sum   'Ac6 Os1 I10'
_cell_volume   836.49825279
_cell_formula_units_Z   1
loop_
 _symmetry_equiv_pos_site_id
 _symmetry_equiv_pos_as_xyz
  1  'x, y, z'
loop_
 _atom_site_type_symbol
 _atom_site_label
 _atom_site_symmetry_multiplicity
 _atom_site_fract_x
 _atom_site_fract_y
 _atom_site_fract_z
 _atom_site_occupancy
  Ac  Ac0  1  0.351508  0.128249  0.170440  1
  Ac  Ac1  1  0.648492  0.871751  0.829560  1
  Ac  Ac2  1  0.970170  0.286694  0.086239  1
  Ac  Ac3  1  0.029830  0.713306  0.913761  1
  Ac  Ac4  1  0.881464  0.956977  0.244812  1
  Ac  Ac5  1  0.118536  0.043023  0.755188  1
  Os  Os6  1  0.000000  0.000000  0.000000  1
  I  I7  1  0.356392  0.455792  0.273432  1
  I  I8  1  0.643608  0.544208  0.726568  1
  I  I9  1  0.786799  0.259828  0.347646  1
  I  I10  1  0.213201  0.740172  0.652354  1
  I  I11  1  0.547899  0.182483  0.910418  1
  I  I12  1  0.452101  0.817517  0.089582  1
  I  I13  1  0.739261  0.912217  0.538127  1
  I  I14  1  0.260739  0.087783  0.461873  1
  I  I15  1  0.913903  0.629367  0.179240  1
  I  I16  1  0.086097  0.370633  0.820760  1
