# generated using pymatgen
data_Sr4TbGd(PtO6)2
_symmetry_space_group_name_H-M   'P 1'
_cell_length_a   5.82043792
_cell_length_b   5.91623907
_cell_length_c   8.27449900
_cell_angle_alpha   89.99158418
_cell_angle_beta   90.42206081
_cell_angle_gamma   90.00246368
_symmetry_Int_Tables_number   1
_chemical_formula_structural   Sr4TbGd(PtO6)2
_chemical_formula_sum   'Sr4 Tb1 Gd1 Pt2 O12'
_cell_volume   284.92548477
_cell_formula_units_Z   1
loop_
 _symmetry_equiv_pos_site_id
 _symmetry_equiv_pos_as_xyz
  1  'x, y, z'
loop_
 _atom_site_type_symbol
 _atom_site_label
 _atom_site_symmetry_multiplicity
 _atom_site_fract_x
 _atom_site_fract_y
 _atom_site_fract_z
 _atom_site_occupancy
  Sr  Sr0  1  0.490122  0.459008  0.249945  1
  Sr  Sr1  1  0.009839  0.958867  0.249611  1
  Sr  Sr2  1  0.990160  0.041132  0.750388  1
  Sr  Sr3  1  0.509878  0.540992  0.750056  1
  Tb  Tb4  1  0.000000  0.499999  0.500000  1
  Gd  Gd5  1  0.500000  0.000000  0.000000  1
  Pt  Pt6  1  0.000000  0.499999  0.000000  1
  Pt  Pt7  1  0.500000  0.000000  0.500000  1
  O  O8  1  0.274136  0.698769  0.039493  1
  O  O9  1  0.194999  0.225986  0.042280  1
  O  O10  1  0.922821  0.522341  0.235863  1
  O  O11  1  0.577150  0.022395  0.265136  1
  O  O12  1  0.305281  0.724749  0.457492  1
  O  O13  1  0.224747  0.198603  0.460146  1
  O  O14  1  0.775254  0.801398  0.539855  1
  O  O15  1  0.694719  0.275252  0.542510  1
  O  O16  1  0.422851  0.977604  0.734864  1
  O  O17  1  0.077178  0.477656  0.764136  1
  O  O18  1  0.805000  0.774013  0.957722  1
  O  O19  1  0.725865  0.301232  0.960507  1
