# generated using pymatgen
data_KLi4Cu(ReH9)3
_symmetry_space_group_name_H-M   'P 1'
_cell_length_a   8.62339880
_cell_length_b   9.52835577
_cell_length_c   5.01711200
_cell_angle_alpha   90.00000000
_cell_angle_beta   90.00000000
_cell_angle_gamma   123.53670933
_symmetry_Int_Tables_number   1
_chemical_formula_structural   KLi4Cu(ReH9)3
_chemical_formula_sum   'K1 Li4 Cu1 Re3 H27'
_cell_volume   343.61532336
_cell_formula_units_Z   1
loop_
 _symmetry_equiv_pos_site_id
 _symmetry_equiv_pos_as_xyz
  1  'x, y, z'
loop_
 _atom_site_type_symbol
 _atom_site_label
 _atom_site_symmetry_multiplicity
 _atom_site_fract_x
 _atom_site_fract_y
 _atom_site_fract_z
 _atom_site_occupancy
  K  K0  1  0.000000  0.645404  0.000000  1
  Li  Li1  1  0.758041  0.845724  0.500000  1
  Li  Li2  1  0.241959  0.087682  0.500000  1
  Li  Li3  1  0.308631  0.422556  0.000000  1
  Li  Li4  1  0.691369  0.113925  0.000000  1
  Cu  Cu5  1  0.000000  0.425168  0.500000  1
  Re  Re6  1  0.642273  0.276588  0.500000  1
  Re  Re7  1  0.357727  0.634315  0.500000  1
  Re  Re8  1  0.000000  0.028319  0.000000  1
  H  H9  1  0.814173  0.302928  0.723829  1
  H  H10  1  0.630173  0.364102  0.781975  1
  H  H11  1  0.478080  0.130169  0.711495  1
  H  H12  1  0.185827  0.488755  0.276171  1
  H  H13  1  0.478080  0.130169  0.288505  1
  H  H14  1  0.814173  0.302928  0.276171  1
  H  H15  1  0.630173  0.364102  0.218025  1
  H  H16  1  0.369827  0.733930  0.781975  1
  H  H17  1  0.521920  0.652090  0.711495  1
  H  H18  1  0.199547  0.034530  0.000000  1
  H  H19  1  0.800453  0.834983  0.000000  1
  H  H20  1  0.000000  0.203366  0.000000  1
  H  H21  1  0.851642  0.023916  0.230166  1
  H  H22  1  0.148358  0.172274  0.769834  1
  H  H23  1  0.000000  0.908214  0.743984  1
  H  H24  1  0.000000  0.908214  0.256016  1
  H  H25  1  0.148358  0.172274  0.230166  1
  H  H26  1  0.851642  0.023916  0.769834  1
  H  H27  1  0.196840  0.688812  0.500000  1
  H  H28  1  0.526820  0.841361  0.500000  1
  H  H29  1  0.359848  0.458923  0.500000  1
  H  H30  1  0.473180  0.314541  0.500000  1
  H  H31  1  0.803160  0.491972  0.500000  1
  H  H32  1  0.640152  0.099075  0.500000  1
  H  H33  1  0.185827  0.488755  0.723829  1
  H  H34  1  0.369827  0.733930  0.218025  1
  H  H35  1  0.521920  0.652090  0.288505  1
