# generated using pymatgen
data_Sc4Co3Os3W2
_symmetry_space_group_name_H-M   'P 1'
_cell_length_a   5.25254406
_cell_length_b   5.23761606
_cell_length_c   8.08734500
_cell_angle_alpha   90.00000000
_cell_angle_beta   90.00000000
_cell_angle_gamma   119.90604903
_symmetry_Int_Tables_number   1
_chemical_formula_structural   Sc4Co3Os3W2
_chemical_formula_sum   'Sc4 Co3 Os3 W2'
_cell_volume   192.86363129
_cell_formula_units_Z   1
loop_
 _symmetry_equiv_pos_site_id
 _symmetry_equiv_pos_as_xyz
  1  'x, y, z'
loop_
 _atom_site_type_symbol
 _atom_site_label
 _atom_site_symmetry_multiplicity
 _atom_site_fract_x
 _atom_site_fract_y
 _atom_site_fract_z
 _atom_site_occupancy
  Sc  Sc0  1  0.333358  0.666679  0.437376  1
  Sc  Sc1  1  0.667053  0.333526  0.564736  1
  Sc  Sc2  1  0.667053  0.333526  0.935264  1
  Sc  Sc3  1  0.333358  0.666679  0.062624  1
  Co  Co4  1  0.174972  0.349079  0.750000  1
  Co  Co5  1  0.174972  0.825892  0.750000  1
  Co  Co6  1  0.343834  0.171917  0.250000  1
  Os  Os7  1  0.826939  0.652017  0.250000  1
  Os  Os8  1  0.644200  0.822099  0.750000  1
  Os  Os9  1  0.826939  0.174924  0.250000  1
  W  W10  1  0.003662  0.001831  0.992394  1
  W  W11  1  0.003662  0.001831  0.507606  1
