# generated using pymatgen
data_YbEu2PdPt
_symmetry_space_group_name_H-M   'P 1'
_cell_length_a   7.77210265
_cell_length_b   7.77210292
_cell_length_c   7.77210252
_cell_angle_alpha   70.67888533
_cell_angle_beta   70.67889119
_cell_angle_gamma   70.67889509
_symmetry_Int_Tables_number   1
_chemical_formula_structural   YbEu2PdPt
_chemical_formula_sum   'Yb3 Eu6 Pd3 Pt3'
_cell_volume   404.95866376
_cell_formula_units_Z   3
loop_
 _symmetry_equiv_pos_site_id
 _symmetry_equiv_pos_as_xyz
  1  'x, y, z'
loop_
 _atom_site_type_symbol
 _atom_site_label
 _atom_site_symmetry_multiplicity
 _atom_site_fract_x
 _atom_site_fract_y
 _atom_site_fract_z
 _atom_site_occupancy
  Yb  Yb0  1  0.001936  0.001936  0.001936  1
  Yb  Yb1  1  0.802588  0.802588  0.802588  1
  Yb  Yb2  1  0.193762  0.193762  0.193762  1
  Eu  Eu3  1  0.332651  0.603623  0.846261  1
  Eu  Eu4  1  0.846261  0.332651  0.603623  1
  Eu  Eu5  1  0.603623  0.846261  0.332651  1
  Eu  Eu6  1  0.668607  0.398198  0.154376  1
  Eu  Eu7  1  0.154376  0.668607  0.398198  1
  Eu  Eu8  1  0.398198  0.154376  0.668607  1
  Pd  Pd9  1  0.154211  0.960056  0.587962  1
  Pd  Pd10  1  0.587962  0.154211  0.960056  1
  Pd  Pd11  1  0.960056  0.587962  0.154211  1
  Pt  Pt12  1  0.843284  0.041647  0.410837  1
  Pt  Pt13  1  0.410837  0.843284  0.041647  1
  Pt  Pt14  1  0.041647  0.410837  0.843284  1
