# generated using pymatgen
data_Li2SmTmSi4
_symmetry_space_group_name_H-M   'P 1'
_cell_length_a   3.80294500
_cell_length_b   7.60680152
_cell_length_c   10.22243408
_cell_angle_alpha   89.87560376
_cell_angle_beta   90.00000000
_cell_angle_gamma   90.00000000
_symmetry_Int_Tables_number   1
_chemical_formula_structural   Li2SmTmSi4
_chemical_formula_sum   'Li4 Sm2 Tm2 Si8'
_cell_volume   295.71640917
_cell_formula_units_Z   2
loop_
 _symmetry_equiv_pos_site_id
 _symmetry_equiv_pos_as_xyz
  1  'x, y, z'
loop_
 _atom_site_type_symbol
 _atom_site_label
 _atom_site_symmetry_multiplicity
 _atom_site_fract_x
 _atom_site_fract_y
 _atom_site_fract_z
 _atom_site_occupancy
  Li  Li0  1  0.250000  0.992217  0.389576  1
  Li  Li1  1  0.750000  0.007783  0.610424  1
  Li  Li2  1  0.250000  0.488627  0.106064  1
  Li  Li3  1  0.750000  0.511373  0.893936  1
  Sm  Sm4  1  0.250000  0.641496  0.636130  1
  Sm  Sm5  1  0.750000  0.358504  0.363870  1
  Tm  Tm6  1  0.250000  0.135347  0.864416  1
  Tm  Tm7  1  0.750000  0.864653  0.135584  1
  Si  Si8  1  0.750000  0.263820  0.063426  1
  Si  Si9  1  0.250000  0.736180  0.936574  1
  Si  Si10  1  0.750000  0.773687  0.427070  1
  Si  Si11  1  0.250000  0.226313  0.572930  1
  Si  Si12  1  0.750000  0.845936  0.824339  1
  Si  Si13  1  0.250000  0.154064  0.175661  1
  Si  Si14  1  0.750000  0.338381  0.683478  1
  Si  Si15  1  0.250000  0.661619  0.316522  1
