# generated using pymatgen
data_Ca2Tb2Bi2Sb4Rh7
_symmetry_space_group_name_H-M   'P 1'
_cell_length_a   7.68262143
_cell_length_b   7.72346290
_cell_length_c   7.71464431
_cell_angle_alpha   109.67088725
_cell_angle_beta   109.17711296
_cell_angle_gamma   109.84862434
_symmetry_Int_Tables_number   1
_chemical_formula_structural   Ca2Tb2Bi2Sb4Rh7
_chemical_formula_sum   'Ca2 Tb2 Bi2 Sb4 Rh7'
_cell_volume   351.13780805
_cell_formula_units_Z   1
loop_
 _symmetry_equiv_pos_site_id
 _symmetry_equiv_pos_as_xyz
  1  'x, y, z'
loop_
 _atom_site_type_symbol
 _atom_site_label
 _atom_site_symmetry_multiplicity
 _atom_site_fract_x
 _atom_site_fract_y
 _atom_site_fract_z
 _atom_site_occupancy
  Ca  Ca0  1  0.478466  0.998553  0.999848  1
  Ca  Ca1  1  0.502828  0.500527  0.501354  1
  Tb  Tb2  1  0.001592  0.528710  0.000034  1
  Tb  Tb3  1  0.001184  0.999490  0.498235  1
  Bi  Bi4  1  0.995255  0.306239  0.298892  1
  Bi  Bi5  1  0.692264  0.003153  0.701149  1
  Sb  Sb6  1  0.671313  0.683788  0.996941  1
  Sb  Sb7  1  0.996259  0.670108  0.664239  1
  Sb  Sb8  1  0.335480  0.009568  0.335488  1
  Sb  Sb9  1  0.315024  0.321137  0.002876  1
  Rh  Rh10  1  0.021025  0.967967  0.001225  1
  Rh  Rh11  1  0.499490  0.751050  0.251099  1
  Rh  Rh12  1  0.748993  0.507648  0.243972  1
  Rh  Rh13  1  0.243568  0.751764  0.492647  1
  Rh  Rh14  1  0.242269  0.493202  0.749458  1
  Rh  Rh15  1  0.498221  0.256437  0.755558  1
  Rh  Rh16  1  0.756769  0.250661  0.506984  1
