# generated using pymatgen
data_Tm10Al5AsC8
_symmetry_space_group_name_H-M   'P 1'
_cell_length_a   10.70219700
_cell_length_b   10.70219700
_cell_length_c   3.46835400
_cell_angle_alpha   90.00000000
_cell_angle_beta   90.00000000
_cell_angle_gamma   90.00000000
_symmetry_Int_Tables_number   1
_chemical_formula_structural   Tm10Al5AsC8
_chemical_formula_sum   'Tm10 Al5 As1 C8'
_cell_volume   397.25493364
_cell_formula_units_Z   1
loop_
 _symmetry_equiv_pos_site_id
 _symmetry_equiv_pos_as_xyz
  1  'x, y, z'
loop_
 _atom_site_type_symbol
 _atom_site_label
 _atom_site_symmetry_multiplicity
 _atom_site_fract_x
 _atom_site_fract_y
 _atom_site_fract_z
 _atom_site_occupancy
  Tm  Tm0  1  0.548850  0.728086  0.500000  1
  Tm  Tm1  1  0.451150  0.271914  0.500000  1
  Tm  Tm2  1  0.051439  0.768446  0.500000  1
  Tm  Tm3  1  0.948561  0.231554  0.500000  1
  Tm  Tm4  1  0.271914  0.548850  0.500000  1
  Tm  Tm5  1  0.728086  0.451150  0.500000  1
  Tm  Tm6  1  0.231554  0.051439  0.500000  1
  Tm  Tm7  1  0.768446  0.948561  0.500000  1
  Tm  Tm8  1  0.500000  0.000000  0.000000  1
  Tm  Tm9  1  0.000000  0.500000  0.000000  1
  Al  Al10  1  0.710035  0.195177  0.000000  1
  Al  Al11  1  0.289965  0.804823  0.000000  1
  Al  Al12  1  0.195177  0.289965  0.000000  1
  Al  Al13  1  0.804823  0.710035  0.000000  1
  Al  Al14  1  0.000000  0.000000  0.000000  1
  As  As15  1  0.500000  0.500000  0.000000  1
  C  C16  1  0.627437  0.130265  0.500000  1
  C  C17  1  0.372563  0.869735  0.500000  1
  C  C18  1  0.130265  0.372563  0.500000  1
  C  C19  1  0.869735  0.627437  0.500000  1
  C  C20  1  0.166403  0.658980  0.000000  1
  C  C21  1  0.833597  0.341020  0.000000  1
  C  C22  1  0.658980  0.833597  0.000000  1
  C  C23  1  0.341020  0.166403  0.000000  1
