# generated using pymatgen
data_UClF5
_symmetry_space_group_name_H-M   'P 1'
_cell_length_a   6.41629012
_cell_length_b   6.59468564
_cell_length_c   6.37604124
_cell_angle_alpha   58.80003156
_cell_angle_beta   57.64983832
_cell_angle_gamma   56.04822619
_symmetry_Int_Tables_number   1
_chemical_formula_structural   UClF5
_chemical_formula_sum   'U1 Cl1 F5'
_cell_volume   179.57473665
_cell_formula_units_Z   1
loop_
 _symmetry_equiv_pos_site_id
 _symmetry_equiv_pos_as_xyz
  1  'x, y, z'
loop_
 _atom_site_type_symbol
 _atom_site_label
 _atom_site_symmetry_multiplicity
 _atom_site_fract_x
 _atom_site_fract_y
 _atom_site_fract_z
 _atom_site_occupancy
  U  U0  1  0.996204  0.990834  0.006296  1
  Cl  Cl1  1  0.136703  0.359316  0.756954  1
  F  F2  1  0.779470  0.107890  0.326029  1
  F  F3  1  0.674817  0.207352  0.890806  1
  F  F4  1  0.214207  0.870689  0.688248  1
  F  F5  1  0.880344  0.691105  0.210312  1
  F  F6  1  0.318254  0.772814  0.121353  1
