# generated using pymatgen
data_Dy5Cr3P12Ir13Ru2Rh
_symmetry_space_group_name_H-M   'P 1'
_cell_length_a   12.64103600
_cell_length_b   12.64103523
_cell_length_c   3.94569200
_cell_angle_alpha   90.00000000
_cell_angle_beta   90.00000000
_cell_angle_gamma   119.99999677
_symmetry_Int_Tables_number   1
_chemical_formula_structural   Dy5Cr3P12Ir13Ru2Rh
_chemical_formula_sum   'Dy5 Cr3 P12 Ir13 Ru2 Rh1'
_cell_volume   546.03331011
_cell_formula_units_Z   1
loop_
 _symmetry_equiv_pos_site_id
 _symmetry_equiv_pos_as_xyz
  1  'x, y, z'
loop_
 _atom_site_type_symbol
 _atom_site_label
 _atom_site_symmetry_multiplicity
 _atom_site_fract_x
 _atom_site_fract_y
 _atom_site_fract_z
 _atom_site_occupancy
  Dy  Dy0  1  0.334062  0.667537  0.500000  1
  Dy  Dy1  1  0.666557  0.333547  0.500000  1
  Dy  Dy2  1  0.999709  0.810923  0.000000  1
  Dy  Dy3  1  0.189432  0.188925  0.000000  1
  Dy  Dy4  1  0.809322  0.998527  0.000000  1
  Cr  Cr5  1  0.997450  0.450275  0.500000  1
  Cr  Cr6  1  0.548839  0.546910  0.500000  1
  Cr  Cr7  1  0.453328  0.004080  0.500000  1
  P  P8  1  0.004324  0.638097  0.500000  1
  P  P9  1  0.369051  0.369768  0.500000  1
  P  P10  1  0.632470  0.994797  0.500000  1
  P  P11  1  0.518929  0.688013  0.000000  1
  P  P12  1  0.311540  0.830881  0.000000  1
  P  P13  1  0.168672  0.483260  0.000000  1
  P  P14  1  0.483396  0.169630  0.000000  1
  P  P15  1  0.685281  0.517139  0.000000  1
  P  P16  1  0.831480  0.314103  0.000000  1
  P  P17  1  0.999488  0.176839  0.500000  1
  P  P18  1  0.818966  0.821563  0.500000  1
  P  P19  1  0.177780  0.996645  0.500000  1
  Ir  Ir20  1  0.508643  0.871213  0.000000  1
  Ir  Ir21  1  0.128138  0.638700  0.000000  1
  Ir  Ir22  1  0.360506  0.490918  0.000000  1
  Ir  Ir23  1  0.491185  0.360917  0.000000  1
  Ir  Ir24  1  0.867606  0.507442  0.000000  1
  Ir  Ir25  1  0.640400  0.132314  0.000000  1
  Ir  Ir26  1  0.000255  0.285174  0.000000  1
  Ir  Ir27  1  0.714952  0.713230  0.000000  1
  Ir  Ir28  1  0.286768  0.002154  0.000000  1
  Ir  Ir29  1  0.375389  0.181355  0.500000  1
  Ir  Ir30  1  0.805297  0.623838  0.500000  1
  Ir  Ir31  1  0.819913  0.194764  0.500000  1
  Ir  Ir32  1  0.000105  0.999051  0.500000  1
  Ru  Ru33  1  0.621695  0.800242  0.500000  1
  Ru  Ru34  1  0.199391  0.821483  0.500000  1
  Rh  Rh35  1  0.179681  0.375745  0.500000  1
