# generated using pymatgen
data_Ho4BBr6
_symmetry_space_group_name_H-M   'P 1'
_cell_length_a   3.94873100
_cell_length_b   13.12872900
_cell_length_c   13.59332100
_cell_angle_alpha   90.00000000
_cell_angle_beta   90.00000000
_cell_angle_gamma   90.00000000
_symmetry_Int_Tables_number   1
_chemical_formula_structural   Ho4BBr6
_chemical_formula_sum   'Ho8 B2 Br12'
_cell_volume   704.70248951
_cell_formula_units_Z   2
loop_
 _symmetry_equiv_pos_site_id
 _symmetry_equiv_pos_as_xyz
  1  'x, y, z'
loop_
 _atom_site_type_symbol
 _atom_site_label
 _atom_site_symmetry_multiplicity
 _atom_site_fract_x
 _atom_site_fract_y
 _atom_site_fract_z
 _atom_site_occupancy
  Ho  Ho0  1  0.000000  0.101311  0.080433  1
  Ho  Ho1  1  0.000000  0.898689  0.919567  1
  Ho  Ho2  1  0.000000  0.601311  0.419567  1
  Ho  Ho3  1  0.000000  0.398689  0.580433  1
  Ho  Ho4  1  0.500000  0.122374  0.856126  1
  Ho  Ho5  1  0.500000  0.877626  0.143874  1
  Ho  Ho6  1  0.500000  0.622374  0.643874  1
  Ho  Ho7  1  0.500000  0.377626  0.356126  1
  B  B8  1  0.500000  0.000000  0.000000  1
  B  B9  1  0.500000  0.500000  0.500000  1
  Br  Br10  1  0.500000  0.267532  0.682116  1
  Br  Br11  1  0.500000  0.732468  0.317884  1
  Br  Br12  1  0.500000  0.767532  0.817884  1
  Br  Br13  1  0.500000  0.232468  0.182116  1
  Br  Br14  1  0.000000  0.260853  0.930679  1
  Br  Br15  1  0.000000  0.739147  0.069321  1
  Br  Br16  1  0.000000  0.480229  0.239450  1
  Br  Br17  1  0.000000  0.519771  0.760550  1
  Br  Br18  1  0.000000  0.980229  0.260550  1
  Br  Br19  1  0.000000  0.019771  0.739450  1
  Br  Br20  1  0.000000  0.239147  0.430679  1
  Br  Br21  1  0.000000  0.760853  0.569321  1
