# generated using pymatgen
data_Ho5Mg2Nb(Co4P3)4
_symmetry_space_group_name_H-M   'P 1'
_cell_length_a   12.14376659
_cell_length_b   12.14376689
_cell_length_c   3.71083100
_cell_angle_alpha   90.00000000
_cell_angle_beta   90.00000000
_cell_angle_gamma   119.78896575
_symmetry_Int_Tables_number   1
_chemical_formula_structural   Ho5Mg2Nb(Co4P3)4
_chemical_formula_sum   'Ho5 Mg2 Nb1 Co16 P12'
_cell_volume   474.92852548
_cell_formula_units_Z   1
loop_
 _symmetry_equiv_pos_site_id
 _symmetry_equiv_pos_as_xyz
  1  'x, y, z'
loop_
 _atom_site_type_symbol
 _atom_site_label
 _atom_site_symmetry_multiplicity
 _atom_site_fract_x
 _atom_site_fract_y
 _atom_site_fract_z
 _atom_site_occupancy
  Ho  Ho0  1  0.814102  0.998517  0.500000  1
  Ho  Ho1  1  0.998517  0.814102  0.500000  1
  Ho  Ho2  1  0.183744  0.183744  0.500000  1
  Ho  Ho3  1  0.334438  0.665464  0.000000  1
  Ho  Ho4  1  0.665464  0.334438  0.000000  1
  Mg  Mg5  1  0.441637  0.999135  0.000000  1
  Mg  Mg6  1  0.999135  0.441637  0.000000  1
  Nb  Nb7  1  0.558094  0.558094  0.000000  1
  Co  Co8  1  0.281364  0.000383  0.500000  1
  Co  Co9  1  0.000383  0.281364  0.500000  1
  Co  Co10  1  0.720926  0.720926  0.500000  1
  Co  Co11  1  0.627927  0.804959  0.000000  1
  Co  Co12  1  0.198013  0.822577  0.000000  1
  Co  Co13  1  0.177732  0.376143  0.000000  1
  Co  Co14  1  0.376143  0.177732  0.000000  1
  Co  Co15  1  0.804959  0.627927  0.000000  1
  Co  Co16  1  0.822577  0.198013  0.000000  1
  Co  Co17  1  0.515859  0.871374  0.500000  1
  Co  Co18  1  0.123955  0.643364  0.500000  1
  Co  Co19  1  0.355758  0.480780  0.500000  1
  Co  Co20  1  0.480780  0.355758  0.500000  1
  Co  Co21  1  0.871374  0.515859  0.500000  1
  Co  Co22  1  0.643364  0.123955  0.500000  1
  Co  Co23  1  0.002340  0.002340  0.000000  1
  P  P24  1  0.180405  0.000172  0.000000  1
  P  P25  1  0.000172  0.180405  0.000000  1
  P  P26  1  0.822892  0.822892  0.000000  1
  P  P27  1  0.521465  0.690435  0.500000  1
  P  P28  1  0.307689  0.827217  0.500000  1
  P  P29  1  0.170926  0.480620  0.500000  1
  P  P30  1  0.480620  0.170926  0.500000  1
  P  P31  1  0.690435  0.521465  0.500000  1
  P  P32  1  0.827217  0.307689  0.500000  1
  P  P33  1  0.642736  0.000995  0.000000  1
  P  P34  1  0.000995  0.642736  0.000000  1
  P  P35  1  0.355862  0.355862  0.000000  1
