# generated using pymatgen
data_Sr4CrSbO8
_symmetry_space_group_name_H-M   'P 1'
_cell_length_a   6.94738770
_cell_length_b   6.94738738
_cell_length_c   5.63290400
_cell_angle_alpha   90.00000000
_cell_angle_beta   90.00000000
_cell_angle_gamma   131.99824989
_symmetry_Int_Tables_number   1
_chemical_formula_structural   Sr4CrSbO8
_chemical_formula_sum   'Sr4 Cr1 Sb1 O8'
_cell_volume   202.05090630
_cell_formula_units_Z   1
loop_
 _symmetry_equiv_pos_site_id
 _symmetry_equiv_pos_as_xyz
  1  'x, y, z'
loop_
 _atom_site_type_symbol
 _atom_site_label
 _atom_site_symmetry_multiplicity
 _atom_site_fract_x
 _atom_site_fract_y
 _atom_site_fract_z
 _atom_site_occupancy
  Sr  Sr0  1  0.351988  0.648012  0.000000  1
  Sr  Sr1  1  0.855643  0.144357  0.500000  1
  Sr  Sr2  1  0.144357  0.855643  0.500000  1
  Sr  Sr3  1  0.648012  0.351988  0.000000  1
  Cr  Cr4  1  0.000000  0.000000  0.000000  1
  Sb  Sb5  1  0.500000  0.500000  0.500000  1
  O  O6  1  0.161309  0.838691  0.000000  1
  O  O7  1  0.659486  0.340514  0.500000  1
  O  O8  1  0.340514  0.659486  0.500000  1
  O  O9  1  0.838691  0.161309  0.000000  1
  O  O10  1  0.250848  0.250848  0.253407  1
  O  O11  1  0.749152  0.749152  0.746593  1
  O  O12  1  0.250848  0.250848  0.746593  1
  O  O13  1  0.749152  0.749152  0.253407  1
