# generated using pymatgen
data_Tb4Fe7Ni9(P3W)4
_symmetry_space_group_name_H-M   'P 1'
_cell_length_a   3.72646700
_cell_length_b   10.45588745
_cell_length_c   12.03036077
_cell_angle_alpha   89.92192616
_cell_angle_beta   90.00000000
_cell_angle_gamma   90.00000000
_symmetry_Int_Tables_number   1
_chemical_formula_structural   Tb4Fe7Ni9(P3W)4
_chemical_formula_sum   'Tb4 Fe7 Ni9 P12 W4'
_cell_volume   468.74476156
_cell_formula_units_Z   1
loop_
 _symmetry_equiv_pos_site_id
 _symmetry_equiv_pos_as_xyz
  1  'x, y, z'
loop_
 _atom_site_type_symbol
 _atom_site_label
 _atom_site_symmetry_multiplicity
 _atom_site_fract_x
 _atom_site_fract_y
 _atom_site_fract_z
 _atom_site_occupancy
  Tb  Tb0  1  0.250000  0.578774  0.707385  1
  Tb  Tb1  1  0.250000  0.919619  0.208037  1
  Tb  Tb2  1  0.750000  0.419672  0.291580  1
  Tb  Tb3  1  0.750000  0.082549  0.792953  1
  Fe  Fe4  1  0.250000  0.619582  0.199962  1
  Fe  Fe5  1  0.750000  0.121608  0.300792  1
  Fe  Fe6  1  0.750000  0.379315  0.800568  1
  Fe  Fe7  1  0.250000  0.463620  0.934482  1
  Fe  Fe8  1  0.250000  0.036388  0.436084  1
  Fe  Fe9  1  0.750000  0.537079  0.065227  1
  Fe  Fe10  1  0.750000  0.963137  0.566889  1
  Ni  Ni11  1  0.250000  0.406083  0.486001  1
  Ni  Ni12  1  0.250000  0.094504  0.986603  1
  Ni  Ni13  1  0.750000  0.588247  0.510257  1
  Ni  Ni14  1  0.750000  0.907697  0.012847  1
  Ni  Ni15  1  0.250000  0.226150  0.174634  1
  Ni  Ni16  1  0.250000  0.275660  0.675208  1
  Ni  Ni17  1  0.750000  0.774650  0.823432  1
  Ni  Ni18  1  0.750000  0.726478  0.324616  1
  Ni  Ni19  1  0.250000  0.882094  0.701639  1
  P  P20  1  0.250000  0.429525  0.113209  1
  P  P21  1  0.250000  0.075149  0.612594  1
  P  P22  1  0.750000  0.571782  0.886589  1
  P  P23  1  0.750000  0.929326  0.386443  1
  P  P24  1  0.250000  0.272890  0.863596  1
  P  P25  1  0.250000  0.227927  0.362890  1
  P  P26  1  0.750000  0.728253  0.137273  1
  P  P27  1  0.750000  0.763852  0.631651  1
  P  P28  1  0.250000  0.598917  0.386521  1
  P  P29  1  0.250000  0.901578  0.891025  1
  P  P30  1  0.750000  0.400701  0.612665  1
  P  P31  1  0.750000  0.098872  0.113148  1
  W  W32  1  0.250000  0.704041  0.989081  1
  W  W33  1  0.250000  0.793714  0.489622  1
  W  W34  1  0.750000  0.295061  0.012686  1
  W  W35  1  0.750000  0.205504  0.511814  1
