# generated using pymatgen
data_TbCe4Y3(AlRh)8
_symmetry_space_group_name_H-M   'P 1'
_cell_length_a   4.20763600
_cell_length_b   7.02318817
_cell_length_c   15.91340418
_cell_angle_alpha   90.10888719
_cell_angle_beta   90.00000000
_cell_angle_gamma   90.00000000
_symmetry_Int_Tables_number   1
_chemical_formula_structural   TbCe4Y3(AlRh)8
_chemical_formula_sum   'Tb1 Ce4 Y3 Al8 Rh8'
_cell_volume   470.25646627
_cell_formula_units_Z   1
loop_
 _symmetry_equiv_pos_site_id
 _symmetry_equiv_pos_as_xyz
  1  'x, y, z'
loop_
 _atom_site_type_symbol
 _atom_site_label
 _atom_site_symmetry_multiplicity
 _atom_site_fract_x
 _atom_site_fract_y
 _atom_site_fract_z
 _atom_site_occupancy
  Tb  Tb0  1  0.250000  0.158553  0.559634  1
  Ce  Ce1  1  0.250000  0.033215  0.779342  1
  Ce  Ce2  1  0.750000  0.966487  0.220574  1
  Ce  Ce3  1  0.250000  0.533200  0.720643  1
  Ce  Ce4  1  0.750000  0.466578  0.279391  1
  Y  Y5  1  0.750000  0.841277  0.440590  1
  Y  Y6  1  0.250000  0.658710  0.940711  1
  Y  Y7  1  0.750000  0.341268  0.059329  1
  Al  Al8  1  0.250000  0.137466  0.353410  1
  Al  Al9  1  0.750000  0.862273  0.646903  1
  Al  Al10  1  0.250000  0.637019  0.146413  1
  Al  Al11  1  0.750000  0.362742  0.853665  1
  Al  Al12  1  0.250000  0.006603  0.061053  1
  Al  Al13  1  0.750000  0.993400  0.938815  1
  Al  Al14  1  0.250000  0.506651  0.438747  1
  Al  Al15  1  0.750000  0.494474  0.561202  1
  Rh  Rh16  1  0.750000  0.276438  0.427526  1
  Rh  Rh17  1  0.250000  0.724313  0.572526  1
  Rh  Rh18  1  0.750000  0.776089  0.072367  1
  Rh  Rh19  1  0.250000  0.223659  0.927540  1
  Rh  Rh20  1  0.750000  0.744521  0.812767  1
  Rh  Rh21  1  0.250000  0.255004  0.187308  1
  Rh  Rh22  1  0.750000  0.245187  0.686674  1
  Rh  Rh23  1  0.250000  0.754873  0.312870  1
