# generated using pymatgen
data_Nd2Mg2Co5(P2Rh)3
_symmetry_space_group_name_H-M   'P 1'
_cell_length_a   3.79507300
_cell_length_b   10.72530400
_cell_length_c   12.54150500
_cell_angle_alpha   90.00000000
_cell_angle_beta   90.00000000
_cell_angle_gamma   90.00000000
_symmetry_Int_Tables_number   1
_chemical_formula_structural   Nd2Mg2Co5(P2Rh)3
_chemical_formula_sum   'Nd4 Mg4 Co10 P12 Rh6'
_cell_volume   510.48078629
_cell_formula_units_Z   2
loop_
 _symmetry_equiv_pos_site_id
 _symmetry_equiv_pos_as_xyz
  1  'x, y, z'
loop_
 _atom_site_type_symbol
 _atom_site_label
 _atom_site_symmetry_multiplicity
 _atom_site_fract_x
 _atom_site_fract_y
 _atom_site_fract_z
 _atom_site_occupancy
  Nd  Nd0  1  0.250000  0.582676  0.710064  1
  Nd  Nd1  1  0.250000  0.917324  0.210064  1
  Nd  Nd2  1  0.750000  0.421403  0.290767  1
  Nd  Nd3  1  0.750000  0.078597  0.790767  1
  Mg  Mg4  1  0.250000  0.704680  0.992575  1
  Mg  Mg5  1  0.250000  0.795320  0.492575  1
  Mg  Mg6  1  0.750000  0.295667  0.010473  1
  Mg  Mg7  1  0.750000  0.204333  0.510473  1
  Co  Co8  1  0.750000  0.780112  0.822882  1
  Co  Co9  1  0.750000  0.719888  0.322882  1
  Co  Co10  1  0.250000  0.879951  0.696003  1
  Co  Co11  1  0.250000  0.620049  0.196003  1
  Co  Co12  1  0.750000  0.115776  0.307690  1
  Co  Co13  1  0.750000  0.384224  0.807690  1
  Co  Co14  1  0.250000  0.469275  0.935114  1
  Co  Co15  1  0.250000  0.030725  0.435114  1
  Co  Co16  1  0.750000  0.535982  0.064737  1
  Co  Co17  1  0.750000  0.964018  0.564737  1
  P  P18  1  0.250000  0.432919  0.111983  1
  P  P19  1  0.250000  0.067081  0.611983  1
  P  P20  1  0.750000  0.575636  0.886189  1
  P  P21  1  0.750000  0.924364  0.386189  1
  P  P22  1  0.250000  0.279258  0.861102  1
  P  P23  1  0.250000  0.220742  0.361102  1
  P  P24  1  0.750000  0.721341  0.145112  1
  P  P25  1  0.750000  0.778659  0.645112  1
  P  P26  1  0.250000  0.604755  0.377641  1
  P  P27  1  0.250000  0.895245  0.877641  1
  P  P28  1  0.750000  0.405571  0.616880  1
  P  P29  1  0.750000  0.094429  0.116880  1
  Rh  Rh30  1  0.250000  0.404415  0.479818  1
  Rh  Rh31  1  0.250000  0.095585  0.979818  1
  Rh  Rh32  1  0.750000  0.602807  0.515653  1
  Rh  Rh33  1  0.750000  0.897193  0.015653  1
  Rh  Rh34  1  0.250000  0.219670  0.175316  1
  Rh  Rh35  1  0.250000  0.280330  0.675316  1
