# generated using pymatgen
data_PrNd11Os(PtBr4)3
_symmetry_space_group_name_H-M   'P 1'
_cell_length_a   10.64537643
_cell_length_b   10.50056907
_cell_length_c   10.50869050
_cell_angle_alpha   109.21300618
_cell_angle_beta   109.77549644
_cell_angle_gamma   109.65438165
_symmetry_Int_Tables_number   1
_chemical_formula_structural   PrNd11Os(PtBr4)3
_chemical_formula_sum   'Pr1 Nd11 Os1 Pt3 Br12'
_cell_volume   901.68989090
_cell_formula_units_Z   1
loop_
 _symmetry_equiv_pos_site_id
 _symmetry_equiv_pos_as_xyz
  1  'x, y, z'
loop_
 _atom_site_type_symbol
 _atom_site_label
 _atom_site_symmetry_multiplicity
 _atom_site_fract_x
 _atom_site_fract_y
 _atom_site_fract_z
 _atom_site_occupancy
  Pr  Pr0  1  0.238943  0.267728  0.758229  1
  Nd  Nd1  1  0.470793  0.490288  0.232234  1
  Nd  Nd2  1  0.750085  0.234868  0.265332  1
  Nd  Nd3  1  0.749694  0.014212  0.485411  1
  Nd  Nd4  1  0.235703  0.471420  0.485222  1
  Nd  Nd5  1  0.261364  0.741497  0.231320  1
  Nd  Nd6  1  0.029406  0.268155  0.010092  1
  Nd  Nd7  1  0.014834  0.029599  0.264498  1
  Nd  Nd8  1  0.480435  0.741958  0.010174  1
  Nd  Nd9  1  0.485028  0.235230  0.470125  1
  Nd  Nd10  1  0.019635  0.490318  0.758511  1
  Nd  Nd11  1  0.264298  0.014556  0.028906  1
  Os  Os12  1  0.250018  0.500539  0.000525  1
  Pt  Pt13  1  0.249979  0.250272  0.249835  1
  Pt  Pt14  1  0.499860  0.999573  0.249862  1
  Pt  Pt15  1  0.999481  0.250159  0.499805  1
  Br  Br16  1  0.250037  0.755063  0.745099  1
  Br  Br17  1  0.508628  0.504266  0.752302  1
  Br  Br18  1  0.992172  0.747624  0.996863  1
  Br  Br19  1  0.744622  0.249423  0.752322  1
  Br  Br20  1  0.993620  0.988959  0.745087  1
  Br  Br21  1  0.249960  0.996478  0.501615  1
  Br  Br22  1  0.752576  0.505227  0.502635  1
  Br  Br23  1  0.505779  0.249511  0.998075  1
  Br  Br24  1  0.755309  0.747592  0.250593  1
  Br  Br25  1  0.747419  0.997491  0.994831  1
  Br  Br26  1  0.995286  0.502999  0.250539  1
  Br  Br27  1  0.505036  0.754996  0.509957  1
