# generated using pymatgen
data_YbLu3(FeB4)4
_symmetry_space_group_name_H-M   'P 1'
_cell_length_a   5.84784819
_cell_length_b   11.30510330
_cell_length_c   3.32197300
_cell_angle_alpha   90.00000000
_cell_angle_beta   90.00000000
_cell_angle_gamma   90.07304228
_symmetry_Int_Tables_number   1
_chemical_formula_structural   YbLu3(FeB4)4
_chemical_formula_sum   'Yb1 Lu3 Fe4 B16'
_cell_volume   219.61721000
_cell_formula_units_Z   1
loop_
 _symmetry_equiv_pos_site_id
 _symmetry_equiv_pos_as_xyz
  1  'x, y, z'
loop_
 _atom_site_type_symbol
 _atom_site_label
 _atom_site_symmetry_multiplicity
 _atom_site_fract_x
 _atom_site_fract_y
 _atom_site_fract_z
 _atom_site_occupancy
  Yb  Yb0  1  0.127462  0.150414  0.000000  1
  Lu  Lu1  1  0.872813  0.850056  0.000000  1
  Lu  Lu2  1  0.627432  0.349011  0.000000  1
  Lu  Lu3  1  0.373006  0.650452  0.000000  1
  Fe  Fe4  1  0.134929  0.413067  0.000000  1
  Fe  Fe5  1  0.865205  0.589062  0.000000  1
  Fe  Fe6  1  0.633315  0.086702  0.000000  1
  Fe  Fe7  1  0.367066  0.910667  0.000000  1
  B  B8  1  0.477427  0.190932  0.500000  1
  B  B9  1  0.523930  0.808331  0.500000  1
  B  B10  1  0.975558  0.309465  0.500000  1
  B  B11  1  0.023558  0.691608  0.500000  1
  B  B12  1  0.283763  0.316408  0.500000  1
  B  B13  1  0.715645  0.684496  0.500000  1
  B  B14  1  0.782894  0.183984  0.500000  1
  B  B15  1  0.215325  0.815864  0.500000  1
  B  B16  1  0.362862  0.469017  0.500000  1
  B  B17  1  0.637505  0.531701  0.500000  1
  B  B18  1  0.862077  0.031101  0.500000  1
  B  B19  1  0.138032  0.967780  0.500000  1
  B  B20  1  0.387930  0.046055  0.500000  1
  B  B21  1  0.612161  0.953107  0.500000  1
  B  B22  1  0.887976  0.453679  0.500000  1
  B  B23  1  0.112130  0.547042  0.500000  1
