# generated using pymatgen
data_TbTmSc3Si3Ni
_symmetry_space_group_name_H-M   'P 1'
_cell_length_a   6.87894208
_cell_length_b   7.55699007
_cell_length_c   13.87618503
_cell_angle_alpha   90.00053322
_cell_angle_beta   89.99212520
_cell_angle_gamma   89.98447880
_symmetry_Int_Tables_number   1
_chemical_formula_structural   TbTmSc3Si3Ni
_chemical_formula_sum   'Tb4 Tm4 Sc12 Si12 Ni4'
_cell_volume   721.34091517
_cell_formula_units_Z   4
loop_
 _symmetry_equiv_pos_site_id
 _symmetry_equiv_pos_as_xyz
  1  'x, y, z'
loop_
 _atom_site_type_symbol
 _atom_site_label
 _atom_site_symmetry_multiplicity
 _atom_site_fract_x
 _atom_site_fract_y
 _atom_site_fract_z
 _atom_site_occupancy
  Tb  Tb0  1  0.505537  0.319753  0.091061  1
  Tb  Tb1  1  0.005458  0.179774  0.409015  1
  Tb  Tb2  1  0.505818  0.319849  0.408294  1
  Tb  Tb3  1  0.494431  0.680454  0.591687  1
  Tm  Tm4  1  0.005667  0.180691  0.091453  1
  Tm  Tm5  1  0.994580  0.818963  0.908587  1
  Tm  Tm6  1  0.494167  0.681409  0.907928  1
  Tm  Tm7  1  0.994306  0.819068  0.591990  1
  Sc  Sc8  1  0.177594  0.507130  0.750395  1
  Sc  Sc9  1  0.822763  0.493611  0.249759  1
  Sc  Sc10  1  0.322022  0.006284  0.249599  1
  Sc  Sc11  1  0.678337  0.992942  0.750229  1
  Sc  Sc12  1  0.320522  0.169892  0.629947  1
  Sc  Sc13  1  0.679292  0.829427  0.370187  1
  Sc  Sc14  1  0.178663  0.670758  0.370170  1
  Sc  Sc15  1  0.679561  0.829655  0.129348  1
  Sc  Sc16  1  0.821217  0.329552  0.630135  1
  Sc  Sc17  1  0.320189  0.169999  0.870335  1
  Sc  Sc18  1  0.820987  0.329791  0.870310  1
  Sc  Sc19  1  0.178919  0.670882  0.129521  1
  Si  Si20  1  0.277479  0.872170  0.750534  1
  Si  Si21  1  0.721883  0.126778  0.249217  1
  Si  Si22  1  0.219907  0.372824  0.249468  1
  Si  Si23  1  0.779467  0.628206  0.750808  1
  Si  Si24  1  0.158685  0.466828  0.539796  1
  Si  Si25  1  0.841024  0.535466  0.460957  1
  Si  Si26  1  0.340099  0.965227  0.460922  1
  Si  Si27  1  0.840788  0.534529  0.039072  1
  Si  Si28  1  0.660795  0.033465  0.539763  1
  Si  Si29  1  0.160095  0.466848  0.960263  1
  Si  Si30  1  0.661073  0.032503  0.960231  1
  Si  Si31  1  0.338640  0.965243  0.039020  1
  Ni  Ni32  1  0.032273  0.103389  0.750004  1
  Ni  Ni33  1  0.967742  0.895863  0.249489  1
  Ni  Ni34  1  0.467464  0.604666  0.249984  1
  Ni  Ni35  1  0.532556  0.396111  0.750523  1
