# generated using pymatgen
data_Tm13Th3(CoHg)4
_symmetry_space_group_name_H-M   'P 1'
_cell_length_a   9.42694680
_cell_length_b   9.43586075
_cell_length_c   9.43575601
_cell_angle_alpha   59.99954131
_cell_angle_beta   59.96515684
_cell_angle_gamma   59.96954382
_symmetry_Int_Tables_number   1
_chemical_formula_structural   Tm13Th3(CoHg)4
_chemical_formula_sum   'Tm13 Th3 Co4 Hg4'
_cell_volume   593.19608715
_cell_formula_units_Z   1
loop_
 _symmetry_equiv_pos_site_id
 _symmetry_equiv_pos_as_xyz
  1  'x, y, z'
loop_
 _atom_site_type_symbol
 _atom_site_label
 _atom_site_symmetry_multiplicity
 _atom_site_fract_x
 _atom_site_fract_y
 _atom_site_fract_z
 _atom_site_occupancy
  Tm  Tm0  1  0.947718  0.350760  0.350768  1
  Tm  Tm1  1  0.813203  0.187965  0.187978  1
  Tm  Tm2  1  0.186864  0.813508  0.813505  1
  Tm  Tm3  1  0.186848  0.813510  0.186120  1
  Tm  Tm4  1  0.813210  0.187966  0.810857  1
  Tm  Tm5  1  0.186859  0.186119  0.813508  1
  Tm  Tm6  1  0.813197  0.810870  0.187970  1
  Tm  Tm7  1  0.935921  0.563945  0.563946  1
  Tm  Tm8  1  0.564373  0.935668  0.935647  1
  Tm  Tm9  1  0.564365  0.935678  0.564292  1
  Tm  Tm10  1  0.935934  0.563927  0.936209  1
  Tm  Tm11  1  0.564366  0.564298  0.935660  1
  Tm  Tm12  1  0.935908  0.936200  0.563947  1
  Th  Th13  1  0.343642  0.348388  0.348385  1
  Th  Th14  1  0.343647  0.348382  0.959596  1
  Th  Th15  1  0.343644  0.959594  0.348386  1
  Co  Co16  1  0.146815  0.140744  0.140732  1
  Co  Co17  1  0.146840  0.140738  0.571690  1
  Co  Co18  1  0.146812  0.571702  0.140739  1
  Co  Co19  1  0.569713  0.143425  0.143421  1
  Hg  Hg20  1  0.589924  0.584342  0.584349  1
  Hg  Hg21  1  0.589940  0.584342  0.241376  1
  Hg  Hg22  1  0.589926  0.241382  0.584351  1
  Hg  Hg23  1  0.240331  0.586550  0.586572  1
