# generated using pymatgen
data_La14IrRh5
_symmetry_space_group_name_H-M   'P 1'
_cell_length_a   6.49504331
_cell_length_b   10.25242583
_cell_length_c   10.25939782
_cell_angle_alpha   119.96364775
_cell_angle_beta   89.96803172
_cell_angle_gamma   90.00303306
_symmetry_Int_Tables_number   1
_chemical_formula_structural   La14IrRh5
_chemical_formula_sum   'La14 Ir1 Rh5'
_cell_volume   591.86148090
_cell_formula_units_Z   1
loop_
 _symmetry_equiv_pos_site_id
 _symmetry_equiv_pos_as_xyz
  1  'x, y, z'
loop_
 _atom_site_type_symbol
 _atom_site_label
 _atom_site_symmetry_multiplicity
 _atom_site_fract_x
 _atom_site_fract_y
 _atom_site_fract_z
 _atom_site_occupancy
  La  La0  1  0.469722  0.333022  0.666106  1
  La  La1  1  0.969483  0.666674  0.333324  1
  La  La2  1  0.250591  0.125242  0.874849  1
  La  La3  1  0.250647  0.749563  0.874837  1
  La  La4  1  0.251335  0.125538  0.251137  1
  La  La5  1  0.750303  0.875965  0.126086  1
  La  La6  1  0.750280  0.250186  0.126090  1
  La  La7  1  0.750564  0.874724  0.749373  1
  La  La8  1  0.438261  0.539455  0.459521  1
  La  La9  1  0.438069  0.920079  0.459552  1
  La  La10  1  0.437579  0.540086  0.080251  1
  La  La11  1  0.937335  0.459342  0.539688  1
  La  La12  1  0.937224  0.080307  0.539633  1
  La  La13  1  0.938138  0.460074  0.920062  1
  Ir  Ir14  1  0.688215  0.188768  0.377490  1
  Rh  Rh15  1  0.189013  0.810315  0.188858  1
  Rh  Rh16  1  0.189024  0.378544  0.188876  1
  Rh  Rh17  1  0.188918  0.811025  0.622074  1
  Rh  Rh18  1  0.688644  0.188933  0.811096  1
  Rh  Rh19  1  0.688653  0.622159  0.811096  1
