# generated using pymatgen
data_SmHo5PtI10
_symmetry_space_group_name_H-M   'P 1'
_cell_length_a   7.73536522
_cell_length_b   9.74345346
_cell_length_c   9.81270753
_cell_angle_alpha   107.25680825
_cell_angle_beta   96.86713259
_cell_angle_gamma   104.80355827
_symmetry_Int_Tables_number   1
_chemical_formula_structural   SmHo5PtI10
_chemical_formula_sum   'Sm1 Ho5 Pt1 I10'
_cell_volume   667.37860426
_cell_formula_units_Z   1
loop_
 _symmetry_equiv_pos_site_id
 _symmetry_equiv_pos_as_xyz
  1  'x, y, z'
loop_
 _atom_site_type_symbol
 _atom_site_label
 _atom_site_symmetry_multiplicity
 _atom_site_fract_x
 _atom_site_fract_y
 _atom_site_fract_z
 _atom_site_occupancy
  Sm  Sm0  1  0.883112  0.958406  0.244540  1
  Ho  Ho1  1  0.114718  0.040498  0.760111  1
  Ho  Ho2  1  0.347800  0.125593  0.164392  1
  Ho  Ho3  1  0.652936  0.875005  0.834785  1
  Ho  Ho4  1  0.971934  0.285755  0.085255  1
  Ho  Ho5  1  0.028643  0.714101  0.912152  1
  Pt  Pt6  1  0.000575  0.999956  0.999131  1
  I  I7  1  0.354188  0.452180  0.271986  1
  I  I8  1  0.645303  0.547894  0.728025  1
  I  I9  1  0.915930  0.623314  0.175849  1
  I  I10  1  0.085236  0.372262  0.820848  1
  I  I11  1  0.449798  0.816360  0.089166  1
  I  I12  1  0.546495  0.182076  0.908319  1
  I  I13  1  0.264559  0.089225  0.464812  1
  I  I14  1  0.739962  0.912632  0.541622  1
  I  I15  1  0.777722  0.262733  0.345417  1
  I  I16  1  0.221088  0.742010  0.653589  1
