# generated using pymatgen
data_SrYb4(ReN3)2
_symmetry_space_group_name_H-M   'P 1'
_cell_length_a   6.07168615
_cell_length_b   6.71427564
_cell_length_c   11.95861300
_cell_angle_alpha   90.00000000
_cell_angle_beta   103.68841387
_cell_angle_gamma   123.56735234
_symmetry_Int_Tables_number   1
_chemical_formula_structural   SrYb4(ReN3)2
_chemical_formula_sum   'Sr2 Yb8 Re4 N12'
_cell_volume   389.48986271
_cell_formula_units_Z   2
loop_
 _symmetry_equiv_pos_site_id
 _symmetry_equiv_pos_as_xyz
  1  'x, y, z'
loop_
 _atom_site_type_symbol
 _atom_site_label
 _atom_site_symmetry_multiplicity
 _atom_site_fract_x
 _atom_site_fract_y
 _atom_site_fract_z
 _atom_site_occupancy
  Sr  Sr0  1  0.000000  0.391123  0.750000  1
  Sr  Sr1  1  0.000000  0.608877  0.250000  1
  Yb  Yb2  1  0.105968  0.801537  0.001622  1
  Yb  Yb3  1  0.894032  0.695568  0.498378  1
  Yb  Yb4  1  0.894032  0.198463  0.998378  1
  Yb  Yb5  1  0.105968  0.304432  0.501622  1
  Yb  Yb6  1  0.329611  0.045071  0.729268  1
  Yb  Yb7  1  0.670389  0.715462  0.770732  1
  Yb  Yb8  1  0.670389  0.954929  0.270732  1
  Yb  Yb9  1  0.329611  0.284538  0.229268  1
  Re  Re10  1  0.524291  0.842857  0.530380  1
  Re  Re11  1  0.475709  0.318567  0.969620  1
  Re  Re12  1  0.475709  0.157143  0.469620  1
  Re  Re13  1  0.524291  0.681433  0.030380  1
  N  N14  1  0.893325  0.979027  0.620417  1
  N  N15  1  0.106675  0.085703  0.879583  1
  N  N16  1  0.106675  0.020973  0.379583  1
  N  N17  1  0.893325  0.914297  0.120417  1
  N  N18  1  0.275944  0.679243  0.621957  1
  N  N19  1  0.724056  0.403299  0.878043  1
  N  N20  1  0.724056  0.320757  0.378043  1
  N  N21  1  0.275944  0.596701  0.121957  1
  N  N22  1  0.556492  0.358219  0.604398  1
  N  N23  1  0.443508  0.801728  0.895602  1
  N  N24  1  0.443508  0.641781  0.395602  1
  N  N25  1  0.556492  0.198272  0.104398  1
