# generated using pymatgen
data_Mg2Fe10Co2P7
_symmetry_space_group_name_H-M   'P 1'
_cell_length_a   8.85647081
_cell_length_b   8.87072483
_cell_length_c   3.57487800
_cell_angle_alpha   90.00000000
_cell_angle_beta   90.00000000
_cell_angle_gamma   119.77652710
_symmetry_Int_Tables_number   1
_chemical_formula_structural   Mg2Fe10Co2P7
_chemical_formula_sum   'Mg2 Fe10 Co2 P7'
_cell_volume   243.77279294
_cell_formula_units_Z   1
loop_
 _symmetry_equiv_pos_site_id
 _symmetry_equiv_pos_as_xyz
  1  'x, y, z'
loop_
 _atom_site_type_symbol
 _atom_site_label
 _atom_site_symmetry_multiplicity
 _atom_site_fract_x
 _atom_site_fract_y
 _atom_site_fract_z
 _atom_site_occupancy
  Mg  Mg0  1  0.999463  0.998873  0.000000  1
  Mg  Mg1  1  0.333442  0.667610  0.500000  1
  Fe  Fe2  1  0.051890  0.769861  0.500000  1
  Fe  Fe3  1  0.714690  0.944831  0.500000  1
  Fe  Fe4  1  0.887013  0.428813  0.500000  1
  Fe  Fe5  1  0.546305  0.120371  0.500000  1
  Fe  Fe6  1  0.570603  0.453646  0.500000  1
  Fe  Fe7  1  0.388851  0.214675  0.000000  1
  Fe  Fe8  1  0.786470  0.175942  0.000000  1
  Fe  Fe9  1  0.821173  0.605620  0.000000  1
  Fe  Fe10  1  0.610373  0.707758  0.000000  1
  Fe  Fe11  1  0.294147  0.903504  0.000000  1
  Co  Co12  1  0.102072  0.395088  0.000000  1
  Co  Co13  1  0.227227  0.281573  0.500000  1
  P  P14  1  0.261471  0.043650  0.500000  1
  P  P15  1  0.952920  0.214209  0.500000  1
  P  P16  1  0.783646  0.736466  0.500000  1
  P  P17  1  0.374738  0.453820  0.000000  1
  P  P18  1  0.548251  0.921413  0.000000  1
  P  P19  1  0.079951  0.630877  0.000000  1
  P  P20  1  0.665307  0.331399  0.000000  1
