# generated using pymatgen
data_Nd4Ga4IrRh3
_symmetry_space_group_name_H-M   'P 1'
_cell_length_a   4.37472500
_cell_length_b   7.05848137
_cell_length_c   7.97328280
_cell_angle_alpha   90.22993451
_cell_angle_beta   90.00000000
_cell_angle_gamma   90.00000000
_symmetry_Int_Tables_number   1
_chemical_formula_structural   Nd4Ga4IrRh3
_chemical_formula_sum   'Nd4 Ga4 Ir1 Rh3'
_cell_volume   246.20433857
_cell_formula_units_Z   1
loop_
 _symmetry_equiv_pos_site_id
 _symmetry_equiv_pos_as_xyz
  1  'x, y, z'
loop_
 _atom_site_type_symbol
 _atom_site_label
 _atom_site_symmetry_multiplicity
 _atom_site_fract_x
 _atom_site_fract_y
 _atom_site_fract_z
 _atom_site_occupancy
  Nd  Nd0  1  0.250000  0.972986  0.310969  1
  Nd  Nd1  1  0.250000  0.470580  0.189126  1
  Nd  Nd2  1  0.750000  0.029413  0.688659  1
  Nd  Nd3  1  0.750000  0.528804  0.811405  1
  Ga  Ga4  1  0.250000  0.348467  0.570108  1
  Ga  Ga5  1  0.250000  0.848916  0.930351  1
  Ga  Ga6  1  0.750000  0.651280  0.430430  1
  Ga  Ga7  1  0.750000  0.150868  0.070569  1
  Ir  Ir8  1  0.750000  0.273245  0.389665  1
  Rh  Rh9  1  0.250000  0.226122  0.891050  1
  Rh  Rh10  1  0.250000  0.725976  0.609117  1
  Rh  Rh11  1  0.750000  0.773342  0.108552  1
