# generated using pymatgen
data_Dy8Lu2Ru3Rh
_symmetry_space_group_name_H-M   'P 1'
_cell_length_a   6.32770872
_cell_length_b   7.26977868
_cell_length_c   8.46529402
_cell_angle_alpha   96.78726330
_cell_angle_beta   111.99189669
_cell_angle_gamma   90.08697279
_symmetry_Int_Tables_number   1
_chemical_formula_structural   Dy8Lu2Ru3Rh
_chemical_formula_sum   'Dy8 Lu2 Ru3 Rh1'
_cell_volume   358.10359908
_cell_formula_units_Z   1
loop_
 _symmetry_equiv_pos_site_id
 _symmetry_equiv_pos_as_xyz
  1  'x, y, z'
loop_
 _atom_site_type_symbol
 _atom_site_label
 _atom_site_symmetry_multiplicity
 _atom_site_fract_x
 _atom_site_fract_y
 _atom_site_fract_z
 _atom_site_occupancy
  Dy  Dy0  1  0.523084  0.083703  0.814598  1
  Dy  Dy1  1  0.477755  0.918707  0.184789  1
  Dy  Dy2  1  0.709944  0.415079  0.184712  1
  Dy  Dy3  1  0.291136  0.584015  0.812297  1
  Dy  Dy4  1  0.296308  0.310716  0.433723  1
  Dy  Dy5  1  0.706514  0.687820  0.569913  1
  Dy  Dy6  1  0.863194  0.187712  0.567845  1
  Dy  Dy7  1  0.135255  0.814137  0.433679  1
  Lu  Lu8  1  0.076227  0.248028  0.998576  1
  Lu  Lu9  1  0.921336  0.750851  0.999464  1
  Ru  Ru10  1  0.679498  0.425799  0.781920  1
  Ru  Ru11  1  0.103207  0.924008  0.782836  1
  Ru  Ru12  1  0.899139  0.075012  0.217911  1
  Rh  Rh13  1  0.317403  0.574414  0.217738  1
