# generated using pymatgen
data_Hf16Nb4Si15Ge
_symmetry_space_group_name_H-M   'P 1'
_cell_length_a   6.77848254
_cell_length_b   6.95184424
_cell_length_c   13.37146106
_cell_angle_alpha   90.02992831
_cell_angle_beta   89.81876159
_cell_angle_gamma   90.00203651
_symmetry_Int_Tables_number   1
_chemical_formula_structural   Hf16Nb4Si15Ge
_chemical_formula_sum   'Hf16 Nb4 Si15 Ge1'
_cell_volume   630.09951633
_cell_formula_units_Z   1
loop_
 _symmetry_equiv_pos_site_id
 _symmetry_equiv_pos_as_xyz
  1  'x, y, z'
loop_
 _atom_site_type_symbol
 _atom_site_label
 _atom_site_symmetry_multiplicity
 _atom_site_fract_x
 _atom_site_fract_y
 _atom_site_fract_z
 _atom_site_occupancy
  Hf  Hf0  1  0.338200  0.675791  0.875921  1
  Hf  Hf1  1  0.837731  0.824692  0.875777  1
  Hf  Hf2  1  0.659877  0.328395  0.374418  1
  Hf  Hf3  1  0.998331  0.675825  0.094519  1
  Hf  Hf4  1  0.491889  0.820137  0.403043  1
  Hf  Hf5  1  0.501886  0.176195  0.904473  1
  Hf  Hf6  1  0.501373  0.179283  0.597283  1
  Hf  Hf7  1  0.002125  0.324236  0.905157  1
  Hf  Hf8  1  0.162964  0.175503  0.124090  1
  Hf  Hf9  1  0.161932  0.174280  0.375446  1
  Hf  Hf10  1  0.997753  0.673210  0.404582  1
  Hf  Hf11  1  0.662649  0.324900  0.124080  1
  Hf  Hf12  1  0.498251  0.824390  0.095175  1
  Hf  Hf13  1  0.004877  0.325682  0.596385  1
  Hf  Hf14  1  0.338441  0.674111  0.624725  1
  Hf  Hf15  1  0.841269  0.823343  0.625555  1
  Nb  Nb16  1  0.665695  0.501396  0.750239  1
  Nb  Nb17  1  0.165987  0.998922  0.750279  1
  Nb  Nb18  1  0.334491  0.498559  0.249735  1
  Nb  Nb19  1  0.834399  0.001813  0.248068  1
  Si  Si20  1  0.675501  0.531036  0.538612  1
  Si  Si21  1  0.172898  0.970374  0.960780  1
  Si  Si22  1  0.298245  0.360159  0.750996  1
  Si  Si23  1  0.827589  0.030069  0.038902  1
  Si  Si24  1  0.327305  0.469958  0.038784  1
  Si  Si25  1  0.460371  0.104468  0.249770  1
  Si  Si26  1  0.702236  0.641284  0.249151  1
  Si  Si27  1  0.960583  0.394788  0.249867  1
  Si  Si28  1  0.799087  0.140638  0.750337  1
  Si  Si29  1  0.673306  0.530178  0.961018  1
  Si  Si30  1  0.179530  0.969728  0.539417  1
  Si  Si31  1  0.040326  0.604485  0.750913  1
  Si  Si32  1  0.324313  0.468003  0.461792  1
  Si  Si33  1  0.540320  0.894986  0.749851  1
  Si  Si34  1  0.200089  0.859226  0.249511  1
  Ge  Ge35  1  0.818182  0.029958  0.461348  1
