# generated using pymatgen
data_Ta3Nb2Si(B2Ru5)2
_symmetry_space_group_name_H-M   'P 1'
_cell_length_a   2.99997500
_cell_length_b   9.36940730
_cell_length_c   9.37279730
_cell_angle_alpha   90.14305756
_cell_angle_beta   90.00000000
_cell_angle_gamma   90.00000000
_symmetry_Int_Tables_number   1
_chemical_formula_structural   Ta3Nb2Si(B2Ru5)2
_chemical_formula_sum   'Ta3 Nb2 Si1 B4 Ru10'
_cell_volume   263.44964985
_cell_formula_units_Z   1
loop_
 _symmetry_equiv_pos_site_id
 _symmetry_equiv_pos_as_xyz
  1  'x, y, z'
loop_
 _atom_site_type_symbol
 _atom_site_label
 _atom_site_symmetry_multiplicity
 _atom_site_fract_x
 _atom_site_fract_y
 _atom_site_fract_z
 _atom_site_occupancy
  Ta  Ta0  1  0.000000  0.821592  0.325258  1
  Ta  Ta1  1  0.000000  0.178408  0.674742  1
  Ta  Ta2  1  0.000000  0.000000  0.000000  1
  Nb  Nb3  1  0.000000  0.675074  0.821145  1
  Nb  Nb4  1  0.000000  0.324926  0.178855  1
  Si  Si5  1  0.000000  0.500000  0.500000  1
  B  B6  1  0.000000  0.870164  0.616307  1
  B  B7  1  0.000000  0.129836  0.383693  1
  B  B8  1  0.000000  0.616120  0.129732  1
  B  B9  1  0.000000  0.383880  0.870268  1
  Ru  Ru10  1  0.500000  0.710155  0.566044  1
  Ru  Ru11  1  0.500000  0.289845  0.433956  1
  Ru  Ru12  1  0.500000  0.779983  0.074007  1
  Ru  Ru13  1  0.500000  0.220017  0.925993  1
  Ru  Ru14  1  0.500000  0.567184  0.290367  1
  Ru  Ru15  1  0.500000  0.432816  0.709633  1
  Ru  Ru16  1  0.500000  0.072398  0.220358  1
  Ru  Ru17  1  0.500000  0.927602  0.779642  1
  Ru  Ru18  1  0.500000  0.000000  0.500000  1
  Ru  Ru19  1  0.500000  0.500000  0.000000  1
