# generated using pymatgen
data_La7Y(CdRu)2
_symmetry_space_group_name_H-M   'P 1'
_cell_length_a   10.00007579
_cell_length_b   10.08929387
_cell_length_c   10.00007660
_cell_angle_alpha   59.70442486
_cell_angle_beta   60.59114253
_cell_angle_gamma   59.70442705
_symmetry_Int_Tables_number   1
_chemical_formula_structural   La7Y(CdRu)2
_chemical_formula_sum   'La14 Y2 Cd4 Ru4'
_cell_volume   713.31705166
_cell_formula_units_Z   2
loop_
 _symmetry_equiv_pos_site_id
 _symmetry_equiv_pos_as_xyz
  1  'x, y, z'
loop_
 _atom_site_type_symbol
 _atom_site_label
 _atom_site_symmetry_multiplicity
 _atom_site_fract_x
 _atom_site_fract_y
 _atom_site_fract_z
 _atom_site_occupancy
  La  La0  1  0.440809  0.440809  0.059191  1
  La  La1  1  0.059191  0.059191  0.440809  1
  La  La2  1  0.440809  0.059191  0.059191  1
  La  La3  1  0.844532  0.850796  0.844532  1
  La  La4  1  0.685906  0.314094  0.314094  1
  La  La5  1  0.059191  0.440809  0.440809  1
  La  La6  1  0.314094  0.685906  0.685906  1
  La  La7  1  0.314094  0.314094  0.685906  1
  La  La8  1  0.850796  0.844532  0.460140  1
  La  La9  1  0.685906  0.685906  0.314094  1
  La  La10  1  0.460140  0.844532  0.850796  1
  La  La11  1  0.057203  0.442797  0.057203  1
  La  La12  1  0.844532  0.460140  0.844532  1
  La  La13  1  0.442797  0.057203  0.442797  1
  Y  Y14  1  0.309088  0.690912  0.309088  1
  Y  Y15  1  0.690912  0.309088  0.690912  1
  Cd  Cd16  1  0.080480  0.762759  0.080480  1
  Cd  Cd17  1  0.076280  0.080480  0.762759  1
  Cd  Cd18  1  0.762759  0.080480  0.076280  1
  Cd  Cd19  1  0.080480  0.076280  0.080480  1
  Ru  Ru20  1  0.634897  0.088294  0.634897  1
  Ru  Ru21  1  0.634897  0.641911  0.634897  1
  Ru  Ru22  1  0.641911  0.634897  0.088294  1
  Ru  Ru23  1  0.088294  0.634897  0.641911  1
