# generated using pymatgen
data_Pr8Mg4Zn4Ir7Rh
_symmetry_space_group_name_H-M   'P 1'
_cell_length_a   4.16215300
_cell_length_b   7.42838926
_cell_length_c   16.79351016
_cell_angle_alpha   90.08241810
_cell_angle_beta   90.00000000
_cell_angle_gamma   90.00000000
_symmetry_Int_Tables_number   1
_chemical_formula_structural   Pr8Mg4Zn4Ir7Rh
_chemical_formula_sum   'Pr8 Mg4 Zn4 Ir7 Rh1'
_cell_volume   519.22276609
_cell_formula_units_Z   1
loop_
 _symmetry_equiv_pos_site_id
 _symmetry_equiv_pos_as_xyz
  1  'x, y, z'
loop_
 _atom_site_type_symbol
 _atom_site_label
 _atom_site_symmetry_multiplicity
 _atom_site_fract_x
 _atom_site_fract_y
 _atom_site_fract_z
 _atom_site_occupancy
  Pr  Pr0  1  0.750000  0.453649  0.217741  1
  Pr  Pr1  1  0.750000  0.955427  0.283251  1
  Pr  Pr2  1  0.750000  0.838395  0.066097  1
  Pr  Pr3  1  0.250000  0.047216  0.715962  1
  Pr  Pr4  1  0.250000  0.162155  0.942915  1
  Pr  Pr5  1  0.250000  0.546735  0.783774  1
  Pr  Pr6  1  0.750000  0.337532  0.433959  1
  Pr  Pr7  1  0.250000  0.662824  0.557051  1
  Mg  Mg8  1  0.750000  0.503191  0.941592  1
  Mg  Mg9  1  0.750000  0.003033  0.558264  1
  Mg  Mg10  1  0.750000  0.371913  0.648154  1
  Mg  Mg11  1  0.750000  0.871969  0.851719  1
  Zn  Zn12  1  0.250000  0.997506  0.435839  1
  Zn  Zn13  1  0.250000  0.627435  0.349446  1
  Zn  Zn14  1  0.250000  0.497621  0.063950  1
  Zn  Zn15  1  0.250000  0.129856  0.151193  1
  Ir  Ir16  1  0.250000  0.244340  0.558670  1
  Ir  Ir17  1  0.750000  0.256711  0.067048  1
  Ir  Ir18  1  0.250000  0.245042  0.309578  1
  Ir  Ir19  1  0.750000  0.249960  0.813257  1
  Ir  Ir20  1  0.250000  0.745381  0.941878  1
  Ir  Ir21  1  0.750000  0.749781  0.686644  1
  Ir  Ir22  1  0.750000  0.756052  0.432527  1
  Rh  Rh23  1  0.250000  0.746277  0.189490  1
