# generated using pymatgen
data_Tb5Ho3(TcC2)4
_symmetry_space_group_name_H-M   'P 1'
_cell_length_a   5.11352600
_cell_length_b   6.57717381
_cell_length_c   9.88568122
_cell_angle_alpha   90.05694929
_cell_angle_beta   90.00000000
_cell_angle_gamma   90.00000000
_symmetry_Int_Tables_number   1
_chemical_formula_structural   Tb5Ho3(TcC2)4
_chemical_formula_sum   'Tb5 Ho3 Tc4 C8'
_cell_volume   332.48049674
_cell_formula_units_Z   1
loop_
 _symmetry_equiv_pos_site_id
 _symmetry_equiv_pos_as_xyz
  1  'x, y, z'
loop_
 _atom_site_type_symbol
 _atom_site_label
 _atom_site_symmetry_multiplicity
 _atom_site_fract_x
 _atom_site_fract_y
 _atom_site_fract_z
 _atom_site_occupancy
  Tb  Tb0  1  0.250000  0.467186  0.784333  1
  Tb  Tb1  1  0.750000  0.032782  0.284996  1
  Tb  Tb2  1  0.250000  0.967712  0.714767  1
  Tb  Tb3  1  0.750000  0.532326  0.215697  1
  Tb  Tb4  1  0.250000  0.821942  0.056800  1
  Ho  Ho5  1  0.750000  0.676050  0.557726  1
  Ho  Ho6  1  0.250000  0.323713  0.442502  1
  Ho  Ho7  1  0.750000  0.176625  0.941973  1
  Tc  Tc8  1  0.250000  0.281533  0.134494  1
  Tc  Tc9  1  0.750000  0.218610  0.634133  1
  Tc  Tc10  1  0.250000  0.781485  0.366260  1
  Tc  Tc11  1  0.750000  0.718623  0.865264  1
  C  C12  1  0.250000  0.178950  0.952182  1
  C  C13  1  0.750000  0.822572  0.047142  1
  C  C14  1  0.250000  0.677073  0.547859  1
  C  C15  1  0.750000  0.322904  0.452400  1
  C  C16  1  0.250000  0.049328  0.259241  1
  C  C17  1  0.750000  0.451183  0.758497  1
  C  C18  1  0.250000  0.548108  0.242505  1
  C  C19  1  0.750000  0.951294  0.741232  1
