# generated using pymatgen
data_Ti5SnGeSb2
_symmetry_space_group_name_H-M   'P 1'
_cell_length_a   8.24088902
_cell_length_b   8.25814875
_cell_length_c   5.55164500
_cell_angle_alpha   90.00000000
_cell_angle_beta   90.00000000
_cell_angle_gamma   120.06930674
_symmetry_Int_Tables_number   1
_chemical_formula_structural   Ti5SnGeSb2
_chemical_formula_sum   'Ti10 Sn2 Ge2 Sb4'
_cell_volume   326.96808180
_cell_formula_units_Z   2
loop_
 _symmetry_equiv_pos_site_id
 _symmetry_equiv_pos_as_xyz
  1  'x, y, z'
loop_
 _atom_site_type_symbol
 _atom_site_label
 _atom_site_symmetry_multiplicity
 _atom_site_fract_x
 _atom_site_fract_y
 _atom_site_fract_z
 _atom_site_occupancy
  Ti  Ti0  1  0.667519  0.334168  0.498637  1
  Ti  Ti1  1  0.332481  0.666650  0.498637  1
  Ti  Ti2  1  0.332481  0.666650  0.001363  1
  Ti  Ti3  1  0.667519  0.334168  0.001363  1
  Ti  Ti4  1  0.733292  0.732035  0.250000  1
  Ti  Ti5  1  0.266708  0.998744  0.250000  1
  Ti  Ti6  1  0.000000  0.269928  0.250000  1
  Ti  Ti7  1  0.264230  0.263584  0.750000  1
  Ti  Ti8  1  0.735770  0.999355  0.750000  1
  Ti  Ti9  1  0.000000  0.735181  0.750000  1
  Sn  Sn10  1  0.389813  0.389657  0.250000  1
  Sn  Sn11  1  0.610187  0.999844  0.250000  1
  Ge  Ge12  1  0.000000  0.001159  0.002758  1
  Ge  Ge13  1  0.000000  0.001159  0.497242  1
  Sb  Sb14  1  0.000000  0.608770  0.250000  1
  Sb  Sb15  1  0.604043  0.604983  0.750000  1
  Sb  Sb16  1  0.395957  0.000940  0.750000  1
  Sb  Sb17  1  0.000000  0.393026  0.750000  1
