# generated using pymatgen
data_Tb3Dy13MgIn3Ni4
_symmetry_space_group_name_H-M   'P 1'
_cell_length_a   9.62503134
_cell_length_b   9.59847448
_cell_length_c   9.59847500
_cell_angle_alpha   60.00000165
_cell_angle_beta   60.09123154
_cell_angle_gamma   60.09122314
_symmetry_Int_Tables_number   1
_chemical_formula_structural   Tb3Dy13MgIn3Ni4
_chemical_formula_sum   'Tb3 Dy13 Mg1 In3 Ni4'
_cell_volume   627.89798195
_cell_formula_units_Z   1
loop_
 _symmetry_equiv_pos_site_id
 _symmetry_equiv_pos_as_xyz
  1  'x, y, z'
loop_
 _atom_site_type_symbol
 _atom_site_label
 _atom_site_symmetry_multiplicity
 _atom_site_fract_x
 _atom_site_fract_y
 _atom_site_fract_z
 _atom_site_occupancy
  Tb  Tb0  1  0.348289  0.346626  0.346626  1
  Tb  Tb1  1  0.348289  0.346626  0.958458  1
  Tb  Tb2  1  0.348289  0.958458  0.346626  1
  Dy  Dy3  1  0.954888  0.348370  0.348370  1
  Dy  Dy4  1  0.810753  0.189075  0.189075  1
  Dy  Dy5  1  0.186267  0.813361  0.813361  1
  Dy  Dy6  1  0.186267  0.813361  0.187011  1
  Dy  Dy7  1  0.810753  0.189075  0.811097  1
  Dy  Dy8  1  0.186267  0.187011  0.813361  1
  Dy  Dy9  1  0.810753  0.811097  0.189075  1
  Dy  Dy10  1  0.935062  0.564610  0.564610  1
  Dy  Dy11  1  0.564151  0.936202  0.936202  1
  Dy  Dy12  1  0.564151  0.936202  0.563444  1
  Dy  Dy13  1  0.935062  0.564610  0.935717  1
  Dy  Dy14  1  0.564151  0.563444  0.936202  1
  Dy  Dy15  1  0.935062  0.935717  0.564610  1
  Mg  Mg16  1  0.267920  0.577360  0.577360  1
  In  In17  1  0.582151  0.582176  0.582176  1
  In  In18  1  0.582151  0.582176  0.253498  1
  In  In19  1  0.582151  0.253498  0.582176  1
  Ni  Ni20  1  0.140770  0.142262  0.142262  1
  Ni  Ni21  1  0.140770  0.142262  0.574707  1
  Ni  Ni22  1  0.140770  0.574707  0.142262  1
  Ni  Ni23  1  0.574864  0.141712  0.141712  1
