# generated using pymatgen
data_OsSCl9
_symmetry_space_group_name_H-M   'P 1'
_cell_length_a   8.86128376
_cell_length_b   8.86128375
_cell_length_c   8.86128342
_cell_angle_alpha   76.21152044
_cell_angle_beta   76.21151978
_cell_angle_gamma   76.21151108
_symmetry_Int_Tables_number   1
_chemical_formula_structural   OsSCl9
_chemical_formula_sum   'Os2 S2 Cl18'
_cell_volume   644.01316316
_cell_formula_units_Z   2
loop_
 _symmetry_equiv_pos_site_id
 _symmetry_equiv_pos_as_xyz
  1  'x, y, z'
loop_
 _atom_site_type_symbol
 _atom_site_label
 _atom_site_symmetry_multiplicity
 _atom_site_fract_x
 _atom_site_fract_y
 _atom_site_fract_z
 _atom_site_occupancy
  Os  Os0  1  0.500000  0.500000  0.500000  1
  Os  Os1  1  0.000000  0.000000  0.000000  1
  S  S2  1  0.705973  0.705973  0.705973  1
  S  S3  1  0.294027  0.294027  0.294027  1
  Cl  Cl4  1  0.028306  0.028306  0.727739  1
  Cl  Cl5  1  0.971694  0.971694  0.272261  1
  Cl  Cl6  1  0.971694  0.272261  0.971694  1
  Cl  Cl7  1  0.727739  0.028306  0.028306  1
  Cl  Cl8  1  0.028306  0.727739  0.028306  1
  Cl  Cl9  1  0.272261  0.971694  0.971694  1
  Cl  Cl10  1  0.372477  0.672379  0.672379  1
  Cl  Cl11  1  0.327621  0.627523  0.327621  1
  Cl  Cl12  1  0.627523  0.327621  0.327621  1
  Cl  Cl13  1  0.672379  0.372477  0.672379  1
  Cl  Cl14  1  0.327621  0.327621  0.627523  1
  Cl  Cl15  1  0.672379  0.672379  0.372477  1
  Cl  Cl16  1  0.056221  0.343734  0.343734  1
  Cl  Cl17  1  0.656266  0.943779  0.656266  1
  Cl  Cl18  1  0.943779  0.656266  0.656266  1
  Cl  Cl19  1  0.343734  0.056221  0.343734  1
  Cl  Cl20  1  0.343734  0.343734  0.056221  1
  Cl  Cl21  1  0.656266  0.656266  0.943779  1
