# generated using pymatgen
data_Sm2LuMg3PtPb2
_symmetry_space_group_name_H-M   'P 1'
_cell_length_a   7.52523301
_cell_length_b   7.52523313
_cell_length_c   4.55721000
_cell_angle_alpha   90.00000000
_cell_angle_beta   90.00000000
_cell_angle_gamma   119.40625755
_symmetry_Int_Tables_number   1
_chemical_formula_structural   Sm2LuMg3PtPb2
_chemical_formula_sum   'Sm2 Lu1 Mg3 Pt1 Pb2'
_cell_volume   224.82105142
_cell_formula_units_Z   1
loop_
 _symmetry_equiv_pos_site_id
 _symmetry_equiv_pos_as_xyz
  1  'x, y, z'
loop_
 _atom_site_type_symbol
 _atom_site_label
 _atom_site_symmetry_multiplicity
 _atom_site_fract_x
 _atom_site_fract_y
 _atom_site_fract_z
 _atom_site_occupancy
  Sm  Sm0  1  0.398158  0.000560  0.000000  1
  Sm  Sm1  1  0.000560  0.398158  0.000000  1
  Lu  Lu2  1  0.610489  0.610489  0.000000  1
  Mg  Mg3  1  0.998571  0.770883  0.500000  1
  Mg  Mg4  1  0.225876  0.225876  0.500000  1
  Mg  Mg5  1  0.770883  0.998571  0.500000  1
  Pt  Pt6  1  0.991690  0.991690  0.000000  1
  Pb  Pb7  1  0.338628  0.665144  0.500000  1
  Pb  Pb8  1  0.665144  0.338628  0.500000  1
