# generated using pymatgen
data_Mn14Cr7(ReC3)2
_symmetry_space_group_name_H-M   'P 1'
_cell_length_a   7.41323403
_cell_length_b   7.42467929
_cell_length_c   7.42757135
_cell_angle_alpha   60.13819143
_cell_angle_beta   60.06383417
_cell_angle_gamma   60.05097202
_symmetry_Int_Tables_number   1
_chemical_formula_structural   Mn14Cr7(ReC3)2
_chemical_formula_sum   'Mn14 Cr7 Re2 C6'
_cell_volume   289.63150992
_cell_formula_units_Z   1
loop_
 _symmetry_equiv_pos_site_id
 _symmetry_equiv_pos_as_xyz
  1  'x, y, z'
loop_
 _atom_site_type_symbol
 _atom_site_label
 _atom_site_symmetry_multiplicity
 _atom_site_fract_x
 _atom_site_fract_y
 _atom_site_fract_z
 _atom_site_occupancy
  Mn  Mn0  1  0.000459  0.000102  0.998980  1
  Mn  Mn1  1  0.616113  0.615612  0.152163  1
  Mn  Mn2  1  0.617208  0.151599  0.613986  1
  Mn  Mn3  1  0.151269  0.616391  0.616332  1
  Mn  Mn4  1  0.616009  0.616391  0.616332  1
  Mn  Mn5  1  0.383907  0.382973  0.849213  1
  Mn  Mn6  1  0.384378  0.849029  0.382214  1
  Mn  Mn7  1  0.848399  0.383480  0.383021  1
  Mn  Mn8  1  0.385098  0.383480  0.383021  1
  Mn  Mn9  1  0.999986  0.998727  0.339501  1
  Mn  Mn10  1  0.661786  0.998727  0.339501  1
  Mn  Mn11  1  0.997842  0.661832  0.342484  1
  Mn  Mn12  1  0.660564  0.339458  0.999275  1
  Mn  Mn13  1  0.000702  0.339458  0.999275  1
  Cr  Cr14  1  0.998214  0.341211  0.662362  1
  Cr  Cr15  1  0.339500  0.658448  0.001091  1
  Cr  Cr16  1  0.341961  0.000744  0.657105  1
  Cr  Cr17  1  0.337802  0.000996  0.001930  1
  Cr  Cr18  1  0.000190  0.000744  0.657105  1
  Cr  Cr19  1  0.000960  0.658448  0.001091  1
  Cr  Cr20  1  0.659273  0.000996  0.001930  1
  Re  Re21  1  0.748575  0.751366  0.751485  1
  Re  Re22  1  0.248956  0.250487  0.251601  1
  C  C23  1  0.723189  0.722895  0.279633  1
  C  C24  1  0.274283  0.722895  0.279633  1
  C  C25  1  0.726680  0.273667  0.272972  1
  C  C26  1  0.277890  0.279129  0.722955  1
  C  C27  1  0.720026  0.279129  0.722955  1
  C  C28  1  0.278783  0.721584  0.720850  1
