# generated using pymatgen
data_Ti4BeSnRh10
_symmetry_space_group_name_H-M   'P 1'
_cell_length_a   3.99668500
_cell_length_b   5.42237267
_cell_length_c   10.70112683
_cell_angle_alpha   91.12744472
_cell_angle_beta   90.00000000
_cell_angle_gamma   90.00000000
_symmetry_Int_Tables_number   1
_chemical_formula_structural   Ti4BeSnRh10
_chemical_formula_sum   'Ti4 Be1 Sn1 Rh10'
_cell_volume   231.86473873
_cell_formula_units_Z   1
loop_
 _symmetry_equiv_pos_site_id
 _symmetry_equiv_pos_as_xyz
  1  'x, y, z'
loop_
 _atom_site_type_symbol
 _atom_site_label
 _atom_site_symmetry_multiplicity
 _atom_site_fract_x
 _atom_site_fract_y
 _atom_site_fract_z
 _atom_site_occupancy
  Ti  Ti0  1  0.500000  0.324551  0.149765  1
  Ti  Ti1  1  0.500000  0.675449  0.850235  1
  Ti  Ti2  1  0.500000  0.817278  0.369107  1
  Ti  Ti3  1  0.500000  0.182722  0.630893  1
  Be  Be4  1  0.000000  0.500000  0.500000  1
  Sn  Sn5  1  0.000000  0.000000  0.000000  1
  Rh  Rh6  1  0.000000  0.000000  0.500000  1
  Rh  Rh7  1  0.000000  0.500000  0.000000  1
  Rh  Rh8  1  0.000000  0.071170  0.253150  1
  Rh  Rh9  1  0.000000  0.928830  0.746850  1
  Rh  Rh10  1  0.000000  0.567506  0.262764  1
  Rh  Rh11  1  0.000000  0.432494  0.737236  1
  Rh  Rh12  1  0.500000  0.316341  0.395899  1
  Rh  Rh13  1  0.500000  0.683659  0.604101  1
  Rh  Rh14  1  0.500000  0.792326  0.123238  1
  Rh  Rh15  1  0.500000  0.207674  0.876762  1
