# generated using pymatgen
data_Hf2TiGa2Ge
_symmetry_space_group_name_H-M   'P 1'
_cell_length_a   5.49188200
_cell_length_b   8.42503900
_cell_length_c   9.08430800
_cell_angle_alpha   90.00000000
_cell_angle_beta   90.00000000
_cell_angle_gamma   90.00000000
_symmetry_Int_Tables_number   1
_chemical_formula_structural   Hf2TiGa2Ge
_chemical_formula_sum   'Hf8 Ti4 Ga8 Ge4'
_cell_volume   420.32475413
_cell_formula_units_Z   4
loop_
 _symmetry_equiv_pos_site_id
 _symmetry_equiv_pos_as_xyz
  1  'x, y, z'
loop_
 _atom_site_type_symbol
 _atom_site_label
 _atom_site_symmetry_multiplicity
 _atom_site_fract_x
 _atom_site_fract_y
 _atom_site_fract_z
 _atom_site_occupancy
  Hf  Hf0  1  0.750000  0.473658  0.622843  1
  Hf  Hf1  1  0.250000  0.526342  0.377157  1
  Hf  Hf2  1  0.750000  0.973658  0.377157  1
  Hf  Hf3  1  0.250000  0.026342  0.622843  1
  Hf  Hf4  1  0.750000  0.367108  0.183897  1
  Hf  Hf5  1  0.250000  0.632892  0.816103  1
  Hf  Hf6  1  0.750000  0.867108  0.816103  1
  Hf  Hf7  1  0.250000  0.132892  0.183897  1
  Ti  Ti8  1  0.000000  0.750000  0.107261  1
  Ti  Ti9  1  0.500000  0.250000  0.892739  1
  Ti  Ti10  1  0.000000  0.250000  0.892739  1
  Ti  Ti11  1  0.500000  0.750000  0.107261  1
  Ga  Ga12  1  0.000000  0.750000  0.567845  1
  Ga  Ga13  1  0.500000  0.250000  0.432155  1
  Ga  Ga14  1  0.000000  0.250000  0.432155  1
  Ga  Ga15  1  0.500000  0.750000  0.567845  1
  Ga  Ga16  1  0.750000  0.137714  0.658528  1
  Ga  Ga17  1  0.250000  0.862286  0.341472  1
  Ga  Ga18  1  0.750000  0.637714  0.341472  1
  Ga  Ga19  1  0.250000  0.362286  0.658528  1
  Ge  Ge20  1  0.750000  0.046612  0.078355  1
  Ge  Ge21  1  0.250000  0.953388  0.921645  1
  Ge  Ge22  1  0.750000  0.546612  0.921645  1
  Ge  Ge23  1  0.250000  0.453388  0.078355  1
