# generated using pymatgen
data_Zr(S4Cl)4
_symmetry_space_group_name_H-M   'P 1'
_cell_length_a   11.85083119
_cell_length_b   12.55036744
_cell_length_c   12.86644101
_cell_angle_alpha   102.55822945
_cell_angle_beta   62.57851646
_cell_angle_gamma   118.17270696
_symmetry_Int_Tables_number   1
_chemical_formula_structural   Zr(S4Cl)4
_chemical_formula_sum   'Zr2 S32 Cl8'
_cell_volume   1497.40141491
_cell_formula_units_Z   2
loop_
 _symmetry_equiv_pos_site_id
 _symmetry_equiv_pos_as_xyz
  1  'x, y, z'
loop_
 _atom_site_type_symbol
 _atom_site_label
 _atom_site_symmetry_multiplicity
 _atom_site_fract_x
 _atom_site_fract_y
 _atom_site_fract_z
 _atom_site_occupancy
  Zr  Zr0  1  0.999164  0.000000  0.000000  1
  Zr  Zr1  1  0.249163  0.500000  0.500001  1
  S  S2  1  0.470754  0.213855  0.005661  1
  S  S3  1  0.384525  0.324620  0.008384  1
  S  S4  1  0.659006  0.317744  0.020636  1
  S  S5  1  0.332569  0.654501  0.143703  1
  S  S6  1  0.915339  0.639952  0.161140  1
  S  S7  1  0.545719  0.008424  0.189179  1
  S  S8  1  0.167525  0.487490  0.205160  1
  S  S9  1  0.873525  0.476580  0.214031  1
  S  S10  1  0.337557  0.976580  0.285969  1
  S  S11  1  0.622685  0.987490  0.294840  1
  S  S12  1  0.984899  0.508425  0.310821  1
  S  S13  1  0.326478  0.139951  0.338860  1
  S  S14  1  0.726274  0.154502  0.356297  1
  S  S15  1  0.929643  0.817745  0.479364  1
  S  S16  1  0.642909  0.824619  0.491617  1
  S  S17  1  0.726414  0.713855  0.494339  1
  S  S18  1  0.506900  0.286145  0.505661  1
  S  S19  1  0.309906  0.175380  0.508383  1
  S  S20  1  0.591261  0.182255  0.520636  1
  S  S21  1  0.928069  0.845499  0.643703  1
  S  S22  1  0.525387  0.860048  0.661139  1
  S  S23  1  0.787295  0.491576  0.689179  1
  S  S24  1  0.930036  0.012510  0.705159  1
  S  S25  1  0.646943  0.023419  0.714032  1
  S  S26  1  0.610976  0.523420  0.785969  1
  S  S27  1  0.885195  0.512510  0.794840  1
  S  S28  1  0.726473  0.991576  0.810821  1
  S  S29  1  0.436527  0.360049  0.838860  1
  S  S30  1  0.821772  0.345498  0.856297  1
  S  S31  1  0.361898  0.682255  0.979364  1
  S  S32  1  0.068290  0.675380  0.991617  1
  S  S33  1  0.262559  0.786145  0.994339  1
  Cl  Cl34  1  0.800765  0.823587  0.000384  1
  Cl  Cl35  1  0.031090  0.000421  0.166698  1
  Cl  Cl36  1  0.447787  0.500421  0.333303  1
  Cl  Cl37  1  0.051148  0.323587  0.499617  1
  Cl  Cl38  1  0.227176  0.676413  0.500384  1
  Cl  Cl39  1  0.280669  0.499579  0.666697  1
  Cl  Cl40  1  0.197367  0.999579  0.833303  1
  Cl  Cl41  1  0.977561  0.176413  0.999616  1
