# generated using pymatgen
data_Nd4DyPb3
_symmetry_space_group_name_H-M   'P 1'
_cell_length_a   9.33275700
_cell_length_b   9.33275925
_cell_length_c   6.86512500
_cell_angle_alpha   90.00013534
_cell_angle_beta   90.00013430
_cell_angle_gamma   119.99998892
_symmetry_Int_Tables_number   1
_chemical_formula_structural   Nd4DyPb3
_chemical_formula_sum   'Nd8 Dy2 Pb6'
_cell_volume   517.84424050
_cell_formula_units_Z   2
loop_
 _symmetry_equiv_pos_site_id
 _symmetry_equiv_pos_as_xyz
  1  'x, y, z'
loop_
 _atom_site_type_symbol
 _atom_site_label
 _atom_site_symmetry_multiplicity
 _atom_site_fract_x
 _atom_site_fract_y
 _atom_site_fract_z
 _atom_site_occupancy
  Nd  Nd0  1  0.666650  0.333325  0.999999  1
  Nd  Nd1  1  0.333324  0.666649  0.999999  1
  Nd  Nd2  1  0.759860  0.759859  0.251724  1
  Nd  Nd3  1  0.240148  0.000004  0.251727  1
  Nd  Nd4  1  0.000004  0.240148  0.251727  1
  Nd  Nd5  1  0.240143  0.240142  0.748275  1
  Nd  Nd6  1  0.759852  0.999997  0.748277  1
  Nd  Nd7  1  0.999997  0.759852  0.748277  1
  Dy  Dy8  1  0.666673  0.333342  0.499999  1
  Dy  Dy9  1  0.333341  0.666673  0.499999  1
  Pb  Pb10  1  0.602673  0.000002  0.256848  1
  Pb  Pb11  1  0.000002  0.602672  0.256848  1
  Pb  Pb12  1  0.397335  0.397334  0.256854  1
  Pb  Pb13  1  0.397331  0.000001  0.743149  1
  Pb  Pb14  1  0.000000  0.397330  0.743149  1
  Pb  Pb15  1  0.602670  0.602669  0.743149  1
