# generated using pymatgen
data_Tb8Tm11LuPb16
_symmetry_space_group_name_H-M   'P 1'
_cell_length_a   8.15995605
_cell_length_b   8.23660005
_cell_length_c   15.52938700
_cell_angle_alpha   90.00000000
_cell_angle_beta   90.00000000
_cell_angle_gamma   90.01318778
_symmetry_Int_Tables_number   1
_chemical_formula_structural   Tb8Tm11LuPb16
_chemical_formula_sum   'Tb8 Tm11 Lu1 Pb16'
_cell_volume   1043.73464571
_cell_formula_units_Z   1
loop_
 _symmetry_equiv_pos_site_id
 _symmetry_equiv_pos_as_xyz
  1  'x, y, z'
loop_
 _atom_site_type_symbol
 _atom_site_label
 _atom_site_symmetry_multiplicity
 _atom_site_fract_x
 _atom_site_fract_y
 _atom_site_fract_z
 _atom_site_occupancy
  Tb  Tb0  1  0.535138  0.322830  0.900309  1
  Tb  Tb1  1  0.035118  0.177172  0.599671  1
  Tb  Tb2  1  0.464827  0.677245  0.400318  1
  Tb  Tb3  1  0.964930  0.822888  0.099697  1
  Tb  Tb4  1  0.464827  0.677245  0.099682  1
  Tb  Tb5  1  0.964930  0.822888  0.400303  1
  Tb  Tb6  1  0.535138  0.322830  0.599691  1
  Tb  Tb7  1  0.035118  0.177172  0.900329  1
  Tm  Tm8  1  0.375996  0.841079  0.878776  1
  Tm  Tm9  1  0.876004  0.658903  0.621247  1
  Tm  Tm10  1  0.623869  0.158832  0.378757  1
  Tm  Tm11  1  0.124085  0.341032  0.121233  1
  Tm  Tm12  1  0.623869  0.158832  0.121243  1
  Tm  Tm13  1  0.124085  0.341032  0.378767  1
  Tm  Tm14  1  0.375996  0.841079  0.621224  1
  Tm  Tm15  1  0.876004  0.658903  0.878753  1
  Tm  Tm16  1  0.207443  0.505086  0.750000  1
  Tm  Tm17  1  0.707448  0.994942  0.750000  1
  Tm  Tm18  1  0.792565  0.494965  0.250000  1
  Lu  Lu19  1  0.292492  0.005163  0.250000  1
  Pb  Pb20  1  0.283284  0.034554  0.042937  1
  Pb  Pb21  1  0.783280  0.465452  0.457173  1
  Pb  Pb22  1  0.716709  0.965433  0.542812  1
  Pb  Pb23  1  0.216704  0.534552  0.957185  1
  Pb  Pb24  1  0.716709  0.965433  0.957188  1
  Pb  Pb25  1  0.216704  0.534552  0.542815  1
  Pb  Pb26  1  0.283284  0.034554  0.457063  1
  Pb  Pb27  1  0.783280  0.465452  0.042827  1
  Pb  Pb28  1  0.570441  0.628550  0.750000  1
  Pb  Pb29  1  0.070428  0.871465  0.750000  1
  Pb  Pb30  1  0.429513  0.371334  0.250000  1
  Pb  Pb31  1  0.929825  0.128345  0.250000  1
  Pb  Pb32  1  0.345833  0.152416  0.750000  1
  Pb  Pb33  1  0.845854  0.347518  0.750000  1
  Pb  Pb34  1  0.654122  0.847546  0.250000  1
  Pb  Pb35  1  0.154146  0.652727  0.250000  1
