# generated using pymatgen
data_LiDy8Y8Mg(HgPt2)2
_symmetry_space_group_name_H-M   'P 1'
_cell_length_a   9.68280090
_cell_length_b   9.70886003
_cell_length_c   9.71844600
_cell_angle_alpha   59.96734040
_cell_angle_beta   59.87815618
_cell_angle_gamma   60.00530591
_symmetry_Int_Tables_number   1
_chemical_formula_structural   LiDy8Y8Mg(HgPt2)2
_chemical_formula_sum   'Li1 Dy8 Y8 Mg1 Hg2 Pt4'
_cell_volume   645.29725657
_cell_formula_units_Z   1
loop_
 _symmetry_equiv_pos_site_id
 _symmetry_equiv_pos_as_xyz
  1  'x, y, z'
loop_
 _atom_site_type_symbol
 _atom_site_label
 _atom_site_symmetry_multiplicity
 _atom_site_fract_x
 _atom_site_fract_y
 _atom_site_fract_z
 _atom_site_occupancy
  Li  Li0  1  0.828585  0.819653  0.820029  1
  Dy  Dy1  1  0.603004  0.602009  0.600657  1
  Dy  Dy2  1  0.599736  0.599567  0.200787  1
  Dy  Dy3  1  0.602460  0.196115  0.599916  1
  Dy  Dy4  1  0.188133  0.604548  0.602162  1
  Dy  Dy5  1  0.056610  0.443550  0.444558  1
  Dy  Dy6  1  0.436943  0.064057  0.062125  1
  Dy  Dy7  1  0.439106  0.061036  0.441449  1
  Dy  Dy8  1  0.061187  0.439507  0.060486  1
  Y  Y9  1  0.440116  0.441406  0.060217  1
  Y  Y10  1  0.060799  0.062153  0.438612  1
  Y  Y11  1  0.186488  0.813946  0.814787  1
  Y  Y12  1  0.812788  0.187153  0.186133  1
  Y  Y13  1  0.812819  0.187737  0.815917  1
  Y  Y14  1  0.184916  0.814990  0.186398  1
  Y  Y15  1  0.813190  0.814962  0.188526  1
  Y  Y16  1  0.185479  0.187998  0.814548  1
  Mg  Mg17  1  0.525045  0.822518  0.824117  1
  Hg  Hg18  1  0.834097  0.840437  0.494102  1
  Hg  Hg19  1  0.833313  0.492953  0.841025  1
  Pt  Pt20  1  0.390765  0.394052  0.397240  1
  Pt  Pt21  1  0.391537  0.394278  0.817773  1
  Pt  Pt22  1  0.392580  0.820317  0.394878  1
  Pt  Pt23  1  0.820313  0.395061  0.393560  1
