# generated using pymatgen
data_CaTb4Y2NiI12
_symmetry_space_group_name_H-M   'P 1'
_cell_length_a   9.77727120
_cell_length_b   9.77510604
_cell_length_c   9.78190004
_cell_angle_alpha   106.87597160
_cell_angle_beta   106.82539051
_cell_angle_gamma   106.83732341
_symmetry_Int_Tables_number   1
_chemical_formula_structural   CaTb4Y2NiI12
_chemical_formula_sum   'Ca1 Tb4 Y2 Ni1 I12'
_cell_volume   781.83148323
_cell_formula_units_Z   1
loop_
 _symmetry_equiv_pos_site_id
 _symmetry_equiv_pos_as_xyz
  1  'x, y, z'
loop_
 _atom_site_type_symbol
 _atom_site_label
 _atom_site_symmetry_multiplicity
 _atom_site_fract_x
 _atom_site_fract_y
 _atom_site_fract_z
 _atom_site_occupancy
  Ca  Ca0  1  0.499964  0.500008  0.499961  1
  Tb  Tb1  1  0.974789  0.705259  0.903961  1
  Tb  Tb2  1  0.095724  0.024726  0.294753  1
  Tb  Tb3  1  0.294653  0.096009  0.024530  1
  Tb  Tb4  1  0.024410  0.294549  0.095532  1
  Y  Y5  1  0.904012  0.974993  0.705179  1
  Y  Y6  1  0.705131  0.904199  0.974660  1
  Ni  Ni7  1  0.000914  0.000160  0.000764  1
  I  I8  1  0.926582  0.320427  0.776130  1
  I  I9  1  0.776153  0.926632  0.321020  1
  I  I10  1  0.321511  0.776271  0.926697  1
  I  I11  1  0.073266  0.679087  0.223609  1
  I  I12  1  0.222892  0.073075  0.679116  1
  I  I13  1  0.679074  0.222935  0.073079  1
  I  I14  1  0.543326  0.850127  0.621024  1
  I  I15  1  0.620503  0.543175  0.849991  1
  I  I16  1  0.849751  0.620903  0.542633  1
  I  I17  1  0.457500  0.150283  0.379540  1
  I  I18  1  0.379569  0.457574  0.150313  1
  I  I19  1  0.150274  0.379609  0.457507  1
