# generated using pymatgen
data_Yb2Mn2C2N
_symmetry_space_group_name_H-M   'P 1'
_cell_length_a   5.27917989
_cell_length_b   5.27918034
_cell_length_c   5.47226788
_cell_angle_alpha   75.91807517
_cell_angle_beta   75.91807275
_cell_angle_gamma   37.92679474
_symmetry_Int_Tables_number   1
_chemical_formula_structural   Yb2Mn2C2N
_chemical_formula_sum   'Yb2 Mn2 C2 N1'
_cell_volume   90.58590562
_cell_formula_units_Z   1
loop_
 _symmetry_equiv_pos_site_id
 _symmetry_equiv_pos_as_xyz
  1  'x, y, z'
loop_
 _atom_site_type_symbol
 _atom_site_label
 _atom_site_symmetry_multiplicity
 _atom_site_fract_x
 _atom_site_fract_y
 _atom_site_fract_z
 _atom_site_occupancy
  Yb  Yb0  1  0.599693  0.599693  0.192350  1
  Yb  Yb1  1  0.400307  0.400307  0.807650  1
  Mn  Mn2  1  0.842471  0.842471  0.403367  1
  Mn  Mn3  1  0.157529  0.157529  0.596633  1
  C  C4  1  0.304688  0.304688  0.286556  1
  C  C5  1  0.695312  0.695312  0.713444  1
  N  N6  1  0.000000  0.000000  0.500000  1
