# generated using pymatgen
data_YbHf3(Al8Pt3)3
_symmetry_space_group_name_H-M   'P 1'
_cell_length_a   7.48355568
_cell_length_b   7.48113438
_cell_length_c   12.98743121
_cell_angle_alpha   84.48639408
_cell_angle_beta   101.03237289
_cell_angle_gamma   119.92004623
_symmetry_Int_Tables_number   1
_chemical_formula_structural   YbHf3(Al8Pt3)3
_chemical_formula_sum   'Yb1 Hf3 Al24 Pt9'
_cell_volume   618.55363473
_cell_formula_units_Z   1
loop_
 _symmetry_equiv_pos_site_id
 _symmetry_equiv_pos_as_xyz
  1  'x, y, z'
loop_
 _atom_site_type_symbol
 _atom_site_label
 _atom_site_symmetry_multiplicity
 _atom_site_fract_x
 _atom_site_fract_y
 _atom_site_fract_z
 _atom_site_occupancy
  Yb  Yb0  1  0.232053  0.498651  0.190973  1
  Hf  Hf1  1  0.438015  0.831614  0.808936  1
  Hf  Hf2  1  0.562862  0.168498  0.191558  1
  Hf  Hf3  1  0.767419  0.500770  0.808649  1
  Al  Al4  1  0.484152  0.166221  0.939273  1
  Al  Al5  1  0.517155  0.835701  0.056489  1
  Al  Al6  1  0.021512  0.167584  0.563477  1
  Al  Al7  1  0.978686  0.832791  0.437002  1
  Al  Al8  1  0.353312  0.832983  0.560974  1
  Al  Al9  1  0.646918  0.166702  0.439568  1
  Al  Al10  1  0.614341  0.835313  0.326159  1
  Al  Al11  1  0.386857  0.165331  0.678172  1
  Al  Al12  1  0.058449  0.495137  0.678074  1
  Al  Al13  1  0.942353  0.504291  0.326183  1
  Al  Al14  1  0.730653  0.838227  0.676483  1
  Al  Al15  1  0.271008  0.161862  0.327141  1
  Al  Al16  1  0.146019  0.503434  0.939571  1
  Al  Al17  1  0.850217  0.496444  0.056319  1
  Al  Al18  1  0.811484  0.829042  0.946556  1
  Al  Al19  1  0.186739  0.168128  0.048787  1
  Al  Al20  1  0.313764  0.500686  0.439798  1
  Al  Al21  1  0.686454  0.499682  0.560806  1
  Al  Al22  1  0.108845  0.843927  0.182871  1
  Al  Al23  1  0.891491  0.164040  0.816632  1
  Al  Al24  1  0.313272  0.374588  0.815453  1
  Al  Al25  1  0.694119  0.625069  0.184063  1
  Al  Al26  1  0.102780  0.952541  0.816243  1
  Al  Al27  1  0.889214  0.040173  0.183769  1
  Pt  Pt28  1  0.390820  0.510934  0.640004  1
  Pt  Pt29  1  0.612743  0.490973  0.361324  1
  Pt  Pt30  1  0.170786  0.827178  0.998297  1
  Pt  Pt31  1  0.827663  0.171730  0.998978  1
  Pt  Pt32  1  0.296508  0.834825  0.361702  1
  Pt  Pt33  1  0.702063  0.166543  0.639839  1
  Pt  Pt34  1  0.045847  0.822537  0.638572  1
  Pt  Pt35  1  0.953409  0.174584  0.363126  1
  Pt  Pt36  1  0.500019  0.501267  0.998178  1
