# generated using pymatgen
data_Mo(RuBr4)3
_symmetry_space_group_name_H-M   'P 1'
_cell_length_a   5.97450398
_cell_length_b   7.03086496
_cell_length_c   12.22274200
_cell_angle_alpha   90.00000000
_cell_angle_beta   90.00000000
_cell_angle_gamma   89.82095434
_symmetry_Int_Tables_number   1
_chemical_formula_structural   Mo(RuBr4)3
_chemical_formula_sum   'Mo1 Ru3 Br12'
_cell_volume   513.42514626
_cell_formula_units_Z   1
loop_
 _symmetry_equiv_pos_site_id
 _symmetry_equiv_pos_as_xyz
  1  'x, y, z'
loop_
 _atom_site_type_symbol
 _atom_site_label
 _atom_site_symmetry_multiplicity
 _atom_site_fract_x
 _atom_site_fract_y
 _atom_site_fract_z
 _atom_site_occupancy
  Mo  Mo0  1  0.772522  0.746911  0.000000  1
  Ru  Ru1  1  0.726928  0.253205  0.500000  1
  Ru  Ru2  1  0.230866  0.747030  0.000000  1
  Ru  Ru3  1  0.272981  0.252940  0.500000  1
  Br  Br4  1  0.500535  0.104626  0.648298  1
  Br  Br5  1  0.004872  0.897999  0.848552  1
  Br  Br6  1  0.500535  0.104626  0.351702  1
  Br  Br7  1  0.004872  0.897999  0.151448  1
  Br  Br8  1  0.005917  0.443549  0.000000  1
  Br  Br9  1  0.499187  0.550668  0.500000  1
  Br  Br10  1  0.492711  0.032451  0.000000  1
  Br  Br11  1  0.000926  0.973490  0.500000  1
  Br  Br12  1  0.999464  0.392633  0.361028  1
  Br  Br13  1  0.494109  0.604619  0.142091  1
  Br  Br14  1  0.999464  0.392633  0.638972  1
  Br  Br15  1  0.494109  0.604619  0.857909  1
