# generated using pymatgen
data_CaYb(Ga3Se5)4
_symmetry_space_group_name_H-M   'P 1'
_cell_length_a   9.79835678
_cell_length_b   9.78585001
_cell_length_c   9.66624083
_cell_angle_alpha   90.01270999
_cell_angle_beta   90.19592570
_cell_angle_gamma   89.14389615
_symmetry_Int_Tables_number   1
_chemical_formula_structural   CaYb(Ga3Se5)4
_chemical_formula_sum   'Ca1 Yb1 Ga12 Se20'
_cell_volume   926.74102324
_cell_formula_units_Z   1
loop_
 _symmetry_equiv_pos_site_id
 _symmetry_equiv_pos_as_xyz
  1  'x, y, z'
loop_
 _atom_site_type_symbol
 _atom_site_label
 _atom_site_symmetry_multiplicity
 _atom_site_fract_x
 _atom_site_fract_y
 _atom_site_fract_z
 _atom_site_occupancy
  Ca  Ca0  1  0.997500  0.744552  0.252466  1
  Yb  Yb1  1  0.255231  0.002700  0.747755  1
  Ga  Ga2  1  0.158629  0.429359  0.121769  1
  Ga  Ga3  1  0.433764  0.127797  0.159592  1
  Ga  Ga4  1  0.348760  0.746248  0.167202  1
  Ga  Ga5  1  0.656646  0.833672  0.255431  1
  Ga  Ga6  1  0.746243  0.168371  0.334704  1
  Ga  Ga7  1  0.122784  0.161899  0.425681  1
  Ga  Ga8  1  0.837843  0.877384  0.574999  1
  Ga  Ga9  1  0.831629  0.253879  0.665456  1
  Ga  Ga10  1  0.166695  0.342259  0.744598  1
  Ga  Ga11  1  0.253674  0.652253  0.832405  1
  Ga  Ga12  1  0.872226  0.566215  0.840165  1
  Ga  Ga13  1  0.569981  0.841775  0.877811  1
  Se  Se14  1  0.176186  0.825301  0.999113  1
  Se  Se15  1  0.571712  0.675923  0.071161  1
  Se  Se16  1  0.922180  0.501428  0.081262  1
  Se  Se17  1  0.821324  0.993925  0.170409  1
  Se  Se18  1  0.179410  0.177833  0.174199  1
  Se  Se19  1  0.563223  0.308842  0.255214  1
  Se  Se20  1  0.246780  0.572584  0.308999  1
  Se  Se21  1  0.430775  0.929457  0.322036  1
  Se  Se22  1  0.926862  0.318538  0.430797  1
  Se  Se23  1  0.756709  0.689929  0.433125  1
  Se  Se24  1  0.078390  0.922263  0.501063  1
  Se  Se25  1  0.310253  0.242401  0.567615  1
  Se  Se26  1  0.681404  0.073197  0.569279  1
  Se  Se27  1  0.070606  0.568959  0.678044  1
  Se  Se28  1  0.426772  0.754117  0.690800  1
  Se  Se29  1  0.691191  0.436762  0.744664  1
  Se  Se30  1  0.006854  0.177547  0.829200  1
  Se  Se31  1  0.821901  0.820662  0.825964  1
  Se  Se32  1  0.497509  0.077813  0.918242  1
  Se  Se33  1  0.324072  0.428431  0.928783  1
