# generated using pymatgen
data_LuScSi14Ir5Os
_symmetry_space_group_name_H-M   'P 1'
_cell_length_a   7.98016608
_cell_length_b   7.98032833
_cell_length_c   8.00531323
_cell_angle_alpha   56.74101992
_cell_angle_beta   56.74267197
_cell_angle_gamma   56.82518810
_symmetry_Int_Tables_number   1
_chemical_formula_structural   LuScSi14Ir5Os
_chemical_formula_sum   'Lu1 Sc1 Si14 Ir5 Os1'
_cell_volume   333.61021828
_cell_formula_units_Z   1
loop_
 _symmetry_equiv_pos_site_id
 _symmetry_equiv_pos_as_xyz
  1  'x, y, z'
loop_
 _atom_site_type_symbol
 _atom_site_label
 _atom_site_symmetry_multiplicity
 _atom_site_fract_x
 _atom_site_fract_y
 _atom_site_fract_z
 _atom_site_occupancy
  Lu  Lu0  1  0.000975  0.003217  0.997150  1
  Sc  Sc1  1  0.495993  0.498805  0.503380  1
  Si  Si2  1  0.752685  0.747378  0.750020  1
  Si  Si3  1  0.249310  0.250671  0.249975  1
  Si  Si4  1  0.850186  0.065596  0.671942  1
  Si  Si5  1  0.671848  0.851283  0.064998  1
  Si  Si6  1  0.065957  0.669622  0.850515  1
  Si  Si7  1  0.648145  0.827327  0.435791  1
  Si  Si8  1  0.435316  0.649183  0.827181  1
  Si  Si9  1  0.829640  0.434927  0.648891  1
  Si  Si10  1  0.171430  0.564493  0.354561  1
  Si  Si11  1  0.564746  0.351620  0.172362  1
  Si  Si12  1  0.350809  0.173595  0.564525  1
  Si  Si13  1  0.934764  0.329491  0.145871  1
  Si  Si14  1  0.327314  0.149895  0.934528  1
  Si  Si15  1  0.148992  0.934404  0.328481  1
  Ir  Ir16  1  0.251355  0.925700  0.571741  1
  Ir  Ir17  1  0.572527  0.250743  0.926551  1
  Ir  Ir18  1  0.925053  0.573283  0.251016  1
  Ir  Ir19  1  0.427602  0.749382  0.073718  1
  Ir  Ir20  1  0.748595  0.074070  0.427959  1
  Os  Os21  1  0.076760  0.425317  0.748843  1
