# generated using pymatgen
data_Y4GaPd12
_symmetry_space_group_name_H-M   'P 1'
_cell_length_a   7.34836981
_cell_length_b   7.34836873
_cell_length_c   7.34836800
_cell_angle_alpha   109.57499135
_cell_angle_beta   109.41935423
_cell_angle_gamma   109.41936595
_symmetry_Int_Tables_number   1
_chemical_formula_structural   Y4GaPd12
_chemical_formula_sum   'Y4 Ga1 Pd12'
_cell_volume   305.45686055
_cell_formula_units_Z   1
loop_
 _symmetry_equiv_pos_site_id
 _symmetry_equiv_pos_as_xyz
  1  'x, y, z'
loop_
 _atom_site_type_symbol
 _atom_site_label
 _atom_site_symmetry_multiplicity
 _atom_site_fract_x
 _atom_site_fract_y
 _atom_site_fract_z
 _atom_site_occupancy
  Y  Y0  1  0.500852  0.971601  0.971601  1
  Y  Y1  1  0.000000  0.971601  0.470750  1
  Y  Y2  1  0.499148  0.470750  0.470750  1
  Y  Y3  1  0.000000  0.470750  0.971601  1
  Ga  Ga4  1  0.000000  0.467395  0.467395  1
  Pd  Pd5  1  0.250682  0.970342  0.221024  1
  Pd  Pd6  1  0.000000  0.755004  0.755004  1
  Pd  Pd7  1  0.285927  0.757748  0.471821  1
  Pd  Pd8  1  0.714073  0.471821  0.185894  1
  Pd  Pd9  1  0.500000  0.221431  0.721431  1
  Pd  Pd10  1  0.714073  0.185894  0.471821  1
  Pd  Pd11  1  0.749318  0.719661  0.970342  1
  Pd  Pd12  1  0.749318  0.970342  0.719661  1
  Pd  Pd13  1  0.285927  0.471821  0.757748  1
  Pd  Pd14  1  0.500000  0.721431  0.221431  1
  Pd  Pd15  1  0.250682  0.221024  0.970342  1
  Pd  Pd16  1  0.000000  0.181380  0.181380  1
