# generated using pymatgen
data_Sc4GeAsSe2
_symmetry_space_group_name_H-M   'P 1'
_cell_length_a   6.76493081
_cell_length_b   6.76493072
_cell_length_c   6.76493088
_cell_angle_alpha   132.24162270
_cell_angle_beta   132.24161831
_cell_angle_gamma   69.84767565
_symmetry_Int_Tables_number   1
_chemical_formula_structural   Sc4GeAsSe2
_chemical_formula_sum   'Sc4 Ge1 As1 Se2'
_cell_volume   166.38709101
_cell_formula_units_Z   1
loop_
 _symmetry_equiv_pos_site_id
 _symmetry_equiv_pos_as_xyz
  1  'x, y, z'
loop_
 _atom_site_type_symbol
 _atom_site_label
 _atom_site_symmetry_multiplicity
 _atom_site_fract_x
 _atom_site_fract_y
 _atom_site_fract_z
 _atom_site_occupancy
  Sc  Sc0  1  0.756598  0.756598  0.000000  1
  Sc  Sc1  1  0.243403  0.243403  0.000000  1
  Sc  Sc2  1  0.004311  0.504311  0.500000  1
  Sc  Sc3  1  0.495689  0.995689  0.500000  1
  Ge  Ge4  1  0.000000  0.000000  0.000000  1
  As  As5  1  0.250000  0.750000  0.500000  1
  Se  Se6  1  0.500000  0.500000  0.000000  1
  Se  Se7  1  0.750000  0.250000  0.500000  1
