# generated using pymatgen
data_Ho2Er10Tl2Fe2Ru
_symmetry_space_group_name_H-M   'P 1'
_cell_length_a   8.32006630
_cell_length_b   8.31985414
_cell_length_c   8.31553023
_cell_angle_alpha   108.61279614
_cell_angle_beta   108.61491052
_cell_angle_gamma   111.22204232
_symmetry_Int_Tables_number   1
_chemical_formula_structural   Ho2Er10Tl2Fe2Ru
_chemical_formula_sum   'Ho2 Er10 Tl2 Fe2 Ru1'
_cell_volume   442.68046483
_cell_formula_units_Z   1
loop_
 _symmetry_equiv_pos_site_id
 _symmetry_equiv_pos_as_xyz
  1  'x, y, z'
loop_
 _atom_site_type_symbol
 _atom_site_label
 _atom_site_symmetry_multiplicity
 _atom_site_fract_x
 _atom_site_fract_y
 _atom_site_fract_z
 _atom_site_occupancy
  Ho  Ho0  1  0.307093  0.692927  0.999988  1
  Ho  Ho1  1  0.692907  0.307073  0.000012  1
  Er  Er2  1  0.431219  0.193273  0.238713  1
  Er  Er3  1  0.568781  0.806727  0.761287  1
  Er  Er4  1  0.954564  0.192567  0.761346  1
  Er  Er5  1  0.192524  0.954535  0.761294  1
  Er  Er6  1  0.045436  0.807433  0.238654  1
  Er  Er7  1  0.807476  0.045465  0.238706  1
  Er  Er8  1  0.193225  0.431266  0.238739  1
  Er  Er9  1  0.806775  0.568734  0.761261  1
  Er  Er10  1  0.307434  0.307362  0.614810  1
  Er  Er11  1  0.692566  0.692638  0.385190  1
  Tl  Tl12  1  0.500000  0.000000  0.500000  1
  Tl  Tl13  1  0.000000  0.500000  0.500000  1
  Fe  Fe14  1  0.385695  0.385698  0.000000  1
  Fe  Fe15  1  0.614305  0.614302  0.000000  1
  Ru  Ru16  1  0.000000  0.000000  0.000000  1
