# generated using pymatgen
data_ErTm11Os3Pt
_symmetry_space_group_name_H-M   'P 1'
_cell_length_a   6.33016943
_cell_length_b   7.28114689
_cell_length_c   8.93893600
_cell_angle_alpha   90.00000000
_cell_angle_beta   90.00000000
_cell_angle_gamma   90.09544808
_symmetry_Int_Tables_number   1
_chemical_formula_structural   ErTm11Os3Pt
_chemical_formula_sum   'Er1 Tm11 Os3 Pt1'
_cell_volume   412.00297478
_cell_formula_units_Z   1
loop_
 _symmetry_equiv_pos_site_id
 _symmetry_equiv_pos_as_xyz
  1  'x, y, z'
loop_
 _atom_site_type_symbol
 _atom_site_label
 _atom_site_symmetry_multiplicity
 _atom_site_fract_x
 _atom_site_fract_y
 _atom_site_fract_z
 _atom_site_occupancy
  Er  Er0  1  0.623323  0.038696  0.250000  1
  Tm  Tm1  1  0.335560  0.671514  0.058850  1
  Tm  Tm2  1  0.171351  0.181609  0.441646  1
  Tm  Tm3  1  0.670057  0.323901  0.562252  1
  Tm  Tm4  1  0.824944  0.823331  0.933620  1
  Tm  Tm5  1  0.670057  0.323901  0.937748  1
  Tm  Tm6  1  0.824944  0.823331  0.566380  1
  Tm  Tm7  1  0.335560  0.671514  0.441150  1
  Tm  Tm8  1  0.171351  0.181609  0.058354  1
  Tm  Tm9  1  0.873847  0.533525  0.250000  1
  Tm  Tm10  1  0.124496  0.462763  0.750000  1
  Tm  Tm11  1  0.370396  0.962839  0.750000  1
  Os  Os12  1  0.462363  0.384556  0.250000  1
  Os  Os13  1  0.965027  0.115021  0.750000  1
  Os  Os14  1  0.533072  0.615651  0.750000  1
  Pt  Pt15  1  0.043651  0.886237  0.250000  1
