# generated using pymatgen
data_ErScGa9Ir2Pd
_symmetry_space_group_name_H-M   'P 1'
_cell_length_a   7.56890504
_cell_length_b   7.56510862
_cell_length_c   9.42478300
_cell_angle_alpha   90.00000000
_cell_angle_beta   90.00000000
_cell_angle_gamma   119.88396894
_symmetry_Int_Tables_number   1
_chemical_formula_structural   ErScGa9Ir2Pd
_chemical_formula_sum   'Er2 Sc2 Ga18 Ir4 Pd2'
_cell_volume   467.90405507
_cell_formula_units_Z   2
loop_
 _symmetry_equiv_pos_site_id
 _symmetry_equiv_pos_as_xyz
  1  'x, y, z'
loop_
 _atom_site_type_symbol
 _atom_site_label
 _atom_site_symmetry_multiplicity
 _atom_site_fract_x
 _atom_site_fract_y
 _atom_site_fract_z
 _atom_site_occupancy
  Er  Er0  1  0.669244  0.997048  0.750000  1
  Er  Er1  1  0.330756  0.002952  0.250000  1
  Sc  Sc2  1  0.996661  0.668912  0.750000  1
  Sc  Sc3  1  0.003339  0.331088  0.250000  1
  Ga  Ga4  1  0.127009  0.126692  0.750000  1
  Ga  Ga5  1  0.872991  0.873308  0.250000  1
  Ga  Ga6  1  0.998604  0.339962  0.581505  1
  Ga  Ga7  1  0.001396  0.660038  0.418495  1
  Ga  Ga8  1  0.001396  0.660038  0.081505  1
  Ga  Ga9  1  0.333213  0.995872  0.916245  1
  Ga  Ga10  1  0.998604  0.339962  0.918495  1
  Ga  Ga11  1  0.666787  0.004128  0.083755  1
  Ga  Ga12  1  0.666787  0.004128  0.416245  1
  Ga  Ga13  1  0.333213  0.995872  0.583755  1
  Ga  Ga14  1  0.331682  0.334543  0.070428  1
  Ga  Ga15  1  0.668318  0.665457  0.929572  1
  Ga  Ga16  1  0.668318  0.665457  0.570428  1
  Ga  Ga17  1  0.331682  0.334543  0.429572  1
  Ga  Ga18  1  0.336029  0.546800  0.750000  1
  Ga  Ga19  1  0.663971  0.453200  0.250000  1
  Ga  Ga20  1  0.548938  0.338834  0.750000  1
  Ga  Ga21  1  0.451062  0.661166  0.250000  1
  Ir  Ir22  1  0.670685  0.327389  0.499875  1
  Ir  Ir23  1  0.329315  0.672611  0.500125  1
  Ir  Ir24  1  0.329315  0.672611  0.999875  1
  Ir  Ir25  1  0.670685  0.327389  0.000125  1
  Pd  Pd26  1  0.000000  0.000000  0.500000  1
  Pd  Pd27  1  0.000000  0.000000  0.000000  1
