# generated using pymatgen
data_Dy2YRh9
_symmetry_space_group_name_H-M   'P 1'
_cell_length_a   5.26197900
_cell_length_b   5.26198006
_cell_length_c   17.56983000
_cell_angle_alpha   90.00000000
_cell_angle_beta   90.00000000
_cell_angle_gamma   119.99998705
_symmetry_Int_Tables_number   1
_chemical_formula_structural   Dy2YRh9
_chemical_formula_sum   'Dy4 Y2 Rh18'
_cell_volume   421.30494465
_cell_formula_units_Z   2
loop_
 _symmetry_equiv_pos_site_id
 _symmetry_equiv_pos_as_xyz
  1  'x, y, z'
loop_
 _atom_site_type_symbol
 _atom_site_label
 _atom_site_symmetry_multiplicity
 _atom_site_fract_x
 _atom_site_fract_y
 _atom_site_fract_z
 _atom_site_occupancy
  Dy  Dy0  1  0.333333  0.666667  0.957944  1
  Dy  Dy1  1  0.666667  0.333333  0.042056  1
  Dy  Dy2  1  0.666667  0.333333  0.457944  1
  Dy  Dy3  1  0.333333  0.666667  0.542056  1
  Y  Y4  1  0.333333  0.666667  0.750000  1
  Y  Y5  1  0.666667  0.333333  0.250000  1
  Rh  Rh6  1  0.167105  0.832895  0.374309  1
  Rh  Rh7  1  0.167105  0.334211  0.374309  1
  Rh  Rh8  1  0.665789  0.832895  0.374309  1
  Rh  Rh9  1  0.832895  0.167105  0.625691  1
  Rh  Rh10  1  0.832895  0.665789  0.625691  1
  Rh  Rh11  1  0.334211  0.167105  0.625691  1
  Rh  Rh12  1  0.832895  0.167105  0.874309  1
  Rh  Rh13  1  0.832895  0.665789  0.874309  1
  Rh  Rh14  1  0.334211  0.167105  0.874309  1
  Rh  Rh15  1  0.167105  0.832895  0.125691  1
  Rh  Rh16  1  0.167105  0.334211  0.125691  1
  Rh  Rh17  1  0.665789  0.832895  0.125691  1
  Rh  Rh18  1  0.333333  0.666667  0.250000  1
  Rh  Rh19  1  0.666667  0.333333  0.750000  1
  Rh  Rh20  1  0.000000  0.000000  0.250000  1
  Rh  Rh21  1  0.000000  0.000000  0.750000  1
  Rh  Rh22  1  0.000000  0.000000  0.500000  1
  Rh  Rh23  1  0.000000  0.000000  0.000000  1
