# generated using pymatgen
data_Er11Tm(Si3Rh)4
_symmetry_space_group_name_H-M   'P 1'
_cell_length_a   4.20132200
_cell_length_b   10.61170140
_cell_length_c   12.23398252
_cell_angle_alpha   90.00136785
_cell_angle_beta   90.00000000
_cell_angle_gamma   90.00000000
_symmetry_Int_Tables_number   1
_chemical_formula_structural   Er11Tm(Si3Rh)4
_chemical_formula_sum   'Er11 Tm1 Si12 Rh4'
_cell_volume   545.42977766
_cell_formula_units_Z   1
loop_
 _symmetry_equiv_pos_site_id
 _symmetry_equiv_pos_as_xyz
  1  'x, y, z'
loop_
 _atom_site_type_symbol
 _atom_site_label
 _atom_site_symmetry_multiplicity
 _atom_site_fract_x
 _atom_site_fract_y
 _atom_site_fract_z
 _atom_site_occupancy
  Er  Er0  1  0.250000  0.879542  0.019928  1
  Er  Er1  1  0.250000  0.620665  0.519879  1
  Er  Er2  1  0.750000  0.120772  0.979759  1
  Er  Er3  1  0.750000  0.378913  0.480366  1
  Er  Er4  1  0.250000  0.920528  0.603356  1
  Er  Er5  1  0.250000  0.579755  0.103332  1
  Er  Er6  1  0.750000  0.079619  0.396986  1
  Er  Er7  1  0.750000  0.420325  0.896361  1
  Er  Er8  1  0.250000  0.660627  0.800532  1
  Er  Er9  1  0.250000  0.840123  0.300613  1
  Er  Er10  1  0.750000  0.339080  0.199490  1
  Tm  Tm11  1  0.750000  0.160762  0.699726  1
  Si  Si12  1  0.250000  0.014507  0.821740  1
  Si  Si13  1  0.250000  0.485199  0.322036  1
  Si  Si14  1  0.750000  0.985792  0.178014  1
  Si  Si15  1  0.750000  0.514711  0.677957  1
  Si  Si16  1  0.250000  0.247809  0.841403  1
  Si  Si17  1  0.250000  0.251852  0.341897  1
  Si  Si18  1  0.750000  0.752178  0.158343  1
  Si  Si19  1  0.750000  0.747859  0.658131  1
  Si  Si20  1  0.250000  0.198406  0.542790  1
  Si  Si21  1  0.250000  0.301360  0.041941  1
  Si  Si22  1  0.750000  0.801154  0.457851  1
  Si  Si23  1  0.750000  0.698884  0.957982  1
  Rh  Rh24  1  0.250000  0.391133  0.682140  1
  Rh  Rh25  1  0.250000  0.108704  0.181979  1
  Rh  Rh26  1  0.750000  0.608325  0.317678  1
  Rh  Rh27  1  0.750000  0.891411  0.817792  1
