# generated using pymatgen
data_Ba(P3Pd5)2
_symmetry_space_group_name_H-M   'P 1'
_cell_length_a   9.50297889
_cell_length_b   9.50297916
_cell_length_c   9.69098300
_cell_angle_alpha   90.00000000
_cell_angle_beta   90.00000000
_cell_angle_gamma   137.62616634
_symmetry_Int_Tables_number   1
_chemical_formula_structural   Ba(P3Pd5)2
_chemical_formula_sum   'Ba2 P12 Pd20'
_cell_volume   589.82715539
_cell_formula_units_Z   2
loop_
 _symmetry_equiv_pos_site_id
 _symmetry_equiv_pos_as_xyz
  1  'x, y, z'
loop_
 _atom_site_type_symbol
 _atom_site_label
 _atom_site_symmetry_multiplicity
 _atom_site_fract_x
 _atom_site_fract_y
 _atom_site_fract_z
 _atom_site_occupancy
  Ba  Ba0  1  0.000000  0.000000  0.500000  1
  Ba  Ba1  1  0.500000  0.500000  0.000000  1
  P  P2  1  0.141833  0.358167  0.750000  1
  P  P3  1  0.358167  0.141833  0.250000  1
  P  P4  1  0.409706  0.590294  0.377723  1
  P  P5  1  0.590294  0.409706  0.622277  1
  P  P6  1  0.090294  0.909706  0.877723  1
  P  P7  1  0.909706  0.090294  0.122277  1
  P  P8  1  0.292815  0.707185  0.079285  1
  P  P9  1  0.707185  0.292815  0.920715  1
  P  P10  1  0.207185  0.792815  0.579285  1
  P  P11  1  0.792815  0.207185  0.420715  1
  P  P12  1  0.858167  0.641833  0.250000  1
  P  P13  1  0.641833  0.858167  0.750000  1
  Pd  Pd14  1  0.211388  0.788612  0.278663  1
  Pd  Pd15  1  0.288612  0.711388  0.778663  1
  Pd  Pd16  1  0.906724  0.593276  0.750000  1
  Pd  Pd17  1  0.711388  0.288612  0.221337  1
  Pd  Pd18  1  0.093276  0.406724  0.250000  1
  Pd  Pd19  1  0.406724  0.093276  0.750000  1
  Pd  Pd20  1  0.958904  0.041096  0.878325  1
  Pd  Pd21  1  0.041096  0.958904  0.121675  1
  Pd  Pd22  1  0.541096  0.458904  0.378325  1
  Pd  Pd23  1  0.458904  0.541096  0.621675  1
  Pd  Pd24  1  0.457244  0.117280  0.470528  1
  Pd  Pd25  1  0.117280  0.457244  0.529472  1
  Pd  Pd26  1  0.042756  0.382720  0.970528  1
  Pd  Pd27  1  0.382720  0.042756  0.029472  1
  Pd  Pd28  1  0.542756  0.882720  0.529472  1
  Pd  Pd29  1  0.882720  0.542756  0.470528  1
  Pd  Pd30  1  0.957244  0.617280  0.029472  1
  Pd  Pd31  1  0.617280  0.957244  0.970528  1
  Pd  Pd32  1  0.593276  0.906724  0.250000  1
  Pd  Pd33  1  0.788612  0.211388  0.721337  1
