# generated using pymatgen
data_Nd20Si15P
_symmetry_space_group_name_H-M   'P 1'
_cell_length_a   7.78856238
_cell_length_b   7.92804611
_cell_length_c   15.15915587
_cell_angle_alpha   89.93461220
_cell_angle_beta   90.09676326
_cell_angle_gamma   90.11141991
_symmetry_Int_Tables_number   1
_chemical_formula_structural   Nd20Si15P
_chemical_formula_sum   'Nd20 Si15 P1'
_cell_volume   936.04508390
_cell_formula_units_Z   1
loop_
 _symmetry_equiv_pos_site_id
 _symmetry_equiv_pos_as_xyz
  1  'x, y, z'
loop_
 _atom_site_type_symbol
 _atom_site_label
 _atom_site_symmetry_multiplicity
 _atom_site_fract_x
 _atom_site_fract_y
 _atom_site_fract_z
 _atom_site_occupancy
  Nd  Nd0  1  0.137030  0.510313  0.749299  1
  Nd  Nd1  1  0.810646  0.323514  0.618761  1
  Nd  Nd2  1  0.458690  0.686140  0.898661  1
  Nd  Nd3  1  0.959055  0.812988  0.898998  1
  Nd  Nd4  1  0.188672  0.680465  0.122683  1
  Nd  Nd5  1  0.688880  0.819183  0.122458  1
  Nd  Nd6  1  0.311495  0.180542  0.878059  1
  Nd  Nd7  1  0.187417  0.679389  0.378584  1
  Nd  Nd8  1  0.040269  0.187057  0.101721  1
  Nd  Nd9  1  0.310383  0.181487  0.620907  1
  Nd  Nd10  1  0.862677  0.489530  0.250433  1
  Nd  Nd11  1  0.362328  0.010429  0.250167  1
  Nd  Nd12  1  0.542747  0.315392  0.399009  1
  Nd  Nd13  1  0.811447  0.319194  0.878040  1
  Nd  Nd14  1  0.957738  0.811583  0.599729  1
  Nd  Nd15  1  0.452283  0.691005  0.602729  1
  Nd  Nd16  1  0.040952  0.188584  0.399842  1
  Nd  Nd17  1  0.691679  0.814181  0.380466  1
  Nd  Nd18  1  0.638177  0.989164  0.749591  1
  Nd  Nd19  1  0.541398  0.313426  0.101857  1
  Si  Si20  1  0.482359  0.600724  0.250963  1
  Si  Si21  1  0.251274  0.377992  0.251425  1
  Si  Si22  1  0.518462  0.399560  0.750146  1
  Si  Si23  1  0.634976  0.026479  0.959557  1
  Si  Si24  1  0.016329  0.101326  0.748878  1
  Si  Si25  1  0.748571  0.620968  0.748377  1
  Si  Si26  1  0.750239  0.120935  0.251261  1
  Si  Si27  1  0.366070  0.974056  0.458040  1
  Si  Si28  1  0.982265  0.900425  0.251701  1
  Si  Si29  1  0.364982  0.973153  0.040829  1
  Si  Si30  1  0.634463  0.026968  0.539844  1
  Si  Si31  1  0.135154  0.473475  0.959265  1
  Si  Si32  1  0.138792  0.474276  0.540984  1
  Si  Si33  1  0.865116  0.525766  0.041439  1
  Si  Si34  1  0.247192  0.879026  0.749527  1
  P  P35  1  0.869791  0.521305  0.455769  1
