# generated using pymatgen
data_Hf6Ti2Al14GaRh7
_symmetry_space_group_name_H-M   'P 1'
_cell_length_a   8.80450453
_cell_length_b   8.79946448
_cell_length_c   8.80480738
_cell_angle_alpha   120.22559555
_cell_angle_beta   119.78942011
_cell_angle_gamma   90.00499637
_symmetry_Int_Tables_number   1
_chemical_formula_structural   Hf6Ti2Al14GaRh7
_chemical_formula_sum   'Hf6 Ti2 Al14 Ga1 Rh7'
_cell_volume   482.21662472
_cell_formula_units_Z   1
loop_
 _symmetry_equiv_pos_site_id
 _symmetry_equiv_pos_as_xyz
  1  'x, y, z'
loop_
 _atom_site_type_symbol
 _atom_site_label
 _atom_site_symmetry_multiplicity
 _atom_site_fract_x
 _atom_site_fract_y
 _atom_site_fract_z
 _atom_site_occupancy
  Hf  Hf0  1  0.796350  0.293505  0.080529  1
  Hf  Hf1  1  0.212966  0.293524  0.497165  1
  Hf  Hf2  1  0.203508  0.703567  0.500060  1
  Hf  Hf3  1  0.213017  0.715856  0.919438  1
  Hf  Hf4  1  0.796428  0.715876  0.502832  1
  Hf  Hf5  1  0.785193  0.285047  0.499951  1
  Ti  Ti6  1  0.380054  0.122769  0.742733  1
  Ti  Ti7  1  0.380078  0.637423  0.257349  1
  Al  Al8  1  0.162278  0.337312  0.175014  1
  Al  Al9  1  0.162304  0.986949  0.824659  1
  Al  Al10  1  0.158396  0.340539  0.817439  1
  Al  Al11  1  0.523120  0.340535  0.182180  1
  Al  Al12  1  0.838408  0.660529  0.822107  1
  Al  Al13  1  0.838366  0.016274  0.177902  1
  Al  Al14  1  0.837975  0.661493  0.176548  1
  Al  Al15  1  0.484933  0.661508  0.823536  1
  Al  Al16  1  0.380330  0.121262  0.259059  1
  Al  Al17  1  0.862211  0.121245  0.740951  1
  Al  Al18  1  0.619952  0.876557  0.256574  1
  Al  Al19  1  0.619827  0.363200  0.743339  1
  Al  Al20  1  0.618099  0.877862  0.740382  1
  Al  Al21  1  0.137477  0.877868  0.259769  1
  Ga  Ga22  1  0.993292  0.493466  0.500142  1
  Rh  Rh23  1  0.000519  0.000903  0.502053  1
  Rh  Rh24  1  0.498845  0.000910  0.000396  1
  Rh  Rh25  1  0.498167  0.498056  0.999905  1
  Rh  Rh26  1  0.498868  0.498547  0.498153  1
  Rh  Rh27  1  0.000360  0.498528  0.999636  1
  Rh  Rh28  1  0.000107  0.000201  0.000091  1
  Rh  Rh29  1  0.498565  0.998684  0.500110  1
