# generated using pymatgen
data_Dy12ZnInCo4
_symmetry_space_group_name_H-M   'P 1'
_cell_length_a   8.30775513
_cell_length_b   8.30775476
_cell_length_c   8.30775434
_cell_angle_alpha   111.63654826
_cell_angle_beta   110.06496100
_cell_angle_gamma   106.75005358
_symmetry_Int_Tables_number   1
_chemical_formula_structural   Dy12ZnInCo4
_chemical_formula_sum   'Dy12 Zn1 In1 Co4'
_cell_volume   440.56722625
_cell_formula_units_Z   1
loop_
 _symmetry_equiv_pos_site_id
 _symmetry_equiv_pos_as_xyz
  1  'x, y, z'
loop_
 _atom_site_type_symbol
 _atom_site_label
 _atom_site_symmetry_multiplicity
 _atom_site_fract_x
 _atom_site_fract_y
 _atom_site_fract_z
 _atom_site_occupancy
  Dy  Dy0  1  0.428743  0.227002  0.201741  1
  Dy  Dy1  1  0.571257  0.772998  0.798259  1
  Dy  Dy2  1  0.025261  0.227002  0.798259  1
  Dy  Dy3  1  0.974739  0.772998  0.201741  1
  Dy  Dy4  1  0.183102  0.284881  0.467983  1
  Dy  Dy5  1  0.816898  0.715119  0.532017  1
  Dy  Dy6  1  0.183102  0.715119  0.898220  1
  Dy  Dy7  1  0.816898  0.284881  0.101780  1
  Dy  Dy8  1  0.318531  0.625375  0.306844  1
  Dy  Dy9  1  0.681469  0.374625  0.693156  1
  Dy  Dy10  1  0.318531  0.011687  0.693156  1
  Dy  Dy11  1  0.681469  0.988313  0.306844  1
  Zn  Zn12  1  0.000000  0.000000  0.000000  1
  In  In13  1  0.500000  0.500000  0.000000  1
  Co  Co14  1  0.367122  0.000000  0.367122  1
  Co  Co15  1  0.632878  0.000000  0.632878  1
  Co  Co16  1  0.112760  0.612760  0.500000  1
  Co  Co17  1  0.887240  0.387240  0.500000  1
