# generated using pymatgen
data_Yb7Tm(Ge4Mo3)4
_symmetry_space_group_name_H-M   'P 1'
_cell_length_a   6.83685676
_cell_length_b   7.02623854
_cell_length_c   13.23890667
_cell_angle_alpha   90.08254449
_cell_angle_beta   90.04726868
_cell_angle_gamma   90.07321552
_symmetry_Int_Tables_number   1
_chemical_formula_structural   Yb7Tm(Ge4Mo3)4
_chemical_formula_sum   'Yb7 Tm1 Ge16 Mo12'
_cell_volume   635.96107983
_cell_formula_units_Z   1
loop_
 _symmetry_equiv_pos_site_id
 _symmetry_equiv_pos_as_xyz
  1  'x, y, z'
loop_
 _atom_site_type_symbol
 _atom_site_label
 _atom_site_symmetry_multiplicity
 _atom_site_fract_x
 _atom_site_fract_y
 _atom_site_fract_z
 _atom_site_occupancy
  Yb  Yb0  1  0.492769  0.671240  0.589438  1
  Yb  Yb1  1  0.992440  0.828830  0.910454  1
  Yb  Yb2  1  0.507318  0.328898  0.089985  1
  Yb  Yb3  1  0.007149  0.173065  0.408846  1
  Yb  Yb4  1  0.506809  0.327937  0.409768  1
  Yb  Yb5  1  0.007079  0.172102  0.089870  1
  Yb  Yb6  1  0.492644  0.670830  0.910759  1
  Tm  Tm7  1  0.992002  0.825270  0.591855  1
  Ge  Ge8  1  0.671855  0.956416  0.454422  1
  Ge  Ge9  1  0.170473  0.544633  0.045622  1
  Ge  Ge10  1  0.329991  0.045098  0.954412  1
  Ge  Ge11  1  0.828361  0.453568  0.544854  1
  Ge  Ge12  1  0.328183  0.044543  0.545206  1
  Ge  Ge13  1  0.829575  0.455017  0.954284  1
  Ge  Ge14  1  0.670192  0.955346  0.045672  1
  Ge  Ge15  1  0.171699  0.544004  0.454642  1
  Ge  Ge16  1  0.467479  0.377947  0.748938  1
  Ge  Ge17  1  0.965936  0.121863  0.750343  1
  Ge  Ge18  1  0.533809  0.620155  0.250411  1
  Ge  Ge19  1  0.033402  0.881368  0.249662  1
  Ge  Ge20  1  0.688360  0.852213  0.750996  1
  Ge  Ge21  1  0.192684  0.646251  0.751481  1
  Ge  Ge22  1  0.308920  0.147598  0.249871  1
  Ge  Ge23  1  0.808498  0.353911  0.249998  1
  Mo  Mo24  1  0.664221  0.160040  0.628218  1
  Mo  Mo25  1  0.162493  0.336977  0.870281  1
  Mo  Mo26  1  0.338279  0.837147  0.129338  1
  Mo  Mo27  1  0.839854  0.664785  0.372135  1
  Mo  Mo28  1  0.337405  0.836951  0.371033  1
  Mo  Mo29  1  0.838473  0.663494  0.129503  1
  Mo  Mo30  1  0.662008  0.163115  0.870561  1
  Mo  Mo31  1  0.161866  0.337328  0.628289  1
  Mo  Mo32  1  0.838376  0.486916  0.748768  1
  Mo  Mo33  1  0.336891  0.013908  0.749226  1
  Mo  Mo34  1  0.161372  0.515916  0.250420  1
  Mo  Mo35  1  0.661132  0.985321  0.250436  1
