# generated using pymatgen
data_Er(Zn10Ir)2
_symmetry_space_group_name_H-M   'P 1'
_cell_length_a   9.87840416
_cell_length_b   9.87840404
_cell_length_c   9.87840400
_cell_angle_alpha   60.00000013
_cell_angle_beta   60.00000054
_cell_angle_gamma   59.99999802
_symmetry_Int_Tables_number   1
_chemical_formula_structural   Er(Zn10Ir)2
_chemical_formula_sum   'Er2 Zn40 Ir4'
_cell_volume   681.62475994
_cell_formula_units_Z   2
loop_
 _symmetry_equiv_pos_site_id
 _symmetry_equiv_pos_as_xyz
  1  'x, y, z'
loop_
 _atom_site_type_symbol
 _atom_site_label
 _atom_site_symmetry_multiplicity
 _atom_site_fract_x
 _atom_site_fract_y
 _atom_site_fract_z
 _atom_site_occupancy
  Er  Er0  1  0.500000  0.500000  0.500000  1
  Er  Er1  1  0.750000  0.750000  0.750000  1
  Zn  Zn2  1  0.125000  0.625000  0.625000  1
  Zn  Zn3  1  0.625000  0.125000  0.625000  1
  Zn  Zn4  1  0.625000  0.625000  0.125000  1
  Zn  Zn5  1  0.625000  0.625000  0.625000  1
  Zn  Zn6  1  0.861482  0.861482  0.138518  1
  Zn  Zn7  1  0.138518  0.138518  0.861482  1
  Zn  Zn8  1  0.861482  0.138518  0.861482  1
  Zn  Zn9  1  0.138518  0.861482  0.138518  1
  Zn  Zn10  1  0.138518  0.861482  0.861482  1
  Zn  Zn11  1  0.861482  0.138518  0.138518  1
  Zn  Zn12  1  0.388518  0.388518  0.111482  1
  Zn  Zn13  1  0.111482  0.111482  0.388518  1
  Zn  Zn14  1  0.388518  0.111482  0.388518  1
  Zn  Zn15  1  0.111482  0.388518  0.111482  1
  Zn  Zn16  1  0.111482  0.388518  0.388518  1
  Zn  Zn17  1  0.388518  0.111482  0.111482  1
  Zn  Zn18  1  0.567757  0.302743  0.302743  1
  Zn  Zn19  1  0.302743  0.567757  0.826758  1
  Zn  Zn20  1  0.302743  0.826758  0.567757  1
  Zn  Zn21  1  0.826758  0.302743  0.302743  1
  Zn  Zn22  1  0.302743  0.302743  0.567757  1
  Zn  Zn23  1  0.567757  0.826758  0.302743  1
  Zn  Zn24  1  0.826758  0.567757  0.302743  1
  Zn  Zn25  1  0.302743  0.302743  0.826758  1
  Zn  Zn26  1  0.302743  0.567757  0.302743  1
  Zn  Zn27  1  0.826758  0.302743  0.567757  1
  Zn  Zn28  1  0.567757  0.302743  0.826758  1
  Zn  Zn29  1  0.302743  0.826758  0.302743  1
  Zn  Zn30  1  0.682243  0.947257  0.947257  1
  Zn  Zn31  1  0.947257  0.682243  0.423242  1
  Zn  Zn32  1  0.947257  0.423242  0.682243  1
  Zn  Zn33  1  0.423242  0.947257  0.947257  1
  Zn  Zn34  1  0.947257  0.947257  0.682243  1
  Zn  Zn35  1  0.682243  0.423242  0.947257  1
  Zn  Zn36  1  0.423242  0.682243  0.947257  1
  Zn  Zn37  1  0.947257  0.947257  0.423242  1
  Zn  Zn38  1  0.947257  0.682243  0.947257  1
  Zn  Zn39  1  0.423242  0.947257  0.682243  1
  Zn  Zn40  1  0.682243  0.947257  0.423242  1
  Zn  Zn41  1  0.947257  0.423242  0.947257  1
  Ir  Ir42  1  0.625000  0.125000  0.125000  1
  Ir  Ir43  1  0.125000  0.625000  0.125000  1
  Ir  Ir44  1  0.125000  0.125000  0.625000  1
  Ir  Ir45  1  0.125000  0.125000  0.125000  1
