# generated using pymatgen
data_Y12Sc3Al12V5O48
_symmetry_space_group_name_H-M   'P 1'
_cell_length_a   10.73126842
_cell_length_b   10.71969656
_cell_length_c   10.70662440
_cell_angle_alpha   109.42107443
_cell_angle_beta   109.48295277
_cell_angle_gamma   109.52536653
_symmetry_Int_Tables_number   1
_chemical_formula_structural   Y12Sc3Al12V5O48
_chemical_formula_sum   'Y12 Sc3 Al12 V5 O48'
_cell_volume   947.93728538
_cell_formula_units_Z   1
loop_
 _symmetry_equiv_pos_site_id
 _symmetry_equiv_pos_as_xyz
  1  'x, y, z'
loop_
 _atom_site_type_symbol
 _atom_site_label
 _atom_site_symmetry_multiplicity
 _atom_site_fract_x
 _atom_site_fract_y
 _atom_site_fract_z
 _atom_site_occupancy
  Y  Y0  1  0.375269  0.751818  0.126288  1
  Y  Y1  1  0.249613  0.376145  0.125307  1
  Y  Y2  1  0.375873  0.126139  0.250667  1
  Y  Y3  1  0.876851  0.622965  0.249733  1
  Y  Y4  1  0.748900  0.124800  0.375211  1
  Y  Y5  1  0.127166  0.254904  0.377801  1
  Y  Y6  1  0.251113  0.875202  0.624793  1
  Y  Y7  1  0.872820  0.745078  0.622191  1
  Y  Y8  1  0.123147  0.377030  0.750260  1
  Y  Y9  1  0.624109  0.873849  0.749325  1
  Y  Y10  1  0.750386  0.623849  0.874688  1
  Y  Y11  1  0.624723  0.248191  0.873722  1
  Sc  Sc12  1  0.999990  0.000007  0.999989  1
  Sc  Sc13  1  0.500000  0.500019  0.000008  1
  Sc  Sc14  1  0.000004  0.999989  0.499996  1
  Al  Al15  1  0.875552  0.252297  0.126156  1
  Al  Al16  1  0.748826  0.875727  0.123667  1
  Al  Al17  1  0.127038  0.873964  0.251286  1
  Al  Al18  1  0.626270  0.374241  0.250629  1
  Al  Al19  1  0.250295  0.625094  0.375286  1
  Al  Al20  1  0.622681  0.748730  0.375748  1
  Al  Al21  1  0.749706  0.374908  0.624711  1
  Al  Al22  1  0.377327  0.251278  0.624263  1
  Al  Al23  1  0.872961  0.126036  0.748703  1
  Al  Al24  1  0.373734  0.625759  0.749367  1
  Al  Al25  1  0.251179  0.124280  0.876336  1
  Al  Al26  1  0.124440  0.747698  0.873851  1
  V  V27  1  0.499996  0.000002  0.000001  1
  V  V28  1  0.999997  0.499990  0.000001  1
  V  V29  1  0.500007  0.000004  0.500004  1
  V  V30  1  0.000007  0.500006  0.500009  1
  V  V31  1  0.499999  0.499998  0.499999  1
  O  O32  1  0.214432  0.126237  0.027438  1
  O  O33  1  0.312487  0.898644  0.023204  1
  O  O34  1  0.713790  0.689023  0.088580  1
  O  O35  1  0.877620  0.401466  0.084788  1
  O  O36  1  0.976978  0.686364  0.099516  1
  O  O37  1  0.626197  0.411780  0.100385  1
  O  O38  1  0.598571  0.913887  0.123556  1
  O  O39  1  0.025011  0.213667  0.127082  1
  O  O40  1  0.208611  0.586334  0.185943  1
  O  O41  1  0.472995  0.599694  0.187668  1
  O  O42  1  0.584838  0.183507  0.207367  1
  O  O43  1  0.126855  0.024310  0.214149  1
  O  O44  1  0.477993  0.376459  0.290770  1
  O  O45  1  0.317059  0.914813  0.292780  1
  O  O46  1  0.914468  0.294574  0.316035  1
  O  O47  1  0.899269  0.026568  0.311382  1
  O  O48  1  0.291066  0.476658  0.376370  1
  O  O49  1  0.587111  0.900586  0.377235  1
  O  O50  1  0.814548  0.523916  0.400879  1
  O  O51  1  0.087783  0.873231  0.400443  1
  O  O52  1  0.810257  0.786362  0.412851  1
  O  O53  1  0.099969  0.623008  0.413924  1
  O  O54  1  0.378378  0.293385  0.476023  1
  O  O55  1  0.599625  0.185880  0.475890  1
  O  O56  1  0.400383  0.814122  0.524112  1
  O  O57  1  0.621615  0.706603  0.523970  1
  O  O58  1  0.900037  0.376994  0.586083  1
  O  O59  1  0.189751  0.213636  0.587148  1
  O  O60  1  0.912227  0.126764  0.599554  1
  O  O61  1  0.185457  0.476084  0.599128  1
  O  O62  1  0.708921  0.523333  0.623618  1
  O  O63  1  0.412896  0.099416  0.622766  1
  O  O64  1  0.100740  0.973431  0.688623  1
  O  O65  1  0.085544  0.705439  0.683980  1
  O  O66  1  0.682951  0.085190  0.707224  1
  O  O67  1  0.522004  0.623533  0.709216  1
  O  O68  1  0.415160  0.816494  0.792637  1
  O  O69  1  0.873138  0.975694  0.785836  1
  O  O70  1  0.791390  0.413657  0.814055  1
  O  O71  1  0.527008  0.400317  0.812348  1
  O  O72  1  0.974989  0.786344  0.872914  1
  O  O73  1  0.401429  0.086109  0.876447  1
  O  O74  1  0.023020  0.313623  0.900482  1
  O  O75  1  0.373801  0.588233  0.899615  1
  O  O76  1  0.286213  0.310985  0.911425  1
  O  O77  1  0.122380  0.598529  0.915215  1
  O  O78  1  0.687505  0.101352  0.976797  1
  O  O79  1  0.785561  0.873764  0.972558  1
