# generated using pymatgen
data_Nd2Al9IrPd2
_symmetry_space_group_name_H-M   'P 1'
_cell_length_a   7.67508797
_cell_length_b   7.67508837
_cell_length_c   9.60934455
_cell_angle_alpha   89.95058767
_cell_angle_beta   89.95058456
_cell_angle_gamma   119.59450206
_symmetry_Int_Tables_number   1
_chemical_formula_structural   Nd2Al9IrPd2
_chemical_formula_sum   'Nd4 Al18 Ir2 Pd4'
_cell_volume   492.21018847
_cell_formula_units_Z   2
loop_
 _symmetry_equiv_pos_site_id
 _symmetry_equiv_pos_as_xyz
  1  'x, y, z'
loop_
 _atom_site_type_symbol
 _atom_site_label
 _atom_site_symmetry_multiplicity
 _atom_site_fract_x
 _atom_site_fract_y
 _atom_site_fract_z
 _atom_site_occupancy
  Nd  Nd0  1  0.994494  0.669709  0.250069  1
  Nd  Nd1  1  0.005506  0.330291  0.749931  1
  Nd  Nd2  1  0.669709  0.994494  0.250069  1
  Nd  Nd3  1  0.330291  0.005506  0.749931  1
  Al  Al4  1  0.132147  0.132147  0.251534  1
  Al  Al5  1  0.867853  0.867853  0.748466  1
  Al  Al6  1  0.003720  0.334826  0.074902  1
  Al  Al7  1  0.996280  0.665174  0.925098  1
  Al  Al8  1  0.999290  0.662017  0.571147  1
  Al  Al9  1  0.337983  0.000710  0.428853  1
  Al  Al10  1  0.000710  0.337983  0.428853  1
  Al  Al11  1  0.662017  0.999290  0.571147  1
  Al  Al12  1  0.665174  0.996280  0.925098  1
  Al  Al13  1  0.334826  0.003720  0.074902  1
  Al  Al14  1  0.336104  0.336104  0.548623  1
  Al  Al15  1  0.663896  0.663896  0.451377  1
  Al  Al16  1  0.664098  0.664098  0.056358  1
  Al  Al17  1  0.335902  0.335902  0.943642  1
  Al  Al18  1  0.338484  0.545075  0.253808  1
  Al  Al19  1  0.661516  0.454925  0.746192  1
  Al  Al20  1  0.545075  0.338484  0.253808  1
  Al  Al21  1  0.454925  0.661516  0.746192  1
  Ir  Ir22  1  0.329284  0.670716  0.500000  1
  Ir  Ir23  1  0.670716  0.329284  0.500000  1
  Pd  Pd24  1  0.671270  0.328730  0.000000  1
  Pd  Pd25  1  0.328730  0.671270  0.000000  1
  Pd  Pd26  1  0.000000  0.000000  0.000000  1
  Pd  Pd27  1  0.000000  0.000000  0.500000  1
