# generated using pymatgen
data_Ac8CdIn(PbAu4)2
_symmetry_space_group_name_H-M   'P 1'
_cell_length_a   8.40369600
_cell_length_b   8.40369600
_cell_length_c   8.41996500
_cell_angle_alpha   90.00000000
_cell_angle_beta   90.00000000
_cell_angle_gamma   90.00000000
_symmetry_Int_Tables_number   1
_chemical_formula_structural   Ac8CdIn(PbAu4)2
_chemical_formula_sum   'Ac8 Cd1 In1 Pb2 Au8'
_cell_volume   594.63566462
_cell_formula_units_Z   1
loop_
 _symmetry_equiv_pos_site_id
 _symmetry_equiv_pos_as_xyz
  1  'x, y, z'
loop_
 _atom_site_type_symbol
 _atom_site_label
 _atom_site_symmetry_multiplicity
 _atom_site_fract_x
 _atom_site_fract_y
 _atom_site_fract_z
 _atom_site_occupancy
  Ac  Ac0  1  0.823589  0.178337  0.499210  1
  Ac  Ac1  1  0.176411  0.821663  0.499210  1
  Ac  Ac2  1  0.321663  0.323589  0.000790  1
  Ac  Ac3  1  0.678337  0.676411  0.000790  1
  Ac  Ac4  1  0.679108  0.677418  0.500009  1
  Ac  Ac5  1  0.320892  0.322582  0.500009  1
  Ac  Ac6  1  0.177419  0.820892  0.999991  1
  Ac  Ac7  1  0.822582  0.179109  0.999991  1
  Cd  Cd8  1  0.500000  0.000000  0.750000  1
  In  In9  1  0.000000  0.500000  0.250000  1
  Pb  Pb10  1  0.500000  0.000000  0.250000  1
  Pb  Pb11  1  0.000000  0.500000  0.750000  1
  Au  Au12  1  0.627702  0.383143  0.250405  1
  Au  Au13  1  0.372298  0.616857  0.250405  1
  Au  Au14  1  0.129972  0.116277  0.750614  1
  Au  Au15  1  0.870028  0.883723  0.750614  1
  Au  Au16  1  0.383723  0.629972  0.749386  1
  Au  Au17  1  0.616277  0.370028  0.749386  1
  Au  Au18  1  0.883143  0.872298  0.249595  1
  Au  Au19  1  0.116857  0.127702  0.249595  1
