# generated using pymatgen
data_AcLa11(RuBr3)4
_symmetry_space_group_name_H-M   'P 1'
_cell_length_a   10.64263373
_cell_length_b   10.68587729
_cell_length_c   10.64263281
_cell_angle_alpha   109.17511335
_cell_angle_beta   110.10057838
_cell_angle_gamma   109.17511627
_symmetry_Int_Tables_number   1
_chemical_formula_structural   AcLa11(RuBr3)4
_chemical_formula_sum   'Ac1 La11 Ru4 Br12'
_cell_volume   931.23402725
_cell_formula_units_Z   1
loop_
 _symmetry_equiv_pos_site_id
 _symmetry_equiv_pos_as_xyz
  1  'x, y, z'
loop_
 _atom_site_type_symbol
 _atom_site_label
 _atom_site_symmetry_multiplicity
 _atom_site_fract_x
 _atom_site_fract_y
 _atom_site_fract_z
 _atom_site_occupancy
  Ac  Ac0  1  0.260492  0.750000  0.239508  1
  La  La1  1  0.483087  0.750000  0.016913  1
  La  La2  1  0.234391  0.466520  0.482902  1
  La  La3  1  0.017098  0.033480  0.265609  1
  La  La4  1  0.232749  0.266364  0.747172  1
  La  La5  1  0.019302  0.483599  0.753034  1
  La  La6  1  0.483342  0.235251  0.465689  1
  La  La7  1  0.268227  0.015710  0.032910  1
  La  La8  1  0.752828  0.233636  0.267251  1
  La  La9  1  0.746966  0.016401  0.480698  1
  La  La10  1  0.467090  0.484290  0.231773  1
  La  La11  1  0.034311  0.264749  0.016658  1
  Ru  Ru12  1  0.501544  0.002112  0.250046  1
  Ru  Ru13  1  0.249954  0.497888  0.998456  1
  Ru  Ru14  1  0.001644  0.250000  0.498356  1
  Ru  Ru15  1  0.249907  0.250000  0.250093  1
  Br  Br16  1  0.252157  0.002214  0.511849  1
  Br  Br17  1  0.508436  0.503532  0.754860  1
  Br  Br18  1  0.248962  0.752290  0.745182  1
  Br  Br19  1  0.985423  0.746343  0.988472  1
  Br  Br20  1  0.988151  0.497786  0.247843  1
  Br  Br21  1  0.745140  0.996468  0.991564  1
  Br  Br22  1  0.754818  0.747710  0.251038  1
  Br  Br23  1  0.511528  0.753657  0.514577  1
  Br  Br24  1  0.503810  0.250000  0.996190  1
  Br  Br25  1  0.754446  0.506463  0.502853  1
  Br  Br26  1  0.747048  0.250000  0.752952  1
  Br  Br27  1  0.997147  0.993537  0.745554  1
