# generated using pymatgen
data_Li4Tb3Gd(SiO4)4
_symmetry_space_group_name_H-M   'P 1'
_cell_length_a   6.26482302
_cell_length_b   5.47339168
_cell_length_c   10.99897694
_cell_angle_alpha   66.47546303
_cell_angle_beta   90.10495950
_cell_angle_gamma   90.07898693
_symmetry_Int_Tables_number   1
_chemical_formula_structural   Li4Tb3Gd(SiO4)4
_chemical_formula_sum   'Li4 Tb3 Gd1 Si4 O16'
_cell_volume   345.80690280
_cell_formula_units_Z   1
loop_
 _symmetry_equiv_pos_site_id
 _symmetry_equiv_pos_as_xyz
  1  'x, y, z'
loop_
 _atom_site_type_symbol
 _atom_site_label
 _atom_site_symmetry_multiplicity
 _atom_site_fract_x
 _atom_site_fract_y
 _atom_site_fract_z
 _atom_site_occupancy
  Li  Li0  1  0.133808  0.920441  0.429798  1
  Li  Li1  1  0.634142  0.078702  0.070796  1
  Li  Li2  1  0.866018  0.080161  0.570098  1
  Li  Li3  1  0.366477  0.920282  0.929961  1
  Tb  Tb4  1  0.883343  0.554437  0.152309  1
  Tb  Tb5  1  0.616719  0.555480  0.650949  1
  Tb  Tb6  1  0.383927  0.445335  0.347822  1
  Gd  Gd7  1  0.116882  0.445023  0.847886  1
  Si  Si8  1  0.651793  0.905340  0.358912  1
  Si  Si9  1  0.349712  0.095482  0.639870  1
  Si  Si10  1  0.151861  0.093540  0.142134  1
  Si  Si11  1  0.846140  0.905368  0.859008  1
  O  O12  1  0.855090  0.230443  0.775827  1
  O  O13  1  0.641685  0.230702  0.276938  1
  O  O14  1  0.164057  0.183402  0.524917  1
  O  O15  1  0.835070  0.761657  0.752206  1
  O  O16  1  0.141188  0.768110  0.223963  1
  O  O17  1  0.570809  0.227056  0.554358  1
  O  O18  1  0.662738  0.759819  0.252751  1
  O  O19  1  0.429424  0.775175  0.443715  1
  O  O20  1  0.069239  0.778709  0.943985  1
  O  O21  1  0.662840  0.815812  0.975396  1
  O  O22  1  0.162959  0.239600  0.248026  1
  O  O23  1  0.929081  0.223682  0.057580  1
  O  O24  1  0.337345  0.180394  0.027104  1
  O  O25  1  0.339968  0.238399  0.746901  1
  O  O26  1  0.361141  0.770602  0.721891  1
  O  O27  1  0.836546  0.816847  0.474900  1
