# generated using pymatgen
data_Lu12In3Fe2
_symmetry_space_group_name_H-M   'P 1'
_cell_length_a   8.27790929
_cell_length_b   8.27790912
_cell_length_c   8.27790931
_cell_angle_alpha   110.02723733
_cell_angle_beta   110.02724400
_cell_angle_gamma   108.36481439
_symmetry_Int_Tables_number   1
_chemical_formula_structural   Lu12In3Fe2
_chemical_formula_sum   'Lu12 In3 Fe2'
_cell_volume   436.53482487
_cell_formula_units_Z   1
loop_
 _symmetry_equiv_pos_site_id
 _symmetry_equiv_pos_as_xyz
  1  'x, y, z'
loop_
 _atom_site_type_symbol
 _atom_site_label
 _atom_site_symmetry_multiplicity
 _atom_site_fract_x
 _atom_site_fract_y
 _atom_site_fract_z
 _atom_site_occupancy
  Lu  Lu0  1  0.305218  0.305218  0.610435  1
  Lu  Lu1  1  0.694782  0.694782  0.389565  1
  Lu  Lu2  1  0.305218  0.694782  0.000000  1
  Lu  Lu3  1  0.694782  0.305218  0.000000  1
  Lu  Lu4  1  0.457125  0.209742  0.247383  1
  Lu  Lu5  1  0.542875  0.790258  0.752617  1
  Lu  Lu6  1  0.962360  0.209742  0.752617  1
  Lu  Lu7  1  0.209742  0.962360  0.752617  1
  Lu  Lu8  1  0.037640  0.790258  0.247383  1
  Lu  Lu9  1  0.790258  0.037640  0.247383  1
  Lu  Lu10  1  0.209742  0.457125  0.247383  1
  Lu  Lu11  1  0.790258  0.542875  0.752617  1
  In  In12  1  0.000000  0.000000  0.000000  1
  In  In13  1  0.500000  0.000000  0.500000  1
  In  In14  1  0.000000  0.500000  0.500000  1
  Fe  Fe15  1  0.386475  0.386475  0.000000  1
  Fe  Fe16  1  0.613525  0.613525  0.000000  1
