# generated using pymatgen
data_Pr12Ir(PtCl4)3
_symmetry_space_group_name_H-M   'P 1'
_cell_length_a   10.35867479
_cell_length_b   10.35867386
_cell_length_c   10.35867565
_cell_angle_alpha   109.26218762
_cell_angle_beta   109.26218680
_cell_angle_gamma   109.26218636
_symmetry_Int_Tables_number   1
_chemical_formula_structural   Pr12Ir(PtCl4)3
_chemical_formula_sum   'Pr12 Ir1 Pt3 Cl12'
_cell_volume   862.19769742
_cell_formula_units_Z   1
loop_
 _symmetry_equiv_pos_site_id
 _symmetry_equiv_pos_as_xyz
  1  'x, y, z'
loop_
 _atom_site_type_symbol
 _atom_site_label
 _atom_site_symmetry_multiplicity
 _atom_site_fract_x
 _atom_site_fract_y
 _atom_site_fract_z
 _atom_site_occupancy
  Pr  Pr0  1  0.260398  0.750000  0.239602  1
  Pr  Pr1  1  0.488716  0.750000  0.011284  1
  Pr  Pr2  1  0.240651  0.478104  0.485357  1
  Pr  Pr3  1  0.014643  0.021896  0.259349  1
  Pr  Pr4  1  0.239602  0.260398  0.750000  1
  Pr  Pr5  1  0.011284  0.488716  0.750000  1
  Pr  Pr6  1  0.485357  0.240651  0.478104  1
  Pr  Pr7  1  0.259349  0.014643  0.021896  1
  Pr  Pr8  1  0.750000  0.239602  0.260398  1
  Pr  Pr9  1  0.750000  0.011284  0.488716  1
  Pr  Pr10  1  0.478104  0.485357  0.240651  1
  Pr  Pr11  1  0.021896  0.259349  0.014643  1
  Ir  Ir12  1  0.250000  0.250000  0.250000  1
  Pt  Pt13  1  0.499166  0.000834  0.250000  1
  Pt  Pt14  1  0.250000  0.499166  0.000834  1
  Pt  Pt15  1  0.000834  0.250000  0.499166  1
  Cl  Cl16  1  0.250000  0.000135  0.499865  1
  Cl  Cl17  1  0.495936  0.499304  0.749448  1
  Cl  Cl18  1  0.250000  0.746972  0.753028  1
  Cl  Cl19  1  0.004064  0.750552  0.000696  1
  Cl  Cl20  1  0.000135  0.499865  0.250000  1
  Cl  Cl21  1  0.750552  0.000696  0.004064  1
  Cl  Cl22  1  0.746972  0.753028  0.250000  1
  Cl  Cl23  1  0.499304  0.749448  0.495936  1
  Cl  Cl24  1  0.499865  0.250000  0.000135  1
  Cl  Cl25  1  0.749448  0.495936  0.499304  1
  Cl  Cl26  1  0.753028  0.250000  0.746972  1
  Cl  Cl27  1  0.000696  0.004064  0.750552  1
