# generated using pymatgen
data_Ti8Al15Ru5Pt2
_symmetry_space_group_name_H-M   'P 1'
_cell_length_a   8.68272679
_cell_length_b   8.65616353
_cell_length_c   8.68221942
_cell_angle_alpha   120.12135159
_cell_angle_beta   119.95153400
_cell_angle_gamma   90.03122644
_symmetry_Int_Tables_number   1
_chemical_formula_structural   Ti8Al15Ru5Pt2
_chemical_formula_sum   'Ti8 Al15 Ru5 Pt2'
_cell_volume   460.78487237
_cell_formula_units_Z   1
loop_
 _symmetry_equiv_pos_site_id
 _symmetry_equiv_pos_as_xyz
  1  'x, y, z'
loop_
 _atom_site_type_symbol
 _atom_site_label
 _atom_site_symmetry_multiplicity
 _atom_site_fract_x
 _atom_site_fract_y
 _atom_site_fract_z
 _atom_site_occupancy
  Ti  Ti0  1  0.791568  0.287211  0.069769  1
  Ti  Ti1  1  0.217207  0.287090  0.495439  1
  Ti  Ti2  1  0.210227  0.708774  0.498518  1
  Ti  Ti3  1  0.214384  0.718475  0.928203  1
  Ti  Ti4  1  0.790318  0.718463  0.504110  1
  Ti  Ti5  1  0.780219  0.282570  0.502380  1
  Ti  Ti6  1  0.384731  0.128154  0.743401  1
  Ti  Ti7  1  0.378366  0.635838  0.257391  1
  Al  Al8  1  0.996099  0.495326  0.499240  1
  Al  Al9  1  0.155721  0.344748  0.189129  1
  Al  Al10  1  0.153365  0.965300  0.811970  1
  Al  Al11  1  0.152315  0.350565  0.807051  1
  Al  Al12  1  0.543450  0.350523  0.198212  1
  Al  Al13  1  0.846042  0.653364  0.807357  1
  Al  Al14  1  0.848474  0.042795  0.194268  1
  Al  Al15  1  0.842788  0.649970  0.187269  1
  Al  Al16  1  0.462715  0.649930  0.807209  1
  Al  Al17  1  0.378146  0.123626  0.261683  1
  Al  Al18  1  0.862038  0.123576  0.745516  1
  Al  Al19  1  0.617005  0.872792  0.255753  1
  Al  Al20  1  0.621436  0.365007  0.743470  1
  Al  Al21  1  0.621786  0.875133  0.738434  1
  Al  Al22  1  0.136618  0.875139  0.253290  1
  Ru  Ru23  1  0.497962  0.497311  0.999428  1
  Ru  Ru24  1  0.498673  0.499570  0.499294  1
  Ru  Ru25  1  0.000255  0.499479  0.000828  1
  Ru  Ru26  1  0.999730  0.000400  0.000749  1
  Ru  Ru27  1  0.498905  0.999661  0.500796  1
  Pt  Pt28  1  0.999769  0.999618  0.499938  1
  Pt  Pt29  1  0.499682  0.999592  0.999904  1
