# generated using pymatgen
data_TbY2Al12(RuRh)2
_symmetry_space_group_name_H-M   'P 1'
_cell_length_a   8.84120086
_cell_length_b   8.78424049
_cell_length_c   9.57235800
_cell_angle_alpha   90.00000000
_cell_angle_beta   90.00000000
_cell_angle_gamma   119.78711141
_symmetry_Int_Tables_number   1
_chemical_formula_structural   TbY2Al12(RuRh)2
_chemical_formula_sum   'Tb2 Y4 Al24 Ru4 Rh4'
_cell_volume   645.19753396
_cell_formula_units_Z   2
loop_
 _symmetry_equiv_pos_site_id
 _symmetry_equiv_pos_as_xyz
  1  'x, y, z'
loop_
 _atom_site_type_symbol
 _atom_site_label
 _atom_site_symmetry_multiplicity
 _atom_site_fract_x
 _atom_site_fract_y
 _atom_site_fract_z
 _atom_site_occupancy
  Tb  Tb0  1  0.189350  0.804472  0.750000  1
  Tb  Tb1  1  0.189350  0.384878  0.750000  1
  Y  Y2  1  0.383611  0.191805  0.250000  1
  Y  Y3  1  0.810453  0.195626  0.250000  1
  Y  Y4  1  0.810453  0.614827  0.250000  1
  Y  Y5  1  0.616320  0.808161  0.750000  1
  Al  Al6  1  0.439268  0.876822  0.250000  1
  Al  Al7  1  0.123937  0.561969  0.250000  1
  Al  Al8  1  0.439268  0.562446  0.250000  1
  Al  Al9  1  0.560885  0.123309  0.750000  1
  Al  Al10  1  0.875656  0.437828  0.750000  1
  Al  Al11  1  0.560885  0.437576  0.750000  1
  Al  Al12  1  0.162152  0.835546  0.422610  1
  Al  Al13  1  0.162152  0.326607  0.422610  1
  Al  Al14  1  0.675084  0.837542  0.422820  1
  Al  Al15  1  0.837839  0.164443  0.577263  1
  Al  Al16  1  0.837839  0.673395  0.577263  1
  Al  Al17  1  0.324902  0.162451  0.577104  1
  Al  Al18  1  0.837839  0.164443  0.922737  1
  Al  Al19  1  0.837839  0.673395  0.922737  1
  Al  Al20  1  0.324902  0.162451  0.922896  1
  Al  Al21  1  0.162152  0.835546  0.077390  1
  Al  Al22  1  0.162152  0.326607  0.077390  1
  Al  Al23  1  0.675084  0.837542  0.077180  1
  Al  Al24  1  0.331087  0.665544  0.523233  1
  Al  Al25  1  0.669031  0.334515  0.476700  1
  Al  Al26  1  0.669031  0.334515  0.023300  1
  Al  Al27  1  0.331087  0.665544  0.976767  1
  Al  Al28  1  0.002180  0.001089  0.250000  1
  Al  Al29  1  0.997967  0.998984  0.750000  1
  Ru  Ru30  1  0.999936  0.999968  0.499899  1
  Ru  Ru31  1  0.999936  0.999968  0.000101  1
  Ru  Ru32  1  0.999913  0.499956  0.499982  1
  Ru  Ru33  1  0.999913  0.499956  0.000018  1
  Rh  Rh34  1  0.500137  0.000099  0.499955  1
  Rh  Rh35  1  0.500137  0.500038  0.499955  1
  Rh  Rh36  1  0.500137  0.000099  0.000045  1
  Rh  Rh37  1  0.500137  0.500038  0.000045  1
