# generated using pymatgen
data_Rb4Li2SmInSb4
_symmetry_space_group_name_H-M   'P 1'
_cell_length_a   9.93287439
_cell_length_b   9.93220305
_cell_length_c   9.93192279
_cell_angle_alpha   137.51616386
_cell_angle_beta   61.46104522
_cell_angle_gamma   137.75583428
_symmetry_Int_Tables_number   1
_chemical_formula_structural   Rb4Li2SmInSb4
_chemical_formula_sum   'Rb4 Li2 Sm1 In1 Sb4'
_cell_volume   439.85410301
_cell_formula_units_Z   1
loop_
 _symmetry_equiv_pos_site_id
 _symmetry_equiv_pos_as_xyz
  1  'x, y, z'
loop_
 _atom_site_type_symbol
 _atom_site_label
 _atom_site_symmetry_multiplicity
 _atom_site_fract_x
 _atom_site_fract_y
 _atom_site_fract_z
 _atom_site_occupancy
  Rb  Rb0  1  0.816932  0.256642  0.090326  1
  Rb  Rb1  1  0.683121  0.773427  0.439694  1
  Rb  Rb2  1  0.333689  0.243355  0.560284  1
  Rb  Rb3  1  0.166276  0.726587  0.909710  1
  Li  Li4  1  0.750025  0.250023  0.500033  1
  Li  Li5  1  0.250006  0.749985  0.499994  1
  Sm  Sm6  1  0.249971  0.249966  0.000020  1
  In  In7  1  0.750006  0.750050  0.000000  1
  Sb  Sb8  1  0.410460  0.754465  0.150413  1
  Sb  Sb9  1  0.089391  0.239767  0.343952  1
  Sb  Sb10  1  0.895918  0.745505  0.655963  1
  Sb  Sb11  1  0.604204  0.260231  0.849612  1
