# generated using pymatgen
data_Er4Al14Ga10Pt7Rh2
_symmetry_space_group_name_H-M   'P 1'
_cell_length_a   7.49738226
_cell_length_b   7.48817874
_cell_length_c   13.23726856
_cell_angle_alpha   84.62674146
_cell_angle_beta   100.77430922
_cell_angle_gamma   119.87461393
_symmetry_Int_Tables_number   1
_chemical_formula_structural   Er4Al14Ga10Pt7Rh2
_chemical_formula_sum   'Er4 Al14 Ga10 Pt7 Rh2'
_cell_volume   633.04958440
_cell_formula_units_Z   1
loop_
 _symmetry_equiv_pos_site_id
 _symmetry_equiv_pos_as_xyz
  1  'x, y, z'
loop_
 _atom_site_type_symbol
 _atom_site_label
 _atom_site_symmetry_multiplicity
 _atom_site_fract_x
 _atom_site_fract_y
 _atom_site_fract_z
 _atom_site_occupancy
  Er  Er0  1  0.736517  0.004688  0.191161  1
  Er  Er1  1  0.264863  0.997626  0.808432  1
  Er  Er2  1  0.061318  0.661891  0.189822  1
  Er  Er3  1  0.937294  0.337044  0.810507  1
  Al  Al4  1  0.229691  0.339490  0.668864  1
  Al  Al5  1  0.770816  0.660718  0.331458  1
  Al  Al6  1  0.853995  0.332973  0.559169  1
  Al  Al7  1  0.187578  0.999637  0.558682  1
  Al  Al8  1  0.813792  0.999872  0.441390  1
  Al  Al9  1  0.348153  0.996053  0.053133  1
  Al  Al10  1  0.647741  0.996333  0.947186  1
  Al  Al11  1  0.557742  0.993217  0.671466  1
  Al  Al12  1  0.442965  0.005658  0.329342  1
  Al  Al13  1  0.522921  0.668911  0.560618  1
  Al  Al14  1  0.477532  0.331005  0.439445  1
  Al  Al15  1  0.683950  0.670900  0.045365  1
  Al  Al16  1  0.311889  0.332065  0.954426  1
  Al  Al17  1  0.146648  0.666008  0.441070  1
  Ga  Ga18  1  0.809442  0.877158  0.817707  1
  Ga  Ga19  1  0.191218  0.122287  0.182281  1
  Ga  Ga20  1  0.985847  0.670611  0.941761  1
  Ga  Ga21  1  0.021021  0.332826  0.057890  1
  Ga  Ga22  1  0.397263  0.663356  0.818954  1
  Ga  Ga23  1  0.598048  0.336279  0.183513  1
  Ga  Ga24  1  0.885341  0.665167  0.673865  1
  Ga  Ga25  1  0.115664  0.334827  0.324974  1
  Ga  Ga26  1  0.599471  0.459977  0.815862  1
  Ga  Ga27  1  0.402096  0.547867  0.181697  1
  Pt  Pt28  1  0.542615  0.321415  0.635521  1
  Pt  Pt29  1  0.457890  0.677446  0.364559  1
  Pt  Pt30  1  0.888566  0.010937  0.636323  1
  Pt  Pt31  1  0.112338  0.988609  0.363781  1
  Pt  Pt32  1  0.663685  0.324839  0.998904  1
  Pt  Pt33  1  0.209084  0.666907  0.635955  1
  Pt  Pt34  1  0.791940  0.332763  0.364286  1
  Rh  Rh35  1  0.333125  0.672911  0.000723  1
  Rh  Rh36  1  0.999941  0.999731  0.999912  1
