# generated using pymatgen
data_ScPa(NiPt2)2
_symmetry_space_group_name_H-M   'P 1'
_cell_length_a   5.65129980
_cell_length_b   5.65130062
_cell_length_c   4.67745800
_cell_angle_alpha   90.00000000
_cell_angle_beta   90.00000000
_cell_angle_gamma   120.30330932
_symmetry_Int_Tables_number   1
_chemical_formula_structural   ScPa(NiPt2)2
_chemical_formula_sum   'Sc1 Pa1 Ni2 Pt4'
_cell_volume   128.97389057
_cell_formula_units_Z   1
loop_
 _symmetry_equiv_pos_site_id
 _symmetry_equiv_pos_as_xyz
  1  'x, y, z'
loop_
 _atom_site_type_symbol
 _atom_site_label
 _atom_site_symmetry_multiplicity
 _atom_site_fract_x
 _atom_site_fract_y
 _atom_site_fract_z
 _atom_site_occupancy
  Sc  Sc0  1  0.667225  0.332775  0.250000  1
  Pa  Pa1  1  0.329894  0.670106  0.750000  1
  Ni  Ni2  1  0.839461  0.160539  0.750000  1
  Ni  Ni3  1  0.161418  0.838582  0.250000  1
  Pt  Pt4  1  0.329925  0.160318  0.750000  1
  Pt  Pt5  1  0.839682  0.670075  0.750000  1
  Pt  Pt6  1  0.676376  0.843980  0.250000  1
  Pt  Pt7  1  0.156020  0.323624  0.250000  1
