# generated using pymatgen
data_HoErCo7(P2Ru)3
_symmetry_space_group_name_H-M   'P 1'
_cell_length_a   3.71346600
_cell_length_b   10.42549800
_cell_length_c   11.82773000
_cell_angle_alpha   90.00000000
_cell_angle_beta   90.00000000
_cell_angle_gamma   90.00000000
_symmetry_Int_Tables_number   1
_chemical_formula_structural   HoErCo7(P2Ru)3
_chemical_formula_sum   'Ho2 Er2 Co14 P12 Ru6'
_cell_volume   457.90740133
_cell_formula_units_Z   2
loop_
 _symmetry_equiv_pos_site_id
 _symmetry_equiv_pos_as_xyz
  1  'x, y, z'
loop_
 _atom_site_type_symbol
 _atom_site_label
 _atom_site_symmetry_multiplicity
 _atom_site_fract_x
 _atom_site_fract_y
 _atom_site_fract_z
 _atom_site_occupancy
  Ho  Ho0  1  0.250000  0.586616  0.705149  1
  Ho  Ho1  1  0.250000  0.913384  0.205149  1
  Er  Er2  1  0.750000  0.415049  0.292291  1
  Er  Er3  1  0.750000  0.084951  0.792291  1
  Co  Co4  1  0.750000  0.597478  0.512951  1
  Co  Co5  1  0.750000  0.902522  0.012951  1
  Co  Co6  1  0.250000  0.225104  0.179489  1
  Co  Co7  1  0.250000  0.274896  0.679489  1
  Co  Co8  1  0.750000  0.777181  0.822281  1
  Co  Co9  1  0.750000  0.722819  0.322281  1
  Co  Co10  1  0.250000  0.884683  0.700490  1
  Co  Co11  1  0.250000  0.615317  0.200490  1
  Co  Co12  1  0.750000  0.113582  0.298550  1
  Co  Co13  1  0.750000  0.386418  0.798550  1
  Co  Co14  1  0.250000  0.465233  0.931027  1
  Co  Co15  1  0.250000  0.034767  0.431027  1
  Co  Co16  1  0.750000  0.537186  0.068145  1
  Co  Co17  1  0.750000  0.962814  0.568145  1
  P  P18  1  0.250000  0.422277  0.112467  1
  P  P19  1  0.250000  0.077723  0.612467  1
  P  P20  1  0.750000  0.579310  0.886940  1
  P  P21  1  0.750000  0.920690  0.386940  1
  P  P22  1  0.250000  0.272321  0.866414  1
  P  P23  1  0.250000  0.227679  0.366414  1
  P  P24  1  0.750000  0.729890  0.132706  1
  P  P25  1  0.750000  0.770110  0.632706  1
  P  P26  1  0.250000  0.600235  0.386631  1
  P  P27  1  0.250000  0.899765  0.886631  1
  P  P28  1  0.750000  0.402783  0.612834  1
  P  P29  1  0.750000  0.097217  0.112834  1
  Ru  Ru30  1  0.250000  0.714456  0.989902  1
  Ru  Ru31  1  0.250000  0.785544  0.489902  1
  Ru  Ru32  1  0.750000  0.289843  0.013147  1
  Ru  Ru33  1  0.750000  0.210157  0.513147  1
  Ru  Ru34  1  0.250000  0.409117  0.488587  1
  Ru  Ru35  1  0.250000  0.090883  0.988587  1
