# generated using pymatgen
data_Yb10PdRuAu2
_symmetry_space_group_name_H-M   'P 1'
_cell_length_a   8.84157530
_cell_length_b   8.82940827
_cell_length_c   7.70669600
_cell_angle_alpha   82.82661552
_cell_angle_beta   83.10789113
_cell_angle_gamma   43.83575732
_symmetry_Int_Tables_number   1
_chemical_formula_structural   Yb10PdRuAu2
_chemical_formula_sum   'Yb10 Pd1 Ru1 Au2'
_cell_volume   413.03130541
_cell_formula_units_Z   1
loop_
 _symmetry_equiv_pos_site_id
 _symmetry_equiv_pos_as_xyz
  1  'x, y, z'
loop_
 _atom_site_type_symbol
 _atom_site_label
 _atom_site_symmetry_multiplicity
 _atom_site_fract_x
 _atom_site_fract_y
 _atom_site_fract_z
 _atom_site_occupancy
  Yb  Yb0  1  0.030980  0.786771  0.908422  1
  Yb  Yb1  1  0.204050  0.964718  0.582794  1
  Yb  Yb2  1  0.979225  0.200470  0.073628  1
  Yb  Yb3  1  0.806145  0.009058  0.428963  1
  Yb  Yb4  1  0.357292  0.211227  0.808805  1
  Yb  Yb5  1  0.805056  0.638755  0.682244  1
  Yb  Yb6  1  0.631613  0.801723  0.175402  1
  Yb  Yb7  1  0.202219  0.370861  0.334274  1
  Yb  Yb8  1  0.568685  0.427236  0.742812  1
  Yb  Yb9  1  0.410155  0.584077  0.260870  1
  Pd  Pd10  1  0.403864  0.817979  0.919836  1
  Ru  Ru11  1  0.179617  0.603812  0.584171  1
  Au  Au12  1  0.819823  0.402987  0.416820  1
  Au  Au13  1  0.601276  0.180325  0.080956  1
