# generated using pymatgen
data_Dy5(Tl2Pt)2
_symmetry_space_group_name_H-M   'P 1'
_cell_length_a   3.63220700
_cell_length_b   8.26429900
_cell_length_c   18.46684200
_cell_angle_alpha   90.00000000
_cell_angle_beta   90.00000000
_cell_angle_gamma   90.00000000
_symmetry_Int_Tables_number   1
_chemical_formula_structural   Dy5(Tl2Pt)2
_chemical_formula_sum   'Dy10 Tl8 Pt4'
_cell_volume   554.33110148
_cell_formula_units_Z   2
loop_
 _symmetry_equiv_pos_site_id
 _symmetry_equiv_pos_as_xyz
  1  'x, y, z'
loop_
 _atom_site_type_symbol
 _atom_site_label
 _atom_site_symmetry_multiplicity
 _atom_site_fract_x
 _atom_site_fract_y
 _atom_site_fract_z
 _atom_site_occupancy
  Dy  Dy0  1  0.000000  0.114155  0.412924  1
  Dy  Dy1  1  0.000000  0.885845  0.587076  1
  Dy  Dy2  1  0.000000  0.385845  0.912924  1
  Dy  Dy3  1  0.000000  0.614155  0.087076  1
  Dy  Dy4  1  0.000000  0.245379  0.220569  1
  Dy  Dy5  1  0.000000  0.754621  0.779431  1
  Dy  Dy6  1  0.000000  0.254621  0.720569  1
  Dy  Dy7  1  0.000000  0.745379  0.279431  1
  Dy  Dy8  1  0.000000  0.000000  0.000000  1
  Dy  Dy9  1  0.000000  0.500000  0.500000  1
  Tl  Tl10  1  0.500000  0.422538  0.353093  1
  Tl  Tl11  1  0.500000  0.577462  0.646907  1
  Tl  Tl12  1  0.500000  0.077462  0.853093  1
  Tl  Tl13  1  0.500000  0.922538  0.146907  1
  Tl  Tl14  1  0.500000  0.292857  0.064885  1
  Tl  Tl15  1  0.500000  0.707143  0.935115  1
  Tl  Tl16  1  0.500000  0.207143  0.564885  1
  Tl  Tl17  1  0.500000  0.792857  0.435115  1
  Pt  Pt18  1  0.500000  0.027783  0.302697  1
  Pt  Pt19  1  0.500000  0.972217  0.697303  1
  Pt  Pt20  1  0.500000  0.472217  0.802697  1
  Pt  Pt21  1  0.500000  0.527783  0.197303  1
