# generated using pymatgen
data_K5Eu3Cl12
_symmetry_space_group_name_H-M   'P 1'
_cell_length_a   13.10699900
_cell_length_b   13.10699953
_cell_length_c   4.33138500
_cell_angle_alpha   90.00000000
_cell_angle_beta   90.00000000
_cell_angle_gamma   119.99999614
_symmetry_Int_Tables_number   1
_chemical_formula_structural   K5Eu3Cl12
_chemical_formula_sum   'K5 Eu3 Cl12'
_cell_volume   644.41254570
_cell_formula_units_Z   1
loop_
 _symmetry_equiv_pos_site_id
 _symmetry_equiv_pos_as_xyz
  1  'x, y, z'
loop_
 _atom_site_type_symbol
 _atom_site_label
 _atom_site_symmetry_multiplicity
 _atom_site_fract_x
 _atom_site_fract_y
 _atom_site_fract_z
 _atom_site_occupancy
  K  K0  1  0.709790  0.000000  0.500000  1
  K  K1  1  0.290210  0.290210  0.500000  1
  K  K2  1  0.000000  0.709790  0.500000  1
  K  K3  1  0.666667  0.333333  0.500000  1
  K  K4  1  0.333333  0.666667  0.500000  1
  Eu  Eu5  1  0.328259  0.000000  0.000000  1
  Eu  Eu6  1  0.000000  0.328259  0.000000  1
  Eu  Eu7  1  0.671741  0.671741  0.000000  1
  Cl  Cl8  1  0.185026  0.000000  0.500000  1
  Cl  Cl9  1  0.245853  0.445482  0.000000  1
  Cl  Cl10  1  0.554518  0.800372  0.000000  1
  Cl  Cl11  1  0.000000  0.185026  0.500000  1
  Cl  Cl12  1  0.814974  0.814974  0.500000  1
  Cl  Cl13  1  0.000000  0.466318  0.500000  1
  Cl  Cl14  1  0.466318  0.000000  0.500000  1
  Cl  Cl15  1  0.533682  0.533682  0.500000  1
  Cl  Cl16  1  0.754147  0.199628  0.000000  1
  Cl  Cl17  1  0.445482  0.245853  0.000000  1
  Cl  Cl18  1  0.800372  0.554518  0.000000  1
  Cl  Cl19  1  0.199628  0.754147  0.000000  1
