# generated using pymatgen
data_LiSnF5
_symmetry_space_group_name_H-M   'P 1'
_cell_length_a   5.51197614
_cell_length_b   5.51197552
_cell_length_c   8.06460886
_cell_angle_alpha   67.91936670
_cell_angle_beta   67.91936819
_cell_angle_gamma   79.23195022
_symmetry_Int_Tables_number   1
_chemical_formula_structural   LiSnF5
_chemical_formula_sum   'Li2 Sn2 F10'
_cell_volume   210.09880056
_cell_formula_units_Z   2
loop_
 _symmetry_equiv_pos_site_id
 _symmetry_equiv_pos_as_xyz
  1  'x, y, z'
loop_
 _atom_site_type_symbol
 _atom_site_label
 _atom_site_symmetry_multiplicity
 _atom_site_fract_x
 _atom_site_fract_y
 _atom_site_fract_z
 _atom_site_occupancy
  Li  Li0  1  0.433520  0.566480  0.750000  1
  Li  Li1  1  0.566480  0.433520  0.250000  1
  Sn  Sn2  1  0.000000  0.000000  0.000000  1
  Sn  Sn3  1  0.000000  0.000000  0.500000  1
  F  F4  1  0.243409  0.704278  0.951118  1
  F  F5  1  0.295722  0.756591  0.548882  1
  F  F6  1  0.769671  0.702740  0.642030  1
  F  F7  1  0.921849  0.078151  0.750000  1
  F  F8  1  0.297260  0.230329  0.857970  1
  F  F9  1  0.702740  0.769671  0.142030  1
  F  F10  1  0.078151  0.921849  0.250000  1
  F  F11  1  0.230329  0.297260  0.357970  1
  F  F12  1  0.704278  0.243409  0.451118  1
  F  F13  1  0.756591  0.295722  0.048882  1
