# generated using pymatgen
data_ErTh3Al24PdPt8
_symmetry_space_group_name_H-M   'P 1'
_cell_length_a   7.61412123
_cell_length_b   7.60958121
_cell_length_c   13.20691213
_cell_angle_alpha   84.52843762
_cell_angle_beta   100.99352178
_cell_angle_gamma   119.88654160
_symmetry_Int_Tables_number   1
_chemical_formula_structural   ErTh3Al24PdPt8
_chemical_formula_sum   'Er1 Th3 Al24 Pd1 Pt8'
_cell_volume   651.27429257
_cell_formula_units_Z   1
loop_
 _symmetry_equiv_pos_site_id
 _symmetry_equiv_pos_as_xyz
  1  'x, y, z'
loop_
 _atom_site_type_symbol
 _atom_site_label
 _atom_site_symmetry_multiplicity
 _atom_site_fract_x
 _atom_site_fract_y
 _atom_site_fract_z
 _atom_site_occupancy
  Er  Er0  1  0.936800  0.332022  0.805519  1
  Th  Th1  1  0.732465  0.998717  0.192867  1
  Th  Th2  1  0.267211  0.000794  0.806172  1
  Th  Th3  1  0.062705  0.667663  0.192869  1
  Al  Al4  1  0.804145  0.868509  0.814862  1
  Al  Al5  1  0.196735  0.135813  0.184878  1
  Al  Al6  1  0.979114  0.662939  0.942337  1
  Al  Al7  1  0.020066  0.333779  0.051410  1
  Al  Al8  1  0.397662  0.660332  0.816537  1
  Al  Al9  1  0.597789  0.336461  0.183510  1
  Al  Al10  1  0.878114  0.661756  0.667234  1
  Al  Al11  1  0.123154  0.334518  0.335966  1
  Al  Al12  1  0.605729  0.461867  0.815563  1
  Al  Al13  1  0.396909  0.537388  0.183725  1
  Al  Al14  1  0.228671  0.343597  0.665806  1
  Al  Al15  1  0.768337  0.655899  0.337945  1
  Al  Al16  1  0.852869  0.333376  0.560027  1
  Al  Al17  1  0.186302  0.999712  0.558315  1
  Al  Al18  1  0.814004  0.000556  0.443316  1
  Al  Al19  1  0.351557  0.003226  0.053553  1
  Al  Al20  1  0.650707  0.001435  0.942292  1
  Al  Al21  1  0.558395  0.993617  0.667282  1
  Al  Al22  1  0.446230  0.010306  0.336233  1
  Al  Al23  1  0.521508  0.667013  0.562682  1
  Al  Al24  1  0.480066  0.333268  0.440125  1
  Al  Al25  1  0.678336  0.664561  0.042148  1
  Al  Al26  1  0.315842  0.334505  0.951589  1
  Al  Al27  1  0.147939  0.666084  0.443279  1
  Pd  Pd28  1  0.328840  0.672330  0.000267  1
  Pt  Pt29  1  0.545310  0.324023  0.637836  1
  Pt  Pt30  1  0.454192  0.675910  0.362841  1
  Pt  Pt31  1  0.888898  0.008791  0.639247  1
  Pt  Pt32  1  0.111200  0.990767  0.361204  1
  Pt  Pt33  1  0.671889  0.328407  0.999916  1
  Pt  Pt34  1  0.203806  0.667364  0.639069  1
  Pt  Pt35  1  0.796502  0.333101  0.361499  1
  Pt  Pt36  1  0.000002  0.999597  0.000080  1
