# generated using pymatgen
data_RbLa6OsI12
_symmetry_space_group_name_H-M   'P 1'
_cell_length_a   10.22961694
_cell_length_b   10.22961639
_cell_length_c   10.22961612
_cell_angle_alpha   105.12655386
_cell_angle_beta   105.12655812
_cell_angle_gamma   105.12656178
_symmetry_Int_Tables_number   1
_chemical_formula_structural   RbLa6OsI12
_chemical_formula_sum   'Rb1 La6 Os1 I12'
_cell_volume   933.32772335
_cell_formula_units_Z   1
loop_
 _symmetry_equiv_pos_site_id
 _symmetry_equiv_pos_as_xyz
  1  'x, y, z'
loop_
 _atom_site_type_symbol
 _atom_site_label
 _atom_site_symmetry_multiplicity
 _atom_site_fract_x
 _atom_site_fract_y
 _atom_site_fract_z
 _atom_site_occupancy
  Rb  Rb0  1  0.500000  0.500000  0.500000  1
  La  La1  1  0.016074  0.094476  0.298057  1
  La  La2  1  0.298058  0.016073  0.094475  1
  La  La3  1  0.094475  0.298058  0.016073  1
  La  La4  1  0.983926  0.905524  0.701943  1
  La  La5  1  0.701942  0.983927  0.905525  1
  La  La6  1  0.905525  0.701942  0.983927  1
  Os  Os7  1  0.000000  0.000000  0.000000  1
  I  I8  1  0.567091  0.653265  0.885716  1
  I  I9  1  0.885717  0.567091  0.653264  1
  I  I10  1  0.653263  0.885717  0.567092  1
  I  I11  1  0.432909  0.346735  0.114284  1
  I  I12  1  0.114283  0.432909  0.346736  1
  I  I13  1  0.346737  0.114283  0.432908  1
  I  I14  1  0.075422  0.223307  0.674961  1
  I  I15  1  0.674962  0.075422  0.223307  1
  I  I16  1  0.223308  0.674961  0.075422  1
  I  I17  1  0.924578  0.776693  0.325039  1
  I  I18  1  0.325038  0.924578  0.776693  1
  I  I19  1  0.776692  0.325039  0.924578  1
