# generated using pymatgen
data_Sr4Al13GaAu8
_symmetry_space_group_name_H-M   'P 1'
_cell_length_a   11.94547953
_cell_length_b   11.94547824
_cell_length_c   4.29095000
_cell_angle_alpha   90.00000000
_cell_angle_beta   90.00000000
_cell_angle_gamma   120.09976308
_symmetry_Int_Tables_number   1
_chemical_formula_structural   Sr4Al13GaAu8
_chemical_formula_sum   'Sr4 Al13 Ga1 Au8'
_cell_volume   529.72900133
_cell_formula_units_Z   1
loop_
 _symmetry_equiv_pos_site_id
 _symmetry_equiv_pos_as_xyz
  1  'x, y, z'
loop_
 _atom_site_type_symbol
 _atom_site_label
 _atom_site_symmetry_multiplicity
 _atom_site_fract_x
 _atom_site_fract_y
 _atom_site_fract_z
 _atom_site_occupancy
  Sr  Sr0  1  0.204446  0.795554  0.500000  1
  Sr  Sr1  1  0.590171  0.793940  0.500000  1
  Sr  Sr2  1  0.206060  0.409829  0.500000  1
  Sr  Sr3  1  0.667788  0.332212  0.000000  1
  Al  Al4  1  0.945992  0.289420  0.000000  1
  Al  Al5  1  0.711904  0.657420  0.000000  1
  Al  Al6  1  0.947066  0.656278  0.000000  1
  Al  Al7  1  0.343722  0.052934  0.000000  1
  Al  Al8  1  0.162757  0.080111  0.500000  1
  Al  Al9  1  0.919889  0.837243  0.500000  1
  Al  Al10  1  0.710580  0.054008  0.000000  1
  Al  Al11  1  0.533707  0.066897  0.500000  1
  Al  Al12  1  0.918168  0.081832  0.500000  1
  Al  Al13  1  0.342580  0.288096  0.000000  1
  Al  Al14  1  0.534782  0.465218  0.500000  1
  Al  Al15  1  0.933103  0.466293  0.500000  1
  Al  Al16  1  0.330643  0.669357  0.000000  1
  Ga  Ga17  1  0.456341  0.543659  0.000000  1
  Au  Au18  1  0.829084  0.914900  0.000000  1
  Au  Au19  1  0.459588  0.917961  0.000000  1
  Au  Au20  1  0.085100  0.170916  0.000000  1
  Au  Au21  1  0.085317  0.914683  0.000000  1
  Au  Au22  1  0.791825  0.584819  0.500000  1
  Au  Au23  1  0.082039  0.540412  0.000000  1
  Au  Au24  1  0.792170  0.207830  0.500000  1
  Au  Au25  1  0.415181  0.208175  0.500000  1
