# generated using pymatgen
data_BaNa2(NiH6)2
_symmetry_space_group_name_H-M   'P 1'
_cell_length_a   4.98958000
_cell_length_b   4.98958084
_cell_length_c   8.90541000
_cell_angle_alpha   90.00000000
_cell_angle_beta   90.00000000
_cell_angle_gamma   119.99999445
_symmetry_Int_Tables_number   1
_chemical_formula_structural   BaNa2(NiH6)2
_chemical_formula_sum   'Ba1 Na2 Ni2 H12'
_cell_volume   192.00503973
_cell_formula_units_Z   1
loop_
 _symmetry_equiv_pos_site_id
 _symmetry_equiv_pos_as_xyz
  1  'x, y, z'
loop_
 _atom_site_type_symbol
 _atom_site_label
 _atom_site_symmetry_multiplicity
 _atom_site_fract_x
 _atom_site_fract_y
 _atom_site_fract_z
 _atom_site_occupancy
  Ba  Ba0  1  0.000000  0.000000  0.000000  1
  Na  Na1  1  0.666667  0.333333  0.375757  1
  Na  Na2  1  0.333333  0.666667  0.624243  1
  Ni  Ni3  1  0.666667  0.333333  0.749262  1
  Ni  Ni4  1  0.333333  0.666667  0.250738  1
  H  H5  1  0.192652  0.807348  0.349838  1
  H  H6  1  0.614698  0.807348  0.349838  1
  H  H7  1  0.192652  0.385302  0.349838  1
  H  H8  1  0.807348  0.192652  0.650162  1
  H  H9  1  0.385302  0.192652  0.650162  1
  H  H10  1  0.807348  0.614698  0.650162  1
  H  H11  1  0.521047  0.042092  0.845121  1
  H  H12  1  0.521047  0.478953  0.845121  1
  H  H13  1  0.957908  0.478953  0.845121  1
  H  H14  1  0.478953  0.957908  0.154879  1
  H  H15  1  0.478953  0.521047  0.154879  1
  H  H16  1  0.042092  0.521047  0.154879  1
