# generated using pymatgen
data_Nd3Cd3Pd2Rh
_symmetry_space_group_name_H-M   'P 1'
_cell_length_a   7.72273100
_cell_length_b   7.72273055
_cell_length_c   4.04224300
_cell_angle_alpha   90.00000000
_cell_angle_beta   90.00000000
_cell_angle_gamma   119.99999765
_symmetry_Int_Tables_number   1
_chemical_formula_structural   Nd3Cd3Pd2Rh
_chemical_formula_sum   'Nd3 Cd3 Pd2 Rh1'
_cell_volume   208.78286341
_cell_formula_units_Z   1
loop_
 _symmetry_equiv_pos_site_id
 _symmetry_equiv_pos_as_xyz
  1  'x, y, z'
loop_
 _atom_site_type_symbol
 _atom_site_label
 _atom_site_symmetry_multiplicity
 _atom_site_fract_x
 _atom_site_fract_y
 _atom_site_fract_z
 _atom_site_occupancy
  Nd  Nd0  1  0.585977  0.988586  0.000000  1
  Nd  Nd1  1  0.011414  0.597391  0.000000  1
  Nd  Nd2  1  0.402609  0.414023  0.000000  1
  Cd  Cd3  1  0.253389  0.999599  0.500000  1
  Cd  Cd4  1  0.000401  0.253789  0.500000  1
  Cd  Cd5  1  0.746211  0.746611  0.500000  1
  Pd  Pd6  1  0.666667  0.333333  0.500000  1
  Pd  Pd7  1  0.000000  0.000000  0.000000  1
  Rh  Rh8  1  0.333333  0.666667  0.500000  1
