# generated using pymatgen
data_TaMnNbB2Ru5
_symmetry_space_group_name_H-M   'P 1'
_cell_length_a   9.31596222
_cell_length_b   9.31596222
_cell_length_c   2.99215400
_cell_angle_alpha   90.00000000
_cell_angle_beta   90.00000000
_cell_angle_gamma   90.17781698
_symmetry_Int_Tables_number   1
_chemical_formula_structural   TaMnNbB2Ru5
_chemical_formula_sum   'Ta2 Mn2 Nb2 B4 Ru10'
_cell_volume   259.67927346
_cell_formula_units_Z   2
loop_
 _symmetry_equiv_pos_site_id
 _symmetry_equiv_pos_as_xyz
  1  'x, y, z'
loop_
 _atom_site_type_symbol
 _atom_site_label
 _atom_site_symmetry_multiplicity
 _atom_site_fract_x
 _atom_site_fract_y
 _atom_site_fract_z
 _atom_site_occupancy
  Ta  Ta0  1  0.323004  0.823004  0.000000  1
  Ta  Ta1  1  0.676996  0.176996  0.000000  1
  Mn  Mn2  1  0.500000  0.500000  0.000000  1
  Mn  Mn3  1  0.000000  0.000000  0.000000  1
  Nb  Nb4  1  0.822773  0.677227  0.000000  1
  Nb  Nb5  1  0.177227  0.322773  0.000000  1
  B  B6  1  0.624028  0.875972  0.000000  1
  B  B7  1  0.375972  0.124028  0.000000  1
  B  B8  1  0.124098  0.624098  0.000000  1
  B  B9  1  0.875902  0.375902  0.000000  1
  Ru  Ru10  1  0.569640  0.714810  0.500000  1
  Ru  Ru11  1  0.430360  0.285190  0.500000  1
  Ru  Ru12  1  0.071626  0.785962  0.500000  1
  Ru  Ru13  1  0.928374  0.214038  0.500000  1
  Ru  Ru14  1  0.285962  0.571626  0.500000  1
  Ru  Ru15  1  0.714038  0.428374  0.500000  1
  Ru  Ru16  1  0.214810  0.069640  0.500000  1
  Ru  Ru17  1  0.785190  0.930360  0.500000  1
  Ru  Ru18  1  0.500000  0.000000  0.500000  1
  Ru  Ru19  1  0.000000  0.500000  0.500000  1
