# generated using pymatgen
data_Er3MgCd2Ga3
_symmetry_space_group_name_H-M   'P 1'
_cell_length_a   7.21034000
_cell_length_b   7.21033974
_cell_length_c   4.41117500
_cell_angle_alpha   90.00000000
_cell_angle_beta   90.00000000
_cell_angle_gamma   119.99650965
_symmetry_Int_Tables_number   1
_chemical_formula_structural   Er3MgCd2Ga3
_chemical_formula_sum   'Er3 Mg1 Cd2 Ga3'
_cell_volume   198.61482655
_cell_formula_units_Z   1
loop_
 _symmetry_equiv_pos_site_id
 _symmetry_equiv_pos_as_xyz
  1  'x, y, z'
loop_
 _atom_site_type_symbol
 _atom_site_label
 _atom_site_symmetry_multiplicity
 _atom_site_fract_x
 _atom_site_fract_y
 _atom_site_fract_z
 _atom_site_occupancy
  Er  Er0  1  0.425404  0.425404  0.500000  1
  Er  Er1  1  0.572426  0.001096  0.500000  1
  Er  Er2  1  0.001096  0.572426  0.500000  1
  Mg  Mg3  1  0.759675  0.759675  0.000000  1
  Cd  Cd4  1  0.247038  0.997623  0.000000  1
  Cd  Cd5  1  0.997623  0.247038  0.000000  1
  Ga  Ga6  1  0.665000  0.337157  0.000000  1
  Ga  Ga7  1  0.337157  0.665000  0.000000  1
  Ga  Ga8  1  0.994581  0.994581  0.500000  1
