# generated using pymatgen
data_Ca2Y2MgAl17Pd6
_symmetry_space_group_name_H-M   'P 1'
_cell_length_a   7.68246176
_cell_length_b   7.68811422
_cell_length_c   9.50086744
_cell_angle_alpha   90.16499890
_cell_angle_beta   89.87549690
_cell_angle_gamma   119.50079962
_symmetry_Int_Tables_number   1
_chemical_formula_structural   Ca2Y2MgAl17Pd6
_chemical_formula_sum   'Ca2 Y2 Mg1 Al17 Pd6'
_cell_volume   488.39912253
_cell_formula_units_Z   1
loop_
 _symmetry_equiv_pos_site_id
 _symmetry_equiv_pos_as_xyz
  1  'x, y, z'
loop_
 _atom_site_type_symbol
 _atom_site_label
 _atom_site_symmetry_multiplicity
 _atom_site_fract_x
 _atom_site_fract_y
 _atom_site_fract_z
 _atom_site_occupancy
  Ca  Ca0  1  0.996173  0.674533  0.251368  1
  Ca  Ca1  1  0.004652  0.330145  0.748666  1
  Y  Y2  1  0.668357  0.990316  0.252314  1
  Y  Y3  1  0.328205  0.003899  0.749474  1
  Mg  Mg4  1  0.996610  0.336744  0.077497  1
  Al  Al5  1  0.130593  0.131636  0.250439  1
  Al  Al6  1  0.870478  0.868359  0.751336  1
  Al  Al7  1  0.999339  0.662959  0.923090  1
  Al  Al8  1  0.998651  0.663704  0.577827  1
  Al  Al9  1  0.335244  0.000524  0.422470  1
  Al  Al10  1  0.001541  0.334912  0.420973  1
  Al  Al11  1  0.666513  0.000791  0.577732  1
  Al  Al12  1  0.667454  0.002805  0.924433  1
  Al  Al13  1  0.334954  0.000181  0.076574  1
  Al  Al14  1  0.332264  0.333008  0.553895  1
  Al  Al15  1  0.667064  0.665948  0.446461  1
  Al  Al16  1  0.667612  0.666529  0.051284  1
  Al  Al17  1  0.329971  0.332832  0.945854  1
  Al  Al18  1  0.346779  0.548335  0.250148  1
  Al  Al19  1  0.654045  0.451618  0.749149  1
  Al  Al20  1  0.547900  0.336243  0.249101  1
  Al  Al21  1  0.455878  0.665059  0.751085  1
  Pd  Pd22  1  0.659644  0.325639  0.995919  1
  Pd  Pd23  1  0.336831  0.680757  0.999716  1
  Pd  Pd24  1  0.329880  0.673382  0.501502  1
  Pd  Pd25  1  0.671211  0.327107  0.500098  1
  Pd  Pd26  1  0.001426  0.993374  0.000030  1
  Pd  Pd27  1  0.000731  0.998665  0.501563  1
