# generated using pymatgen
data_Pr2AlCr(WO6)2
_symmetry_space_group_name_H-M   'P 1'
_cell_length_a   5.40045600
_cell_length_b   7.52616386
_cell_length_c   11.02046300
_cell_angle_alpha   90.00000000
_cell_angle_beta   90.00000000
_cell_angle_gamma   90.04023407
_symmetry_Int_Tables_number   1
_chemical_formula_structural   Pr2AlCr(WO6)2
_chemical_formula_sum   'Pr4 Al2 Cr2 W4 O24'
_cell_volume   447.92348666
_cell_formula_units_Z   2
loop_
 _symmetry_equiv_pos_site_id
 _symmetry_equiv_pos_as_xyz
  1  'x, y, z'
loop_
 _atom_site_type_symbol
 _atom_site_label
 _atom_site_symmetry_multiplicity
 _atom_site_fract_x
 _atom_site_fract_y
 _atom_site_fract_z
 _atom_site_occupancy
  Pr  Pr0  1  0.046252  0.249443  0.050507  1
  Pr  Pr1  1  0.546252  0.749443  0.449493  1
  Pr  Pr2  1  0.455796  0.253233  0.541169  1
  Pr  Pr3  1  0.955798  0.753233  0.958831  1
  Al  Al4  1  0.545697  0.996898  0.136426  1
  Al  Al5  1  0.045698  0.496898  0.363574  1
  Cr  Cr6  1  0.952270  0.999717  0.634608  1
  Cr  Cr7  1  0.452269  0.499717  0.865391  1
  W  W8  1  0.554163  0.504513  0.146535  1
  W  W9  1  0.054163  0.004513  0.353465  1
  W  W10  1  0.947698  0.506558  0.641586  1
  W  W11  1  0.447698  0.006558  0.858415  1
  O  O12  1  0.273478  0.965878  0.026281  1
  O  O13  1  0.273275  0.538051  0.027710  1
  O  O14  1  0.644565  0.752015  0.127499  1
  O  O15  1  0.466166  0.253131  0.144144  1
  O  O16  1  0.867216  0.451466  0.219207  1
  O  O17  1  0.859785  0.050606  0.214901  1
  O  O18  1  0.359783  0.550606  0.285098  1
  O  O19  1  0.367216  0.951466  0.280793  1
  O  O20  1  0.966166  0.753132  0.355856  1
  O  O21  1  0.144563  0.252014  0.372502  1
  O  O22  1  0.773274  0.038052  0.472290  1
  O  O23  1  0.773480  0.465878  0.473718  1
  O  O24  1  0.236250  0.966259  0.517155  1
  O  O25  1  0.225081  0.538956  0.519802  1
  O  O26  1  0.841699  0.748986  0.620306  1
  O  O27  1  0.051080  0.259088  0.642039  1
  O  O28  1  0.633820  0.444263  0.708293  1
  O  O29  1  0.625713  0.061139  0.717121  1
  O  O30  1  0.125713  0.561139  0.782878  1
  O  O31  1  0.133820  0.944263  0.791707  1
  O  O32  1  0.551080  0.759089  0.857961  1
  O  O33  1  0.341699  0.248985  0.879695  1
  O  O34  1  0.725080  0.038957  0.980198  1
  O  O35  1  0.736250  0.466259  0.982845  1
