# generated using pymatgen
data_LiCeNd2In3Pt2
_symmetry_space_group_name_H-M   'P 1'
_cell_length_a   7.80155508
_cell_length_b   7.92344691
_cell_length_c   3.96074200
_cell_angle_alpha   90.00000000
_cell_angle_beta   90.00000000
_cell_angle_gamma   120.51820738
_symmetry_Int_Tables_number   1
_chemical_formula_structural   LiCeNd2In3Pt2
_chemical_formula_sum   'Li1 Ce1 Nd2 In3 Pt2'
_cell_volume   210.91669166
_cell_formula_units_Z   1
loop_
 _symmetry_equiv_pos_site_id
 _symmetry_equiv_pos_as_xyz
  1  'x, y, z'
loop_
 _atom_site_type_symbol
 _atom_site_label
 _atom_site_symmetry_multiplicity
 _atom_site_fract_x
 _atom_site_fract_y
 _atom_site_fract_z
 _atom_site_occupancy
  Li  Li0  1  0.000000  0.000616  0.500000  1
  Ce  Ce1  1  0.000000  0.422920  0.500000  1
  Nd  Nd2  1  0.418641  0.999711  0.500000  1
  Nd  Nd3  1  0.581359  0.581070  0.500000  1
  In  In4  1  0.000000  0.751932  0.000000  1
  In  In5  1  0.752974  0.001959  0.000000  1
  In  In6  1  0.247026  0.248985  0.000000  1
  Pt  Pt7  1  0.679508  0.336157  0.000000  1
  Pt  Pt8  1  0.320492  0.656650  0.000000  1
