# generated using pymatgen
data_Pr2MgGa7Co2
_symmetry_space_group_name_H-M   'P 1'
_cell_length_a   4.21854182
_cell_length_b   6.52942173
_cell_length_c   8.27465377
_cell_angle_alpha   90.98079312
_cell_angle_beta   104.76810022
_cell_angle_gamma   90.00000099
_symmetry_Int_Tables_number   1
_chemical_formula_structural   Pr2MgGa7Co2
_chemical_formula_sum   'Pr2 Mg1 Ga7 Co2'
_cell_volume   220.35850387
_cell_formula_units_Z   1
loop_
 _symmetry_equiv_pos_site_id
 _symmetry_equiv_pos_as_xyz
  1  'x, y, z'
loop_
 _atom_site_type_symbol
 _atom_site_label
 _atom_site_symmetry_multiplicity
 _atom_site_fract_x
 _atom_site_fract_y
 _atom_site_fract_z
 _atom_site_occupancy
  Pr  Pr0  1  0.879508  0.757768  0.759015  1
  Pr  Pr1  1  0.120492  0.242232  0.240985  1
  Mg  Mg2  1  0.500000  0.500000  0.000000  1
  Ga  Ga3  1  0.500000  0.000000  0.000000  1
  Ga  Ga4  1  0.075199  0.751511  0.150398  1
  Ga  Ga5  1  0.924801  0.248489  0.849602  1
  Ga  Ga6  1  0.689937  0.547498  0.379875  1
  Ga  Ga7  1  0.310063  0.452502  0.620125  1
  Ga  Ga8  1  0.689381  0.944757  0.378764  1
  Ga  Ga9  1  0.310619  0.055243  0.621236  1
  Co  Co10  1  0.221741  0.752115  0.443480  1
  Co  Co11  1  0.778259  0.247885  0.556520  1
