# generated using pymatgen
data_RbPb3F13
_symmetry_space_group_name_H-M   'P 1'
_cell_length_a   7.08726400
_cell_length_b   8.19496100
_cell_length_c   10.07224100
_cell_angle_alpha   90.00000000
_cell_angle_beta   90.00000000
_cell_angle_gamma   90.00000000
_symmetry_Int_Tables_number   1
_chemical_formula_structural   RbPb3F13
_chemical_formula_sum   'Rb2 Pb6 F26'
_cell_volume   584.99426736
_cell_formula_units_Z   2
loop_
 _symmetry_equiv_pos_site_id
 _symmetry_equiv_pos_as_xyz
  1  'x, y, z'
loop_
 _atom_site_type_symbol
 _atom_site_label
 _atom_site_symmetry_multiplicity
 _atom_site_fract_x
 _atom_site_fract_y
 _atom_site_fract_z
 _atom_site_occupancy
  Rb  Rb0  1  0.365142  0.500000  0.226557  1
  Rb  Rb1  1  0.634858  0.500000  0.726557  1
  Pb  Pb2  1  0.829560  0.270938  0.071986  1
  Pb  Pb3  1  0.829560  0.729062  0.071986  1
  Pb  Pb4  1  0.170440  0.729062  0.571986  1
  Pb  Pb5  1  0.170440  0.270938  0.571986  1
  Pb  Pb6  1  0.675105  0.000000  0.555774  1
  Pb  Pb7  1  0.324895  0.000000  0.055774  1
  F  F8  1  0.868250  0.203704  0.602719  1
  F  F9  1  0.868250  0.796296  0.602719  1
  F  F10  1  0.131750  0.796296  0.102719  1
  F  F11  1  0.131750  0.203704  0.102719  1
  F  F12  1  0.528435  0.194357  0.020968  1
  F  F13  1  0.528435  0.805643  0.020968  1
  F  F14  1  0.471565  0.805643  0.520968  1
  F  F15  1  0.471565  0.194357  0.520968  1
  F  F16  1  0.727334  0.303682  0.256593  1
  F  F17  1  0.727334  0.696318  0.256593  1
  F  F18  1  0.272666  0.696318  0.756593  1
  F  F19  1  0.272666  0.303682  0.756593  1
  F  F20  1  0.119998  0.271217  0.375281  1
  F  F21  1  0.119998  0.728783  0.375281  1
  F  F22  1  0.880002  0.728783  0.875281  1
  F  F23  1  0.880002  0.271217  0.875281  1
  F  F24  1  0.997731  0.500000  0.106698  1
  F  F25  1  0.002269  0.500000  0.606698  1
  F  F26  1  0.659482  0.500000  0.021335  1
  F  F27  1  0.340518  0.500000  0.521335  1
  F  F28  1  0.833911  0.000000  0.083722  1
  F  F29  1  0.166089  0.000000  0.583722  1
  F  F30  1  0.781987  0.000000  0.372850  1
  F  F31  1  0.218013  0.000000  0.872850  1
  F  F32  1  0.396591  0.000000  0.248449  1
  F  F33  1  0.603409  0.000000  0.748449  1
