# generated using pymatgen
data_TbDy3(Ho3Sn4)2
_symmetry_space_group_name_H-M   'P 1'
_cell_length_a   8.02427000
_cell_length_b   8.16359401
_cell_length_c   15.42718203
_cell_angle_alpha   89.99343223
_cell_angle_beta   90.00000000
_cell_angle_gamma   90.00000000
_symmetry_Int_Tables_number   1
_chemical_formula_structural   TbDy3(Ho3Sn4)2
_chemical_formula_sum   'Tb2 Dy6 Ho12 Sn16'
_cell_volume   1010.58659412
_cell_formula_units_Z   2
loop_
 _symmetry_equiv_pos_site_id
 _symmetry_equiv_pos_as_xyz
  1  'x, y, z'
loop_
 _atom_site_type_symbol
 _atom_site_label
 _atom_site_symmetry_multiplicity
 _atom_site_fract_x
 _atom_site_fract_y
 _atom_site_fract_z
 _atom_site_occupancy
  Tb  Tb0  1  0.521123  0.320408  0.902498  1
  Tb  Tb1  1  0.021123  0.179592  0.597502  1
  Dy  Dy2  1  0.478825  0.679603  0.402446  1
  Dy  Dy3  1  0.978825  0.820397  0.097554  1
  Dy  Dy4  1  0.478837  0.679610  0.097572  1
  Dy  Dy5  1  0.978837  0.820390  0.402428  1
  Dy  Dy6  1  0.521200  0.320432  0.597599  1
  Dy  Dy7  1  0.021200  0.179568  0.902401  1
  Ho  Ho8  1  0.367628  0.836329  0.877898  1
  Ho  Ho9  1  0.867628  0.663671  0.622102  1
  Ho  Ho10  1  0.632381  0.163613  0.377883  1
  Ho  Ho11  1  0.132381  0.336387  0.122117  1
  Ho  Ho12  1  0.632396  0.163591  0.122149  1
  Ho  Ho13  1  0.132396  0.336409  0.377851  1
  Ho  Ho14  1  0.367662  0.836300  0.622090  1
  Ho  Ho15  1  0.867662  0.663700  0.877910  1
  Ho  Ho16  1  0.198552  0.503267  0.749986  1
  Ho  Ho17  1  0.698552  0.996733  0.750014  1
  Ho  Ho18  1  0.801414  0.496827  0.249986  1
  Ho  Ho19  1  0.301414  0.003173  0.250014  1
  Sn  Sn20  1  0.292869  0.036126  0.041717  1
  Sn  Sn21  1  0.792869  0.463874  0.458283  1
  Sn  Sn22  1  0.706895  0.963696  0.541666  1
  Sn  Sn23  1  0.206895  0.536304  0.958334  1
  Sn  Sn24  1  0.707229  0.963739  0.958315  1
  Sn  Sn25  1  0.207229  0.536261  0.541685  1
  Sn  Sn26  1  0.293061  0.036041  0.458194  1
  Sn  Sn27  1  0.793061  0.463959  0.041806  1
  Sn  Sn28  1  0.565231  0.619413  0.749991  1
  Sn  Sn29  1  0.065231  0.880587  0.750009  1
  Sn  Sn30  1  0.434793  0.380673  0.250010  1
  Sn  Sn31  1  0.934793  0.119327  0.249990  1
  Sn  Sn32  1  0.329603  0.147202  0.749924  1
  Sn  Sn33  1  0.829603  0.352798  0.750076  1
  Sn  Sn34  1  0.670301  0.852628  0.250005  1
  Sn  Sn35  1  0.170301  0.647372  0.249995  1
