# generated using pymatgen
data_Lu3Th2Si3Ir
_symmetry_space_group_name_H-M   'P 1'
_cell_length_a   7.10344600
_cell_length_b   7.83775300
_cell_length_c   14.40610600
_cell_angle_alpha   90.00000000
_cell_angle_beta   90.00000000
_cell_angle_gamma   90.00000000
_symmetry_Int_Tables_number   1
_chemical_formula_structural   Lu3Th2Si3Ir
_chemical_formula_sum   'Lu12 Th8 Si12 Ir4'
_cell_volume   802.06074672
_cell_formula_units_Z   4
loop_
 _symmetry_equiv_pos_site_id
 _symmetry_equiv_pos_as_xyz
  1  'x, y, z'
loop_
 _atom_site_type_symbol
 _atom_site_label
 _atom_site_symmetry_multiplicity
 _atom_site_fract_x
 _atom_site_fract_y
 _atom_site_fract_z
 _atom_site_occupancy
  Lu  Lu0  1  0.680128  0.176467  0.629024  1
  Lu  Lu1  1  0.180128  0.323533  0.870976  1
  Lu  Lu2  1  0.319872  0.823533  0.129024  1
  Lu  Lu3  1  0.819872  0.676467  0.370976  1
  Lu  Lu4  1  0.319872  0.823533  0.370976  1
  Lu  Lu5  1  0.819872  0.676467  0.129024  1
  Lu  Lu6  1  0.680128  0.176467  0.870976  1
  Lu  Lu7  1  0.180128  0.323533  0.629024  1
  Lu  Lu8  1  0.835870  0.505836  0.750000  1
  Lu  Lu9  1  0.335870  0.994164  0.750000  1
  Lu  Lu10  1  0.164130  0.494164  0.250000  1
  Lu  Lu11  1  0.664130  0.005836  0.250000  1
  Th  Th12  1  0.504680  0.676049  0.595819  1
  Th  Th13  1  0.004680  0.823951  0.904181  1
  Th  Th14  1  0.495320  0.323951  0.095819  1
  Th  Th15  1  0.995320  0.176049  0.404181  1
  Th  Th16  1  0.495320  0.323951  0.404181  1
  Th  Th17  1  0.995320  0.176049  0.095819  1
  Th  Th18  1  0.504680  0.676049  0.904181  1
  Th  Th19  1  0.004680  0.823951  0.595819  1
  Si  Si20  1  0.655009  0.968121  0.464173  1
  Si  Si21  1  0.155009  0.531879  0.035827  1
  Si  Si22  1  0.344991  0.031879  0.964173  1
  Si  Si23  1  0.844991  0.468121  0.535827  1
  Si  Si24  1  0.344991  0.031879  0.535827  1
  Si  Si25  1  0.844991  0.468121  0.964173  1
  Si  Si26  1  0.655009  0.968121  0.035827  1
  Si  Si27  1  0.155009  0.531879  0.464173  1
  Si  Si28  1  0.717093  0.867559  0.750000  1
  Si  Si29  1  0.217093  0.632441  0.750000  1
  Si  Si30  1  0.282907  0.132441  0.250000  1
  Si  Si31  1  0.782907  0.367559  0.250000  1
  Ir  Ir32  1  0.475902  0.402373  0.750000  1
  Ir  Ir33  1  0.975902  0.097627  0.750000  1
  Ir  Ir34  1  0.524098  0.597627  0.250000  1
  Ir  Ir35  1  0.024098  0.902373  0.250000  1
