# generated using pymatgen
data_Pr4YHo3(ScSi4)2
_symmetry_space_group_name_H-M   'P 1'
_cell_length_a   7.38478450
_cell_length_b   7.75599537
_cell_length_c   14.73531438
_cell_angle_alpha   89.99127900
_cell_angle_beta   90.02468295
_cell_angle_gamma   90.03424833
_symmetry_Int_Tables_number   1
_chemical_formula_structural   Pr4YHo3(ScSi4)2
_chemical_formula_sum   'Pr8 Y2 Ho6 Sc4 Si16'
_cell_volume   843.98484990
_cell_formula_units_Z   2
loop_
 _symmetry_equiv_pos_site_id
 _symmetry_equiv_pos_as_xyz
  1  'x, y, z'
loop_
 _atom_site_type_symbol
 _atom_site_label
 _atom_site_symmetry_multiplicity
 _atom_site_fract_x
 _atom_site_fract_y
 _atom_site_fract_z
 _atom_site_occupancy
  Pr  Pr0  1  0.017205  0.178785  0.401005  1
  Pr  Pr1  1  0.517295  0.321215  0.400978  1
  Pr  Pr2  1  0.482891  0.678693  0.901143  1
  Pr  Pr3  1  0.482705  0.678785  0.599022  1
  Pr  Pr4  1  0.982795  0.821215  0.598995  1
  Pr  Pr5  1  0.982825  0.821243  0.901124  1
  Pr  Pr6  1  0.517109  0.321307  0.098857  1
  Pr  Pr7  1  0.017175  0.178757  0.098876  1
  Y  Y8  1  0.324029  0.177863  0.624688  1
  Y  Y9  1  0.675971  0.822137  0.375312  1
  Ho  Ho10  1  0.175810  0.677694  0.375121  1
  Ho  Ho11  1  0.824172  0.322243  0.875299  1
  Ho  Ho12  1  0.824190  0.322306  0.624879  1
  Ho  Ho13  1  0.324199  0.177751  0.875279  1
  Ho  Ho14  1  0.175828  0.677757  0.124701  1
  Ho  Ho15  1  0.675801  0.822249  0.124721  1
  Sc  Sc16  1  0.656948  0.990185  0.750139  1
  Sc  Sc17  1  0.843331  0.490100  0.249848  1
  Sc  Sc18  1  0.343052  0.009815  0.249861  1
  Sc  Sc19  1  0.156669  0.509900  0.750152  1
  Si  Si20  1  0.281737  0.874528  0.750246  1
  Si  Si21  1  0.474158  0.607953  0.249725  1
  Si  Si22  1  0.024950  0.108257  0.750243  1
  Si  Si23  1  0.525842  0.392047  0.750275  1
  Si  Si24  1  0.148095  0.468030  0.539135  1
  Si  Si25  1  0.975050  0.891743  0.249757  1
  Si  Si26  1  0.718263  0.125472  0.249754  1
  Si  Si27  1  0.851427  0.532562  0.039293  1
  Si  Si28  1  0.351449  0.967447  0.039270  1
  Si  Si29  1  0.148573  0.467438  0.960707  1
  Si  Si30  1  0.648855  0.032619  0.539390  1
  Si  Si31  1  0.351145  0.967381  0.460610  1
  Si  Si32  1  0.851905  0.531970  0.460865  1
  Si  Si33  1  0.781806  0.625039  0.750034  1
  Si  Si34  1  0.218194  0.374961  0.249966  1
  Si  Si35  1  0.648551  0.032553  0.960730  1
