# generated using pymatgen
data_Ti8V2Ge6C
_symmetry_space_group_name_H-M   'P 1'
_cell_length_a   7.51090400
_cell_length_b   7.51090379
_cell_length_c   5.16393100
_cell_angle_alpha   90.00000000
_cell_angle_beta   90.00000000
_cell_angle_gamma   119.99999213
_symmetry_Int_Tables_number   1
_chemical_formula_structural   Ti8V2Ge6C
_chemical_formula_sum   'Ti8 V2 Ge6 C1'
_cell_volume   252.28736837
_cell_formula_units_Z   1
loop_
 _symmetry_equiv_pos_site_id
 _symmetry_equiv_pos_as_xyz
  1  'x, y, z'
loop_
 _atom_site_type_symbol
 _atom_site_label
 _atom_site_symmetry_multiplicity
 _atom_site_fract_x
 _atom_site_fract_y
 _atom_site_fract_z
 _atom_site_occupancy
  Ti  Ti0  1  0.000000  0.762100  0.260098  1
  Ti  Ti1  1  0.237900  0.237900  0.260098  1
  Ti  Ti2  1  0.762100  0.000000  0.260098  1
  Ti  Ti3  1  0.000000  0.237900  0.739902  1
  Ti  Ti4  1  0.762100  0.762100  0.739902  1
  Ti  Ti5  1  0.237900  0.000000  0.739902  1
  Ti  Ti6  1  0.333333  0.666667  0.000000  1
  Ti  Ti7  1  0.666667  0.333333  0.000000  1
  V  V8  1  0.666667  0.333333  0.500000  1
  V  V9  1  0.333333  0.666667  0.500000  1
  Ge  Ge10  1  0.000000  0.400434  0.253897  1
  Ge  Ge11  1  0.599566  0.599566  0.253897  1
  Ge  Ge12  1  0.400434  0.000000  0.253897  1
  Ge  Ge13  1  0.000000  0.599566  0.746103  1
  Ge  Ge14  1  0.400434  0.400434  0.746103  1
  Ge  Ge15  1  0.599566  0.000000  0.746103  1
  C  C16  1  0.000000  0.000000  0.500000  1
