# generated using pymatgen
data_Sc2Si14Ir5Os
_symmetry_space_group_name_H-M   'P 1'
_cell_length_a   7.95646984
_cell_length_b   7.95647044
_cell_length_c   7.98336409
_cell_angle_alpha   56.75552012
_cell_angle_beta   56.75551815
_cell_angle_gamma   56.86798355
_symmetry_Int_Tables_number   1
_chemical_formula_structural   Sc2Si14Ir5Os
_chemical_formula_sum   'Sc2 Si14 Ir5 Os1'
_cell_volume   330.91139835
_cell_formula_units_Z   1
loop_
 _symmetry_equiv_pos_site_id
 _symmetry_equiv_pos_as_xyz
  1  'x, y, z'
loop_
 _atom_site_type_symbol
 _atom_site_label
 _atom_site_symmetry_multiplicity
 _atom_site_fract_x
 _atom_site_fract_y
 _atom_site_fract_z
 _atom_site_occupancy
  Sc  Sc0  1  0.000962  0.003406  0.997276  1
  Sc  Sc1  1  0.496594  0.499038  0.502724  1
  Si  Si2  1  0.752539  0.747461  0.750000  1
  Si  Si3  1  0.249356  0.250644  0.250000  1
  Si  Si4  1  0.850479  0.065314  0.672483  1
  Si  Si5  1  0.672279  0.851600  0.064740  1
  Si  Si6  1  0.065708  0.670144  0.850670  1
  Si  Si7  1  0.648400  0.827721  0.435260  1
  Si  Si8  1  0.434686  0.649521  0.827517  1
  Si  Si9  1  0.829856  0.434292  0.649330  1
  Si  Si10  1  0.171221  0.564873  0.354268  1
  Si  Si11  1  0.565441  0.351217  0.172001  1
  Si  Si12  1  0.350475  0.173135  0.565248  1
  Si  Si13  1  0.935127  0.328779  0.145732  1
  Si  Si14  1  0.326865  0.149525  0.934752  1
  Si  Si15  1  0.148783  0.934559  0.327999  1
  Ir  Ir16  1  0.250415  0.925985  0.573323  1
  Ir  Ir17  1  0.574015  0.249585  0.926677  1
  Ir  Ir18  1  0.925143  0.574857  0.250000  1
  Ir  Ir19  1  0.425902  0.750568  0.073595  1
  Ir  Ir20  1  0.749432  0.074098  0.426405  1
  Os  Os21  1  0.076322  0.423678  0.750000  1
