# generated using pymatgen
data_Ho4PtAu3
_symmetry_space_group_name_H-M   'P 1'
_cell_length_a   4.67274900
_cell_length_b   5.60171380
_cell_length_c   7.14138901
_cell_angle_alpha   91.01430004
_cell_angle_beta   90.00000000
_cell_angle_gamma   90.00000000
_symmetry_Int_Tables_number   1
_chemical_formula_structural   Ho4PtAu3
_chemical_formula_sum   'Ho4 Pt1 Au3'
_cell_volume   186.89944179
_cell_formula_units_Z   1
loop_
 _symmetry_equiv_pos_site_id
 _symmetry_equiv_pos_as_xyz
  1  'x, y, z'
loop_
 _atom_site_type_symbol
 _atom_site_label
 _atom_site_symmetry_multiplicity
 _atom_site_fract_x
 _atom_site_fract_y
 _atom_site_fract_z
 _atom_site_occupancy
  Ho  Ho0  1  0.250000  0.351027  0.693245  1
  Ho  Ho1  1  0.250000  0.153939  0.176471  1
  Ho  Ho2  1  0.750000  0.641352  0.312087  1
  Ho  Ho3  1  0.750000  0.857583  0.819361  1
  Pt  Pt4  1  0.750000  0.343143  0.958253  1
  Au  Au5  1  0.250000  0.842051  0.539866  1
  Au  Au6  1  0.250000  0.657590  0.043200  1
  Au  Au7  1  0.750000  0.153314  0.457517  1
