# generated using pymatgen
data_Ce2MgZn21
_symmetry_space_group_name_H-M   'P 1'
_cell_length_a   8.29898623
_cell_length_b   8.29898645
_cell_length_c   8.29898699
_cell_angle_alpha   100.12913017
_cell_angle_beta   100.12912966
_cell_angle_gamma   130.41096338
_symmetry_Int_Tables_number   1
_chemical_formula_structural   Ce2MgZn21
_chemical_formula_sum   'Ce2 Mg1 Zn21'
_cell_volume   395.08885469
_cell_formula_units_Z   1
loop_
 _symmetry_equiv_pos_site_id
 _symmetry_equiv_pos_as_xyz
  1  'x, y, z'
loop_
 _atom_site_type_symbol
 _atom_site_label
 _atom_site_symmetry_multiplicity
 _atom_site_fract_x
 _atom_site_fract_y
 _atom_site_fract_z
 _atom_site_occupancy
  Ce  Ce0  1  0.750000  0.250000  0.500000  1
  Ce  Ce1  1  0.000000  0.000000  0.000000  1
  Mg  Mg2  1  0.250000  0.750000  0.500000  1
  Zn  Zn3  1  0.499999  0.499999  0.000000  1
  Zn  Zn4  1  0.375992  0.623160  0.247168  1
  Zn  Zn5  1  0.375991  0.128824  0.752831  1
  Zn  Zn6  1  0.376840  0.624007  0.752831  1
  Zn  Zn7  1  0.871176  0.624008  0.247168  1
  Zn  Zn8  1  0.578780  0.905463  0.084299  1
  Zn  Zn9  1  0.821163  0.494481  0.915701  1
  Zn  Zn10  1  0.927884  0.342508  0.171642  1
  Zn  Zn11  1  0.170868  0.756243  0.828358  1
  Zn  Zn12  1  0.094539  0.421221  0.915701  1
  Zn  Zn13  1  0.505518  0.178834  0.084298  1
  Zn  Zn14  1  0.243758  0.829135  0.171642  1
  Zn  Zn15  1  0.657490  0.072115  0.828358  1
  Zn  Zn16  1  0.170868  0.342510  0.414626  1
  Zn  Zn17  1  0.927884  0.756242  0.585376  1
  Zn  Zn18  1  0.821165  0.905463  0.326683  1
  Zn  Zn19  1  0.578778  0.494481  0.673316  1
  Zn  Zn20  1  0.657492  0.829136  0.585377  1
  Zn  Zn21  1  0.243757  0.072115  0.414625  1
  Zn  Zn22  1  0.094539  0.178836  0.673316  1
  Zn  Zn23  1  0.505518  0.421220  0.326683  1
