# generated using pymatgen
data_Y9Er(BiPb3)2
_symmetry_space_group_name_H-M   'P 1'
_cell_length_a   8.30936000
_cell_length_b   8.31506200
_cell_length_c   15.66377300
_cell_angle_alpha   90.00081257
_cell_angle_beta   90.00000000
_cell_angle_gamma   90.00000000
_symmetry_Int_Tables_number   1
_chemical_formula_structural   Y9Er(BiPb3)2
_chemical_formula_sum   'Y18 Er2 Bi4 Pb12'
_cell_volume   1082.25461771
_cell_formula_units_Z   2
loop_
 _symmetry_equiv_pos_site_id
 _symmetry_equiv_pos_as_xyz
  1  'x, y, z'
loop_
 _atom_site_type_symbol
 _atom_site_label
 _atom_site_symmetry_multiplicity
 _atom_site_fract_x
 _atom_site_fract_y
 _atom_site_fract_z
 _atom_site_occupancy
  Y  Y0  1  0.384826  0.842196  0.878246  1
  Y  Y1  1  0.884826  0.657804  0.621754  1
  Y  Y2  1  0.614961  0.157832  0.377932  1
  Y  Y3  1  0.114961  0.342168  0.122068  1
  Y  Y4  1  0.619791  0.159427  0.121232  1
  Y  Y5  1  0.119791  0.340573  0.378768  1
  Y  Y6  1  0.380109  0.840736  0.620911  1
  Y  Y7  1  0.880109  0.659264  0.879089  1
  Y  Y8  1  0.558679  0.332366  0.892669  1
  Y  Y9  1  0.058679  0.167634  0.607331  1
  Y  Y10  1  0.441302  0.667817  0.392486  1
  Y  Y11  1  0.941302  0.832183  0.107514  1
  Y  Y12  1  0.457147  0.668803  0.104891  1
  Y  Y13  1  0.957147  0.831197  0.395109  1
  Y  Y14  1  0.543017  0.331221  0.604706  1
  Y  Y15  1  0.043017  0.168779  0.895294  1
  Y  Y16  1  0.216205  0.501136  0.747910  1
  Y  Y17  1  0.716205  0.998864  0.752090  1
  Er  Er18  1  0.783470  0.498730  0.247696  1
  Er  Er19  1  0.283470  0.001270  0.252304  1
  Bi  Bi20  1  0.271058  0.021548  0.046394  1
  Bi  Bi21  1  0.771058  0.478452  0.453606  1
  Bi  Bi22  1  0.729071  0.978381  0.545786  1
  Bi  Bi23  1  0.229071  0.521619  0.954214  1
  Pb  Pb24  1  0.722470  0.972540  0.956253  1
  Pb  Pb25  1  0.222470  0.527460  0.543747  1
  Pb  Pb26  1  0.277631  0.027276  0.455629  1
  Pb  Pb27  1  0.777631  0.472724  0.044371  1
  Pb  Pb28  1  0.577999  0.629456  0.748668  1
  Pb  Pb29  1  0.077999  0.870544  0.751332  1
  Pb  Pb30  1  0.422823  0.370045  0.248669  1
  Pb  Pb31  1  0.922823  0.129955  0.251331  1
  Pb  Pb32  1  0.358908  0.151066  0.751341  1
  Pb  Pb33  1  0.858908  0.348934  0.748659  1
  Pb  Pb34  1  0.640532  0.848054  0.251365  1
  Pb  Pb35  1  0.140532  0.651946  0.248635  1
