# generated using pymatgen
data_LiH3SeO
_symmetry_space_group_name_H-M   'P 1'
_cell_length_a   6.75186585
_cell_length_b   6.75186603
_cell_length_c   3.77983810
_cell_angle_alpha   75.81584831
_cell_angle_beta   75.81585355
_cell_angle_gamma   86.77282669
_symmetry_Int_Tables_number   1
_chemical_formula_structural   LiH3SeO
_chemical_formula_sum   'Li2 H6 Se2 O2'
_cell_volume   161.96635075
_cell_formula_units_Z   2
loop_
 _symmetry_equiv_pos_site_id
 _symmetry_equiv_pos_as_xyz
  1  'x, y, z'
loop_
 _atom_site_type_symbol
 _atom_site_label
 _atom_site_symmetry_multiplicity
 _atom_site_fract_x
 _atom_site_fract_y
 _atom_site_fract_z
 _atom_site_occupancy
  Li  Li0  1  0.320324  0.679676  0.500000  1
  Li  Li1  1  0.679676  0.320324  0.500000  1
  H  H2  1  0.065214  0.763026  0.086547  1
  H  H3  1  0.236974  0.934786  0.913453  1
  H  H4  1  0.934786  0.236974  0.913453  1
  H  H5  1  0.741556  0.741556  0.692862  1
  H  H6  1  0.258444  0.258444  0.307138  1
  H  H7  1  0.763026  0.065214  0.086547  1
  Se  Se8  1  0.720003  0.720003  0.323079  1
  Se  Se9  1  0.279997  0.279997  0.676921  1
  O  O10  1  0.782801  0.217199  0.000000  1
  O  O11  1  0.217199  0.782801  0.000000  1
