# generated using pymatgen
data_Sm3Ho(Tm4Bi3)4
_symmetry_space_group_name_H-M   'P 1'
_cell_length_a   8.23227801
_cell_length_b   9.45262800
_cell_length_c   11.98412601
_cell_angle_alpha   90.00000000
_cell_angle_beta   89.99568621
_cell_angle_gamma   90.00000000
_symmetry_Int_Tables_number   1
_chemical_formula_structural   Sm3Ho(Tm4Bi3)4
_chemical_formula_sum   'Sm3 Ho1 Tm16 Bi12'
_cell_volume   932.56467531
_cell_formula_units_Z   1
loop_
 _symmetry_equiv_pos_site_id
 _symmetry_equiv_pos_as_xyz
  1  'x, y, z'
loop_
 _atom_site_type_symbol
 _atom_site_label
 _atom_site_symmetry_multiplicity
 _atom_site_fract_x
 _atom_site_fract_y
 _atom_site_fract_z
 _atom_site_occupancy
  Sm  Sm0  1  0.315032  0.250000  0.218838  1
  Sm  Sm1  1  0.814983  0.250000  0.281102  1
  Sm  Sm2  1  0.685268  0.750000  0.781267  1
  Ho  Ho3  1  0.185839  0.750000  0.717780  1
  Tm  Tm4  1  0.353010  0.750000  0.217815  1
  Tm  Tm5  1  0.853340  0.750000  0.282366  1
  Tm  Tm6  1  0.646585  0.250000  0.781924  1
  Tm  Tm7  1  0.146793  0.250000  0.717912  1
  Tm  Tm8  1  0.691572  0.565991  0.060034  1
  Tm  Tm9  1  0.191970  0.934060  0.440197  1
  Tm  Tm10  1  0.308283  0.065928  0.939670  1
  Tm  Tm11  1  0.807921  0.434025  0.560114  1
  Tm  Tm12  1  0.308283  0.434072  0.939670  1
  Tm  Tm13  1  0.807921  0.065975  0.560114  1
  Tm  Tm14  1  0.691572  0.934009  0.060034  1
  Tm  Tm15  1  0.191970  0.565940  0.440197  1
  Tm  Tm16  1  0.476664  0.250000  0.489720  1
  Tm  Tm17  1  0.977084  0.250000  0.010408  1
  Tm  Tm18  1  0.522927  0.750000  0.511064  1
  Tm  Tm19  1  0.023256  0.750000  0.989165  1
  Bi  Bi20  1  0.402201  0.750000  0.960086  1
  Bi  Bi21  1  0.905445  0.750000  0.540590  1
  Bi  Bi22  1  0.596711  0.250000  0.038923  1
  Bi  Bi23  1  0.096481  0.250000  0.461076  1
  Bi  Bi24  1  0.565743  0.992726  0.327193  1
  Bi  Bi25  1  0.065561  0.507156  0.173030  1
  Bi  Bi26  1  0.432353  0.494381  0.673318  1
  Bi  Bi27  1  0.935789  0.006000  0.826427  1
  Bi  Bi28  1  0.432353  0.005619  0.673318  1
  Bi  Bi29  1  0.935789  0.494000  0.826427  1
  Bi  Bi30  1  0.565743  0.507274  0.327193  1
  Bi  Bi31  1  0.065561  0.992844  0.173030  1
