# generated using pymatgen
data_Ta3Co5Ni4
_symmetry_space_group_name_H-M   'P 1'
_cell_length_a   6.93967499
_cell_length_b   6.94971792
_cell_length_c   6.94971909
_cell_angle_alpha   44.00450249
_cell_angle_beta   43.78086459
_cell_angle_gamma   43.78086418
_symmetry_Int_Tables_number   1
_chemical_formula_structural   Ta3Co5Ni4
_chemical_formula_sum   'Ta3 Co5 Ni4'
_cell_volume   146.08910677
_cell_formula_units_Z   1
loop_
 _symmetry_equiv_pos_site_id
 _symmetry_equiv_pos_as_xyz
  1  'x, y, z'
loop_
 _atom_site_type_symbol
 _atom_site_label
 _atom_site_symmetry_multiplicity
 _atom_site_fract_x
 _atom_site_fract_y
 _atom_site_fract_z
 _atom_site_occupancy
  Ta  Ta0  1  0.000496  0.002497  0.002497  1
  Ta  Ta1  1  0.219247  0.212960  0.212960  1
  Ta  Ta2  1  0.778305  0.785647  0.785647  1
  Co  Co3  1  0.717863  0.713830  0.238376  1
  Co  Co4  1  0.717863  0.238376  0.713830  1
  Co  Co5  1  0.283756  0.759443  0.286404  1
  Co  Co6  1  0.758584  0.286160  0.286160  1
  Co  Co7  1  0.283756  0.286404  0.759443  1
  Ni  Ni8  1  0.500080  0.498215  0.000914  1
  Ni  Ni9  1  0.500080  0.000914  0.498215  1
  Ni  Ni10  1  0.998956  0.500027  0.500027  1
  Ni  Ni11  1  0.241012  0.715525  0.715525  1
