# generated using pymatgen
data_Pr7Ho13Sn15Pb
_symmetry_space_group_name_H-M   'P 1'
_cell_length_a   8.15385028
_cell_length_b   8.27503071
_cell_length_c   15.60937500
_cell_angle_alpha   90.01393096
_cell_angle_beta   90.49172303
_cell_angle_gamma   89.90042865
_symmetry_Int_Tables_number   1
_chemical_formula_structural   Pr7Ho13Sn15Pb
_chemical_formula_sum   'Pr7 Ho13 Sn15 Pb1'
_cell_volume   1053.17659751
_cell_formula_units_Z   1
loop_
 _symmetry_equiv_pos_site_id
 _symmetry_equiv_pos_as_xyz
  1  'x, y, z'
loop_
 _atom_site_type_symbol
 _atom_site_label
 _atom_site_symmetry_multiplicity
 _atom_site_fract_x
 _atom_site_fract_y
 _atom_site_fract_z
 _atom_site_occupancy
  Pr  Pr0  1  0.013850  0.178663  0.598216  1
  Pr  Pr1  1  0.487450  0.677810  0.403960  1
  Pr  Pr2  1  0.982436  0.819199  0.096860  1
  Pr  Pr3  1  0.484453  0.674536  0.096775  1
  Pr  Pr4  1  0.986693  0.822262  0.403775  1
  Pr  Pr5  1  0.511574  0.322571  0.595678  1
  Pr  Pr6  1  0.013363  0.180832  0.901571  1
  Ho  Ho7  1  0.362036  0.834687  0.875730  1
  Ho  Ho8  1  0.858290  0.664632  0.623679  1
  Ho  Ho9  1  0.641687  0.164176  0.376471  1
  Ho  Ho10  1  0.135307  0.339609  0.122445  1
  Ho  Ho11  1  0.639375  0.163765  0.123067  1
  Ho  Ho12  1  0.141159  0.335508  0.376943  1
  Ho  Ho13  1  0.359081  0.836662  0.624999  1
  Ho  Ho14  1  0.862904  0.662701  0.877731  1
  Ho  Ho15  1  0.521164  0.324153  0.900383  1
  Ho  Ho16  1  0.194260  0.502166  0.751085  1
  Ho  Ho17  1  0.693226  0.996922  0.750682  1
  Ho  Ho18  1  0.805521  0.496936  0.249616  1
  Ho  Ho19  1  0.306780  0.003282  0.251528  1
  Sn  Sn20  1  0.807189  0.458252  0.458139  1
  Sn  Sn21  1  0.693438  0.959672  0.542500  1
  Sn  Sn22  1  0.204986  0.535317  0.955971  1
  Sn  Sn23  1  0.695136  0.962409  0.956822  1
  Sn  Sn24  1  0.192496  0.543057  0.542257  1
  Sn  Sn25  1  0.306820  0.041096  0.458822  1
  Sn  Sn26  1  0.796938  0.455968  0.039782  1
  Sn  Sn27  1  0.559442  0.621859  0.750479  1
  Sn  Sn28  1  0.058853  0.875660  0.750453  1
  Sn  Sn29  1  0.440103  0.375339  0.249631  1
  Sn  Sn30  1  0.941488  0.124868  0.249246  1
  Sn  Sn31  1  0.327441  0.145897  0.752298  1
  Sn  Sn32  1  0.819777  0.358310  0.750009  1
  Sn  Sn33  1  0.676170  0.857065  0.250335  1
  Sn  Sn34  1  0.176765  0.642534  0.250688  1
  Pb  Pb35  1  0.302350  0.041626  0.041371  1
