# generated using pymatgen
data_Ac3YbH11
_symmetry_space_group_name_H-M   'P 1'
_cell_length_a   7.06368847
_cell_length_b   7.06368848
_cell_length_c   7.06368800
_cell_angle_alpha   130.84397245
_cell_angle_beta   133.30654052
_cell_angle_gamma   70.12904152
_symmetry_Int_Tables_number   1
_chemical_formula_structural   Ac3YbH11
_chemical_formula_sum   'Ac3 Yb1 H11'
_cell_volume   190.20258385
_cell_formula_units_Z   1
loop_
 _symmetry_equiv_pos_site_id
 _symmetry_equiv_pos_as_xyz
  1  'x, y, z'
loop_
 _atom_site_type_symbol
 _atom_site_label
 _atom_site_symmetry_multiplicity
 _atom_site_fract_x
 _atom_site_fract_y
 _atom_site_fract_z
 _atom_site_occupancy
  Ac  Ac0  1  0.261601  0.261601  0.000000  1
  Ac  Ac1  1  0.000000  0.500000  0.500000  1
  Ac  Ac2  1  0.738399  0.738399  0.000000  1
  Yb  Yb3  1  0.500000  0.000000  0.500000  1
  H  H4  1  0.640609  0.106399  0.980524  1
  H  H5  1  0.359391  0.339914  0.465789  1
  H  H6  1  0.125876  0.660086  0.019476  1
  H  H7  1  0.874124  0.893601  0.534211  1
  H  H8  1  0.874124  0.339914  0.980524  1
  H  H9  1  0.640609  0.660086  0.534211  1
  H  H10  1  0.359391  0.893601  0.019476  1
  H  H11  1  0.125876  0.106399  0.465789  1
  H  H12  1  0.768373  0.268373  0.500000  1
  H  H13  1  0.500000  0.500000  0.000000  1
  H  H14  1  0.231627  0.731627  0.500000  1
