# generated using pymatgen
data_Er8TiRe8Si16W3
_symmetry_space_group_name_H-M   'P 1'
_cell_length_a   6.74904768
_cell_length_b   6.74904725
_cell_length_c   12.88217333
_cell_angle_alpha   89.96943663
_cell_angle_beta   90.03056262
_cell_angle_gamma   90.40869459
_symmetry_Int_Tables_number   1
_chemical_formula_structural   Er8TiRe8Si16W3
_chemical_formula_sum   'Er8 Ti1 Re8 Si16 W3'
_cell_volume   586.76328622
_cell_formula_units_Z   1
loop_
 _symmetry_equiv_pos_site_id
 _symmetry_equiv_pos_as_xyz
  1  'x, y, z'
loop_
 _atom_site_type_symbol
 _atom_site_label
 _atom_site_symmetry_multiplicity
 _atom_site_fract_x
 _atom_site_fract_y
 _atom_site_fract_z
 _atom_site_occupancy
  Er  Er0  1  0.329736  0.989177  0.467563  1
  Er  Er1  1  0.505706  0.837253  0.721772  1
  Er  Er2  1  0.491844  0.162988  0.220068  1
  Er  Er3  1  0.837253  0.505706  0.278228  1
  Er  Er4  1  0.162988  0.491844  0.779932  1
  Er  Er5  1  0.666144  0.012419  0.967998  1
  Er  Er6  1  0.989177  0.329736  0.532437  1
  Er  Er7  1  0.012419  0.666144  0.032002  1
  Ti  Ti8  1  0.660519  0.660519  0.500000  1
  Re  Re9  1  0.190599  0.997817  0.870384  1
  Re  Re10  1  0.514641  0.690854  0.115831  1
  Re  Re11  1  0.487146  0.318313  0.615104  1
  Re  Re12  1  0.690854  0.514641  0.884169  1
  Re  Re13  1  0.318313  0.487146  0.384896  1
  Re  Re14  1  0.808894  0.994160  0.374424  1
  Re  Re15  1  0.997817  0.190599  0.129616  1
  Re  Re16  1  0.994160  0.808894  0.625576  1
  Si  Si17  1  0.196053  0.112117  0.681435  1
  Si  Si18  1  0.384939  0.701546  0.930714  1
  Si  Si19  1  0.619420  0.294118  0.431040  1
  Si  Si20  1  0.701546  0.384939  0.069286  1
  Si  Si21  1  0.294118  0.619420  0.568960  1
  Si  Si22  1  0.804007  0.889417  0.182449  1
  Si  Si23  1  0.112117  0.196053  0.318565  1
  Si  Si24  1  0.889417  0.804007  0.817551  1
  Si  Si25  1  0.282592  0.980100  0.060733  1
  Si  Si26  1  0.517468  0.771065  0.307169  1
  Si  Si27  1  0.482726  0.231143  0.808324  1
  Si  Si28  1  0.771065  0.517468  0.692831  1
  Si  Si29  1  0.231143  0.482726  0.191676  1
  Si  Si30  1  0.709606  0.024457  0.563397  1
  Si  Si31  1  0.980100  0.282592  0.939267  1
  Si  Si32  1  0.024457  0.709606  0.436603  1
  W  W33  1  0.339932  0.339932  0.000000  1
  W  W34  1  0.161423  0.839660  0.249517  1
  W  W35  1  0.839660  0.161423  0.750483  1
