# generated using pymatgen
data_Er5Al2SnC4
_symmetry_space_group_name_H-M   'P 1'
_cell_length_a   10.84800600
_cell_length_b   10.84800600
_cell_length_c   3.52050900
_cell_angle_alpha   90.00000000
_cell_angle_beta   90.00000000
_cell_angle_gamma   90.00000000
_symmetry_Int_Tables_number   1
_chemical_formula_structural   Er5Al2SnC4
_chemical_formula_sum   'Er10 Al4 Sn2 C8'
_cell_volume   414.29080303
_cell_formula_units_Z   2
loop_
 _symmetry_equiv_pos_site_id
 _symmetry_equiv_pos_as_xyz
  1  'x, y, z'
loop_
 _atom_site_type_symbol
 _atom_site_label
 _atom_site_symmetry_multiplicity
 _atom_site_fract_x
 _atom_site_fract_y
 _atom_site_fract_z
 _atom_site_occupancy
  Er  Er0  1  0.550694  0.733808  0.500000  1
  Er  Er1  1  0.449306  0.266192  0.500000  1
  Er  Er2  1  0.050694  0.766192  0.500000  1
  Er  Er3  1  0.949306  0.233808  0.500000  1
  Er  Er4  1  0.266192  0.550694  0.500000  1
  Er  Er5  1  0.733808  0.449306  0.500000  1
  Er  Er6  1  0.233808  0.050694  0.500000  1
  Er  Er7  1  0.766192  0.949306  0.500000  1
  Er  Er8  1  0.500000  0.000000  0.000000  1
  Er  Er9  1  0.000000  0.500000  0.000000  1
  Al  Al10  1  0.703647  0.203647  0.000000  1
  Al  Al11  1  0.296353  0.796353  0.000000  1
  Al  Al12  1  0.203647  0.296353  0.000000  1
  Al  Al13  1  0.796353  0.703647  0.000000  1
  Sn  Sn14  1  0.500000  0.500000  0.000000  1
  Sn  Sn15  1  0.000000  0.000000  0.000000  1
  C  C16  1  0.632173  0.132173  0.500000  1
  C  C17  1  0.367827  0.867827  0.500000  1
  C  C18  1  0.132173  0.367827  0.500000  1
  C  C19  1  0.867827  0.632173  0.500000  1
  C  C20  1  0.162071  0.662071  0.000000  1
  C  C21  1  0.837929  0.337929  0.000000  1
  C  C22  1  0.662071  0.837929  0.000000  1
  C  C23  1  0.337929  0.162071  0.000000  1
