# generated using pymatgen
data_Y5LuAl24(Os3Rh)2
_symmetry_space_group_name_H-M   'P 1'
_cell_length_a   8.78075137
_cell_length_b   8.87276050
_cell_length_c   9.59328600
_cell_angle_alpha   90.00000000
_cell_angle_beta   90.00000000
_cell_angle_gamma   120.29146958
_symmetry_Int_Tables_number   1
_chemical_formula_structural   Y5LuAl24(Os3Rh)2
_chemical_formula_sum   'Y5 Lu1 Al24 Os6 Rh2'
_cell_volume   645.36500895
_cell_formula_units_Z   1
loop_
 _symmetry_equiv_pos_site_id
 _symmetry_equiv_pos_as_xyz
  1  'x, y, z'
loop_
 _atom_site_type_symbol
 _atom_site_label
 _atom_site_symmetry_multiplicity
 _atom_site_fract_x
 _atom_site_fract_y
 _atom_site_fract_z
 _atom_site_occupancy
  Y  Y0  1  0.799617  0.614158  0.750000  1
  Y  Y1  1  0.613839  0.806252  0.250000  1
  Y  Y2  1  0.386292  0.192927  0.750000  1
  Y  Y3  1  0.199257  0.815202  0.250000  1
  Y  Y4  1  0.799490  0.184788  0.750000  1
  Lu  Lu5  1  0.205942  0.392421  0.250000  1
  Al  Al6  1  0.333898  0.667061  0.023510  1
  Al  Al7  1  0.665419  0.332550  0.977954  1
  Al  Al8  1  0.665419  0.332550  0.522046  1
  Al  Al9  1  0.333898  0.667061  0.476490  1
  Al  Al10  1  0.162416  0.325800  0.574832  1
  Al  Al11  1  0.837187  0.673383  0.423291  1
  Al  Al12  1  0.670204  0.834787  0.574790  1
  Al  Al13  1  0.837187  0.673383  0.076709  1
  Al  Al14  1  0.328527  0.164991  0.424074  1
  Al  Al15  1  0.162416  0.325800  0.925168  1
  Al  Al16  1  0.162690  0.836725  0.576124  1
  Al  Al17  1  0.328527  0.164991  0.075926  1
  Al  Al18  1  0.838064  0.163140  0.422900  1
  Al  Al19  1  0.670204  0.834787  0.925210  1
  Al  Al20  1  0.838064  0.163140  0.077100  1
  Al  Al21  1  0.162690  0.836725  0.923876  1
  Al  Al22  1  0.566566  0.126775  0.250000  1
  Al  Al23  1  0.433020  0.872341  0.750000  1
  Al  Al24  1  0.882917  0.440444  0.250000  1
  Al  Al25  1  0.118304  0.558497  0.750000  1
  Al  Al26  1  0.566021  0.439068  0.250000  1
  Al  Al27  1  0.433056  0.559719  0.750000  1
  Al  Al28  1  0.007119  0.009000  0.250000  1
  Al  Al29  1  0.995663  0.997192  0.750000  1
  Os  Os30  1  0.499789  0.999761  0.999988  1
  Os  Os31  1  0.499789  0.999761  0.500012  1
  Os  Os32  1  0.498746  0.499442  0.001194  1
  Os  Os33  1  0.498746  0.499442  0.498806  1
  Os  Os34  1  0.999394  0.998998  0.999907  1
  Os  Os35  1  0.999394  0.998998  0.500093  1
  Rh  Rh36  1  0.000114  0.498969  0.000521  1
  Rh  Rh37  1  0.000114  0.498969  0.499479  1
