# generated using pymatgen
data_Tb2YbSc(Pt2O7)2
_symmetry_space_group_name_H-M   'P 1'
_cell_length_a   7.19012455
_cell_length_b   7.25705156
_cell_length_c   7.24326876
_cell_angle_alpha   59.93703390
_cell_angle_beta   59.80053392
_cell_angle_gamma   59.69161701
_symmetry_Int_Tables_number   1
_chemical_formula_structural   Tb2YbSc(Pt2O7)2
_chemical_formula_sum   'Tb2 Yb1 Sc1 Pt4 O14'
_cell_volume   266.09234965
_cell_formula_units_Z   1
loop_
 _symmetry_equiv_pos_site_id
 _symmetry_equiv_pos_as_xyz
  1  'x, y, z'
loop_
 _atom_site_type_symbol
 _atom_site_label
 _atom_site_symmetry_multiplicity
 _atom_site_fract_x
 _atom_site_fract_y
 _atom_site_fract_z
 _atom_site_occupancy
  Tb  Tb0  1  0.625000  0.625000  0.625000  1
  Tb  Tb1  1  0.625000  0.125000  0.625000  1
  Yb  Yb2  1  0.625000  0.625000  0.125000  1
  Sc  Sc3  1  0.125000  0.625000  0.625000  1
  Pt  Pt4  1  0.625000  0.125000  0.125000  1
  Pt  Pt5  1  0.125000  0.125000  0.125000  1
  Pt  Pt6  1  0.125000  0.625000  0.125000  1
  Pt  Pt7  1  0.125000  0.125000  0.625000  1
  O  O8  1  0.042921  0.465015  0.465757  1
  O  O9  1  0.785384  0.785404  0.217630  1
  O  O10  1  0.785384  0.211581  0.217630  1
  O  O11  1  0.050408  0.462316  0.024960  1
  O  O12  1  0.466466  0.033308  0.466918  1
  O  O13  1  0.772448  0.744679  0.738193  1
  O  O14  1  0.042921  0.026306  0.465757  1
  O  O15  1  0.783534  0.216692  0.783082  1
  O  O16  1  0.477552  0.505321  0.511807  1
  O  O17  1  0.207079  0.223694  0.784243  1
  O  O18  1  0.199592  0.787684  0.225040  1
  O  O19  1  0.464616  0.038419  0.032370  1
  O  O20  1  0.464616  0.464596  0.032370  1
  O  O21  1  0.207079  0.784985  0.784243  1
