# generated using pymatgen
data_CrCo20(B3W)2
_symmetry_space_group_name_H-M   'P 1'
_cell_length_a   7.39423445
_cell_length_b   7.39423485
_cell_length_c   7.39423500
_cell_angle_alpha   60.00000382
_cell_angle_beta   60.00000199
_cell_angle_gamma   60.00000832
_symmetry_Int_Tables_number   1
_chemical_formula_structural   CrCo20(B3W)2
_chemical_formula_sum   'Cr1 Co20 B6 W2'
_cell_volume   285.86748073
_cell_formula_units_Z   1
loop_
 _symmetry_equiv_pos_site_id
 _symmetry_equiv_pos_as_xyz
  1  'x, y, z'
loop_
 _atom_site_type_symbol
 _atom_site_label
 _atom_site_symmetry_multiplicity
 _atom_site_fract_x
 _atom_site_fract_y
 _atom_site_fract_z
 _atom_site_occupancy
  Cr  Cr0  1  0.000000  0.000000  0.000000  1
  Co  Co1  1  0.000000  0.338758  0.661242  1
  Co  Co2  1  0.338758  0.661242  0.000000  1
  Co  Co3  1  0.338758  0.000000  0.000000  1
  Co  Co4  1  0.661242  0.338758  0.000000  1
  Co  Co5  1  0.338758  0.000000  0.661242  1
  Co  Co6  1  0.382000  0.382000  0.854002  1
  Co  Co7  1  0.618000  0.618000  0.618000  1
  Co  Co8  1  0.000000  0.000000  0.661242  1
  Co  Co9  1  0.145998  0.618000  0.618000  1
  Co  Co10  1  0.000000  0.338758  0.000000  1
  Co  Co11  1  0.000000  0.661242  0.338758  1
  Co  Co12  1  0.661242  0.000000  0.338758  1
  Co  Co13  1  0.618000  0.145998  0.618000  1
  Co  Co14  1  0.000000  0.000000  0.338758  1
  Co  Co15  1  0.000000  0.661242  0.000000  1
  Co  Co16  1  0.661242  0.000000  0.000000  1
  Co  Co17  1  0.382000  0.854002  0.382000  1
  Co  Co18  1  0.382000  0.382000  0.382000  1
  Co  Co19  1  0.854002  0.382000  0.382000  1
  Co  Co20  1  0.618000  0.618000  0.145998  1
  B  B21  1  0.725223  0.274777  0.274777  1
  B  B22  1  0.725223  0.725223  0.274777  1
  B  B23  1  0.274777  0.725223  0.725223  1
  B  B24  1  0.725223  0.274777  0.725223  1
  B  B25  1  0.274777  0.274777  0.725223  1
  B  B26  1  0.274777  0.725223  0.274777  1
  W  W27  1  0.250000  0.250000  0.250000  1
  W  W28  1  0.750000  0.750000  0.750000  1
