# generated using pymatgen
data_La3Pr2Sn10(IrPd)2
_symmetry_space_group_name_H-M   'P 1'
_cell_length_a   14.31333500
_cell_length_b   14.27283700
_cell_length_c   4.72317200
_cell_angle_alpha   90.00000000
_cell_angle_beta   90.00000000
_cell_angle_gamma   90.00000000
_symmetry_Int_Tables_number   1
_chemical_formula_structural   La3Pr2Sn10(IrPd)2
_chemical_formula_sum   'La6 Pr4 Sn20 Ir4 Pd4'
_cell_volume   964.90576954
_cell_formula_units_Z   2
loop_
 _symmetry_equiv_pos_site_id
 _symmetry_equiv_pos_as_xyz
  1  'x, y, z'
loop_
 _atom_site_type_symbol
 _atom_site_label
 _atom_site_symmetry_multiplicity
 _atom_site_fract_x
 _atom_site_fract_y
 _atom_site_fract_z
 _atom_site_occupancy
  La  La0  1  0.500000  0.500000  0.000000  1
  La  La1  1  0.000000  0.000000  0.000000  1
  La  La2  1  0.892498  0.389717  0.500000  1
  La  La3  1  0.107502  0.610283  0.500000  1
  La  La4  1  0.392498  0.110283  0.500000  1
  La  La5  1  0.607502  0.889717  0.500000  1
  Pr  Pr6  1  0.675805  0.180898  0.500000  1
  Pr  Pr7  1  0.324195  0.819102  0.500000  1
  Pr  Pr8  1  0.175805  0.319102  0.500000  1
  Pr  Pr9  1  0.824195  0.680898  0.500000  1
  Sn  Sn10  1  0.568292  0.070366  0.000000  1
  Sn  Sn11  1  0.431708  0.929634  0.000000  1
  Sn  Sn12  1  0.068292  0.429634  0.000000  1
  Sn  Sn13  1  0.931708  0.570366  0.000000  1
  Sn  Sn14  1  0.652234  0.703637  0.000000  1
  Sn  Sn15  1  0.347766  0.296363  0.000000  1
  Sn  Sn16  1  0.152234  0.796363  0.000000  1
  Sn  Sn17  1  0.847766  0.203637  0.000000  1
  Sn  Sn18  1  0.301313  0.652727  0.000000  1
  Sn  Sn19  1  0.698687  0.347273  0.000000  1
  Sn  Sn20  1  0.198687  0.152727  0.000000  1
  Sn  Sn21  1  0.801313  0.847273  0.000000  1
  Sn  Sn22  1  0.663831  0.503178  0.500000  1
  Sn  Sn23  1  0.336169  0.496822  0.500000  1
  Sn  Sn24  1  0.163831  0.996822  0.500000  1
  Sn  Sn25  1  0.836169  0.003178  0.500000  1
  Sn  Sn26  1  0.496674  0.662955  0.500000  1
  Sn  Sn27  1  0.503326  0.337045  0.500000  1
  Sn  Sn28  1  0.003326  0.162955  0.500000  1
  Sn  Sn29  1  0.996674  0.837045  0.500000  1
  Ir  Ir30  1  0.468116  0.743905  0.000000  1
  Ir  Ir31  1  0.531884  0.256095  0.000000  1
  Ir  Ir32  1  0.031884  0.243905  0.000000  1
  Ir  Ir33  1  0.968116  0.756095  0.000000  1
  Pd  Pd34  1  0.744759  0.531935  0.000000  1
  Pd  Pd35  1  0.255241  0.468065  0.000000  1
  Pd  Pd36  1  0.244759  0.968065  0.000000  1
  Pd  Pd37  1  0.755241  0.031935  0.000000  1
