# generated using pymatgen
data_LaPrDy2(Zn5Sn)2
_symmetry_space_group_name_H-M   'P 1'
_cell_length_a   8.50326446
_cell_length_b   8.50326402
_cell_length_c   9.05720250
_cell_angle_alpha   89.84849695
_cell_angle_beta   90.15150475
_cell_angle_gamma   149.68352521
_symmetry_Int_Tables_number   1
_chemical_formula_structural   LaPrDy2(Zn5Sn)2
_chemical_formula_sum   'La1 Pr1 Dy2 Zn10 Sn2'
_cell_volume   330.56919343
_cell_formula_units_Z   1
loop_
 _symmetry_equiv_pos_site_id
 _symmetry_equiv_pos_as_xyz
  1  'x, y, z'
loop_
 _atom_site_type_symbol
 _atom_site_label
 _atom_site_symmetry_multiplicity
 _atom_site_fract_x
 _atom_site_fract_y
 _atom_site_fract_z
 _atom_site_occupancy
  La  La0  1  0.000000  0.000000  0.500000  1
  Pr  Pr1  1  0.000000  0.000000  0.000000  1
  Dy  Dy2  1  0.205442  0.794558  0.249777  1
  Dy  Dy3  1  0.794558  0.205442  0.750223  1
  Zn  Zn4  1  0.812170  0.187830  0.390379  1
  Zn  Zn5  1  0.187830  0.812170  0.609621  1
  Zn  Zn6  1  0.812441  0.187559  0.109794  1
  Zn  Zn7  1  0.187559  0.812441  0.890206  1
  Zn  Zn8  1  0.658471  0.341529  0.482511  1
  Zn  Zn9  1  0.341529  0.658471  0.517489  1
  Zn  Zn10  1  0.658331  0.341669  0.017377  1
  Zn  Zn11  1  0.341669  0.658331  0.982623  1
  Zn  Zn12  1  0.394081  0.605919  0.249819  1
  Zn  Zn13  1  0.605919  0.394081  0.750181  1
  Sn  Sn14  1  0.557535  0.442465  0.249097  1
  Sn  Sn15  1  0.442465  0.557535  0.750903  1
