# generated using pymatgen
data_Pr3Zn3PdPt2
_symmetry_space_group_name_H-M   'P 1'
_cell_length_a   7.54250800
_cell_length_b   7.54250790
_cell_length_c   3.95835900
_cell_angle_alpha   90.00000000
_cell_angle_beta   90.00000000
_cell_angle_gamma   119.99999166
_symmetry_Int_Tables_number   1
_chemical_formula_structural   Pr3Zn3PdPt2
_chemical_formula_sum   'Pr3 Zn3 Pd1 Pt2'
_cell_volume   195.01921372
_cell_formula_units_Z   1
loop_
 _symmetry_equiv_pos_site_id
 _symmetry_equiv_pos_as_xyz
  1  'x, y, z'
loop_
 _atom_site_type_symbol
 _atom_site_label
 _atom_site_symmetry_multiplicity
 _atom_site_fract_x
 _atom_site_fract_y
 _atom_site_fract_z
 _atom_site_occupancy
  Pr  Pr0  1  0.590305  0.000000  0.500000  1
  Pr  Pr1  1  0.409695  0.409695  0.500000  1
  Pr  Pr2  1  0.000000  0.590305  0.500000  1
  Zn  Zn3  1  0.755953  0.755953  0.000000  1
  Zn  Zn4  1  0.000000  0.244047  0.000000  1
  Zn  Zn5  1  0.244047  0.000000  0.000000  1
  Pd  Pd6  1  0.000000  0.000000  0.500000  1
  Pt  Pt7  1  0.333333  0.666667  0.000000  1
  Pt  Pt8  1  0.666667  0.333333  0.000000  1
