# generated using pymatgen
data_Gd2IrO6
_symmetry_space_group_name_H-M   'P 1'
_cell_length_a   5.34600100
_cell_length_b   9.27333100
_cell_length_c   10.00721600
_cell_angle_alpha   90.00000000
_cell_angle_beta   90.00000000
_cell_angle_gamma   90.00000000
_symmetry_Int_Tables_number   1
_chemical_formula_structural   Gd2IrO6
_chemical_formula_sum   'Gd8 Ir4 O24'
_cell_volume   496.11010290
_cell_formula_units_Z   4
loop_
 _symmetry_equiv_pos_site_id
 _symmetry_equiv_pos_as_xyz
  1  'x, y, z'
loop_
 _atom_site_type_symbol
 _atom_site_label
 _atom_site_symmetry_multiplicity
 _atom_site_fract_x
 _atom_site_fract_y
 _atom_site_fract_z
 _atom_site_occupancy
  Gd  Gd0  1  0.482341  0.898317  0.036690  1
  Gd  Gd1  1  0.982341  0.601683  0.963310  1
  Gd  Gd2  1  0.517659  0.398317  0.463310  1
  Gd  Gd3  1  0.017659  0.101683  0.536690  1
  Gd  Gd4  1  0.462039  0.781400  0.632128  1
  Gd  Gd5  1  0.962039  0.718600  0.367872  1
  Gd  Gd6  1  0.537961  0.281400  0.867872  1
  Gd  Gd7  1  0.037961  0.218600  0.132128  1
  Ir  Ir8  1  0.959126  0.995997  0.853931  1
  Ir  Ir9  1  0.459126  0.504003  0.146069  1
  Ir  Ir10  1  0.040874  0.495997  0.646069  1
  Ir  Ir11  1  0.540874  0.004003  0.353931  1
  O  O12  1  0.247274  0.587604  0.502500  1
  O  O13  1  0.747274  0.912396  0.497500  1
  O  O14  1  0.752726  0.087604  0.997500  1
  O  O15  1  0.252726  0.412396  0.002500  1
  O  O16  1  0.267877  0.885050  0.431589  1
  O  O17  1  0.767877  0.614950  0.568411  1
  O  O18  1  0.732123  0.385050  0.068411  1
  O  O19  1  0.232123  0.114950  0.931589  1
  O  O20  1  0.180618  0.635656  0.181106  1
  O  O21  1  0.680618  0.864344  0.818894  1
  O  O22  1  0.819382  0.135656  0.318894  1
  O  O23  1  0.319382  0.364344  0.681106  1
  O  O24  1  0.313376  0.358943  0.261522  1
  O  O25  1  0.813376  0.141057  0.738478  1
  O  O26  1  0.686624  0.858943  0.238478  1
  O  O27  1  0.186624  0.641057  0.761522  1
  O  O28  1  0.332323  0.054029  0.205693  1
  O  O29  1  0.832323  0.445971  0.794307  1
  O  O30  1  0.667677  0.554029  0.294307  1
  O  O31  1  0.167677  0.945971  0.705693  1
  O  O32  1  0.417275  0.154472  0.473687  1
  O  O33  1  0.917275  0.345528  0.526313  1
  O  O34  1  0.582725  0.654472  0.026313  1
  O  O35  1  0.082725  0.845528  0.973687  1
