# generated using pymatgen
data_Li4Zr3UIr8
_symmetry_space_group_name_H-M   'P 1'
_cell_length_a   5.88580300
_cell_length_b   5.88565200
_cell_length_c   7.25134600
_cell_angle_alpha   90.00013926
_cell_angle_beta   89.99980967
_cell_angle_gamma   89.99894867
_symmetry_Int_Tables_number   1
_chemical_formula_structural   Li4Zr3UIr8
_chemical_formula_sum   'Li4 Zr3 U1 Ir8'
_cell_volume   251.19959232
_cell_formula_units_Z   1
loop_
 _symmetry_equiv_pos_site_id
 _symmetry_equiv_pos_as_xyz
  1  'x, y, z'
loop_
 _atom_site_type_symbol
 _atom_site_label
 _atom_site_symmetry_multiplicity
 _atom_site_fract_x
 _atom_site_fract_y
 _atom_site_fract_z
 _atom_site_occupancy
  Li  Li0  1  0.749874  0.249998  0.999954  1
  Li  Li1  1  0.250107  0.750003  0.999956  1
  Li  Li2  1  0.750128  0.249999  0.500042  1
  Li  Li3  1  0.249861  0.749998  0.500045  1
  Zr  Zr4  1  0.750322  0.750001  0.000005  1
  Zr  Zr5  1  0.749636  0.750001  0.500004  1
  Zr  Zr6  1  0.250402  0.250000  0.500012  1
  U  U7  1  0.249690  0.250002  0.000016  1
  Ir  Ir8  1  0.498138  0.001835  0.247418  1
  Ir  Ir9  1  0.498138  0.498169  0.247420  1
  Ir  Ir10  1  0.001852  0.001881  0.247740  1
  Ir  Ir11  1  0.001852  0.498113  0.247740  1
  Ir  Ir12  1  0.001846  0.001879  0.752254  1
  Ir  Ir13  1  0.001845  0.498128  0.752253  1
  Ir  Ir14  1  0.498155  0.001818  0.752571  1
  Ir  Ir15  1  0.498154  0.498177  0.752574  1
