# generated using pymatgen
data_Lu7Pa(AlFe)2
_symmetry_space_group_name_H-M   'P 1'
_cell_length_a   9.10864918
_cell_length_b   9.10864907
_cell_length_c   9.23416700
_cell_angle_alpha   59.54309828
_cell_angle_beta   59.54309869
_cell_angle_gamma   59.79715352
_symmetry_Int_Tables_number   1
_chemical_formula_structural   Lu7Pa(AlFe)2
_chemical_formula_sum   'Lu14 Pa2 Al4 Fe4'
_cell_volume   537.15021346
_cell_formula_units_Z   2
loop_
 _symmetry_equiv_pos_site_id
 _symmetry_equiv_pos_as_xyz
  1  'x, y, z'
loop_
 _atom_site_type_symbol
 _atom_site_label
 _atom_site_symmetry_multiplicity
 _atom_site_fract_x
 _atom_site_fract_y
 _atom_site_fract_z
 _atom_site_occupancy
  Lu  Lu0  1  0.604439  0.193168  0.601197  1
  Lu  Lu1  1  0.193168  0.604439  0.601197  1
  Lu  Lu2  1  0.058095  0.441380  0.443351  1
  Lu  Lu3  1  0.441380  0.058095  0.057172  1
  Lu  Lu4  1  0.441380  0.058095  0.443351  1
  Lu  Lu5  1  0.058095  0.441380  0.057172  1
  Lu  Lu6  1  0.440285  0.440285  0.059715  1
  Lu  Lu7  1  0.060078  0.060078  0.439922  1
  Lu  Lu8  1  0.186687  0.812247  0.813889  1
  Lu  Lu9  1  0.812247  0.186687  0.187177  1
  Lu  Lu10  1  0.812247  0.186687  0.813889  1
  Lu  Lu11  1  0.186687  0.812247  0.187177  1
  Lu  Lu12  1  0.808735  0.808735  0.191265  1
  Lu  Lu13  1  0.187369  0.187369  0.812631  1
  Pa  Pa14  1  0.584390  0.584390  0.597858  1
  Pa  Pa15  1  0.584390  0.584390  0.233363  1
  Al  Al16  1  0.825744  0.825744  0.832456  1
  Al  Al17  1  0.825744  0.825744  0.516057  1
  Al  Al18  1  0.826039  0.514346  0.829807  1
  Al  Al19  1  0.514346  0.826039  0.829807  1
  Fe  Fe20  1  0.410121  0.410121  0.367177  1
  Fe  Fe21  1  0.410121  0.410121  0.812579  1
  Fe  Fe22  1  0.415593  0.812617  0.385894  1
  Fe  Fe23  1  0.812617  0.415593  0.385894  1
