# generated using pymatgen
data_Nd2Pa(InIr)3
_symmetry_space_group_name_H-M   'P 1'
_cell_length_a   7.85761300
_cell_length_b   7.64617551
_cell_length_c   3.93176800
_cell_angle_alpha   90.00000000
_cell_angle_beta   90.00000000
_cell_angle_gamma   120.91903484
_symmetry_Int_Tables_number   1
_chemical_formula_structural   Nd2Pa(InIr)3
_chemical_formula_sum   'Nd2 Pa1 In3 Ir3'
_cell_volume   202.65463367
_cell_formula_units_Z   1
loop_
 _symmetry_equiv_pos_site_id
 _symmetry_equiv_pos_as_xyz
  1  'x, y, z'
loop_
 _atom_site_type_symbol
 _atom_site_label
 _atom_site_symmetry_multiplicity
 _atom_site_fract_x
 _atom_site_fract_y
 _atom_site_fract_z
 _atom_site_occupancy
  Nd  Nd0  1  0.407490  0.407701  0.500000  1
  Nd  Nd1  1  0.999789  0.592299  0.500000  1
  Pa  Pa2  1  0.584339  0.000000  0.500000  1
  In  In3  1  0.242018  0.000000  0.000000  1
  In  In4  1  0.745484  0.738648  0.000000  1
  In  In5  1  0.006836  0.261352  0.000000  1
  Ir  Ir6  1  0.984919  0.000000  0.500000  1
  Ir  Ir7  1  0.368411  0.707697  0.000000  1
  Ir  Ir8  1  0.660715  0.292303  0.000000  1
