# generated using pymatgen
data_Yb2B4Ir3Ru
_symmetry_space_group_name_H-M   'P 1'
_cell_length_a   6.96616423
_cell_length_b   6.06374926
_cell_length_c   5.52561522
_cell_angle_alpha   73.72566985
_cell_angle_beta   56.72460439
_cell_angle_gamma   49.38520674
_symmetry_Int_Tables_number   1
_chemical_formula_structural   Yb2B4Ir3Ru
_chemical_formula_sum   'Yb2 B4 Ir3 Ru1'
_cell_volume   147.03845729
_cell_formula_units_Z   1
loop_
 _symmetry_equiv_pos_site_id
 _symmetry_equiv_pos_as_xyz
  1  'x, y, z'
loop_
 _atom_site_type_symbol
 _atom_site_label
 _atom_site_symmetry_multiplicity
 _atom_site_fract_x
 _atom_site_fract_y
 _atom_site_fract_z
 _atom_site_occupancy
  Yb  Yb0  1  0.999823  0.999861  0.000150  1
  Yb  Yb1  1  0.247969  0.247935  0.252058  1
  B  B2  1  0.321033  0.684031  0.321104  1
  B  B3  1  0.564644  0.931906  0.571191  1
  B  B4  1  0.684151  0.320896  0.673945  1
  B  B5  1  0.931767  0.564808  0.932118  1
  Ir  Ir6  1  0.881849  0.881891  0.618078  1
  Ir  Ir7  1  0.368191  0.368184  0.631872  1
  Ir  Ir8  1  0.617919  0.618152  0.881939  1
  Ru  Ru9  1  0.632649  0.632337  0.367545  1
