# generated using pymatgen
data_Fe6ReSiW5
_symmetry_space_group_name_H-M   'P 1'
_cell_length_a   9.02729376
_cell_length_b   9.02729395
_cell_length_c   9.02729348
_cell_angle_alpha   30.55013528
_cell_angle_beta   30.55013273
_cell_angle_gamma   30.55013993
_symmetry_Int_Tables_number   1
_chemical_formula_structural   Fe6ReSiW5
_chemical_formula_sum   'Fe6 Re1 Si1 W5'
_cell_volume   168.49365029
_cell_formula_units_Z   1
loop_
 _symmetry_equiv_pos_site_id
 _symmetry_equiv_pos_as_xyz
  1  'x, y, z'
loop_
 _atom_site_type_symbol
 _atom_site_label
 _atom_site_symmetry_multiplicity
 _atom_site_fract_x
 _atom_site_fract_y
 _atom_site_fract_z
 _atom_site_occupancy
  Fe  Fe0  1  0.587239  0.091686  0.091686  1
  Fe  Fe1  1  0.091686  0.091686  0.587239  1
  Fe  Fe2  1  0.091686  0.587239  0.091686  1
  Fe  Fe3  1  0.909272  0.410667  0.909272  1
  Fe  Fe4  1  0.410667  0.909272  0.909272  1
  Fe  Fe5  1  0.909272  0.909272  0.410667  1
  Re  Re6  1  0.168499  0.168499  0.168499  1
  Si  Si7  1  0.999923  0.999923  0.999923  1
  W  W8  1  0.831809  0.831809  0.831809  1
  W  W9  1  0.348616  0.348616  0.348616  1
  W  W10  1  0.651504  0.651504  0.651504  1
  W  W11  1  0.450554  0.450554  0.450554  1
  W  W12  1  0.549274  0.549274  0.549274  1
