# generated using pymatgen
data_SrLiBi2(Pt2O7)2
_symmetry_space_group_name_H-M   'P 1'
_cell_length_a   7.27284900
_cell_length_b   7.18890369
_cell_length_c   7.27284949
_cell_angle_alpha   61.36046661
_cell_angle_beta   61.64608545
_cell_angle_gamma   61.36046110
_symmetry_Int_Tables_number   1
_chemical_formula_structural   SrLiBi2(Pt2O7)2
_chemical_formula_sum   'Sr1 Li1 Bi2 Pt4 O14'
_cell_volume   277.66319536
_cell_formula_units_Z   1
loop_
 _symmetry_equiv_pos_site_id
 _symmetry_equiv_pos_as_xyz
  1  'x, y, z'
loop_
 _atom_site_type_symbol
 _atom_site_label
 _atom_site_symmetry_multiplicity
 _atom_site_fract_x
 _atom_site_fract_y
 _atom_site_fract_z
 _atom_site_occupancy
  Sr  Sr0  1  0.125000  0.625000  0.125000  1
  Li  Li1  1  0.125000  0.125000  0.125000  1
  Bi  Bi2  1  0.125000  0.125000  0.625000  1
  Bi  Bi3  1  0.625000  0.125000  0.125000  1
  Pt  Pt4  1  0.625000  0.625000  0.125000  1
  Pt  Pt5  1  0.625000  0.125000  0.625000  1
  Pt  Pt6  1  0.125000  0.625000  0.625000  1
  Pt  Pt7  1  0.625000  0.625000  0.625000  1
  O  O8  1  0.260464  0.214379  0.260464  1
  O  O9  1  0.989536  0.035621  0.989536  1
  O  O10  1  0.540760  0.957760  0.540760  1
  O  O11  1  0.297680  0.709158  0.297680  1
  O  O12  1  0.545914  0.534697  0.956639  1
  O  O13  1  0.956639  0.534697  0.545914  1
  O  O14  1  0.545724  0.958767  0.955813  1
  O  O15  1  0.955813  0.958767  0.545724  1
  O  O16  1  0.952320  0.540842  0.952320  1
  O  O17  1  0.704276  0.291233  0.294187  1
  O  O18  1  0.293361  0.715303  0.704086  1
  O  O19  1  0.709240  0.292240  0.709240  1
  O  O20  1  0.294187  0.291233  0.704276  1
  O  O21  1  0.704086  0.715303  0.293361  1
