# generated using pymatgen
data_NaSmEuI6
_symmetry_space_group_name_H-M   'P 1'
_cell_length_a   8.77016965
_cell_length_b   8.77085368
_cell_length_c   8.77026300
_cell_angle_alpha   54.52638406
_cell_angle_beta   54.52486819
_cell_angle_gamma   54.52532325
_symmetry_Int_Tables_number   1
_chemical_formula_structural   NaSmEuI6
_chemical_formula_sum   'Na1 Sm1 Eu1 I6'
_cell_volume   416.15498676
_cell_formula_units_Z   1
loop_
 _symmetry_equiv_pos_site_id
 _symmetry_equiv_pos_as_xyz
  1  'x, y, z'
loop_
 _atom_site_type_symbol
 _atom_site_label
 _atom_site_symmetry_multiplicity
 _atom_site_fract_x
 _atom_site_fract_y
 _atom_site_fract_z
 _atom_site_occupancy
  Na  Na0  1  0.670068  0.670058  0.670059  1
  Sm  Sm1  1  0.999982  0.999976  0.999980  1
  Eu  Eu2  1  0.330524  0.330552  0.330554  1
  I  I3  1  0.239579  0.603795  0.916738  1
  I  I4  1  0.603767  0.916759  0.239590  1
  I  I5  1  0.916749  0.239587  0.603769  1
  I  I6  1  0.757275  0.393387  0.088639  1
  I  I7  1  0.393408  0.088629  0.757273  1
  I  I8  1  0.088648  0.757255  0.393397  1
