# generated using pymatgen
data_Ba3CaMnO6
_symmetry_space_group_name_H-M   'P 1'
_cell_length_a   7.13633670
_cell_length_b   7.13633589
_cell_length_c   7.13633652
_cell_angle_alpha   92.70190483
_cell_angle_beta   92.70191201
_cell_angle_gamma   92.70190070
_symmetry_Int_Tables_number   1
_chemical_formula_structural   Ba3CaMnO6
_chemical_formula_sum   'Ba6 Ca2 Mn2 O12'
_cell_volume   362.18268649
_cell_formula_units_Z   2
loop_
 _symmetry_equiv_pos_site_id
 _symmetry_equiv_pos_as_xyz
  1  'x, y, z'
loop_
 _atom_site_type_symbol
 _atom_site_label
 _atom_site_symmetry_multiplicity
 _atom_site_fract_x
 _atom_site_fract_y
 _atom_site_fract_z
 _atom_site_occupancy
  Ba  Ba0  1  0.111251  0.750000  0.388749  1
  Ba  Ba1  1  0.388749  0.111251  0.750000  1
  Ba  Ba2  1  0.888749  0.250000  0.611251  1
  Ba  Ba3  1  0.611251  0.888749  0.250000  1
  Ba  Ba4  1  0.750000  0.388749  0.111251  1
  Ba  Ba5  1  0.250000  0.611251  0.888749  1
  Ca  Ca6  1  0.250000  0.250000  0.250000  1
  Ca  Ca7  1  0.750000  0.750000  0.750000  1
  Mn  Mn8  1  0.000000  0.000000  0.000000  1
  Mn  Mn9  1  0.500000  0.500000  0.500000  1
  O  O10  1  0.456366  0.765623  0.585109  1
  O  O11  1  0.585109  0.456366  0.765623  1
  O  O12  1  0.765623  0.585109  0.456366  1
  O  O13  1  0.043634  0.914891  0.734377  1
  O  O14  1  0.734377  0.043634  0.914891  1
  O  O15  1  0.914891  0.734377  0.043634  1
  O  O16  1  0.543634  0.234377  0.414891  1
  O  O17  1  0.414891  0.543634  0.234377  1
  O  O18  1  0.234377  0.414891  0.543634  1
  O  O19  1  0.956366  0.085109  0.265623  1
  O  O20  1  0.085109  0.265623  0.956366  1
  O  O21  1  0.265623  0.956366  0.085109  1
