# generated using pymatgen
data_Ta5TlO13
_symmetry_space_group_name_H-M   'P 1'
_cell_length_a   5.73219300
_cell_length_b   10.85301900
_cell_length_c   17.02449200
_cell_angle_alpha   90.00000000
_cell_angle_beta   90.00000000
_cell_angle_gamma   90.00000000
_symmetry_Int_Tables_number   1
_chemical_formula_structural   Ta5TlO13
_chemical_formula_sum   'Ta20 Tl4 O52'
_cell_volume   1059.12087869
_cell_formula_units_Z   4
loop_
 _symmetry_equiv_pos_site_id
 _symmetry_equiv_pos_as_xyz
  1  'x, y, z'
loop_
 _atom_site_type_symbol
 _atom_site_label
 _atom_site_symmetry_multiplicity
 _atom_site_fract_x
 _atom_site_fract_y
 _atom_site_fract_z
 _atom_site_occupancy
  Ta  Ta0  1  0.334236  0.750000  0.500000  1
  Ta  Ta1  1  0.665764  0.250000  0.000000  1
  Ta  Ta2  1  0.665764  0.250000  0.500000  1
  Ta  Ta3  1  0.334236  0.750000  0.000000  1
  Ta  Ta4  1  0.345441  0.367511  0.362974  1
  Ta  Ta5  1  0.345441  0.132489  0.637026  1
  Ta  Ta6  1  0.654559  0.867511  0.137026  1
  Ta  Ta7  1  0.654559  0.632489  0.862974  1
  Ta  Ta8  1  0.654559  0.632489  0.637026  1
  Ta  Ta9  1  0.654559  0.867511  0.362974  1
  Ta  Ta10  1  0.345441  0.132489  0.862974  1
  Ta  Ta11  1  0.345441  0.367511  0.137026  1
  Ta  Ta12  1  0.161555  0.063632  0.424767  1
  Ta  Ta13  1  0.161555  0.436368  0.575233  1
  Ta  Ta14  1  0.838445  0.563632  0.075233  1
  Ta  Ta15  1  0.838445  0.936368  0.924767  1
  Ta  Ta16  1  0.838445  0.936368  0.575233  1
  Ta  Ta17  1  0.838445  0.563632  0.424767  1
  Ta  Ta18  1  0.161555  0.436368  0.924767  1
  Ta  Ta19  1  0.161555  0.063632  0.075233  1
  Tl  Tl20  1  0.798060  0.325522  0.750000  1
  Tl  Tl21  1  0.798060  0.174478  0.250000  1
  Tl  Tl22  1  0.201940  0.825522  0.750000  1
  Tl  Tl23  1  0.201940  0.674478  0.250000  1
  O  O24  1  0.401016  0.747980  0.388923  1
  O  O25  1  0.401016  0.752020  0.611077  1
  O  O26  1  0.598984  0.247980  0.111077  1
  O  O27  1  0.598984  0.252020  0.888923  1
  O  O28  1  0.598984  0.252020  0.611077  1
  O  O29  1  0.598984  0.247980  0.388923  1
  O  O30  1  0.401016  0.752020  0.888923  1
  O  O31  1  0.401016  0.747980  0.111077  1
  O  O32  1  0.408117  0.994969  0.365757  1
  O  O33  1  0.408117  0.505031  0.634243  1
  O  O34  1  0.591883  0.494969  0.134243  1
  O  O35  1  0.591883  0.005031  0.865757  1
  O  O36  1  0.591883  0.005031  0.634243  1
  O  O37  1  0.591883  0.494969  0.365757  1
  O  O38  1  0.408117  0.505031  0.865757  1
  O  O39  1  0.408117  0.994969  0.134243  1
  O  O40  1  0.360603  0.374699  0.487182  1
  O  O41  1  0.360603  0.125301  0.512818  1
  O  O42  1  0.634477  0.651042  0.750000  1
  O  O43  1  0.639397  0.874699  0.012818  1
  O  O44  1  0.639397  0.625301  0.512818  1
  O  O45  1  0.639397  0.874699  0.487182  1
  O  O46  1  0.360603  0.125301  0.987182  1
  O  O47  1  0.360603  0.374699  0.012818  1
  O  O48  1  0.087869  0.481812  0.135398  1
  O  O49  1  0.087869  0.018188  0.864602  1
  O  O50  1  0.912131  0.981812  0.364602  1
  O  O51  1  0.912131  0.518188  0.635398  1
  O  O52  1  0.912131  0.518188  0.864602  1
  O  O53  1  0.912131  0.981812  0.135398  1
  O  O54  1  0.087869  0.018188  0.635398  1
  O  O55  1  0.087869  0.481812  0.364602  1
  O  O56  1  0.137092  0.217732  0.125874  1
  O  O57  1  0.137092  0.282268  0.874126  1
  O  O58  1  0.862908  0.717732  0.374126  1
  O  O59  1  0.862908  0.782268  0.625874  1
  O  O60  1  0.862908  0.782268  0.874126  1
  O  O61  1  0.862908  0.717732  0.125874  1
  O  O62  1  0.137092  0.282268  0.625874  1
  O  O63  1  0.137092  0.217732  0.374126  1
  O  O64  1  0.129773  0.606802  0.997100  1
  O  O65  1  0.129773  0.893198  0.002900  1
  O  O66  1  0.870227  0.106802  0.502900  1
  O  O67  1  0.870227  0.393198  0.497100  1
  O  O68  1  0.870227  0.393198  0.002900  1
  O  O69  1  0.870227  0.106802  0.997100  1
  O  O70  1  0.129773  0.893198  0.497100  1
  O  O71  1  0.129773  0.606802  0.502900  1
  O  O72  1  0.365523  0.348958  0.250000  1
  O  O73  1  0.365523  0.151042  0.750000  1
  O  O74  1  0.634477  0.848958  0.250000  1
  O  O75  1  0.639397  0.625301  0.987182  1
