# generated using pymatgen
data_Tb10Os3Ru
_symmetry_space_group_name_H-M   'P 1'
_cell_length_a   6.41175524
_cell_length_b   7.36864383
_cell_length_c   8.50870552
_cell_angle_alpha   96.81575958
_cell_angle_beta   112.14628435
_cell_angle_gamma   89.88713678
_symmetry_Int_Tables_number   1
_chemical_formula_structural   Tb10Os3Ru
_chemical_formula_sum   'Tb10 Os3 Ru1'
_cell_volume   369.31250586
_cell_formula_units_Z   1
loop_
 _symmetry_equiv_pos_site_id
 _symmetry_equiv_pos_as_xyz
  1  'x, y, z'
loop_
 _atom_site_type_symbol
 _atom_site_label
 _atom_site_symmetry_multiplicity
 _atom_site_fract_x
 _atom_site_fract_y
 _atom_site_fract_z
 _atom_site_occupancy
  Tb  Tb0  1  0.979101  0.915266  0.183431  1
  Tb  Tb1  1  0.794151  0.584154  0.815457  1
  Tb  Tb2  1  0.020087  0.084261  0.813936  1
  Tb  Tb3  1  0.205457  0.414614  0.183940  1
  Tb  Tb4  1  0.639110  0.816377  0.434751  1
  Tb  Tb5  1  0.205182  0.683582  0.565322  1
  Tb  Tb6  1  0.359775  0.184280  0.566137  1
  Tb  Tb7  1  0.796542  0.317294  0.435215  1
  Tb  Tb8  1  0.422558  0.749112  0.999327  1
  Tb  Tb9  1  0.577871  0.250894  0.999996  1
  Os  Os10  1  0.823491  0.577876  0.219929  1
  Os  Os11  1  0.603031  0.923550  0.780071  1
  Os  Os12  1  0.177153  0.422124  0.780868  1
  Ru  Ru13  1  0.396490  0.076616  0.221619  1
