# generated using pymatgen
data_Rb3Tm(PS4)2
_symmetry_space_group_name_H-M   'P 1'
_cell_length_a   6.72334900
_cell_length_b   9.64706655
_cell_length_c   11.52828100
_cell_angle_alpha   89.32545852
_cell_angle_beta   90.00000000
_cell_angle_gamma   90.00000000
_symmetry_Int_Tables_number   1
_chemical_formula_structural   Rb3Tm(PS4)2
_chemical_formula_sum   'Rb6 Tm2 P4 S16'
_cell_volume   747.67934936
_cell_formula_units_Z   2
loop_
 _symmetry_equiv_pos_site_id
 _symmetry_equiv_pos_as_xyz
  1  'x, y, z'
loop_
 _atom_site_type_symbol
 _atom_site_label
 _atom_site_symmetry_multiplicity
 _atom_site_fract_x
 _atom_site_fract_y
 _atom_site_fract_z
 _atom_site_occupancy
  Rb  Rb0  1  0.197394  0.642086  0.905443  1
  Rb  Rb1  1  0.697394  0.357914  0.094557  1
  Rb  Rb2  1  0.691647  0.171299  0.579842  1
  Rb  Rb3  1  0.191647  0.828701  0.420158  1
  Rb  Rb4  1  0.191472  0.391313  0.348353  1
  Rb  Rb5  1  0.691472  0.608687  0.651647  1
  Tm  Tm6  1  0.214006  0.116000  0.853492  1
  Tm  Tm7  1  0.714006  0.884000  0.146508  1
  P  P8  1  0.190692  0.370347  0.691364  1
  P  P9  1  0.170990  0.085013  0.153933  1
  P  P10  1  0.670990  0.914987  0.846067  1
  P  P11  1  0.690692  0.629653  0.308636  1
  S  S12  1  0.929895  0.087104  0.262845  1
  S  S13  1  0.429895  0.912896  0.737155  1
  S  S14  1  0.194663  0.265491  0.059310  1
  S  S15  1  0.694663  0.734509  0.940690  1
  S  S16  1  0.922389  0.947530  0.749480  1
  S  S17  1  0.102449  0.934951  0.034386  1
  S  S18  1  0.422389  0.052470  0.250520  1
  S  S19  1  0.602449  0.065049  0.965614  1
  S  S20  1  0.694162  0.803364  0.409000  1
  S  S21  1  0.194162  0.196636  0.591000  1
  S  S22  1  0.452340  0.657977  0.199272  1
  S  S23  1  0.952340  0.342023  0.800728  1
  S  S24  1  0.685263  0.443950  0.391218  1
  S  S25  1  0.185263  0.556050  0.608782  1
  S  S26  1  0.940357  0.650470  0.205057  1
  S  S27  1  0.440357  0.349530  0.794943  1
