# generated using pymatgen
data_Dy3Er5Mn(B8Ru)3
_symmetry_space_group_name_H-M   'P 1'
_cell_length_a   3.61996200
_cell_length_b   9.09012625
_cell_length_c   11.47006400
_cell_angle_alpha   89.98586988
_cell_angle_beta   90.00000000
_cell_angle_gamma   90.00000000
_symmetry_Int_Tables_number   1
_chemical_formula_structural   Dy3Er5Mn(B8Ru)3
_chemical_formula_sum   'Dy3 Er5 Mn1 B24 Ru3'
_cell_volume   377.43290060
_cell_formula_units_Z   1
loop_
 _symmetry_equiv_pos_site_id
 _symmetry_equiv_pos_as_xyz
  1  'x, y, z'
loop_
 _atom_site_type_symbol
 _atom_site_label
 _atom_site_symmetry_multiplicity
 _atom_site_fract_x
 _atom_site_fract_y
 _atom_site_fract_z
 _atom_site_occupancy
  Dy  Dy0  1  0.000000  0.325527  0.412747  1
  Dy  Dy1  1  0.000000  0.676361  0.582167  1
  Dy  Dy2  1  0.000000  0.820541  0.088454  1
  Er  Er3  1  0.000000  0.177530  0.915134  1
  Er  Er4  1  0.000000  0.940681  0.371544  1
  Er  Er5  1  0.000000  0.056730  0.627782  1
  Er  Er6  1  0.000000  0.445727  0.130142  1
  Er  Er7  1  0.000000  0.556766  0.871777  1
  Mn  Mn8  1  0.000000  0.638163  0.320605  1
  B  B9  1  0.500000  0.554350  0.431446  1
  B  B10  1  0.500000  0.446397  0.566763  1
  B  B11  1  0.500000  0.054046  0.067238  1
  B  B12  1  0.500000  0.946536  0.933098  1
  B  B13  1  0.500000  0.746674  0.417547  1
  B  B14  1  0.500000  0.251562  0.580304  1
  B  B15  1  0.500000  0.249066  0.080680  1
  B  B16  1  0.500000  0.751568  0.919639  1
  B  B17  1  0.500000  0.789685  0.266658  1
  B  B18  1  0.500000  0.208628  0.734192  1
  B  B19  1  0.500000  0.291760  0.233907  1
  B  B20  1  0.500000  0.708933  0.765946  1
  B  B21  1  0.500000  0.631662  0.186901  1
  B  B22  1  0.500000  0.368134  0.815183  1
  B  B23  1  0.500000  0.131217  0.314618  1
  B  B24  1  0.500000  0.868421  0.684920  1
  B  B25  1  0.500000  0.982824  0.212952  1
  B  B26  1  0.500000  0.017160  0.787613  1
  B  B27  1  0.500000  0.485511  0.288011  1
  B  B28  1  0.500000  0.516655  0.712568  1
  B  B29  1  0.500000  0.606405  0.029593  1
  B  B30  1  0.500000  0.393310  0.970852  1
  B  B31  1  0.500000  0.106239  0.470414  1
  B  B32  1  0.500000  0.893406  0.529071  1
  Ru  Ru33  1  0.000000  0.361212  0.679881  1
  Ru  Ru34  1  0.000000  0.138336  0.178660  1
  Ru  Ru35  1  0.000000  0.862278  0.820996  1
