# generated using pymatgen
data_Hf3Zr5Co7Si14Tc
_symmetry_space_group_name_H-M   'P 1'
_cell_length_a   9.50036615
_cell_length_b   9.49046683
_cell_length_c   9.51392201
_cell_angle_alpha   94.13784717
_cell_angle_beta   94.20578000
_cell_angle_gamma   148.68400214
_symmetry_Int_Tables_number   1
_chemical_formula_structural   Hf3Zr5Co7Si14Tc
_chemical_formula_sum   'Hf3 Zr5 Co7 Si14 Tc1'
_cell_volume   429.34822493
_cell_formula_units_Z   1
loop_
 _symmetry_equiv_pos_site_id
 _symmetry_equiv_pos_as_xyz
  1  'x, y, z'
loop_
 _atom_site_type_symbol
 _atom_site_label
 _atom_site_symmetry_multiplicity
 _atom_site_fract_x
 _atom_site_fract_y
 _atom_site_fract_z
 _atom_site_occupancy
  Hf  Hf0  1  0.137906  0.138196  0.276086  1
  Hf  Hf1  1  0.862080  0.862199  0.724035  1
  Hf  Hf2  1  0.860936  0.137478  0.001410  1
  Zr  Zr3  1  0.139838  0.864416  0.001543  1
  Zr  Zr4  1  0.499748  0.303550  0.803108  1
  Zr  Zr5  1  0.501393  0.695155  0.196798  1
  Zr  Zr6  1  0.695327  0.501654  0.197200  1
  Zr  Zr7  1  0.303444  0.499683  0.803569  1
  Co  Co8  1  0.104189  0.603805  0.208045  1
  Co  Co9  1  0.099417  0.895925  0.498973  1
  Co  Co10  1  0.399590  0.603067  0.498993  1
  Co  Co11  1  0.598804  0.394897  0.499391  1
  Co  Co12  1  0.900546  0.104569  0.499415  1
  Co  Co13  1  0.898671  0.398273  0.796873  1
  Co  Co14  1  0.602249  0.101724  0.203768  1
  Si  Si15  1  0.507060  0.098705  0.586306  1
  Si  Si16  1  0.505975  0.912666  0.406823  1
  Si  Si17  1  0.901022  0.494203  0.406775  1
  Si  Si18  1  0.079108  0.487350  0.586207  1
  Si  Si19  1  0.750550  0.751753  0.000287  1
  Si  Si20  1  0.249069  0.249229  0.000279  1
  Si  Si21  1  0.289353  0.289488  0.578966  1
  Si  Si22  1  0.710854  0.710973  0.421623  1
  Si  Si23  1  0.722496  0.303074  0.005480  1
  Si  Si24  1  0.283025  0.701841  0.005462  1
  Si  Si25  1  0.999393  0.300243  0.301203  1
  Si  Si26  1  0.988180  0.692621  0.697204  1
  Si  Si27  1  0.709770  0.004971  0.697707  1
  Si  Si28  1  0.302138  0.001057  0.301874  1
  Tc  Tc29  1  0.397869  0.897233  0.794599  1
