# generated using pymatgen
data_Tb(PrGa)2
_symmetry_space_group_name_H-M   'P 1'
_cell_length_a   7.76667500
_cell_length_b   7.76667500
_cell_length_c   4.61036700
_cell_angle_alpha   90.00000000
_cell_angle_beta   90.00000000
_cell_angle_gamma   90.00000000
_symmetry_Int_Tables_number   1
_chemical_formula_structural   Tb(PrGa)2
_chemical_formula_sum   'Tb2 Pr4 Ga4'
_cell_volume   278.10305686
_cell_formula_units_Z   2
loop_
 _symmetry_equiv_pos_site_id
 _symmetry_equiv_pos_as_xyz
  1  'x, y, z'
loop_
 _atom_site_type_symbol
 _atom_site_label
 _atom_site_symmetry_multiplicity
 _atom_site_fract_x
 _atom_site_fract_y
 _atom_site_fract_z
 _atom_site_occupancy
  Tb  Tb0  1  0.000000  0.000000  0.000000  1
  Tb  Tb1  1  0.500000  0.500000  0.000000  1
  Pr  Pr2  1  0.673958  0.173959  0.499999  1
  Pr  Pr3  1  0.173959  0.326042  0.499999  1
  Pr  Pr4  1  0.826041  0.673958  0.499999  1
  Pr  Pr5  1  0.326042  0.826041  0.499999  1
  Ga  Ga6  1  0.380811  0.119190  0.000000  1
  Ga  Ga7  1  0.880810  0.380811  0.000000  1
  Ga  Ga8  1  0.119190  0.619190  0.000000  1
  Ga  Ga9  1  0.619190  0.880810  0.000000  1
