# generated using pymatgen
data_Yb(AgTe)2
_symmetry_space_group_name_H-M   'P 1'
_cell_length_a   4.61879300
_cell_length_b   4.61879405
_cell_length_c   7.50724700
_cell_angle_alpha   90.00000000
_cell_angle_beta   90.00000000
_cell_angle_gamma   119.99999962
_symmetry_Int_Tables_number   1
_chemical_formula_structural   Yb(AgTe)2
_chemical_formula_sum   'Yb1 Ag2 Te2'
_cell_volume   138.69743685
_cell_formula_units_Z   1
loop_
 _symmetry_equiv_pos_site_id
 _symmetry_equiv_pos_as_xyz
  1  'x, y, z'
loop_
 _atom_site_type_symbol
 _atom_site_label
 _atom_site_symmetry_multiplicity
 _atom_site_fract_x
 _atom_site_fract_y
 _atom_site_fract_z
 _atom_site_occupancy
  Yb  Yb0  1  0.000000  0.000000  0.000000  1
  Ag  Ag1  1  0.666668  0.333335  0.385257  1
  Ag  Ag2  1  0.333333  0.666667  0.614743  1
  Te  Te3  1  0.333333  0.666667  0.231265  1
  Te  Te4  1  0.666668  0.333335  0.768734  1
