# generated using pymatgen
data_Li2Pr8Zn6AgRh7
_symmetry_space_group_name_H-M   'P 1'
_cell_length_a   4.06217200
_cell_length_b   7.38559447
_cell_length_c   16.82975604
_cell_angle_alpha   90.21630741
_cell_angle_beta   90.00000000
_cell_angle_gamma   90.00000000
_symmetry_Int_Tables_number   1
_chemical_formula_structural   Li2Pr8Zn6AgRh7
_chemical_formula_sum   'Li2 Pr8 Zn6 Ag1 Rh7'
_cell_volume   504.91525380
_cell_formula_units_Z   1
loop_
 _symmetry_equiv_pos_site_id
 _symmetry_equiv_pos_as_xyz
  1  'x, y, z'
loop_
 _atom_site_type_symbol
 _atom_site_label
 _atom_site_symmetry_multiplicity
 _atom_site_fract_x
 _atom_site_fract_y
 _atom_site_fract_z
 _atom_site_occupancy
  Li  Li0  1  0.750000  0.507902  0.941007  1
  Li  Li1  1  0.750000  0.002900  0.559052  1
  Pr  Pr2  1  0.750000  0.454034  0.212962  1
  Pr  Pr3  1  0.750000  0.950138  0.282063  1
  Pr  Pr4  1  0.750000  0.832827  0.060978  1
  Pr  Pr5  1  0.250000  0.036975  0.727187  1
  Pr  Pr6  1  0.250000  0.166527  0.942070  1
  Pr  Pr7  1  0.250000  0.548514  0.785958  1
  Pr  Pr8  1  0.750000  0.338125  0.428063  1
  Pr  Pr9  1  0.250000  0.675364  0.559595  1
  Zn  Zn10  1  0.250000  0.991022  0.433913  1
  Zn  Zn11  1  0.250000  0.625901  0.346507  1
  Zn  Zn12  1  0.750000  0.379921  0.658702  1
  Zn  Zn13  1  0.750000  0.869628  0.854331  1
  Zn  Zn14  1  0.250000  0.499772  0.057342  1
  Zn  Zn15  1  0.250000  0.124815  0.149308  1
  Ag  Ag16  1  0.250000  0.241479  0.566368  1
  Rh  Rh17  1  0.750000  0.256780  0.065948  1
  Rh  Rh18  1  0.250000  0.244994  0.311744  1
  Rh  Rh19  1  0.750000  0.246791  0.811604  1
  Rh  Rh20  1  0.250000  0.756160  0.936895  1
  Rh  Rh21  1  0.750000  0.748576  0.688818  1
  Rh  Rh22  1  0.750000  0.753273  0.433551  1
  Rh  Rh23  1  0.250000  0.747582  0.186031  1
