# generated using pymatgen
data_Y8Zr2Ir5Rh
_symmetry_space_group_name_H-M   'P 1'
_cell_length_a   10.88759500
_cell_length_b   10.88759500
_cell_length_c   6.28128300
_cell_angle_alpha   90.00000000
_cell_angle_beta   90.00000000
_cell_angle_gamma   90.00000000
_symmetry_Int_Tables_number   1
_chemical_formula_structural   Y8Zr2Ir5Rh
_chemical_formula_sum   'Y16 Zr4 Ir10 Rh2'
_cell_volume   744.58155874
_cell_formula_units_Z   2
loop_
 _symmetry_equiv_pos_site_id
 _symmetry_equiv_pos_as_xyz
  1  'x, y, z'
loop_
 _atom_site_type_symbol
 _atom_site_label
 _atom_site_symmetry_multiplicity
 _atom_site_fract_x
 _atom_site_fract_y
 _atom_site_fract_z
 _atom_site_occupancy
  Y  Y0  1  0.288744  0.087022  0.374251  1
  Y  Y1  1  0.288744  0.912978  0.874251  1
  Y  Y2  1  0.711256  0.087022  0.874251  1
  Y  Y3  1  0.711256  0.912978  0.374251  1
  Y  Y4  1  0.587022  0.788744  0.874251  1
  Y  Y5  1  0.587022  0.211256  0.374251  1
  Y  Y6  1  0.412978  0.788744  0.374251  1
  Y  Y7  1  0.412978  0.211256  0.874251  1
  Y  Y8  1  0.210066  0.412837  0.625519  1
  Y  Y9  1  0.210066  0.587163  0.125519  1
  Y  Y10  1  0.789934  0.412837  0.125519  1
  Y  Y11  1  0.789934  0.587163  0.625519  1
  Y  Y12  1  0.912837  0.710066  0.125519  1
  Y  Y13  1  0.912837  0.289934  0.625519  1
  Y  Y14  1  0.087163  0.710066  0.625519  1
  Y  Y15  1  0.087163  0.289934  0.125519  1
  Zr  Zr16  1  0.000000  0.000000  0.500068  1
  Zr  Zr17  1  0.000000  0.000000  0.000068  1
  Zr  Zr18  1  0.500000  0.500000  0.000068  1
  Zr  Zr19  1  0.500000  0.500000  0.500068  1
  Ir  Ir20  1  0.854748  0.143850  0.249982  1
  Ir  Ir21  1  0.854748  0.856150  0.749982  1
  Ir  Ir22  1  0.145252  0.143850  0.749982  1
  Ir  Ir23  1  0.145252  0.856150  0.249982  1
  Ir  Ir24  1  0.643850  0.354748  0.749982  1
  Ir  Ir25  1  0.643850  0.645252  0.249982  1
  Ir  Ir26  1  0.356150  0.354748  0.249982  1
  Ir  Ir27  1  0.356150  0.645252  0.749982  1
  Ir  Ir28  1  0.000000  0.500000  0.879674  1
  Ir  Ir29  1  0.000000  0.500000  0.379674  1
  Rh  Rh30  1  0.500000  0.000000  0.121183  1
  Rh  Rh31  1  0.500000  0.000000  0.621183  1
