# generated using pymatgen
data_Y8SiAgPd23
_symmetry_space_group_name_H-M   'P 1'
_cell_length_a   8.29765900
_cell_length_b   8.35156900
_cell_length_c   8.38218000
_cell_angle_alpha   90.00000000
_cell_angle_beta   90.00000000
_cell_angle_gamma   90.00000000
_symmetry_Int_Tables_number   1
_chemical_formula_structural   Y8SiAgPd23
_chemical_formula_sum   'Y8 Si1 Ag1 Pd23'
_cell_volume   580.87226332
_cell_formula_units_Z   1
loop_
 _symmetry_equiv_pos_site_id
 _symmetry_equiv_pos_as_xyz
  1  'x, y, z'
loop_
 _atom_site_type_symbol
 _atom_site_label
 _atom_site_symmetry_multiplicity
 _atom_site_fract_x
 _atom_site_fract_y
 _atom_site_fract_z
 _atom_site_occupancy
  Y  Y0  1  0.253261  0.248282  0.259811  1
  Y  Y1  1  0.746620  0.746191  0.746764  1
  Y  Y2  1  0.746620  0.746191  0.253236  1
  Y  Y3  1  0.746620  0.253809  0.746764  1
  Y  Y4  1  0.253261  0.248282  0.740189  1
  Y  Y5  1  0.253261  0.751718  0.259811  1
  Y  Y6  1  0.253261  0.751718  0.740189  1
  Y  Y7  1  0.746620  0.253809  0.253236  1
  Si  Si8  1  0.998391  0.000000  0.000000  1
  Ag  Ag9  1  0.259574  0.500000  0.000000  1
  Pd  Pd10  1  0.743943  0.500000  0.000000  1
  Pd  Pd11  1  0.998909  0.256735  0.500000  1
  Pd  Pd12  1  0.498585  0.256787  0.000000  1
  Pd  Pd13  1  0.998909  0.743265  0.500000  1
  Pd  Pd14  1  0.498585  0.743213  0.000000  1
  Pd  Pd15  1  0.500501  0.000000  0.258254  1
  Pd  Pd16  1  0.256444  0.000000  0.500000  1
  Pd  Pd17  1  0.500501  0.000000  0.741746  1
  Pd  Pd18  1  0.742892  0.000000  0.500000  1
  Pd  Pd19  1  0.001407  0.500000  0.258779  1
  Pd  Pd20  1  0.001407  0.500000  0.741221  1
  Pd  Pd21  1  0.252076  0.500000  0.500000  1
  Pd  Pd22  1  0.747856  0.500000  0.500000  1
  Pd  Pd23  1  0.500974  0.252365  0.500000  1
  Pd  Pd24  1  0.500974  0.747635  0.500000  1
  Pd  Pd25  1  0.498916  0.500000  0.253821  1
  Pd  Pd26  1  0.498916  0.500000  0.746179  1
  Pd  Pd27  1  0.279948  0.000000  0.000000  1
  Pd  Pd28  1  0.717382  0.000000  0.000000  1
  Pd  Pd29  1  0.002965  0.279536  0.000000  1
  Pd  Pd30  1  0.002965  0.720464  0.000000  1
  Pd  Pd31  1  0.998725  0.000000  0.279343  1
  Pd  Pd32  1  0.998725  0.000000  0.720657  1
