# generated using pymatgen
data_Tb3Sm4PI12
_symmetry_space_group_name_H-M   'P 1'
_cell_length_a   9.78668394
_cell_length_b   9.79264447
_cell_length_c   9.78786271
_cell_angle_alpha   107.96732040
_cell_angle_beta   108.02366727
_cell_angle_gamma   107.87417597
_symmetry_Int_Tables_number   1
_chemical_formula_structural   Tb3Sm4PI12
_chemical_formula_sum   'Tb3 Sm4 P1 I12'
_cell_volume   759.94048539
_cell_formula_units_Z   1
loop_
 _symmetry_equiv_pos_site_id
 _symmetry_equiv_pos_as_xyz
  1  'x, y, z'
loop_
 _atom_site_type_symbol
 _atom_site_label
 _atom_site_symmetry_multiplicity
 _atom_site_fract_x
 _atom_site_fract_y
 _atom_site_fract_z
 _atom_site_occupancy
  Tb  Tb0  1  0.509287  0.509575  0.509167  1
  Tb  Tb1  1  0.027349  0.300520  0.098239  1
  Tb  Tb2  1  0.301183  0.098341  0.028548  1
  Sm  Sm3  1  0.897311  0.966571  0.694646  1
  Sm  Sm4  1  0.966851  0.695995  0.897884  1
  Sm  Sm5  1  0.695864  0.897910  0.966997  1
  Sm  Sm6  1  0.099495  0.027923  0.303981  1
  P  P7  1  0.002336  0.002587  0.001532  1
  I  I8  1  0.528518  0.845588  0.609343  1
  I  I9  1  0.845962  0.609768  0.528953  1
  I  I10  1  0.608921  0.528908  0.845041  1
  I  I11  1  0.468746  0.159973  0.384912  1
  I  I12  1  0.157603  0.388803  0.463948  1
  I  I13  1  0.384148  0.462631  0.156986  1
  I  I14  1  0.687195  0.230096  0.076208  1
  I  I15  1  0.231998  0.077825  0.690292  1
  I  I16  1  0.075854  0.682389  0.227911  1
  I  I17  1  0.315165  0.775217  0.926330  1
  I  I18  1  0.769306  0.924380  0.314074  1
  I  I19  1  0.926909  0.315000  0.775010  1
