# generated using pymatgen
data_Ac7RuAu2
_symmetry_space_group_name_H-M   'P 1'
_cell_length_a   6.96005868
_cell_length_b   10.96103491
_cell_length_c   10.96103600
_cell_angle_alpha   119.47961919
_cell_angle_beta   90.22711553
_cell_angle_gamma   89.77288997
_symmetry_Int_Tables_number   1
_chemical_formula_structural   Ac7RuAu2
_chemical_formula_sum   'Ac14 Ru2 Au4'
_cell_volume   727.94008582
_cell_formula_units_Z   2
loop_
 _symmetry_equiv_pos_site_id
 _symmetry_equiv_pos_as_xyz
  1  'x, y, z'
loop_
 _atom_site_type_symbol
 _atom_site_label
 _atom_site_symmetry_multiplicity
 _atom_site_fract_x
 _atom_site_fract_y
 _atom_site_fract_z
 _atom_site_occupancy
  Ac  Ac0  1  0.473547  0.336882  0.663118  1
  Ac  Ac1  1  0.936849  0.667175  0.332825  1
  Ac  Ac2  1  0.254796  0.129654  0.870346  1
  Ac  Ac3  1  0.284077  0.742605  0.869842  1
  Ac  Ac4  1  0.284077  0.130158  0.257395  1
  Ac  Ac5  1  0.750707  0.876961  0.123039  1
  Ac  Ac6  1  0.752810  0.252374  0.140465  1
  Ac  Ac7  1  0.752810  0.859535  0.747626  1
  Ac  Ac8  1  0.439992  0.537052  0.462948  1
  Ac  Ac9  1  0.441628  0.925879  0.459691  1
  Ac  Ac10  1  0.441628  0.540309  0.074121  1
  Ac  Ac11  1  0.931128  0.453134  0.546866  1
  Ac  Ac12  1  0.934012  0.084537  0.530780  1
  Ac  Ac13  1  0.934012  0.469220  0.915463  1
  Ru  Ru14  1  0.674230  0.620608  0.812848  1
  Ru  Ru15  1  0.674230  0.187152  0.379392  1
  Au  Au16  1  0.183238  0.811809  0.188191  1
  Au  Au17  1  0.183721  0.378293  0.187788  1
  Au  Au18  1  0.183721  0.812212  0.621707  1
  Au  Au19  1  0.690788  0.184449  0.815551  1
