# generated using pymatgen
data_Tb2Dy3YIrI10
_symmetry_space_group_name_H-M   'P 1'
_cell_length_a   7.75411953
_cell_length_b   9.75749235
_cell_length_c   9.75868031
_cell_angle_alpha   106.95113274
_cell_angle_beta   96.69399514
_cell_angle_gamma   104.47249883
_symmetry_Int_Tables_number   1
_chemical_formula_structural   Tb2Dy3YIrI10
_chemical_formula_sum   'Tb2 Dy3 Y1 Ir1 I10'
_cell_volume   669.40326885
_cell_formula_units_Z   1
loop_
 _symmetry_equiv_pos_site_id
 _symmetry_equiv_pos_as_xyz
  1  'x, y, z'
loop_
 _atom_site_type_symbol
 _atom_site_label
 _atom_site_symmetry_multiplicity
 _atom_site_fract_x
 _atom_site_fract_y
 _atom_site_fract_z
 _atom_site_occupancy
  Tb  Tb0  1  0.114866  0.043440  0.764293  1
  Tb  Tb1  1  0.885513  0.957049  0.235997  1
  Dy  Dy2  1  0.968577  0.286327  0.085274  1
  Dy  Dy3  1  0.031477  0.713809  0.915032  1
  Dy  Dy4  1  0.346819  0.124491  0.165634  1
  Y  Y5  1  0.650832  0.874713  0.833554  1
  Ir  Ir6  1  0.999965  0.000085  0.000011  1
  I  I7  1  0.348832  0.449637  0.272361  1
  I  I8  1  0.651928  0.549791  0.727582  1
  I  I9  1  0.256654  0.087265  0.459955  1
  I  I10  1  0.744407  0.913083  0.539814  1
  I  I11  1  0.086159  0.374451  0.821316  1
  I  I12  1  0.913729  0.625619  0.178798  1
  I  I13  1  0.454812  0.816773  0.092420  1
  I  I14  1  0.545283  0.183700  0.908377  1
  I  I15  1  0.776734  0.255402  0.344357  1
  I  I16  1  0.223413  0.744365  0.655225  1
