# generated using pymatgen
data_Y5Ho2Tm(Si3Rh)4
_symmetry_space_group_name_H-M   'P 1'
_cell_length_a   8.16882338
_cell_length_b   8.16881833
_cell_length_c   7.89512300
_cell_angle_alpha   90.00000000
_cell_angle_beta   90.00000000
_cell_angle_gamma   119.96539837
_symmetry_Int_Tables_number   1
_chemical_formula_structural   Y5Ho2Tm(Si3Rh)4
_chemical_formula_sum   'Y5 Ho2 Tm1 Si12 Rh4'
_cell_volume   456.41467025
_cell_formula_units_Z   1
loop_
 _symmetry_equiv_pos_site_id
 _symmetry_equiv_pos_as_xyz
  1  'x, y, z'
loop_
 _atom_site_type_symbol
 _atom_site_label
 _atom_site_symmetry_multiplicity
 _atom_site_fract_x
 _atom_site_fract_y
 _atom_site_fract_z
 _atom_site_occupancy
  Y  Y0  1  0.000075  0.999927  0.250000  1
  Y  Y1  1  0.999942  0.000057  0.750000  1
  Y  Y2  1  0.508878  0.491112  0.250000  1
  Y  Y3  1  0.508864  0.017793  0.250000  1
  Y  Y4  1  0.982204  0.491134  0.250000  1
  Ho  Ho5  1  0.491117  0.981979  0.750000  1
  Ho  Ho6  1  0.018020  0.508879  0.750000  1
  Tm  Tm7  1  0.491245  0.508752  0.750000  1
  Si  Si8  1  0.167014  0.832990  0.500777  1
  Si  Si9  1  0.167351  0.334237  0.501170  1
  Si  Si10  1  0.665765  0.832651  0.501171  1
  Si  Si11  1  0.832813  0.167185  0.501209  1
  Si  Si12  1  0.832627  0.665553  0.501318  1
  Si  Si13  1  0.334451  0.167374  0.501318  1
  Si  Si14  1  0.832813  0.167185  0.998791  1
  Si  Si15  1  0.832627  0.665553  0.998682  1
  Si  Si16  1  0.334451  0.167374  0.998682  1
  Si  Si17  1  0.167014  0.832990  0.999223  1
  Si  Si18  1  0.167351  0.334237  0.998830  1
  Si  Si19  1  0.665765  0.832651  0.998829  1
  Rh  Rh20  1  0.333539  0.666463  0.469551  1
  Rh  Rh21  1  0.666269  0.333730  0.537191  1
  Rh  Rh22  1  0.666269  0.333730  0.962809  1
  Rh  Rh23  1  0.333539  0.666463  0.030449  1
