# generated using pymatgen
data_Dy6CoP12Ir4Rh13
_symmetry_space_group_name_H-M   'P 1'
_cell_length_a   3.91701900
_cell_length_b   11.18321900
_cell_length_c   12.78095000
_cell_angle_alpha   89.99844186
_cell_angle_beta   90.00000000
_cell_angle_gamma   90.00000000
_symmetry_Int_Tables_number   1
_chemical_formula_structural   Dy6CoP12Ir4Rh13
_chemical_formula_sum   'Dy6 Co1 P12 Ir4 Rh13'
_cell_volume   559.86799761
_cell_formula_units_Z   1
loop_
 _symmetry_equiv_pos_site_id
 _symmetry_equiv_pos_as_xyz
  1  'x, y, z'
loop_
 _atom_site_type_symbol
 _atom_site_label
 _atom_site_symmetry_multiplicity
 _atom_site_fract_x
 _atom_site_fract_y
 _atom_site_fract_z
 _atom_site_occupancy
  Dy  Dy0  1  0.000000  0.500022  0.521776  1
  Dy  Dy1  1  0.500000  0.999623  0.478394  1
  Dy  Dy2  1  0.500000  0.818368  0.203842  1
  Dy  Dy3  1  0.500000  0.180657  0.203301  1
  Dy  Dy4  1  0.000000  0.688134  0.797180  1
  Dy  Dy5  1  0.000000  0.311664  0.797517  1
  Co  Co6  1  0.500000  0.999931  0.021542  1
  P  P7  1  0.500000  0.500040  0.879342  1
  P  P8  1  0.000000  0.999965  0.120143  1
  P  P9  1  0.500000  0.500849  0.351446  1
  P  P10  1  0.000000  0.000445  0.646743  1
  P  P11  1  0.500000  0.314826  0.618894  1
  P  P12  1  0.500000  0.684699  0.618934  1
  P  P13  1  0.000000  0.184985  0.380370  1
  P  P14  1  0.000000  0.815499  0.381350  1
  P  P15  1  0.500000  0.855934  0.895260  1
  P  P16  1  0.500000  0.143974  0.895211  1
  P  P17  1  0.000000  0.657719  0.106449  1
  P  P18  1  0.000000  0.342733  0.106550  1
  Ir  Ir19  1  0.500000  0.499534  0.701534  1
  Ir  Ir20  1  0.000000  0.999929  0.299029  1
  Ir  Ir21  1  0.000000  0.500087  0.979185  1
  Ir  Ir22  1  0.000000  0.371578  0.286979  1
  Rh  Rh23  1  0.500000  0.499862  0.170150  1
  Rh  Rh24  1  0.000000  0.999573  0.829028  1
  Rh  Rh25  1  0.500000  0.330466  0.995772  1
  Rh  Rh26  1  0.500000  0.669886  0.995161  1
  Rh  Rh27  1  0.000000  0.159434  0.005761  1
  Rh  Rh28  1  0.000000  0.840336  0.005981  1
  Rh  Rh29  1  0.500000  0.296909  0.430207  1
  Rh  Rh30  1  0.500000  0.704548  0.430661  1
  Rh  Rh31  1  0.000000  0.206881  0.568383  1
  Rh  Rh32  1  0.000000  0.793822  0.568999  1
  Rh  Rh33  1  0.500000  0.873045  0.710788  1
  Rh  Rh34  1  0.500000  0.126359  0.710622  1
  Rh  Rh35  1  0.000000  0.627684  0.287522  1
