# generated using pymatgen
data_ErHf2Be2Ir5
_symmetry_space_group_name_H-M   'P 1'
_cell_length_a   9.60507000
_cell_length_b   9.61319400
_cell_length_c   3.31511300
_cell_angle_alpha   90.00000000
_cell_angle_beta   90.00000000
_cell_angle_gamma   90.00000000
_symmetry_Int_Tables_number   1
_chemical_formula_structural   ErHf2Be2Ir5
_chemical_formula_sum   'Er2 Hf4 Be4 Ir10'
_cell_volume   306.10228919
_cell_formula_units_Z   2
loop_
 _symmetry_equiv_pos_site_id
 _symmetry_equiv_pos_as_xyz
  1  'x, y, z'
loop_
 _atom_site_type_symbol
 _atom_site_label
 _atom_site_symmetry_multiplicity
 _atom_site_fract_x
 _atom_site_fract_y
 _atom_site_fract_z
 _atom_site_occupancy
  Er  Er0  1  0.175062  0.674903  0.000000  1
  Er  Er1  1  0.324938  0.174903  0.000000  1
  Hf  Hf2  1  0.825696  0.324660  0.000000  1
  Hf  Hf3  1  0.499600  0.499441  0.000000  1
  Hf  Hf4  1  0.674304  0.824660  0.000000  1
  Hf  Hf5  1  0.000400  0.999441  0.000000  1
  Be  Be6  1  0.382710  0.880451  0.000000  1
  Be  Be7  1  0.117290  0.380451  0.000000  1
  Be  Be8  1  0.877753  0.619025  0.000000  1
  Be  Be9  1  0.622247  0.119025  0.000000  1
  Ir  Ir10  1  0.219511  0.930763  0.500000  1
  Ir  Ir11  1  0.920485  0.784373  0.500000  1
  Ir  Ir12  1  0.437433  0.718287  0.500000  1
  Ir  Ir13  1  0.579515  0.284373  0.500000  1
  Ir  Ir14  1  0.714255  0.571912  0.500000  1
  Ir  Ir15  1  0.280489  0.430763  0.500000  1
  Ir  Ir16  1  0.062567  0.218287  0.500000  1
  Ir  Ir17  1  0.991517  0.496186  0.500000  1
  Ir  Ir18  1  0.508483  0.996186  0.500000  1
  Ir  Ir19  1  0.785745  0.071912  0.500000  1
