# generated using pymatgen
data_CsTb3Te5
_symmetry_space_group_name_H-M   'P 1'
_cell_length_a   4.43359500
_cell_length_b   13.40492900
_cell_length_c   23.92366300
_cell_angle_alpha   90.00000000
_cell_angle_beta   90.00000000
_cell_angle_gamma   90.00000000
_symmetry_Int_Tables_number   1
_chemical_formula_structural   CsTb3Te5
_chemical_formula_sum   'Cs4 Tb12 Te20'
_cell_volume   1421.83176597
_cell_formula_units_Z   4
loop_
 _symmetry_equiv_pos_site_id
 _symmetry_equiv_pos_as_xyz
  1  'x, y, z'
loop_
 _atom_site_type_symbol
 _atom_site_label
 _atom_site_symmetry_multiplicity
 _atom_site_fract_x
 _atom_site_fract_y
 _atom_site_fract_z
 _atom_site_occupancy
  Cs  Cs0  1  0.250000  0.353985  0.089439  1
  Cs  Cs1  1  0.750000  0.646015  0.910561  1
  Cs  Cs2  1  0.750000  0.853985  0.410561  1
  Cs  Cs3  1  0.250000  0.146015  0.589439  1
  Tb  Tb4  1  0.250000  0.453821  0.697662  1
  Tb  Tb5  1  0.750000  0.546179  0.302338  1
  Tb  Tb6  1  0.750000  0.953821  0.802338  1
  Tb  Tb7  1  0.250000  0.046179  0.197662  1
  Tb  Tb8  1  0.250000  0.796997  0.674744  1
  Tb  Tb9  1  0.750000  0.203003  0.325256  1
  Tb  Tb10  1  0.750000  0.296997  0.825256  1
  Tb  Tb11  1  0.250000  0.703003  0.174744  1
  Tb  Tb12  1  0.250000  0.392047  0.444462  1
  Tb  Tb13  1  0.750000  0.607953  0.555538  1
  Tb  Tb14  1  0.750000  0.892047  0.055538  1
  Tb  Tb15  1  0.250000  0.107953  0.944462  1
  Te  Te16  1  0.250000  0.443918  0.568870  1
  Te  Te17  1  0.750000  0.556082  0.431130  1
  Te  Te18  1  0.750000  0.943918  0.931130  1
  Te  Te19  1  0.250000  0.056082  0.068870  1
  Te  Te20  1  0.250000  0.768935  0.546709  1
  Te  Te21  1  0.750000  0.231065  0.453291  1
  Te  Te22  1  0.750000  0.268935  0.953291  1
  Te  Te23  1  0.250000  0.731065  0.046709  1
  Te  Te24  1  0.250000  0.798508  0.803141  1
  Te  Te25  1  0.750000  0.201492  0.196859  1
  Te  Te26  1  0.750000  0.298508  0.696859  1
  Te  Te27  1  0.250000  0.701492  0.303141  1
  Te  Te28  1  0.250000  0.454044  0.826128  1
  Te  Te29  1  0.750000  0.545956  0.173872  1
  Te  Te30  1  0.750000  0.954044  0.673872  1
  Te  Te31  1  0.250000  0.045956  0.326128  1
  Te  Te32  1  0.250000  0.375046  0.313645  1
  Te  Te33  1  0.750000  0.624954  0.686355  1
  Te  Te34  1  0.750000  0.875046  0.186355  1
  Te  Te35  1  0.250000  0.124954  0.813645  1
