# generated using pymatgen
data_Tb4AlTc3B16
_symmetry_space_group_name_H-M   'P 1'
_cell_length_a   3.60322500
_cell_length_b   5.98744841
_cell_length_c   11.55811100
_cell_angle_alpha   89.91630593
_cell_angle_beta   90.00000000
_cell_angle_gamma   90.00000000
_symmetry_Int_Tables_number   1
_chemical_formula_structural   Tb4AlTc3B16
_chemical_formula_sum   'Tb4 Al1 Tc3 B16'
_cell_volume   249.35585135
_cell_formula_units_Z   1
loop_
 _symmetry_equiv_pos_site_id
 _symmetry_equiv_pos_as_xyz
  1  'x, y, z'
loop_
 _atom_site_type_symbol
 _atom_site_label
 _atom_site_symmetry_multiplicity
 _atom_site_fract_x
 _atom_site_fract_y
 _atom_site_fract_z
 _atom_site_occupancy
  Tb  Tb0  1  0.500000  0.373910  0.147782  1
  Tb  Tb1  1  0.500000  0.625128  0.850297  1
  Tb  Tb2  1  0.500000  0.128325  0.653193  1
  Tb  Tb3  1  0.500000  0.873652  0.350213  1
  Al  Al4  1  0.500000  0.866004  0.087261  1
  Tc  Tc5  1  0.500000  0.364419  0.413639  1
  Tc  Tc6  1  0.500000  0.634021  0.584970  1
  Tc  Tc7  1  0.500000  0.127227  0.915277  1
  B  B8  1  0.000000  0.117636  0.046289  1
  B  B9  1  0.000000  0.887349  0.951221  1
  B  B10  1  0.000000  0.387589  0.546644  1
  B  B11  1  0.000000  0.613697  0.452421  1
  B  B12  1  0.000000  0.136420  0.468159  1
  B  B13  1  0.000000  0.863982  0.531575  1
  B  B14  1  0.000000  0.364498  0.968762  1
  B  B15  1  0.000000  0.635955  0.031765  1
  B  B16  1  0.000000  0.025336  0.192692  1
  B  B17  1  0.000000  0.976109  0.808208  1
  B  B18  1  0.000000  0.475222  0.692004  1
  B  B19  1  0.000000  0.525730  0.306962  1
  B  B20  1  0.000000  0.214313  0.313780  1
  B  B21  1  0.000000  0.784441  0.685684  1
  B  B22  1  0.000000  0.285762  0.815793  1
  B  B23  1  0.000000  0.713274  0.185409  1
