# generated using pymatgen
data_Tm2Lu2ReRu7
_symmetry_space_group_name_H-M   'P 1'
_cell_length_a   5.16847042
_cell_length_b   5.39314517
_cell_length_c   8.89038700
_cell_angle_alpha   89.99921283
_cell_angle_beta   89.99975601
_cell_angle_gamma   121.24625193
_symmetry_Int_Tables_number   1
_chemical_formula_structural   Tm2Lu2ReRu7
_chemical_formula_sum   'Tm2 Lu2 Re1 Ru7'
_cell_volume   211.86703912
_cell_formula_units_Z   1
loop_
 _symmetry_equiv_pos_site_id
 _symmetry_equiv_pos_as_xyz
  1  'x, y, z'
loop_
 _atom_site_type_symbol
 _atom_site_label
 _atom_site_symmetry_multiplicity
 _atom_site_fract_x
 _atom_site_fract_y
 _atom_site_fract_z
 _atom_site_occupancy
  Tm  Tm0  1  0.669711  0.334129  0.566843  1
  Tm  Tm1  1  0.342942  0.671602  0.434552  1
  Lu  Lu2  1  0.343403  0.671818  0.065336  1
  Lu  Lu3  1  0.669268  0.333914  0.933453  1
  Re  Re4  1  0.319756  0.159562  0.249149  1
  Ru  Ru5  1  0.021613  0.010986  0.500621  1
  Ru  Ru6  1  0.021701  0.011049  0.999410  1
  Ru  Ru7  1  0.166672  0.336141  0.750747  1
  Ru  Ru8  1  0.163047  0.831650  0.750706  1
  Ru  Ru9  1  0.647048  0.823621  0.750800  1
  Ru  Ru10  1  0.817133  0.646350  0.249211  1
  Ru  Ru11  1  0.817706  0.169181  0.249172  1
