# generated using pymatgen
data_LiY6CoBr12
_symmetry_space_group_name_H-M   'P 1'
_cell_length_a   9.16807109
_cell_length_b   9.16807186
_cell_length_c   9.16807294
_cell_angle_alpha   107.56016659
_cell_angle_beta   107.56016859
_cell_angle_gamma   107.56017635
_symmetry_Int_Tables_number   1
_chemical_formula_structural   LiY6CoBr12
_chemical_formula_sum   'Li1 Y6 Co1 Br12'
_cell_volume   631.70718572
_cell_formula_units_Z   1
loop_
 _symmetry_equiv_pos_site_id
 _symmetry_equiv_pos_as_xyz
  1  'x, y, z'
loop_
 _atom_site_type_symbol
 _atom_site_label
 _atom_site_symmetry_multiplicity
 _atom_site_fract_x
 _atom_site_fract_y
 _atom_site_fract_z
 _atom_site_occupancy
  Li  Li0  1  0.500000  0.500000  0.500000  1
  Y  Y1  1  0.315381  0.108310  0.033248  1
  Y  Y2  1  0.108310  0.033248  0.315381  1
  Y  Y3  1  0.033248  0.315381  0.108310  1
  Y  Y4  1  0.684619  0.891690  0.966752  1
  Y  Y5  1  0.891690  0.966752  0.684619  1
  Y  Y6  1  0.966752  0.684619  0.891690  1
  Co  Co7  1  0.000000  0.000000  0.000000  1
  Br  Br8  1  0.220787  0.070590  0.681322  1
  Br  Br9  1  0.070590  0.681322  0.220787  1
  Br  Br10  1  0.681322  0.220787  0.070590  1
  Br  Br11  1  0.779213  0.929410  0.318678  1
  Br  Br12  1  0.929410  0.318678  0.779213  1
  Br  Br13  1  0.318678  0.779213  0.929410  1
  Br  Br14  1  0.381064  0.458078  0.164061  1
  Br  Br15  1  0.458078  0.164061  0.381064  1
  Br  Br16  1  0.164061  0.381064  0.458078  1
  Br  Br17  1  0.618936  0.541922  0.835939  1
  Br  Br18  1  0.541922  0.835939  0.618936  1
  Br  Br19  1  0.835939  0.618936  0.541922  1
