# generated using pymatgen
data_NdEr5Rh18
_symmetry_space_group_name_H-M   'P 1'
_cell_length_a   5.26175200
_cell_length_b   5.26198319
_cell_length_c   17.52875800
_cell_angle_alpha   90.00000000
_cell_angle_beta   90.00000000
_cell_angle_gamma   119.99915326
_symmetry_Int_Tables_number   1
_chemical_formula_structural   NdEr5Rh18
_chemical_formula_sum   'Nd1 Er5 Rh18'
_cell_volume   420.30573289
_cell_formula_units_Z   1
loop_
 _symmetry_equiv_pos_site_id
 _symmetry_equiv_pos_as_xyz
  1  'x, y, z'
loop_
 _atom_site_type_symbol
 _atom_site_label
 _atom_site_symmetry_multiplicity
 _atom_site_fract_x
 _atom_site_fract_y
 _atom_site_fract_z
 _atom_site_occupancy
  Nd  Nd0  1  0.666673  0.333337  0.250000  1
  Er  Er1  1  0.333337  0.666668  0.542057  1
  Er  Er2  1  0.666663  0.333335  0.041343  1
  Er  Er3  1  0.666663  0.333335  0.458657  1
  Er  Er4  1  0.333337  0.666668  0.957943  1
  Er  Er5  1  0.333336  0.666671  0.750000  1
  Rh  Rh6  1  0.167411  0.334810  0.124691  1
  Rh  Rh7  1  0.832513  0.665031  0.625417  1
  Rh  Rh8  1  0.665193  0.832598  0.124686  1
  Rh  Rh9  1  0.167403  0.832602  0.124693  1
  Rh  Rh10  1  0.832502  0.167478  0.625418  1
  Rh  Rh11  1  0.334977  0.167484  0.625415  1
  Rh  Rh12  1  0.832513  0.665031  0.874583  1
  Rh  Rh13  1  0.832502  0.167478  0.874582  1
  Rh  Rh14  1  0.334977  0.167484  0.874585  1
  Rh  Rh15  1  0.665193  0.832598  0.375314  1
  Rh  Rh16  1  0.167403  0.832602  0.375307  1
  Rh  Rh17  1  0.167411  0.334810  0.375309  1
  Rh  Rh18  1  0.000014  0.000010  0.250000  1
  Rh  Rh19  1  0.999994  0.000000  0.750000  1
  Rh  Rh20  1  0.333318  0.666659  0.250000  1
  Rh  Rh21  1  0.666668  0.333318  0.750000  1
  Rh  Rh22  1  0.999999  0.999996  0.999692  1
  Rh  Rh23  1  0.999999  0.999996  0.500308  1
