# generated using pymatgen
data_Hf4Al24FePt8
_symmetry_space_group_name_H-M   'P 1'
_cell_length_a   7.43189531
_cell_length_b   7.43484281
_cell_length_c   12.89114999
_cell_angle_alpha   84.45435506
_cell_angle_beta   78.86197359
_cell_angle_gamma   59.99765835
_symmetry_Int_Tables_number   1
_chemical_formula_structural   Hf4Al24FePt8
_chemical_formula_sum   'Hf4 Al24 Fe1 Pt8'
_cell_volume   605.23679376
_cell_formula_units_Z   1
loop_
 _symmetry_equiv_pos_site_id
 _symmetry_equiv_pos_as_xyz
  1  'x, y, z'
loop_
 _atom_site_type_symbol
 _atom_site_label
 _atom_site_symmetry_multiplicity
 _atom_site_fract_x
 _atom_site_fract_y
 _atom_site_fract_z
 _atom_site_occupancy
  Hf  Hf0  1  0.394174  0.165923  0.811895  1
  Hf  Hf1  1  0.605826  0.834077  0.188105  1
  Hf  Hf2  1  0.730246  0.498444  0.811536  1
  Hf  Hf3  1  0.269754  0.501556  0.188464  1
  Al  Al4  1  0.690769  0.823598  0.945016  1
  Al  Al5  1  0.309231  0.176402  0.054984  1
  Al  Al6  1  0.145454  0.832472  0.564028  1
  Al  Al7  1  0.854546  0.167528  0.435972  1
  Al  Al8  1  0.480545  0.166676  0.561252  1
  Al  Al9  1  0.519455  0.833324  0.438748  1
  Al  Al10  1  0.221253  0.165812  0.319942  1
  Al  Al11  1  0.778747  0.834188  0.680058  1
  Al  Al12  1  0.434965  0.505279  0.680122  1
  Al  Al13  1  0.565035  0.494721  0.319878  1
  Al  Al14  1  0.107306  0.162043  0.677678  1
  Al  Al15  1  0.892694  0.837957  0.322322  1
  Al  Al16  1  0.345827  0.496051  0.944878  1
  Al  Al17  1  0.654173  0.503949  0.055122  1
  Al  Al18  1  0.015997  0.183073  0.951615  1
  Al  Al19  1  0.984003  0.816927  0.048385  1
  Al  Al20  1  0.187378  0.499302  0.439418  1
  Al  Al21  1  0.812622  0.500698  0.560582  1
  Al  Al22  1  0.732362  0.163152  0.181425  1
  Al  Al23  1  0.267638  0.836848  0.818575  1
  Al  Al24  1  0.058960  0.615927  0.823108  1
  Al  Al25  1  0.941040  0.384073  0.176892  1
  Al  Al26  1  0.852496  0.044854  0.817801  1
  Al  Al27  1  0.147504  0.955146  0.182199  1
  Fe  Fe28  1  0.000000  0.500000  0.000000  1
  Pt  Pt29  1  0.119464  0.490459  0.641244  1
  Pt  Pt30  1  0.880536  0.509541  0.358756  1
  Pt  Pt31  1  0.655086  0.172765  0.999642  1
  Pt  Pt32  1  0.344914  0.827235  0.000358  1
  Pt  Pt33  1  0.535775  0.166635  0.360069  1
  Pt  Pt34  1  0.464225  0.833365  0.639931  1
  Pt  Pt35  1  0.776878  0.177567  0.638356  1
  Pt  Pt36  1  0.223122  0.822433  0.361644  1
