# generated using pymatgen
data_Tm7(LuBi2)3
_symmetry_space_group_name_H-M   'P 1'
_cell_length_a   8.15691315
_cell_length_b   9.41446419
_cell_length_c   11.87807302
_cell_angle_alpha   90.00681848
_cell_angle_beta   89.99966193
_cell_angle_gamma   90.02213952
_symmetry_Int_Tables_number   1
_chemical_formula_structural   Tm7(LuBi2)3
_chemical_formula_sum   'Tm14 Lu6 Bi12'
_cell_volume   912.15239249
_cell_formula_units_Z   2
loop_
 _symmetry_equiv_pos_site_id
 _symmetry_equiv_pos_as_xyz
  1  'x, y, z'
loop_
 _atom_site_type_symbol
 _atom_site_label
 _atom_site_symmetry_multiplicity
 _atom_site_fract_x
 _atom_site_fract_y
 _atom_site_fract_z
 _atom_site_occupancy
  Tm  Tm0  1  0.525893  0.249914  0.988734  1
  Tm  Tm1  1  0.355322  0.249911  0.282973  1
  Tm  Tm2  1  0.644513  0.750357  0.717045  1
  Tm  Tm3  1  0.144587  0.750264  0.782848  1
  Tm  Tm4  1  0.855725  0.249938  0.217020  1
  Tm  Tm5  1  0.187899  0.249917  0.781736  1
  Tm  Tm6  1  0.812129  0.750092  0.218247  1
  Tm  Tm7  1  0.312140  0.750089  0.281832  1
  Tm  Tm8  1  0.687936  0.249969  0.718212  1
  Tm  Tm9  1  0.806207  0.566011  0.939841  1
  Tm  Tm10  1  0.694092  0.065739  0.439812  1
  Tm  Tm11  1  0.193634  0.434069  0.060203  1
  Tm  Tm12  1  0.693826  0.434141  0.439852  1
  Tm  Tm13  1  0.306082  0.566008  0.560171  1
  Lu  Lu14  1  0.025974  0.250068  0.511197  1
  Lu  Lu15  1  0.974460  0.750047  0.488908  1
  Lu  Lu16  1  0.474258  0.750144  0.011083  1
  Lu  Lu17  1  0.193817  0.066215  0.060246  1
  Lu  Lu18  1  0.806045  0.933663  0.939790  1
  Lu  Lu19  1  0.306018  0.933621  0.560241  1
  Bi  Bi20  1  0.406845  0.249380  0.542618  1
  Bi  Bi21  1  0.592795  0.750160  0.457607  1
  Bi  Bi22  1  0.093073  0.750776  0.042584  1
  Bi  Bi23  1  0.907387  0.249189  0.957421  1
  Bi  Bi24  1  0.066801  0.003560  0.326129  1
  Bi  Bi25  1  0.933138  0.996480  0.673814  1
  Bi  Bi26  1  0.432981  0.996173  0.825994  1
  Bi  Bi27  1  0.933119  0.503628  0.673764  1
  Bi  Bi28  1  0.566677  0.003413  0.173965  1
  Bi  Bi29  1  0.066884  0.496538  0.326180  1
  Bi  Bi30  1  0.566836  0.496654  0.173937  1
  Bi  Bi31  1  0.432908  0.503872  0.825995  1
