# generated using pymatgen
data_Li8Dy2Ho6Sn3Sb5
_symmetry_space_group_name_H-M   'P 1'
_cell_length_a   9.40927237
_cell_length_b   9.41178390
_cell_length_c   7.08363705
_cell_angle_alpha   90.00000154
_cell_angle_beta   89.91707527
_cell_angle_gamma   120.00883619
_symmetry_Int_Tables_number   1
_chemical_formula_structural   Li8Dy2Ho6Sn3Sb5
_chemical_formula_sum   'Li8 Dy2 Ho6 Sn3 Sb5'
_cell_volume   543.21985695
_cell_formula_units_Z   1
loop_
 _symmetry_equiv_pos_site_id
 _symmetry_equiv_pos_as_xyz
  1  'x, y, z'
loop_
 _atom_site_type_symbol
 _atom_site_label
 _atom_site_symmetry_multiplicity
 _atom_site_fract_x
 _atom_site_fract_y
 _atom_site_fract_z
 _atom_site_occupancy
  Li  Li0  1  0.167972  0.334431  0.278446  1
  Li  Li1  1  0.167972  0.833542  0.278446  1
  Li  Li2  1  0.664819  0.832410  0.279255  1
  Li  Li3  1  0.832455  0.665288  0.781103  1
  Li  Li4  1  0.832455  0.167166  0.781103  1
  Li  Li5  1  0.335071  0.167534  0.779796  1
  Li  Li6  1  0.333412  0.666707  0.683338  1
  Li  Li7  1  0.665498  0.332749  0.183784  1
  Dy  Dy8  1  0.509190  0.021194  0.492293  1
  Dy  Dy9  1  0.509190  0.487995  0.492293  1
  Ho  Ho10  1  0.980114  0.490057  0.492495  1
  Ho  Ho11  1  0.488443  0.980374  0.994205  1
  Ho  Ho12  1  0.488443  0.508070  0.994205  1
  Ho  Ho13  1  0.019934  0.509968  0.993542  1
  Ho  Ho14  1  0.002248  0.001124  0.501186  1
  Ho  Ho15  1  0.002428  0.001214  0.003360  1
  Sn  Sn16  1  0.332405  0.166202  0.234380  1
  Sn  Sn17  1  0.332588  0.666295  0.257403  1
  Sn  Sn18  1  0.667790  0.333895  0.759314  1
  Sb  Sb19  1  0.165614  0.332650  0.736556  1
  Sb  Sb20  1  0.165614  0.832964  0.736556  1
  Sb  Sb21  1  0.667760  0.833881  0.737175  1
  Sb  Sb22  1  0.834292  0.667367  0.235869  1
  Sb  Sb23  1  0.834292  0.166925  0.235869  1
