# generated using pymatgen
data_DySb16
_symmetry_space_group_name_H-M   'P 1'
_cell_length_a   4.33054949
_cell_length_b   4.33054968
_cell_length_c   32.23385000
_cell_angle_alpha   86.14831747
_cell_angle_beta   86.14831730
_cell_angle_gamma   60.00000806
_symmetry_Int_Tables_number   1
_chemical_formula_structural   DySb16
_chemical_formula_sum   'Dy1 Sb16'
_cell_volume   521.93747282
_cell_formula_units_Z   1
loop_
 _symmetry_equiv_pos_site_id
 _symmetry_equiv_pos_as_xyz
  1  'x, y, z'
loop_
 _atom_site_type_symbol
 _atom_site_label
 _atom_site_symmetry_multiplicity
 _atom_site_fract_x
 _atom_site_fract_y
 _atom_site_fract_z
 _atom_site_occupancy
  Dy  Dy0  1  0.000000  0.000000  0.000000  1
  Sb  Sb1  1  0.292213  0.292213  0.123363  1
  Sb  Sb2  1  0.707787  0.707787  0.876637  1
  Sb  Sb3  1  0.236198  0.236198  0.291405  1
  Sb  Sb4  1  0.763802  0.763802  0.708595  1
  Sb  Sb5  1  0.469206  0.469206  0.592381  1
  Sb  Sb6  1  0.530794  0.530794  0.407619  1
  Sb  Sb7  1  0.352620  0.352620  0.942138  1
  Sb  Sb8  1  0.647380  0.647380  0.057862  1
  Sb  Sb9  1  0.058307  0.058307  0.825079  1
  Sb  Sb10  1  0.941693  0.941693  0.174921  1
  Sb  Sb11  1  0.413956  0.413956  0.758133  1
  Sb  Sb12  1  0.586044  0.586044  0.241867  1
  Sb  Sb13  1  0.119753  0.119753  0.640739  1
  Sb  Sb14  1  0.880247  0.880247  0.359261  1
  Sb  Sb15  1  0.174668  0.174668  0.475998  1
  Sb  Sb16  1  0.825332  0.825332  0.524002  1
