# generated using pymatgen
data_Sr3Rh4PbO14
_symmetry_space_group_name_H-M   'P 1'
_cell_length_a   7.42695364
_cell_length_b   7.42695237
_cell_length_c   7.38788108
_cell_angle_alpha   59.82489204
_cell_angle_beta   59.82489710
_cell_angle_gamma   59.99999964
_symmetry_Int_Tables_number   1
_chemical_formula_structural   Sr3Rh4PbO14
_chemical_formula_sum   'Sr3 Rh4 Pb1 O14'
_cell_volume   287.39003750
_cell_formula_units_Z   1
loop_
 _symmetry_equiv_pos_site_id
 _symmetry_equiv_pos_as_xyz
  1  'x, y, z'
loop_
 _atom_site_type_symbol
 _atom_site_label
 _atom_site_symmetry_multiplicity
 _atom_site_fract_x
 _atom_site_fract_y
 _atom_site_fract_z
 _atom_site_occupancy
  Sr  Sr0  1  0.625000  0.125000  0.125000  1
  Sr  Sr1  1  0.125000  0.625000  0.125000  1
  Sr  Sr2  1  0.125000  0.125000  0.125000  1
  Rh  Rh3  1  0.125000  0.625000  0.625000  1
  Rh  Rh4  1  0.625000  0.125000  0.625000  1
  Rh  Rh5  1  0.625000  0.625000  0.125000  1
  Rh  Rh6  1  0.625000  0.625000  0.625000  1
  Pb  Pb7  1  0.125000  0.125000  0.625000  1
  O  O8  1  0.698213  0.698213  0.302930  1
  O  O9  1  0.301445  0.301445  0.684370  1
  O  O10  1  0.712740  0.301445  0.684370  1
  O  O11  1  0.300646  0.698213  0.302930  1
  O  O12  1  0.301445  0.712740  0.684370  1
  O  O13  1  0.698213  0.300646  0.302930  1
  O  O14  1  0.551787  0.551787  0.947070  1
  O  O15  1  0.948555  0.948555  0.565630  1
  O  O16  1  0.537260  0.948555  0.565630  1
  O  O17  1  0.949354  0.551787  0.947070  1
  O  O18  1  0.948555  0.537260  0.565630  1
  O  O19  1  0.551787  0.949354  0.947070  1
  O  O20  1  0.237985  0.237985  0.286045  1
  O  O21  1  0.012015  0.012015  0.963955  1
