# generated using pymatgen
data_La4Nd2In3Sn7
_symmetry_space_group_name_H-M   'P 1'
_cell_length_a   6.73964177
_cell_length_b   6.73964208
_cell_length_c   10.62624900
_cell_angle_alpha   90.08702793
_cell_angle_beta   90.08702794
_cell_angle_gamma   102.39496488
_symmetry_Int_Tables_number   1
_chemical_formula_structural   La4Nd2In3Sn7
_chemical_formula_sum   'La4 Nd2 In3 Sn7'
_cell_volume   471.42174357
_cell_formula_units_Z   1
loop_
 _symmetry_equiv_pos_site_id
 _symmetry_equiv_pos_as_xyz
  1  'x, y, z'
loop_
 _atom_site_type_symbol
 _atom_site_label
 _atom_site_symmetry_multiplicity
 _atom_site_fract_x
 _atom_site_fract_y
 _atom_site_fract_z
 _atom_site_occupancy
  La  La0  1  0.202578  0.797889  0.500550  1
  La  La1  1  0.202601  0.795807  0.000328  1
  La  La2  1  0.797889  0.202578  0.500550  1
  La  La3  1  0.795807  0.202601  0.000328  1
  Nd  Nd4  1  0.642278  0.642278  0.249222  1
  Nd  Nd5  1  0.361213  0.361213  0.748400  1
  In  In6  1  0.313112  0.313112  0.043731  1
  In  In7  1  0.685806  0.685806  0.954145  1
  In  In8  1  0.310743  0.310743  0.454158  1
  Sn  Sn9  1  0.025117  0.025117  0.248973  1
  Sn  Sn10  1  0.975880  0.975880  0.751655  1
  Sn  Sn11  1  0.682012  0.682012  0.544634  1
  Sn  Sn12  1  0.493810  0.084672  0.249968  1
  Sn  Sn13  1  0.920001  0.506479  0.751695  1
  Sn  Sn14  1  0.506479  0.920001  0.751695  1
  Sn  Sn15  1  0.084672  0.493810  0.249968  1
