# generated using pymatgen
data_Hf18TaMnRe7Ni
_symmetry_space_group_name_H-M   'P 1'
_cell_length_a   8.61539300
_cell_length_b   8.61539308
_cell_length_c   8.49549000
_cell_angle_alpha   90.00000000
_cell_angle_beta   90.00000000
_cell_angle_gamma   120.00000355
_symmetry_Int_Tables_number   1
_chemical_formula_structural   Hf18TaMnRe7Ni
_chemical_formula_sum   'Hf18 Ta1 Mn1 Re7 Ni1'
_cell_volume   546.09630627
_cell_formula_units_Z   1
loop_
 _symmetry_equiv_pos_site_id
 _symmetry_equiv_pos_as_xyz
  1  'x, y, z'
loop_
 _atom_site_type_symbol
 _atom_site_label
 _atom_site_symmetry_multiplicity
 _atom_site_fract_x
 _atom_site_fract_y
 _atom_site_fract_z
 _atom_site_occupancy
  Hf  Hf0  1  0.202031  0.797969  0.442740  1
  Hf  Hf1  1  0.202031  0.404060  0.442740  1
  Hf  Hf2  1  0.595940  0.797969  0.442740  1
  Hf  Hf3  1  0.800217  0.199783  0.557105  1
  Hf  Hf4  1  0.800217  0.600437  0.557105  1
  Hf  Hf5  1  0.399563  0.199783  0.557105  1
  Hf  Hf6  1  0.802671  0.197329  0.941633  1
  Hf  Hf7  1  0.802671  0.605343  0.941633  1
  Hf  Hf8  1  0.394657  0.197329  0.941633  1
  Hf  Hf9  1  0.200487  0.799513  0.059057  1
  Hf  Hf10  1  0.200487  0.400973  0.059057  1
  Hf  Hf11  1  0.599027  0.799513  0.059057  1
  Hf  Hf12  1  0.540229  0.459771  0.248222  1
  Hf  Hf13  1  0.540229  0.080459  0.248222  1
  Hf  Hf14  1  0.919541  0.459771  0.248222  1
  Hf  Hf15  1  0.458581  0.541419  0.752117  1
  Hf  Hf16  1  0.458581  0.917163  0.752117  1
  Hf  Hf17  1  0.082837  0.541419  0.752117  1
  Ta  Ta18  1  0.000000  0.000000  0.498073  1
  Mn  Mn19  1  0.333333  0.666667  0.249847  1
  Re  Re20  1  0.887501  0.112499  0.249400  1
  Re  Re21  1  0.887501  0.775002  0.249400  1
  Re  Re22  1  0.224998  0.112499  0.249400  1
  Re  Re23  1  0.112258  0.887742  0.749676  1
  Re  Re24  1  0.112258  0.224517  0.749676  1
  Re  Re25  1  0.775483  0.887742  0.749676  1
  Re  Re26  1  0.000000  0.000000  0.000755  1
  Ni  Ni27  1  0.666667  0.333333  0.751475  1
