# generated using pymatgen
data_Y6GaSi5IrRh11
_symmetry_space_group_name_H-M   'P 1'
_cell_length_a   5.58523100
_cell_length_b   5.59291644
_cell_length_c   15.17094948
_cell_angle_alpha   89.97513272
_cell_angle_beta   90.00000000
_cell_angle_gamma   119.95453651
_symmetry_Int_Tables_number   1
_chemical_formula_structural   Y6GaSi5IrRh11
_chemical_formula_sum   'Y6 Ga1 Si5 Ir1 Rh11'
_cell_volume   410.60249798
_cell_formula_units_Z   1
loop_
 _symmetry_equiv_pos_site_id
 _symmetry_equiv_pos_as_xyz
  1  'x, y, z'
loop_
 _atom_site_type_symbol
 _atom_site_label
 _atom_site_symmetry_multiplicity
 _atom_site_fract_x
 _atom_site_fract_y
 _atom_site_fract_z
 _atom_site_occupancy
  Y  Y0  1  0.666437  0.332872  0.962059  1
  Y  Y1  1  0.666562  0.333122  0.537455  1
  Y  Y2  1  0.332623  0.665247  0.037540  1
  Y  Y3  1  0.666632  0.333262  0.750603  1
  Y  Y4  1  0.333363  0.666727  0.462488  1
  Y  Y5  1  0.333178  0.666357  0.250160  1
  Ga  Ga6  1  0.000102  0.000205  0.499907  1
  Si  Si7  1  0.666831  0.333660  0.248005  1
  Si  Si8  1  0.000016  0.000031  0.248659  1
  Si  Si9  1  0.000037  0.000074  0.751356  1
  Si  Si10  1  0.333477  0.666955  0.751562  1
  Si  Si11  1  0.001540  0.003081  0.999976  1
  Ir  Ir12  1  0.166916  0.333832  0.870158  1
  Rh  Rh13  1  0.167695  0.335389  0.634173  1
  Rh  Rh14  1  0.666112  0.832524  0.869994  1
  Rh  Rh15  1  0.335514  0.167547  0.365174  1
  Rh  Rh16  1  0.832331  0.664663  0.365130  1
  Rh  Rh17  1  0.832033  0.167547  0.365174  1
  Rh  Rh18  1  0.833055  0.166278  0.130381  1
  Rh  Rh19  1  0.333223  0.166278  0.130381  1
  Rh  Rh20  1  0.664795  0.832436  0.634767  1
  Rh  Rh21  1  0.167640  0.832436  0.634767  1
  Rh  Rh22  1  0.833476  0.666952  0.130136  1
  Rh  Rh23  1  0.166412  0.832524  0.869994  1
