# generated using pymatgen
data_Rb12Na8Ti(GeP4)3
_symmetry_space_group_name_H-M   'P 1'
_cell_length_a   10.52464321
_cell_length_b   10.52464226
_cell_length_c   15.44856845
_cell_angle_alpha   90.02425338
_cell_angle_beta   90.02425196
_cell_angle_gamma   142.57280933
_symmetry_Int_Tables_number   1
_chemical_formula_structural   Rb12Na8Ti(GeP4)3
_chemical_formula_sum   'Rb12 Na8 Ti1 Ge3 P12'
_cell_volume   1039.99089711
_cell_formula_units_Z   1
loop_
 _symmetry_equiv_pos_site_id
 _symmetry_equiv_pos_as_xyz
  1  'x, y, z'
loop_
 _atom_site_type_symbol
 _atom_site_label
 _atom_site_symmetry_multiplicity
 _atom_site_fract_x
 _atom_site_fract_y
 _atom_site_fract_z
 _atom_site_occupancy
  Rb  Rb0  1  0.936985  0.605782  0.826714  1
  Rb  Rb1  1  0.565083  0.895275  0.327635  1
  Rb  Rb2  1  0.394218  0.063015  0.173286  1
  Rb  Rb3  1  0.062704  0.393207  0.172113  1
  Rb  Rb4  1  0.890928  0.555403  0.325524  1
  Rb  Rb5  1  0.444597  0.109072  0.674476  1
  Rb  Rb6  1  0.606793  0.937296  0.827887  1
  Rb  Rb7  1  0.269974  0.272220  0.317035  1
  Rb  Rb8  1  0.765418  0.765683  0.180001  1
  Rb  Rb9  1  0.234317  0.234582  0.819999  1
  Rb  Rb10  1  0.727780  0.730026  0.682965  1
  Rb  Rb11  1  0.104725  0.434917  0.672365  1
  Na  Na12  1  0.920814  0.079186  0.000000  1
  Na  Na13  1  0.579106  0.420894  0.500000  1
  Na  Na14  1  0.079289  0.920711  0.000000  1
  Na  Na15  1  0.420136  0.579864  0.500000  1
  Na  Na16  1  0.755054  0.244946  0.000000  1
  Na  Na17  1  0.745982  0.254018  0.500000  1
  Na  Na18  1  0.244785  0.755215  0.000000  1
  Na  Na19  1  0.254671  0.745329  0.500000  1
  Ti  Ti20  1  0.081121  0.918879  0.500000  1
  Ge  Ge21  1  0.586041  0.413959  0.000000  1
  Ge  Ge22  1  0.917532  0.082468  0.500000  1
  Ge  Ge23  1  0.413887  0.586113  0.000000  1
  P  P24  1  0.858583  0.551532  0.093739  1
  P  P25  1  0.448468  0.141417  0.906261  1
  P  P26  1  0.644258  0.947395  0.593327  1
  P  P27  1  0.948829  0.646024  0.592157  1
  P  P28  1  0.141304  0.448484  0.906283  1
  P  P29  1  0.551516  0.858696  0.093717  1
  P  P30  1  0.353976  0.051171  0.407843  1
  P  P31  1  0.192088  0.193628  0.585537  1
  P  P32  1  0.685803  0.685740  0.918669  1
  P  P33  1  0.314260  0.314197  0.081331  1
  P  P34  1  0.052605  0.355742  0.406673  1
  P  P35  1  0.806372  0.807912  0.414463  1
