# generated using pymatgen
data_YPa3TlRh4Pb
_symmetry_space_group_name_H-M   'P 1'
_cell_length_a   7.80110038
_cell_length_b   7.80264363
_cell_length_c   3.59391200
_cell_angle_alpha   90.00000000
_cell_angle_beta   90.00000000
_cell_angle_gamma   87.52002490
_symmetry_Int_Tables_number   1
_chemical_formula_structural   YPa3TlRh4Pb
_chemical_formula_sum   'Y1 Pa3 Tl1 Rh4 Pb1'
_cell_volume   218.55368243
_cell_formula_units_Z   1
loop_
 _symmetry_equiv_pos_site_id
 _symmetry_equiv_pos_as_xyz
  1  'x, y, z'
loop_
 _atom_site_type_symbol
 _atom_site_label
 _atom_site_symmetry_multiplicity
 _atom_site_fract_x
 _atom_site_fract_y
 _atom_site_fract_z
 _atom_site_occupancy
  Y  Y0  1  0.329045  0.829627  0.500000  1
  Pa  Pa1  1  0.668570  0.168345  0.500000  1
  Pa  Pa2  1  0.171205  0.329854  0.500000  1
  Pa  Pa3  1  0.830435  0.671248  0.500000  1
  Tl  Tl4  1  0.009310  0.996896  0.000000  1
  Rh  Rh5  1  0.860102  0.358107  0.000000  1
  Rh  Rh6  1  0.375370  0.148951  0.000000  1
  Rh  Rh7  1  0.648615  0.876161  0.000000  1
  Rh  Rh8  1  0.110127  0.611213  0.000000  1
  Pb  Pb9  1  0.497220  0.509594  0.000000  1
