# generated using pymatgen
data_Lu4Al6CoTc
_symmetry_space_group_name_H-M   'P 1'
_cell_length_a   5.42592800
_cell_length_b   5.42592721
_cell_length_c   8.68443200
_cell_angle_alpha   90.00000000
_cell_angle_beta   90.00000000
_cell_angle_gamma   120.00001700
_symmetry_Int_Tables_number   1
_chemical_formula_structural   Lu4Al6CoTc
_chemical_formula_sum   'Lu4 Al6 Co1 Tc1'
_cell_volume   221.42159062
_cell_formula_units_Z   1
loop_
 _symmetry_equiv_pos_site_id
 _symmetry_equiv_pos_as_xyz
  1  'x, y, z'
loop_
 _atom_site_type_symbol
 _atom_site_label
 _atom_site_symmetry_multiplicity
 _atom_site_fract_x
 _atom_site_fract_y
 _atom_site_fract_z
 _atom_site_occupancy
  Lu  Lu0  1  0.666667  0.333333  0.943721  1
  Lu  Lu1  1  0.333333  0.666667  0.056279  1
  Lu  Lu2  1  0.333333  0.666667  0.446880  1
  Lu  Lu3  1  0.666667  0.333333  0.553120  1
  Al  Al4  1  0.326043  0.163021  0.257572  1
  Al  Al5  1  0.836979  0.163021  0.257572  1
  Al  Al6  1  0.836979  0.673957  0.257572  1
  Al  Al7  1  0.163021  0.326043  0.742428  1
  Al  Al8  1  0.163021  0.836979  0.742428  1
  Al  Al9  1  0.673957  0.836979  0.742428  1
  Co  Co10  1  0.000000  0.000000  0.500000  1
  Tc  Tc11  1  0.000000  0.000000  0.000000  1
