# generated using pymatgen
data_Sr4Al23SiPt9
_symmetry_space_group_name_H-M   'P 1'
_cell_length_a   7.56606316
_cell_length_b   7.58149399
_cell_length_c   13.57339566
_cell_angle_alpha   84.68488125
_cell_angle_beta   100.87288520
_cell_angle_gamma   119.82354270
_symmetry_Int_Tables_number   1
_chemical_formula_structural   Sr4Al23SiPt9
_chemical_formula_sum   'Sr4 Al23 Si1 Pt9'
_cell_volume   663.35455383
_cell_formula_units_Z   1
loop_
 _symmetry_equiv_pos_site_id
 _symmetry_equiv_pos_as_xyz
  1  'x, y, z'
loop_
 _atom_site_type_symbol
 _atom_site_label
 _atom_site_symmetry_multiplicity
 _atom_site_fract_x
 _atom_site_fract_y
 _atom_site_fract_z
 _atom_site_occupancy
  Sr  Sr0  1  0.731584  0.999440  0.193091  1
  Sr  Sr1  1  0.262025  0.002575  0.807097  1
  Sr  Sr2  1  0.063974  0.667636  0.193169  1
  Sr  Sr3  1  0.938421  0.326048  0.806937  1
  Al  Al4  1  0.194498  0.132758  0.184537  1
  Al  Al5  1  0.979614  0.666166  0.949522  1
  Al  Al6  1  0.023325  0.334142  0.050088  1
  Al  Al7  1  0.403701  0.669434  0.815328  1
  Al  Al8  1  0.598017  0.334369  0.183779  1
  Al  Al9  1  0.878206  0.662449  0.662139  1
  Al  Al10  1  0.122263  0.334792  0.337550  1
  Al  Al11  1  0.607067  0.464661  0.814489  1
  Al  Al12  1  0.396882  0.536862  0.184451  1
  Al  Al13  1  0.232954  0.344803  0.662165  1
  Al  Al14  1  0.769124  0.657170  0.338277  1
  Al  Al15  1  0.853413  0.332436  0.557447  1
  Al  Al16  1  0.183264  0.998473  0.557511  1
  Al  Al17  1  0.815885  0.001145  0.444158  1
  Al  Al18  1  0.350352  0.005334  0.049149  1
  Al  Al19  1  0.649568  0.997207  0.950479  1
  Al  Al20  1  0.550231  0.991825  0.661262  1
  Al  Al21  1  0.445984  0.008445  0.338256  1
  Al  Al22  1  0.519567  0.667736  0.557835  1
  Al  Al23  1  0.480130  0.332025  0.442039  1
  Al  Al24  1  0.679352  0.664662  0.043596  1
  Al  Al25  1  0.324757  0.339297  0.957831  1
  Al  Al26  1  0.146509  0.666703  0.443073  1
  Si  Si27  1  0.798576  0.859565  0.815948  1
  Pt  Pt28  1  0.331509  0.673079  0.998830  1
  Pt  Pt29  1  0.545442  0.328617  0.633886  1
  Pt  Pt30  1  0.455270  0.672089  0.366588  1
  Pt  Pt31  1  0.880738  0.001226  0.637691  1
  Pt  Pt32  1  0.116283  0.995541  0.365970  1
  Pt  Pt33  1  0.672268  0.331733  0.998246  1
  Pt  Pt34  1  0.207033  0.667239  0.634886  1
  Pt  Pt35  1  0.794076  0.332867  0.366138  1
  Pt  Pt36  1  0.998141  0.999450  0.996563  1
