# generated using pymatgen
data_NdSm7Be3Si12Ge
_symmetry_space_group_name_H-M   'P 1'
_cell_length_a   8.00073901
_cell_length_b   8.00099757
_cell_length_c   8.31698900
_cell_angle_alpha   90.00103814
_cell_angle_beta   89.99877100
_cell_angle_gamma   120.00354696
_symmetry_Int_Tables_number   1
_chemical_formula_structural   NdSm7Be3Si12Ge
_chemical_formula_sum   'Nd1 Sm7 Be3 Si12 Ge1'
_cell_volume   461.05791000
_cell_formula_units_Z   1
loop_
 _symmetry_equiv_pos_site_id
 _symmetry_equiv_pos_as_xyz
  1  'x, y, z'
loop_
 _atom_site_type_symbol
 _atom_site_label
 _atom_site_symmetry_multiplicity
 _atom_site_fract_x
 _atom_site_fract_y
 _atom_site_fract_z
 _atom_site_occupancy
  Nd  Nd0  1  0.999999  0.000001  0.248208  1
  Sm  Sm1  1  0.499182  0.500817  0.749903  1
  Sm  Sm2  1  0.499255  0.500744  0.250102  1
  Sm  Sm3  1  0.001633  0.500815  0.749899  1
  Sm  Sm4  1  0.001484  0.500744  0.250108  1
  Sm  Sm5  1  0.499183  0.998365  0.749901  1
  Sm  Sm6  1  0.499255  0.998514  0.250106  1
  Sm  Sm7  1  0.000000  0.000000  0.751471  1
  Be  Be8  1  0.666652  0.333333  0.998959  1
  Be  Be9  1  0.333342  0.666665  0.000328  1
  Be  Be10  1  0.333341  0.666667  0.499917  1
  Si  Si11  1  0.826973  0.173030  0.999322  1
  Si  Si12  1  0.172848  0.827145  0.999234  1
  Si  Si13  1  0.346069  0.173030  0.999322  1
  Si  Si14  1  0.175508  0.824480  0.500538  1
  Si  Si15  1  0.654283  0.827147  0.999233  1
  Si  Si16  1  0.839543  0.160460  0.501239  1
  Si  Si17  1  0.826974  0.653935  0.999323  1
  Si  Si18  1  0.648942  0.824480  0.500537  1
  Si  Si19  1  0.172846  0.345712  0.999233  1
  Si  Si20  1  0.320926  0.160455  0.501237  1
  Si  Si21  1  0.175508  0.351046  0.500537  1
  Si  Si22  1  0.839547  0.679074  0.501238  1
  Ge  Ge23  1  0.666708  0.333341  0.500107  1
