# generated using pymatgen
data_Pr3Th(Ga5Ir3)2
_symmetry_space_group_name_H-M   'P 1'
_cell_length_a   8.65505462
_cell_length_b   8.70263726
_cell_length_c   8.70263728
_cell_angle_alpha   140.68995417
_cell_angle_beta   108.28135763
_cell_angle_gamma   85.05676713
_symmetry_Int_Tables_number   1
_chemical_formula_structural   Pr3Th(Ga5Ir3)2
_chemical_formula_sum   'Pr3 Th1 Ga10 Ir6'
_cell_volume   380.72442684
_cell_formula_units_Z   1
loop_
 _symmetry_equiv_pos_site_id
 _symmetry_equiv_pos_as_xyz
  1  'x, y, z'
loop_
 _atom_site_type_symbol
 _atom_site_label
 _atom_site_symmetry_multiplicity
 _atom_site_fract_x
 _atom_site_fract_y
 _atom_site_fract_z
 _atom_site_occupancy
  Pr  Pr0  1  0.134348  0.365013  0.769335  1
  Pr  Pr1  1  0.407359  0.136612  0.270747  1
  Pr  Pr2  1  0.593572  0.863558  0.730015  1
  Th  Th3  1  0.866314  0.638639  0.227675  1
  Ga  Ga4  1  0.497297  0.751713  0.252068  1
  Ga  Ga5  1  0.497297  0.245229  0.745584  1
  Ga  Ga6  1  0.210082  0.958272  0.752390  1
  Ga  Ga7  1  0.791636  0.540533  0.746479  1
  Ga  Ga8  1  0.791636  0.045157  0.251104  1
  Ga  Ga9  1  0.210082  0.457692  0.251810  1
  Ga  Ga10  1  0.077342  0.909950  0.167391  1
  Ga  Ga11  1  0.923320  0.090471  0.832850  1
  Ga  Ga12  1  0.737537  0.408287  0.329250  1
  Ga  Ga13  1  0.263227  0.591791  0.671436  1
  Ir  Ir14  1  0.999826  0.749518  0.747687  1
  Ir  Ir15  1  0.999826  0.252139  0.250308  1
  Ir  Ir16  1  0.246931  0.848140  0.398791  1
  Ir  Ir17  1  0.748535  0.147373  0.601161  1
  Ir  Ir18  1  0.448183  0.353002  0.095180  1
  Ir  Ir19  1  0.555652  0.646913  0.908740  1
