# generated using pymatgen
data_Na4NpPbS6
_symmetry_space_group_name_H-M   'P 1'
_cell_length_a   7.12597420
_cell_length_b   7.12597416
_cell_length_c   6.97498000
_cell_angle_alpha   79.98331492
_cell_angle_beta   79.98331498
_cell_angle_gamma   119.92153544
_symmetry_Int_Tables_number   1
_chemical_formula_structural   Na4NpPbS6
_chemical_formula_sum   'Na4 Np1 Pb1 S6'
_cell_volume   287.85037081
_cell_formula_units_Z   1
loop_
 _symmetry_equiv_pos_site_id
 _symmetry_equiv_pos_as_xyz
  1  'x, y, z'
loop_
 _atom_site_type_symbol
 _atom_site_label
 _atom_site_symmetry_multiplicity
 _atom_site_fract_x
 _atom_site_fract_y
 _atom_site_fract_z
 _atom_site_occupancy
  Na  Na0  1  0.000228  0.999772  0.000000  1
  Na  Na1  1  0.501725  0.498275  0.500000  1
  Na  Na2  1  0.836147  0.163853  0.500000  1
  Na  Na3  1  0.161176  0.838824  0.500000  1
  Np  Np4  1  0.333034  0.666966  0.000000  1
  Pb  Pb5  1  0.667212  0.332788  0.000000  1
  S  S6  1  0.259428  0.294633  0.229816  1
  S  S7  1  0.412531  0.040967  0.769687  1
  S  S8  1  0.113197  0.449074  0.777282  1
  S  S9  1  0.705367  0.740572  0.770184  1
  S  S10  1  0.550926  0.886803  0.222718  1
  S  S11  1  0.959033  0.587469  0.230313  1
