# generated using pymatgen
data_Pa2Zn2OsPt
_symmetry_space_group_name_H-M   'P 1'
_cell_length_a   7.13123900
_cell_length_b   7.13123863
_cell_length_c   8.04825100
_cell_angle_alpha   90.00000000
_cell_angle_beta   90.00000000
_cell_angle_gamma   119.99999706
_symmetry_Int_Tables_number   1
_chemical_formula_structural   Pa2Zn2OsPt
_chemical_formula_sum   'Pa6 Zn6 Os3 Pt3'
_cell_volume   354.45582532
_cell_formula_units_Z   3
loop_
 _symmetry_equiv_pos_site_id
 _symmetry_equiv_pos_as_xyz
  1  'x, y, z'
loop_
 _atom_site_type_symbol
 _atom_site_label
 _atom_site_symmetry_multiplicity
 _atom_site_fract_x
 _atom_site_fract_y
 _atom_site_fract_z
 _atom_site_occupancy
  Pa  Pa0  1  0.995762  0.579012  0.746065  1
  Pa  Pa1  1  0.995653  0.578964  0.253934  1
  Pa  Pa2  1  0.583311  0.004347  0.253934  1
  Pa  Pa3  1  0.583251  0.004238  0.746065  1
  Pa  Pa4  1  0.421036  0.416689  0.253934  1
  Pa  Pa5  1  0.420988  0.416749  0.746065  1
  Zn  Zn6  1  0.002022  0.241232  0.499991  1
  Zn  Zn7  1  0.760743  0.757735  0.999998  1
  Zn  Zn8  1  0.996992  0.239257  0.999998  1
  Zn  Zn9  1  0.239211  0.997978  0.499991  1
  Zn  Zn10  1  0.242265  0.003008  0.999998  1
  Zn  Zn11  1  0.758768  0.760789  0.499991  1
  Os  Os12  1  0.333333  0.666667  0.499997  1
  Os  Os13  1  0.666667  0.333333  0.500091  1
  Os  Os14  1  0.666667  0.333333  0.999879  1
  Pt  Pt15  1  0.000000  0.000000  0.249712  1
  Pt  Pt16  1  0.000000  0.000000  0.750268  1
  Pt  Pt17  1  0.333333  0.666667  0.000095  1
