# generated using pymatgen
data_CeTm9Sn8
_symmetry_space_group_name_H-M   'P 1'
_cell_length_a   7.98080679
_cell_length_b   8.11440900
_cell_length_c   15.35365200
_cell_angle_alpha   90.00000000
_cell_angle_beta   89.47519340
_cell_angle_gamma   90.00000000
_symmetry_Int_Tables_number   1
_chemical_formula_structural   CeTm9Sn8
_chemical_formula_sum   'Ce2 Tm18 Sn16'
_cell_volume   994.25358404
_cell_formula_units_Z   2
loop_
 _symmetry_equiv_pos_site_id
 _symmetry_equiv_pos_as_xyz
  1  'x, y, z'
loop_
 _atom_site_type_symbol
 _atom_site_label
 _atom_site_symmetry_multiplicity
 _atom_site_fract_x
 _atom_site_fract_y
 _atom_site_fract_z
 _atom_site_occupancy
  Ce  Ce0  1  0.982810  0.820326  0.595580  1
  Ce  Ce1  1  0.517190  0.320326  0.404420  1
  Tm  Tm2  1  0.021943  0.178639  0.402194  1
  Tm  Tm3  1  0.368616  0.837439  0.121928  1
  Tm  Tm4  1  0.135337  0.337749  0.624224  1
  Tm  Tm5  1  0.476988  0.678126  0.903746  1
  Tm  Tm6  1  0.869301  0.662159  0.122194  1
  Tm  Tm7  1  0.131384  0.337439  0.878072  1
  Tm  Tm8  1  0.197442  0.503344  0.248362  1
  Tm  Tm9  1  0.696925  0.997482  0.248370  1
  Tm  Tm10  1  0.478057  0.678639  0.597806  1
  Tm  Tm11  1  0.302558  0.003344  0.751638  1
  Tm  Tm12  1  0.634921  0.162994  0.624112  1
  Tm  Tm13  1  0.803075  0.497482  0.751630  1
  Tm  Tm14  1  0.865079  0.662994  0.375888  1
  Tm  Tm15  1  0.023012  0.178126  0.096254  1
  Tm  Tm16  1  0.975759  0.820674  0.901657  1
  Tm  Tm17  1  0.630699  0.162159  0.877806  1
  Tm  Tm18  1  0.524241  0.320674  0.098343  1
  Tm  Tm19  1  0.364663  0.837749  0.375776  1
  Sn  Sn20  1  0.796388  0.463732  0.542737  1
  Sn  Sn21  1  0.703612  0.963732  0.457263  1
  Sn  Sn22  1  0.666060  0.850131  0.750432  1
  Sn  Sn23  1  0.202787  0.540828  0.459534  1
  Sn  Sn24  1  0.289761  0.035113  0.958261  1
  Sn  Sn25  1  0.833940  0.350131  0.249568  1
  Sn  Sn26  1  0.790895  0.463234  0.958757  1
  Sn  Sn27  1  0.563483  0.620277  0.249722  1
  Sn  Sn28  1  0.210239  0.535113  0.041739  1
  Sn  Sn29  1  0.437323  0.379944  0.750666  1
  Sn  Sn30  1  0.171590  0.647807  0.751686  1
  Sn  Sn31  1  0.936517  0.120277  0.750278  1
  Sn  Sn32  1  0.297213  0.040828  0.540466  1
  Sn  Sn33  1  0.709105  0.963234  0.041243  1
  Sn  Sn34  1  0.328410  0.147807  0.248314  1
  Sn  Sn35  1  0.062677  0.879944  0.249334  1
