# generated using pymatgen
data_Tm3In3CuAgRh
_symmetry_space_group_name_H-M   'P 1'
_cell_length_a   7.62855700
_cell_length_b   7.62855798
_cell_length_c   3.84862600
_cell_angle_alpha   90.00000000
_cell_angle_beta   90.00000000
_cell_angle_gamma   120.00000008
_symmetry_Int_Tables_number   1
_chemical_formula_structural   Tm3In3CuAgRh
_chemical_formula_sum   'Tm3 In3 Cu1 Ag1 Rh1'
_cell_volume   193.96402506
_cell_formula_units_Z   1
loop_
 _symmetry_equiv_pos_site_id
 _symmetry_equiv_pos_as_xyz
  1  'x, y, z'
loop_
 _atom_site_type_symbol
 _atom_site_label
 _atom_site_symmetry_multiplicity
 _atom_site_fract_x
 _atom_site_fract_y
 _atom_site_fract_z
 _atom_site_occupancy
  Tm  Tm0  1  0.973325  0.393724  0.500000  1
  Tm  Tm1  1  0.606276  0.579602  0.500000  1
  Tm  Tm2  1  0.420398  0.026675  0.500000  1
  In  In3  1  0.250663  0.252482  0.000000  1
  In  In4  1  0.001818  0.749337  0.000000  1
  In  In5  1  0.747518  0.998182  0.000000  1
  Cu  Cu6  1  0.000000  0.000000  0.500000  1
  Ag  Ag7  1  0.333333  0.666667  0.000000  1
  Rh  Rh8  1  0.666667  0.333333  0.000000  1
