# generated using pymatgen
data_CaTiCo4As3
_symmetry_space_group_name_H-M   'P 1'
_cell_length_a   3.77939400
_cell_length_b   10.91921400
_cell_length_c   12.49996200
_cell_angle_alpha   90.00000000
_cell_angle_beta   90.00000000
_cell_angle_gamma   90.00000000
_symmetry_Int_Tables_number   1
_chemical_formula_structural   CaTiCo4As3
_chemical_formula_sum   'Ca4 Ti4 Co16 As12'
_cell_volume   515.84858027
_cell_formula_units_Z   4
loop_
 _symmetry_equiv_pos_site_id
 _symmetry_equiv_pos_as_xyz
  1  'x, y, z'
loop_
 _atom_site_type_symbol
 _atom_site_label
 _atom_site_symmetry_multiplicity
 _atom_site_fract_x
 _atom_site_fract_y
 _atom_site_fract_z
 _atom_site_occupancy
  Ca  Ca0  1  0.250000  0.579675  0.705251  1
  Ca  Ca1  1  0.250000  0.920325  0.205251  1
  Ca  Ca2  1  0.750000  0.420325  0.294749  1
  Ca  Ca3  1  0.750000  0.079675  0.794749  1
  Ti  Ti4  1  0.250000  0.697761  0.990539  1
  Ti  Ti5  1  0.250000  0.802239  0.490539  1
  Ti  Ti6  1  0.750000  0.302239  0.009461  1
  Ti  Ti7  1  0.750000  0.197761  0.509461  1
  Co  Co8  1  0.250000  0.404478  0.488877  1
  Co  Co9  1  0.250000  0.095522  0.988877  1
  Co  Co10  1  0.750000  0.595522  0.511123  1
  Co  Co11  1  0.750000  0.904478  0.011123  1
  Co  Co12  1  0.250000  0.215953  0.172326  1
  Co  Co13  1  0.250000  0.284047  0.672326  1
  Co  Co14  1  0.750000  0.784047  0.827674  1
  Co  Co15  1  0.750000  0.715953  0.327674  1
  Co  Co16  1  0.250000  0.881897  0.698327  1
  Co  Co17  1  0.250000  0.618103  0.198327  1
  Co  Co18  1  0.750000  0.118103  0.301673  1
  Co  Co19  1  0.750000  0.381897  0.801673  1
  Co  Co20  1  0.250000  0.463475  0.935510  1
  Co  Co21  1  0.250000  0.036525  0.435510  1
  Co  Co22  1  0.750000  0.536525  0.064490  1
  Co  Co23  1  0.750000  0.963475  0.564490  1
  As  As24  1  0.250000  0.420798  0.118373  1
  As  As25  1  0.250000  0.079202  0.618373  1
  As  As26  1  0.750000  0.579202  0.881627  1
  As  As27  1  0.750000  0.920798  0.381627  1
  As  As28  1  0.250000  0.266811  0.861366  1
  As  As29  1  0.250000  0.233189  0.361366  1
  As  As30  1  0.750000  0.733189  0.138634  1
  As  As31  1  0.750000  0.766811  0.638634  1
  As  As32  1  0.250000  0.593851  0.390081  1
  As  As33  1  0.250000  0.906149  0.890081  1
  As  As34  1  0.750000  0.406149  0.609919  1
  As  As35  1  0.750000  0.093851  0.109919  1
