# generated using pymatgen
data_Zr4In2CuPt3
_symmetry_space_group_name_H-M   'P 1'
_cell_length_a   7.50517701
_cell_length_b   7.50517687
_cell_length_c   6.90497068
_cell_angle_alpha   90.03568664
_cell_angle_beta   90.03568310
_cell_angle_gamma   90.66858450
_symmetry_Int_Tables_number   1
_chemical_formula_structural   Zr4In2CuPt3
_chemical_formula_sum   'Zr8 In4 Cu2 Pt6'
_cell_volume   388.91435273
_cell_formula_units_Z   2
loop_
 _symmetry_equiv_pos_site_id
 _symmetry_equiv_pos_as_xyz
  1  'x, y, z'
loop_
 _atom_site_type_symbol
 _atom_site_label
 _atom_site_symmetry_multiplicity
 _atom_site_fract_x
 _atom_site_fract_y
 _atom_site_fract_z
 _atom_site_occupancy
  Zr  Zr0  1  0.652380  0.652380  0.504363  1
  Zr  Zr1  1  0.812716  0.187284  0.500000  1
  Zr  Zr2  1  0.688891  0.688891  0.998722  1
  Zr  Zr3  1  0.849492  0.150508  0.000000  1
  Zr  Zr4  1  0.187284  0.812716  0.500000  1
  Zr  Zr5  1  0.311109  0.311109  0.001278  1
  Zr  Zr6  1  0.150508  0.849492  0.000000  1
  Zr  Zr7  1  0.347620  0.347620  0.495637  1
  In  In8  1  0.997415  0.504216  0.248384  1
  In  In9  1  0.495784  0.002585  0.751616  1
  In  In10  1  0.504216  0.997415  0.248384  1
  In  In11  1  0.002585  0.495784  0.751616  1
  Cu  Cu12  1  0.871035  0.871035  0.296560  1
  Cu  Cu13  1  0.128965  0.128965  0.703440  1
  Pt  Pt14  1  0.630252  0.369299  0.216088  1
  Pt  Pt15  1  0.369748  0.630701  0.783912  1
  Pt  Pt16  1  0.877413  0.877413  0.715565  1
  Pt  Pt17  1  0.630701  0.369748  0.783912  1
  Pt  Pt18  1  0.369299  0.630252  0.216088  1
  Pt  Pt19  1  0.122587  0.122587  0.284435  1
