# generated using pymatgen
data_Ba3SrMnO6
_symmetry_space_group_name_H-M   'P 1'
_cell_length_a   7.21609682
_cell_length_b   7.21609757
_cell_length_c   7.21609721
_cell_angle_alpha   91.29778228
_cell_angle_beta   91.29777166
_cell_angle_gamma   91.29777415
_symmetry_Int_Tables_number   1
_chemical_formula_structural   Ba3SrMnO6
_chemical_formula_sum   'Ba6 Sr2 Mn2 O12'
_cell_volume   375.46343787
_cell_formula_units_Z   2
loop_
 _symmetry_equiv_pos_site_id
 _symmetry_equiv_pos_as_xyz
  1  'x, y, z'
loop_
 _atom_site_type_symbol
 _atom_site_label
 _atom_site_symmetry_multiplicity
 _atom_site_fract_x
 _atom_site_fract_y
 _atom_site_fract_z
 _atom_site_occupancy
  Ba  Ba0  1  0.113771  0.750000  0.386229  1
  Ba  Ba1  1  0.386229  0.113771  0.750000  1
  Ba  Ba2  1  0.886229  0.250000  0.613771  1
  Ba  Ba3  1  0.613771  0.886229  0.250000  1
  Ba  Ba4  1  0.750000  0.386229  0.113771  1
  Ba  Ba5  1  0.250000  0.613771  0.886229  1
  Sr  Sr6  1  0.250000  0.250000  0.250000  1
  Sr  Sr7  1  0.750000  0.750000  0.750000  1
  Mn  Mn8  1  0.000000  0.000000  0.000000  1
  Mn  Mn9  1  0.500000  0.500000  0.500000  1
  O  O10  1  0.448379  0.763453  0.579034  1
  O  O11  1  0.579034  0.448379  0.763453  1
  O  O12  1  0.763453  0.579034  0.448379  1
  O  O13  1  0.051621  0.920966  0.736547  1
  O  O14  1  0.736547  0.051621  0.920966  1
  O  O15  1  0.920966  0.736547  0.051621  1
  O  O16  1  0.551621  0.236547  0.420966  1
  O  O17  1  0.420966  0.551621  0.236547  1
  O  O18  1  0.236547  0.420966  0.551621  1
  O  O19  1  0.948379  0.079034  0.263453  1
  O  O20  1  0.079034  0.263453  0.948379  1
  O  O21  1  0.263453  0.948379  0.079034  1
