# generated using pymatgen
data_Ho8Ta4Ti7Si16Au
_symmetry_space_group_name_H-M   'P 1'
_cell_length_a   7.04495510
_cell_length_b   7.04734185
_cell_length_c   12.88190743
_cell_angle_alpha   90.15598236
_cell_angle_beta   89.81993206
_cell_angle_gamma   89.53172234
_symmetry_Int_Tables_number   1
_chemical_formula_structural   Ho8Ta4Ti7Si16Au
_chemical_formula_sum   'Ho8 Ta4 Ti7 Si16 Au1'
_cell_volume   639.53667148
_cell_formula_units_Z   1
loop_
 _symmetry_equiv_pos_site_id
 _symmetry_equiv_pos_as_xyz
  1  'x, y, z'
loop_
 _atom_site_type_symbol
 _atom_site_label
 _atom_site_symmetry_multiplicity
 _atom_site_fract_x
 _atom_site_fract_y
 _atom_site_fract_z
 _atom_site_occupancy
  Ho  Ho0  1  0.342462  0.000609  0.466805  1
  Ho  Ho1  1  0.496985  0.841639  0.717140  1
  Ho  Ho2  1  0.501273  0.157062  0.215378  1
  Ho  Ho3  1  0.841632  0.497478  0.283019  1
  Ho  Ho4  1  0.157120  0.501368  0.784786  1
  Ho  Ho5  1  0.654573  0.002308  0.968706  1
  Ho  Ho6  1  0.000880  0.342219  0.532479  1
  Ho  Ho7  1  0.000906  0.656659  0.031542  1
  Ta  Ta8  1  0.173699  0.826165  0.249469  1
  Ta  Ta9  1  0.826234  0.173598  0.750598  1
  Ta  Ta10  1  0.673207  0.672614  0.499860  1
  Ta  Ta11  1  0.146693  0.008085  0.876317  1
  Ti  Ti12  1  0.495142  0.651455  0.123462  1
  Ti  Ti13  1  0.507832  0.350019  0.626061  1
  Ti  Ti14  1  0.652578  0.494374  0.876324  1
  Ti  Ti15  1  0.350522  0.508413  0.374661  1
  Ti  Ti16  1  0.847834  0.990721  0.373716  1
  Ti  Ti17  1  0.008659  0.146539  0.123146  1
  Ti  Ti18  1  0.990753  0.847541  0.626494  1
  Si  Si19  1  0.202412  0.133597  0.682558  1
  Si  Si20  1  0.375275  0.717541  0.928257  1
  Si  Si21  1  0.631556  0.295204  0.433163  1
  Si  Si22  1  0.719573  0.373176  0.072193  1
  Si  Si23  1  0.295469  0.631795  0.566632  1
  Si  Si24  1  0.798386  0.866316  0.182712  1
  Si  Si25  1  0.132758  0.201457  0.315965  1
  Si  Si26  1  0.863941  0.797189  0.817938  1
  Si  Si27  1  0.288571  0.936987  0.065185  1
  Si  Si28  1  0.546835  0.792073  0.313394  1
  Si  Si29  1  0.452390  0.208695  0.809654  1
  Si  Si30  1  0.792237  0.546646  0.685976  1
  Si  Si31  1  0.208501  0.453117  0.190347  1
  Si  Si32  1  0.708429  0.046876  0.563377  1
  Si  Si33  1  0.937937  0.290318  0.935545  1
  Si  Si34  1  0.046820  0.708311  0.436307  1
  Au  Au35  1  0.329924  0.331834  0.000835  1
