# generated using pymatgen
data_GdTa5Tl2O15
_symmetry_space_group_name_H-M   'P 1'
_cell_length_a   9.32820900
_cell_length_b   9.32820806
_cell_length_c   3.96730400
_cell_angle_alpha   90.00000000
_cell_angle_beta   90.00000000
_cell_angle_gamma   111.84680796
_symmetry_Int_Tables_number   1
_chemical_formula_structural   GdTa5Tl2O15
_chemical_formula_sum   'Gd1 Ta5 Tl2 O15'
_cell_volume   320.42410049
_cell_formula_units_Z   1
loop_
 _symmetry_equiv_pos_site_id
 _symmetry_equiv_pos_as_xyz
  1  'x, y, z'
loop_
 _atom_site_type_symbol
 _atom_site_label
 _atom_site_symmetry_multiplicity
 _atom_site_fract_x
 _atom_site_fract_y
 _atom_site_fract_z
 _atom_site_occupancy
  Gd  Gd0  1  0.000000  0.000000  0.000000  1
  Ta  Ta1  1  0.319781  0.060870  0.500000  1
  Ta  Ta2  1  0.060870  0.319781  0.500000  1
  Ta  Ta3  1  0.680219  0.939130  0.500000  1
  Ta  Ta4  1  0.939130  0.680219  0.500000  1
  Ta  Ta5  1  0.500000  0.500000  0.500000  1
  Tl  Tl6  1  0.300141  0.699859  0.000000  1
  Tl  Tl7  1  0.699859  0.300141  0.000000  1
  O  O8  1  0.132249  0.132249  0.500000  1
  O  O9  1  0.153873  0.846127  0.500000  1
  O  O10  1  0.274169  0.456810  0.500000  1
  O  O11  1  0.846127  0.153873  0.500000  1
  O  O12  1  0.867751  0.867751  0.500000  1
  O  O13  1  0.286851  0.050834  0.000000  1
  O  O14  1  0.713149  0.949166  0.000000  1
  O  O15  1  0.543190  0.725831  0.500000  1
  O  O16  1  0.050834  0.286851  0.000000  1
  O  O17  1  0.500000  0.000000  0.500000  1
  O  O18  1  0.456810  0.274169  0.500000  1
  O  O19  1  0.949166  0.713149  0.000000  1
  O  O20  1  0.500000  0.500000  0.000000  1
  O  O21  1  0.725831  0.543190  0.500000  1
  O  O22  1  0.000000  0.500000  0.500000  1
