# generated using pymatgen
data_YbTaRuF12
_symmetry_space_group_name_H-M   'P 1'
_cell_length_a   5.40825632
_cell_length_b   5.86326313
_cell_length_c   9.38486708
_cell_angle_alpha   105.06475803
_cell_angle_beta   90.60363332
_cell_angle_gamma   118.84258422
_symmetry_Int_Tables_number   1
_chemical_formula_structural   YbTaRuF12
_chemical_formula_sum   'Yb1 Ta1 Ru1 F12'
_cell_volume   248.44753212
_cell_formula_units_Z   1
loop_
 _symmetry_equiv_pos_site_id
 _symmetry_equiv_pos_as_xyz
  1  'x, y, z'
loop_
 _atom_site_type_symbol
 _atom_site_label
 _atom_site_symmetry_multiplicity
 _atom_site_fract_x
 _atom_site_fract_y
 _atom_site_fract_z
 _atom_site_occupancy
  Yb  Yb0  1  0.004461  0.000893  0.001627  1
  Ta  Ta1  1  0.223128  0.490197  0.733007  1
  Ru  Ru2  1  0.773399  0.504720  0.259236  1
  F  F3  1  0.824349  0.263721  0.702792  1
  F  F4  1  0.168324  0.729812  0.301420  1
  F  F5  1  0.187275  0.733327  0.917042  1
  F  F6  1  0.714956  0.718099  0.423620  1
  F  F7  1  0.292683  0.279807  0.570155  1
  F  F8  1  0.782047  0.280766  0.365183  1
  F  F9  1  0.215893  0.726883  0.634188  1
  F  F10  1  0.362004  0.268454  0.195156  1
  F  F11  1  0.638231  0.730396  0.811923  1
  F  F12  1  0.760844  0.722833  0.136659  1
  F  F13  1  0.236210  0.279346  0.866273  1
  F  F14  1  0.816196  0.270745  0.081717  1
