# generated using pymatgen
data_Tm7(LuIr2)3
_symmetry_space_group_name_H-M   'P 1'
_cell_length_a   10.72138009
_cell_length_b   10.72505800
_cell_length_c   6.29370905
_cell_angle_alpha   89.99996577
_cell_angle_beta   89.98499551
_cell_angle_gamma   90.00000000
_symmetry_Int_Tables_number   1
_chemical_formula_structural   Tm7(LuIr2)3
_chemical_formula_sum   'Tm14 Lu6 Ir12'
_cell_volume   723.69736246
_cell_formula_units_Z   2
loop_
 _symmetry_equiv_pos_site_id
 _symmetry_equiv_pos_as_xyz
  1  'x, y, z'
loop_
 _atom_site_type_symbol
 _atom_site_label
 _atom_site_symmetry_multiplicity
 _atom_site_fract_x
 _atom_site_fract_y
 _atom_site_fract_z
 _atom_site_occupancy
  Tm  Tm0  1  0.708744  0.087421  0.877121  1
  Tm  Tm1  1  0.708744  0.912580  0.377120  1
  Tm  Tm2  1  0.587243  0.791312  0.877123  1
  Tm  Tm3  1  0.587239  0.208686  0.377116  1
  Tm  Tm4  1  0.412317  0.791435  0.377116  1
  Tm  Tm5  1  0.412318  0.208562  0.877113  1
  Tm  Tm6  1  0.208837  0.412488  0.622846  1
  Tm  Tm7  1  0.208840  0.587510  0.122833  1
  Tm  Tm8  1  0.791171  0.412527  0.122909  1
  Tm  Tm9  1  0.791168  0.587470  0.622892  1
  Tm  Tm10  1  0.912542  0.708821  0.122963  1
  Tm  Tm11  1  0.912546  0.291182  0.622959  1
  Tm  Tm12  1  0.087680  0.708981  0.622982  1
  Tm  Tm13  1  0.087676  0.291015  0.122987  1
  Lu  Lu14  1  0.291505  0.087277  0.377594  1
  Lu  Lu15  1  0.291512  0.912722  0.877609  1
  Lu  Lu16  1  0.000279  0.000073  0.499932  1
  Lu  Lu17  1  0.000284  0.999927  0.999936  1
  Lu  Lu18  1  0.499950  0.499988  0.999882  1
  Lu  Lu19  1  0.499951  0.500016  0.499887  1
  Ir  Ir20  1  0.847004  0.153049  0.249998  1
  Ir  Ir21  1  0.847007  0.846953  0.749994  1
  Ir  Ir22  1  0.153440  0.152605  0.749332  1
  Ir  Ir23  1  0.153443  0.847396  0.249337  1
  Ir  Ir24  1  0.653038  0.346956  0.750026  1
  Ir  Ir25  1  0.653037  0.653044  0.250023  1
  Ir  Ir26  1  0.346899  0.346543  0.250249  1
  Ir  Ir27  1  0.346900  0.653462  0.750249  1
  Ir  Ir28  1  0.499314  0.000026  0.121752  1
  Ir  Ir29  1  0.499314  0.999973  0.621757  1
  Ir  Ir30  1  0.000028  0.500042  0.878181  1
  Ir  Ir31  1  0.000032  0.499960  0.378182  1
