# generated using pymatgen
data_HoTm3CoHg
_symmetry_space_group_name_H-M   'P 1'
_cell_length_a   9.35437218
_cell_length_b   9.35437232
_cell_length_c   9.35437200
_cell_angle_alpha   60.00000112
_cell_angle_beta   60.00000065
_cell_angle_gamma   59.99999886
_symmetry_Int_Tables_number   1
_chemical_formula_structural   HoTm3CoHg
_chemical_formula_sum   'Ho4 Tm12 Co4 Hg4'
_cell_volume   578.80055332
_cell_formula_units_Z   4
loop_
 _symmetry_equiv_pos_site_id
 _symmetry_equiv_pos_as_xyz
  1  'x, y, z'
loop_
 _atom_site_type_symbol
 _atom_site_label
 _atom_site_symmetry_multiplicity
 _atom_site_fract_x
 _atom_site_fract_y
 _atom_site_fract_z
 _atom_site_occupancy
  Ho  Ho0  1  0.348288  0.348288  0.348288  1
  Ho  Ho1  1  0.348288  0.348288  0.955136  1
  Ho  Ho2  1  0.348288  0.955136  0.348288  1
  Ho  Ho3  1  0.955136  0.348288  0.348288  1
  Tm  Tm4  1  0.812270  0.187730  0.187730  1
  Tm  Tm5  1  0.187730  0.812270  0.812270  1
  Tm  Tm6  1  0.187730  0.812270  0.187730  1
  Tm  Tm7  1  0.812270  0.187730  0.812270  1
  Tm  Tm8  1  0.187730  0.187730  0.812270  1
  Tm  Tm9  1  0.812270  0.812270  0.187730  1
  Tm  Tm10  1  0.938318  0.561682  0.561682  1
  Tm  Tm11  1  0.561682  0.938318  0.938318  1
  Tm  Tm12  1  0.561682  0.938318  0.561682  1
  Tm  Tm13  1  0.938318  0.561682  0.938318  1
  Tm  Tm14  1  0.561682  0.561682  0.938318  1
  Tm  Tm15  1  0.938318  0.938318  0.561682  1
  Co  Co16  1  0.141319  0.141319  0.141319  1
  Co  Co17  1  0.141319  0.141319  0.576043  1
  Co  Co18  1  0.141319  0.576043  0.141319  1
  Co  Co19  1  0.576043  0.141319  0.141319  1
  Hg  Hg20  1  0.584163  0.584163  0.584163  1
  Hg  Hg21  1  0.584163  0.584163  0.247512  1
  Hg  Hg22  1  0.584163  0.247512  0.584163  1
  Hg  Hg23  1  0.247512  0.584163  0.584163  1
