# generated using pymatgen
data_Sr3AcB24
_symmetry_space_group_name_H-M   'P 1'
_cell_length_a   4.19708500
_cell_length_b   4.19708500
_cell_length_c   16.79679100
_cell_angle_alpha   90.00000000
_cell_angle_beta   90.00000000
_cell_angle_gamma   90.00000000
_symmetry_Int_Tables_number   1
_chemical_formula_structural   Sr3AcB24
_chemical_formula_sum   'Sr3 Ac1 B24'
_cell_volume   295.88424974
_cell_formula_units_Z   1
loop_
 _symmetry_equiv_pos_site_id
 _symmetry_equiv_pos_as_xyz
  1  'x, y, z'
loop_
 _atom_site_type_symbol
 _atom_site_label
 _atom_site_symmetry_multiplicity
 _atom_site_fract_x
 _atom_site_fract_y
 _atom_site_fract_z
 _atom_site_occupancy
  Sr  Sr0  1  0.000000  0.000000  0.252846  1
  Sr  Sr1  1  0.000000  0.000000  0.500000  1
  Sr  Sr2  1  0.000000  0.000000  0.747154  1
  Ac  Ac3  1  0.000000  0.000000  0.000000  1
  B  B4  1  0.202060  0.500000  0.125411  1
  B  B5  1  0.202978  0.500000  0.374810  1
  B  B6  1  0.202978  0.500000  0.625190  1
  B  B7  1  0.202060  0.500000  0.874589  1
  B  B8  1  0.500000  0.500000  0.199686  1
  B  B9  1  0.500000  0.500000  0.449084  1
  B  B10  1  0.500000  0.500000  0.699294  1
  B  B11  1  0.500000  0.500000  0.949231  1
  B  B12  1  0.500000  0.202060  0.125411  1
  B  B13  1  0.500000  0.202978  0.374810  1
  B  B14  1  0.500000  0.202978  0.625190  1
  B  B15  1  0.500000  0.202060  0.874589  1
  B  B16  1  0.500000  0.500000  0.050769  1
  B  B17  1  0.500000  0.500000  0.300706  1
  B  B18  1  0.500000  0.500000  0.550916  1
  B  B19  1  0.500000  0.500000  0.800314  1
  B  B20  1  0.500000  0.797940  0.125411  1
  B  B21  1  0.500000  0.797022  0.374810  1
  B  B22  1  0.500000  0.797022  0.625190  1
  B  B23  1  0.500000  0.797940  0.874589  1
  B  B24  1  0.797940  0.500000  0.125411  1
  B  B25  1  0.797022  0.500000  0.374810  1
  B  B26  1  0.797022  0.500000  0.625190  1
  B  B27  1  0.797940  0.500000  0.874589  1
