# generated using pymatgen
data_DyMn4FeP3
_symmetry_space_group_name_H-M   'P 1'
_cell_length_a   3.59355400
_cell_length_b   10.59341200
_cell_length_c   12.21617300
_cell_angle_alpha   90.00000000
_cell_angle_beta   90.00000000
_cell_angle_gamma   90.00000000
_symmetry_Int_Tables_number   1
_chemical_formula_structural   DyMn4FeP3
_chemical_formula_sum   'Dy4 Mn16 Fe4 P12'
_cell_volume   465.04525014
_cell_formula_units_Z   4
loop_
 _symmetry_equiv_pos_site_id
 _symmetry_equiv_pos_as_xyz
  1  'x, y, z'
loop_
 _atom_site_type_symbol
 _atom_site_label
 _atom_site_symmetry_multiplicity
 _atom_site_fract_x
 _atom_site_fract_y
 _atom_site_fract_z
 _atom_site_occupancy
  Dy  Dy0  1  0.250000  0.583277  0.708331  1
  Dy  Dy1  1  0.250000  0.916723  0.208331  1
  Dy  Dy2  1  0.750000  0.416723  0.291669  1
  Dy  Dy3  1  0.750000  0.083277  0.791669  1
  Mn  Mn4  1  0.250000  0.710485  0.986159  1
  Mn  Mn5  1  0.250000  0.789515  0.486159  1
  Mn  Mn6  1  0.750000  0.289515  0.013841  1
  Mn  Mn7  1  0.750000  0.210485  0.513841  1
  Mn  Mn8  1  0.250000  0.408623  0.492753  1
  Mn  Mn9  1  0.250000  0.091377  0.992753  1
  Mn  Mn10  1  0.750000  0.591377  0.507247  1
  Mn  Mn11  1  0.750000  0.908623  0.007247  1
  Mn  Mn12  1  0.250000  0.218317  0.174948  1
  Mn  Mn13  1  0.250000  0.281683  0.674948  1
  Mn  Mn14  1  0.750000  0.781683  0.825052  1
  Mn  Mn15  1  0.750000  0.718317  0.325052  1
  Mn  Mn16  1  0.250000  0.877102  0.697709  1
  Mn  Mn17  1  0.250000  0.622898  0.197709  1
  Mn  Mn18  1  0.750000  0.122898  0.302291  1
  Mn  Mn19  1  0.750000  0.377102  0.802291  1
  Fe  Fe20  1  0.250000  0.462985  0.931836  1
  Fe  Fe21  1  0.250000  0.037015  0.431836  1
  Fe  Fe22  1  0.750000  0.537015  0.068164  1
  Fe  Fe23  1  0.750000  0.962985  0.568164  1
  P  P24  1  0.250000  0.421818  0.110092  1
  P  P25  1  0.250000  0.078182  0.610092  1
  P  P26  1  0.750000  0.578182  0.889908  1
  P  P27  1  0.750000  0.921818  0.389908  1
  P  P28  1  0.250000  0.264602  0.871881  1
  P  P29  1  0.250000  0.235398  0.371881  1
  P  P30  1  0.750000  0.735398  0.128119  1
  P  P31  1  0.750000  0.764602  0.628119  1
  P  P32  1  0.250000  0.593792  0.386145  1
  P  P33  1  0.250000  0.906208  0.886145  1
  P  P34  1  0.750000  0.406208  0.613855  1
  P  P35  1  0.750000  0.093792  0.113855  1
