# generated using pymatgen
data_Tb2Th5Ni16
_symmetry_space_group_name_H-M   'P 1'
_cell_length_a   8.76430512
_cell_length_b   8.80019573
_cell_length_c   8.78978769
_cell_angle_alpha   131.45709961
_cell_angle_beta   131.18424021
_cell_angle_gamma   71.20729720
_symmetry_Int_Tables_number   1
_chemical_formula_structural   Tb2Th5Ni16
_chemical_formula_sum   'Tb2 Th5 Ni16'
_cell_volume   374.51380046
_cell_formula_units_Z   1
loop_
 _symmetry_equiv_pos_site_id
 _symmetry_equiv_pos_as_xyz
  1  'x, y, z'
loop_
 _atom_site_type_symbol
 _atom_site_label
 _atom_site_symmetry_multiplicity
 _atom_site_fract_x
 _atom_site_fract_y
 _atom_site_fract_z
 _atom_site_occupancy
  Tb  Tb0  1  0.293409  0.903602  0.993559  1
  Tb  Tb1  1  0.251762  0.752328  0.506902  1
  Th  Th2  1  0.097603  0.087873  0.387963  1
  Th  Th3  1  0.704912  0.707873  0.613925  1
  Th  Th4  1  0.915408  0.297259  0.007079  1
  Th  Th5  1  0.744089  0.246499  0.493264  1
  Th  Th6  1  0.498565  0.503846  0.000123  1
  Ni  Ni7  1  0.430373  0.191197  0.997673  1
  Ni  Ni8  1  0.681372  0.935641  0.484466  1
  Ni  Ni9  1  0.930475  0.681198  0.480087  1
  Ni  Ni10  1  0.192560  0.432723  0.001358  1
  Ni  Ni11  1  0.318655  0.799588  0.250935  1
  Ni  Ni12  1  0.939776  0.666496  0.000443  1
  Ni  Ni13  1  0.807915  0.808096  0.240023  1
  Ni  Ni14  1  0.064613  0.548814  0.747600  1
  Ni  Ni15  1  0.059885  0.060774  0.727388  1
  Ni  Ni16  1  0.668398  0.939652  0.999927  1
  Ni  Ni17  1  0.566828  0.569294  0.760063  1
  Ni  Ni18  1  0.801620  0.316765  0.250909  1
  Ni  Ni19  1  0.550347  0.068513  0.749559  1
  Ni  Ni20  1  0.198390  0.450522  0.518361  1
  Ni  Ni21  1  0.333105  0.332193  0.271984  1
  Ni  Ni22  1  0.449941  0.199254  0.516406  1
