# generated using pymatgen
data_Tb4Al24CuPd7Au
_symmetry_space_group_name_H-M   'P 1'
_cell_length_a   7.57021676
_cell_length_b   7.57405260
_cell_length_c   13.14231166
_cell_angle_alpha   84.47290616
_cell_angle_beta   101.01076631
_cell_angle_gamma   119.87004599
_symmetry_Int_Tables_number   1
_chemical_formula_structural   Tb4Al24CuPd7Au
_chemical_formula_sum   'Tb4 Al24 Cu1 Pd7 Au1'
_cell_volume   641.41117955
_cell_formula_units_Z   1
loop_
 _symmetry_equiv_pos_site_id
 _symmetry_equiv_pos_as_xyz
  1  'x, y, z'
loop_
 _atom_site_type_symbol
 _atom_site_label
 _atom_site_symmetry_multiplicity
 _atom_site_fract_x
 _atom_site_fract_y
 _atom_site_fract_z
 _atom_site_occupancy
  Tb  Tb0  1  0.437873  0.830259  0.808778  1
  Tb  Tb1  1  0.562519  0.169777  0.192239  1
  Tb  Tb2  1  0.767896  0.501759  0.809037  1
  Tb  Tb3  1  0.232583  0.498527  0.191619  1
  Al  Al4  1  0.482830  0.165819  0.945432  1
  Al  Al5  1  0.517951  0.833704  0.055477  1
  Al  Al6  1  0.016297  0.160865  0.561974  1
  Al  Al7  1  0.978258  0.834065  0.435892  1
  Al  Al8  1  0.353558  0.839789  0.559934  1
  Al  Al9  1  0.645737  0.167698  0.438025  1
  Al  Al10  1  0.616987  0.832501  0.328919  1
  Al  Al11  1  0.383397  0.159733  0.672779  1
  Al  Al12  1  0.052565  0.492759  0.672698  1
  Al  Al13  1  0.940195  0.507168  0.328877  1
  Al  Al14  1  0.737389  0.846858  0.671251  1
  Al  Al15  1  0.271830  0.162195  0.330314  1
  Al  Al16  1  0.148231  0.500564  0.945316  1
  Al  Al17  1  0.851642  0.499827  0.055642  1
  Al  Al18  1  0.817973  0.833052  0.955184  1
  Al  Al19  1  0.182426  0.167205  0.045477  1
  Al  Al20  1  0.312021  0.500671  0.435188  1
  Al  Al21  1  0.693611  0.500415  0.556877  1
  Al  Al22  1  0.102039  0.835349  0.184027  1
  Al  Al23  1  0.896227  0.164543  0.816137  1
  Al  Al24  1  0.305219  0.365445  0.817915  1
  Al  Al25  1  0.691879  0.629628  0.187324  1
  Al  Al26  1  0.102854  0.957548  0.815803  1
  Al  Al27  1  0.896713  0.040471  0.184470  1
  Cu  Cu28  1  0.611761  0.492337  0.361501  1
  Pd  Pd29  1  0.171388  0.828404  0.999579  1
  Pd  Pd30  1  0.828683  0.171722  0.000479  1
  Pd  Pd31  1  0.294654  0.833290  0.362759  1
  Pd  Pd32  1  0.705310  0.167700  0.636438  1
  Pd  Pd33  1  0.045578  0.824616  0.636368  1
  Pd  Pd34  1  0.953884  0.175141  0.363049  1
  Pd  Pd35  1  0.500495  0.500281  0.000508  1
  Au  Au36  1  0.389551  0.508315  0.636713  1
