# generated using pymatgen
data_Tb2ZnNiRh
_symmetry_space_group_name_H-M   'P 1'
_cell_length_a   5.40679115
_cell_length_b   5.40679217
_cell_length_c   5.40679200
_cell_angle_alpha   134.17585404
_cell_angle_beta   117.64755403
_cell_angle_gamma   80.74119099
_symmetry_Int_Tables_number   1
_chemical_formula_structural   Tb2ZnNiRh
_chemical_formula_sum   'Tb2 Zn1 Ni1 Rh1'
_cell_volume   97.07770032
_cell_formula_units_Z   1
loop_
 _symmetry_equiv_pos_site_id
 _symmetry_equiv_pos_as_xyz
  1  'x, y, z'
loop_
 _atom_site_type_symbol
 _atom_site_label
 _atom_site_symmetry_multiplicity
 _atom_site_fract_x
 _atom_site_fract_y
 _atom_site_fract_z
 _atom_site_occupancy
  Tb  Tb0  1  0.701554  0.204438  0.497116  1
  Tb  Tb1  1  0.292678  0.795562  0.497116  1
  Zn  Zn2  1  0.989790  0.000000  0.989790  1
  Ni  Ni3  1  0.738150  0.500000  0.238150  1
  Rh  Rh4  1  0.277828  0.500000  0.777828  1
