# generated using pymatgen
data_Tm3Lu17(CoSb2)4
_symmetry_space_group_name_H-M   'P 1'
_cell_length_a   7.69478566
_cell_length_b   8.70241200
_cell_length_c   11.98468429
_cell_angle_alpha   89.99985593
_cell_angle_beta   90.01123636
_cell_angle_gamma   90.00060818
_symmetry_Int_Tables_number   1
_chemical_formula_structural   Tm3Lu17(CoSb2)4
_chemical_formula_sum   'Tm3 Lu17 Co4 Sb8'
_cell_volume   802.53273617
_cell_formula_units_Z   1
loop_
 _symmetry_equiv_pos_site_id
 _symmetry_equiv_pos_as_xyz
  1  'x, y, z'
loop_
 _atom_site_type_symbol
 _atom_site_label
 _atom_site_symmetry_multiplicity
 _atom_site_fract_x
 _atom_site_fract_y
 _atom_site_fract_z
 _atom_site_occupancy
  Tm  Tm0  1  0.122388  0.250009  0.191115  1
  Tm  Tm1  1  0.377710  0.250000  0.690942  1
  Tm  Tm2  1  0.877647  0.749993  0.808926  1
  Lu  Lu3  1  0.157396  0.750007  0.204351  1
  Lu  Lu4  1  0.657082  0.249993  0.295726  1
  Lu  Lu5  1  0.842883  0.250006  0.795730  1
  Lu  Lu6  1  0.342913  0.749995  0.704214  1
  Lu  Lu7  1  0.447628  0.749994  0.997938  1
  Lu  Lu8  1  0.947228  0.249992  0.502041  1
  Lu  Lu9  1  0.552463  0.249998  0.002218  1
  Lu  Lu10  1  0.052342  0.750002  0.497955  1
  Lu  Lu11  1  0.621391  0.750002  0.309845  1
  Lu  Lu12  1  0.824534  0.961998  0.065715  1
  Lu  Lu13  1  0.324841  0.037201  0.434092  1
  Lu  Lu14  1  0.175479  0.462095  0.934453  1
  Lu  Lu15  1  0.675661  0.538272  0.565246  1
  Lu  Lu16  1  0.175453  0.037893  0.934465  1
  Lu  Lu17  1  0.675677  0.961737  0.565234  1
  Lu  Lu18  1  0.824513  0.538030  0.065692  1
  Lu  Lu19  1  0.324813  0.462792  0.434098  1
  Co  Co20  1  0.431564  0.749998  0.491280  1
  Co  Co21  1  0.931196  0.250001  0.008607  1
  Co  Co22  1  0.568591  0.249999  0.508355  1
  Co  Co23  1  0.068764  0.750003  0.991508  1
  Sb  Sb24  1  0.931691  0.991159  0.328216  1
  Sb  Sb25  1  0.432899  0.008104  0.171997  1
  Sb  Sb26  1  0.067729  0.491457  0.671744  1
  Sb  Sb27  1  0.567603  0.508431  0.828170  1
  Sb  Sb28  1  0.067727  0.008540  0.671741  1
  Sb  Sb29  1  0.567607  0.991567  0.828171  1
  Sb  Sb30  1  0.931684  0.508837  0.328217  1
  Sb  Sb31  1  0.432906  0.491894  0.171997  1
