# generated using pymatgen
data_Y3Hg3Pd2Pt
_symmetry_space_group_name_H-M   'P 1'
_cell_length_a   7.74598300
_cell_length_b   7.74598357
_cell_length_c   3.81888400
_cell_angle_alpha   90.00000000
_cell_angle_beta   90.00000000
_cell_angle_gamma   119.99999330
_symmetry_Int_Tables_number   1
_chemical_formula_structural   Y3Hg3Pd2Pt
_chemical_formula_sum   'Y3 Hg3 Pd2 Pt1'
_cell_volume   198.43589696
_cell_formula_units_Z   1
loop_
 _symmetry_equiv_pos_site_id
 _symmetry_equiv_pos_as_xyz
  1  'x, y, z'
loop_
 _atom_site_type_symbol
 _atom_site_label
 _atom_site_symmetry_multiplicity
 _atom_site_fract_x
 _atom_site_fract_y
 _atom_site_fract_z
 _atom_site_occupancy
  Y  Y0  1  0.406939  0.397148  0.500000  1
  Y  Y1  1  0.602852  0.009790  0.500000  1
  Y  Y2  1  0.990210  0.593061  0.500000  1
  Hg  Hg3  1  0.730166  0.737592  0.000000  1
  Hg  Hg4  1  0.262408  0.992575  0.000000  1
  Hg  Hg5  1  0.007425  0.269834  0.000000  1
  Pd  Pd6  1  0.333333  0.666667  0.000000  1
  Pd  Pd7  1  0.000000  0.000000  0.500000  1
  Pt  Pt8  1  0.666667  0.333333  0.000000  1
