# generated using pymatgen
data_Hf3Be2FeIr4
_symmetry_space_group_name_H-M   'P 1'
_cell_length_a   9.41885200
_cell_length_b   9.41885200
_cell_length_c   3.25318100
_cell_angle_alpha   90.00000000
_cell_angle_beta   90.00000000
_cell_angle_gamma   90.00000000
_symmetry_Int_Tables_number   1
_chemical_formula_structural   Hf3Be2FeIr4
_chemical_formula_sum   'Hf6 Be4 Fe2 Ir8'
_cell_volume   288.60521394
_cell_formula_units_Z   2
loop_
 _symmetry_equiv_pos_site_id
 _symmetry_equiv_pos_as_xyz
  1  'x, y, z'
loop_
 _atom_site_type_symbol
 _atom_site_label
 _atom_site_symmetry_multiplicity
 _atom_site_fract_x
 _atom_site_fract_y
 _atom_site_fract_z
 _atom_site_occupancy
  Hf  Hf0  1  0.172320  0.672320  0.000000  1
  Hf  Hf1  1  0.327680  0.172320  0.000000  1
  Hf  Hf2  1  0.827680  0.327680  0.000000  1
  Hf  Hf3  1  0.500000  0.500000  0.000000  1
  Hf  Hf4  1  0.672320  0.827680  0.000000  1
  Hf  Hf5  1  0.000000  0.000000  0.000000  1
  Be  Be6  1  0.388697  0.888697  0.000000  1
  Be  Be7  1  0.111303  0.388697  0.000000  1
  Be  Be8  1  0.888697  0.611303  0.000000  1
  Be  Be9  1  0.611303  0.111303  0.000000  1
  Fe  Fe10  1  0.000000  0.500000  0.500000  1
  Fe  Fe11  1  0.500000  0.000000  0.500000  1
  Ir  Ir12  1  0.221675  0.933500  0.500000  1
  Ir  Ir13  1  0.933500  0.778325  0.500000  1
  Ir  Ir14  1  0.433500  0.721675  0.500000  1
  Ir  Ir15  1  0.566500  0.278325  0.500000  1
  Ir  Ir16  1  0.721675  0.566500  0.500000  1
  Ir  Ir17  1  0.278325  0.433500  0.500000  1
  Ir  Ir18  1  0.066500  0.221675  0.500000  1
  Ir  Ir19  1  0.778325  0.066500  0.500000  1
