# generated using pymatgen
data_Tm10SiSn6Hg
_symmetry_space_group_name_H-M   'P 1'
_cell_length_a   9.07941400
_cell_length_b   9.07941471
_cell_length_c   6.54284500
_cell_angle_alpha   90.00000000
_cell_angle_beta   90.00000000
_cell_angle_gamma   119.99999740
_symmetry_Int_Tables_number   1
_chemical_formula_structural   Tm10SiSn6Hg
_chemical_formula_sum   'Tm10 Si1 Sn6 Hg1'
_cell_volume   467.10331337
_cell_formula_units_Z   1
loop_
 _symmetry_equiv_pos_site_id
 _symmetry_equiv_pos_as_xyz
  1  'x, y, z'
loop_
 _atom_site_type_symbol
 _atom_site_label
 _atom_site_symmetry_multiplicity
 _atom_site_fract_x
 _atom_site_fract_y
 _atom_site_fract_z
 _atom_site_occupancy
  Tm  Tm0  1  0.666667  0.333333  0.000000  1
  Tm  Tm1  1  0.333333  0.666667  0.000000  1
  Tm  Tm2  1  0.333333  0.666667  0.500000  1
  Tm  Tm3  1  0.666667  0.333333  0.500000  1
  Tm  Tm4  1  0.736542  0.736542  0.724409  1
  Tm  Tm5  1  0.263458  0.000000  0.724409  1
  Tm  Tm6  1  0.000000  0.263458  0.724409  1
  Tm  Tm7  1  0.263458  0.263458  0.275591  1
  Tm  Tm8  1  0.736542  0.000000  0.275591  1
  Tm  Tm9  1  0.000000  0.736542  0.275591  1
  Si  Si10  1  0.000000  0.000000  0.500000  1
  Sn  Sn11  1  0.388561  0.388561  0.752651  1
  Sn  Sn12  1  0.611439  0.000000  0.752651  1
  Sn  Sn13  1  0.000000  0.611439  0.752651  1
  Sn  Sn14  1  0.611439  0.611439  0.247349  1
  Sn  Sn15  1  0.388561  0.000000  0.247349  1
  Sn  Sn16  1  0.000000  0.388561  0.247349  1
  Hg  Hg17  1  0.000000  0.000000  0.000000  1
