# generated using pymatgen
data_Ho5Tm3Re2(B12Os)2
_symmetry_space_group_name_H-M   'P 1'
_cell_length_a   3.64649900
_cell_length_b   9.11856540
_cell_length_c   11.50135501
_cell_angle_alpha   90.13553087
_cell_angle_beta   90.00000000
_cell_angle_gamma   90.00000000
_symmetry_Int_Tables_number   1
_chemical_formula_structural   Ho5Tm3Re2(B12Os)2
_chemical_formula_sum   'Ho5 Tm3 Re2 B24 Os2'
_cell_volume   382.42864091
_cell_formula_units_Z   1
loop_
 _symmetry_equiv_pos_site_id
 _symmetry_equiv_pos_as_xyz
  1  'x, y, z'
loop_
 _atom_site_type_symbol
 _atom_site_label
 _atom_site_symmetry_multiplicity
 _atom_site_fract_x
 _atom_site_fract_y
 _atom_site_fract_z
 _atom_site_occupancy
  Ho  Ho0  1  0.000000  0.320593  0.412447  1
  Ho  Ho1  1  0.000000  0.679433  0.587725  1
  Ho  Ho2  1  0.000000  0.824173  0.084597  1
  Ho  Ho3  1  0.000000  0.175844  0.915212  1
  Ho  Ho4  1  0.000000  0.943408  0.370951  1
  Tm  Tm5  1  0.000000  0.056767  0.629523  1
  Tm  Tm6  1  0.000000  0.442644  0.128541  1
  Tm  Tm7  1  0.000000  0.557369  0.871346  1
  Re  Re8  1  0.000000  0.139171  0.179560  1
  Re  Re9  1  0.000000  0.861267  0.820094  1
  B  B10  1  0.500000  0.553478  0.433139  1
  B  B11  1  0.500000  0.446258  0.566954  1
  B  B12  1  0.500000  0.053166  0.066803  1
  B  B13  1  0.500000  0.946902  0.933009  1
  B  B14  1  0.500000  0.748603  0.418857  1
  B  B15  1  0.500000  0.250784  0.581246  1
  B  B16  1  0.500000  0.249515  0.080933  1
  B  B17  1  0.500000  0.750591  0.919006  1
  B  B18  1  0.500000  0.790533  0.265687  1
  B  B19  1  0.500000  0.208939  0.734160  1
  B  B20  1  0.500000  0.292350  0.234578  1
  B  B21  1  0.500000  0.707871  0.765352  1
  B  B22  1  0.500000  0.630255  0.185594  1
  B  B23  1  0.500000  0.369600  0.814300  1
  B  B24  1  0.500000  0.131386  0.314928  1
  B  B25  1  0.500000  0.869135  0.684882  1
  B  B26  1  0.500000  0.982424  0.212416  1
  B  B27  1  0.500000  0.017929  0.787145  1
  B  B28  1  0.500000  0.482391  0.287652  1
  B  B29  1  0.500000  0.517480  0.712294  1
  B  B30  1  0.500000  0.602170  0.028529  1
  B  B31  1  0.500000  0.397830  0.971413  1
  B  B32  1  0.500000  0.103224  0.472193  1
  B  B33  1  0.500000  0.897286  0.528874  1
  Os  Os34  1  0.000000  0.636946  0.321391  1
  Os  Os35  1  0.000000  0.362287  0.678670  1
