# generated using pymatgen
data_Er4Tm8InCo5
_symmetry_space_group_name_H-M   'P 1'
_cell_length_a   8.18030916
_cell_length_b   8.18030956
_cell_length_c   8.18030951
_cell_angle_alpha   111.02639059
_cell_angle_beta   110.81748486
_cell_angle_gamma   106.60726803
_symmetry_Int_Tables_number   1
_chemical_formula_structural   Er4Tm8InCo5
_chemical_formula_sum   'Er4 Tm8 In1 Co5'
_cell_volume   420.60683315
_cell_formula_units_Z   1
loop_
 _symmetry_equiv_pos_site_id
 _symmetry_equiv_pos_as_xyz
  1  'x, y, z'
loop_
 _atom_site_type_symbol
 _atom_site_label
 _atom_site_symmetry_multiplicity
 _atom_site_fract_x
 _atom_site_fract_y
 _atom_site_fract_z
 _atom_site_occupancy
  Er  Er0  1  0.288085  0.185622  0.473706  1
  Er  Er1  1  0.711915  0.814378  0.526294  1
  Er  Er2  1  0.288085  0.814378  0.102463  1
  Er  Er3  1  0.711915  0.185622  0.897537  1
  Tm  Tm4  1  0.619528  0.314384  0.305144  1
  Tm  Tm5  1  0.380472  0.685616  0.694856  1
  Tm  Tm6  1  0.009240  0.314384  0.694856  1
  Tm  Tm7  1  0.990760  0.685616  0.305144  1
  Tm  Tm8  1  0.212976  0.405157  0.192182  1
  Tm  Tm9  1  0.787024  0.594843  0.807818  1
  Tm  Tm10  1  0.212976  0.020795  0.807818  1
  Tm  Tm11  1  0.787024  0.979205  0.192182  1
  In  In12  1  0.500000  0.500000  0.000000  1
  Co  Co13  1  0.000000  0.376762  0.376762  1
  Co  Co14  1  0.000000  0.623238  0.623238  1
  Co  Co15  1  0.386869  0.886869  0.500000  1
  Co  Co16  1  0.613131  0.113131  0.500000  1
  Co  Co17  1  0.000000  0.000000  0.000000  1
