# generated using pymatgen
data_YErFe3Co9As7
_symmetry_space_group_name_H-M   'P 1'
_cell_length_a   3.74950600
_cell_length_b   9.34324566
_cell_length_c   9.34324600
_cell_angle_alpha   120.00000120
_cell_angle_beta   90.00000000
_cell_angle_gamma   90.00000000
_symmetry_Int_Tables_number   1
_chemical_formula_structural   YErFe3Co9As7
_chemical_formula_sum   'Y1 Er1 Fe3 Co9 As7'
_cell_volume   283.46551406
_cell_formula_units_Z   1
loop_
 _symmetry_equiv_pos_site_id
 _symmetry_equiv_pos_as_xyz
  1  'x, y, z'
loop_
 _atom_site_type_symbol
 _atom_site_label
 _atom_site_symmetry_multiplicity
 _atom_site_fract_x
 _atom_site_fract_y
 _atom_site_fract_z
 _atom_site_occupancy
  Y  Y0  1  0.000000  0.666667  0.333333  1
  Er  Er1  1  0.500000  0.333333  0.666667  1
  Fe  Fe2  1  0.500000  0.783431  0.903841  1
  Fe  Fe3  1  0.500000  0.120410  0.216569  1
  Fe  Fe4  1  0.500000  0.096159  0.879590  1
  Co  Co5  1  0.000000  0.567684  0.941430  1
  Co  Co6  1  0.000000  0.373746  0.432316  1
  Co  Co7  1  0.000000  0.058570  0.626254  1
  Co  Co8  1  0.000000  0.879965  0.156983  1
  Co  Co9  1  0.000000  0.277017  0.120035  1
  Co  Co10  1  0.000000  0.843017  0.722983  1
  Co  Co11  1  0.500000  0.950487  0.382203  1
  Co  Co12  1  0.500000  0.431715  0.049513  1
  Co  Co13  1  0.500000  0.617797  0.568285  1
  As  As14  1  0.000000  0.000000  0.000000  1
  As  As15  1  0.500000  0.708539  0.113435  1
  As  As16  1  0.500000  0.404896  0.291461  1
  As  As17  1  0.500000  0.886565  0.595104  1
  As  As18  1  0.000000  0.588842  0.705625  1
  As  As19  1  0.000000  0.116783  0.411158  1
  As  As20  1  0.000000  0.294375  0.883217  1
