# generated using pymatgen
data_Dy3Ho7(SnSb2)2
_symmetry_space_group_name_H-M   'P 1'
_cell_length_a   8.95856768
_cell_length_b   8.93826889
_cell_length_c   6.36694800
_cell_angle_alpha   90.00000000
_cell_angle_beta   90.00000000
_cell_angle_gamma   119.92589010
_symmetry_Int_Tables_number   1
_chemical_formula_structural   Dy3Ho7(SnSb2)2
_chemical_formula_sum   'Dy3 Ho7 Sn2 Sb4'
_cell_volume   441.85295876
_cell_formula_units_Z   1
loop_
 _symmetry_equiv_pos_site_id
 _symmetry_equiv_pos_as_xyz
  1  'x, y, z'
loop_
 _atom_site_type_symbol
 _atom_site_label
 _atom_site_symmetry_multiplicity
 _atom_site_fract_x
 _atom_site_fract_y
 _atom_site_fract_z
 _atom_site_occupancy
  Dy  Dy0  1  0.755223  0.999393  0.750000  1
  Dy  Dy1  1  0.755205  0.755876  0.250000  1
  Dy  Dy2  1  0.000962  0.756863  0.750000  1
  Ho  Ho3  1  0.333793  0.666892  0.999991  1
  Ho  Ho4  1  0.665128  0.332561  0.500005  1
  Ho  Ho5  1  0.665128  0.332561  0.999995  1
  Ho  Ho6  1  0.333793  0.666892  0.500009  1
  Ho  Ho7  1  0.001038  0.244007  0.250000  1
  Ho  Ho8  1  0.244054  0.242478  0.750000  1
  Ho  Ho9  1  0.244054  0.001641  0.250000  1
  Sn  Sn10  1  0.391682  0.999300  0.750000  1
  Sn  Sn11  1  0.391387  0.392327  0.250000  1
  Sb  Sb12  1  0.999664  0.609414  0.250000  1
  Sb  Sb13  1  0.999663  0.390087  0.750000  1
  Sb  Sb14  1  0.609468  0.609246  0.750000  1
  Sb  Sb15  1  0.609761  0.000464  0.250000  1
