# generated using pymatgen
data_Dy8Ti10NbSi16Ir
_symmetry_space_group_name_H-M   'P 1'
_cell_length_a   7.04698949
_cell_length_b   7.04698930
_cell_length_c   12.90625240
_cell_angle_alpha   89.83993149
_cell_angle_beta   90.16006976
_cell_angle_gamma   89.86652776
_symmetry_Int_Tables_number   1
_chemical_formula_structural   Dy8Ti10NbSi16Ir
_chemical_formula_sum   'Dy8 Ti10 Nb1 Si16 Ir1'
_cell_volume   640.91850927
_cell_formula_units_Z   1
loop_
 _symmetry_equiv_pos_site_id
 _symmetry_equiv_pos_as_xyz
  1  'x, y, z'
loop_
 _atom_site_type_symbol
 _atom_site_label
 _atom_site_symmetry_multiplicity
 _atom_site_fract_x
 _atom_site_fract_y
 _atom_site_fract_z
 _atom_site_occupancy
  Dy  Dy0  1  0.996435  0.659313  0.032428  1
  Dy  Dy1  1  0.001992  0.341885  0.531163  1
  Dy  Dy2  1  0.659313  0.996435  0.967572  1
  Dy  Dy3  1  0.158781  0.503212  0.782018  1
  Dy  Dy4  1  0.840864  0.499146  0.285101  1
  Dy  Dy5  1  0.503212  0.158781  0.217982  1
  Dy  Dy6  1  0.499146  0.840864  0.714899  1
  Dy  Dy7  1  0.341885  0.001992  0.468837  1
  Ti  Ti8  1  0.343205  0.506649  0.375237  1
  Ti  Ti9  1  0.850235  0.996933  0.376338  1
  Ti  Ti10  1  0.007070  0.152293  0.124506  1
  Ti  Ti11  1  0.996933  0.850235  0.623662  1
  Ti  Ti12  1  0.506649  0.343205  0.624763  1
  Ti  Ti13  1  0.152293  0.007070  0.875494  1
  Ti  Ti14  1  0.824452  0.172700  0.747996  1
  Ti  Ti15  1  0.172700  0.824452  0.252004  1
  Ti  Ti16  1  0.492696  0.650521  0.127698  1
  Ti  Ti17  1  0.650521  0.492696  0.872302  1
  Nb  Nb18  1  0.326323  0.326323  0.000000  1
  Si  Si19  1  0.048692  0.713493  0.436087  1
  Si  Si20  1  0.951219  0.291393  0.934125  1
  Si  Si21  1  0.713493  0.048692  0.563913  1
  Si  Si22  1  0.207200  0.453334  0.185407  1
  Si  Si23  1  0.789792  0.550551  0.681505  1
  Si  Si24  1  0.453334  0.207200  0.814593  1
  Si  Si25  1  0.550551  0.789792  0.318495  1
  Si  Si26  1  0.291393  0.951219  0.065875  1
  Si  Si27  1  0.798034  0.867940  0.185892  1
  Si  Si28  1  0.298983  0.627373  0.565642  1
  Si  Si29  1  0.704294  0.369298  0.065360  1
  Si  Si30  1  0.627373  0.298983  0.434358  1
  Si  Si31  1  0.369298  0.704294  0.934640  1
  Si  Si32  1  0.131075  0.203255  0.316068  1
  Si  Si33  1  0.203255  0.131075  0.683932  1
  Si  Si34  1  0.867940  0.798034  0.814108  1
  Ir  Ir35  1  0.669368  0.669368  0.500000  1
