# generated using pymatgen
data_Cs2Tb5Pr(CBr6)2
_symmetry_space_group_name_H-M   'P 1'
_cell_length_a   8.91267058
_cell_length_b   8.94765808
_cell_length_c   9.55217896
_cell_angle_alpha   70.92191632
_cell_angle_beta   84.99798098
_cell_angle_gamma   89.23700133
_symmetry_Int_Tables_number   1
_chemical_formula_structural   Cs2Tb5Pr(CBr6)2
_chemical_formula_sum   'Cs2 Tb5 Pr1 C2 Br12'
_cell_volume   717.08710620
_cell_formula_units_Z   1
loop_
 _symmetry_equiv_pos_site_id
 _symmetry_equiv_pos_as_xyz
  1  'x, y, z'
loop_
 _atom_site_type_symbol
 _atom_site_label
 _atom_site_symmetry_multiplicity
 _atom_site_fract_x
 _atom_site_fract_y
 _atom_site_fract_z
 _atom_site_occupancy
  Cs  Cs0  1  0.467382  0.364116  0.330619  1
  Cs  Cs1  1  0.532185  0.636245  0.668987  1
  Tb  Tb2  1  0.085509  0.257452  0.995307  1
  Tb  Tb3  1  0.744174  0.084239  0.000827  1
  Tb  Tb4  1  0.255640  0.913490  0.999066  1
  Tb  Tb5  1  0.973764  0.888207  0.323120  1
  Tb  Tb6  1  0.026611  0.114794  0.676469  1
  Pr  Pr7  1  0.914176  0.735548  0.004615  1
  C  C8  1  0.007669  0.030596  0.920919  1
  C  C9  1  0.995081  0.977243  0.078259  1
  Br  Br10  1  0.075638  0.196239  0.326475  1
  Br  Br11  1  0.925244  0.808757  0.664595  1
  Br  Br12  1  0.216469  0.590394  0.000436  1
  Br  Br13  1  0.795311  0.400838  0.998842  1
  Br  Br14  1  0.401689  0.197777  0.001916  1
  Br  Br15  1  0.588311  0.805151  0.998055  1
  Br  Br16  1  0.668784  0.001372  0.322627  1
  Br  Br17  1  0.330148  0.999561  0.676063  1
  Br  Br18  1  0.277987  0.776681  0.320573  1
  Br  Br19  1  0.720836  0.222194  0.680206  1
  Br  Br20  1  0.850052  0.590055  0.336535  1
  Br  Br21  1  0.147337  0.409052  0.675489  1
