# generated using pymatgen
data_Dy8Ti12Si15As
_symmetry_space_group_name_H-M   'P 1'
_cell_length_a   7.05668579
_cell_length_b   7.05287502
_cell_length_c   12.96857193
_cell_angle_alpha   90.03601504
_cell_angle_beta   89.84888776
_cell_angle_gamma   90.07879465
_symmetry_Int_Tables_number   1
_chemical_formula_structural   Dy8Ti12Si15As
_chemical_formula_sum   'Dy8 Ti12 Si15 As1'
_cell_volume   645.44184394
_cell_formula_units_Z   1
loop_
 _symmetry_equiv_pos_site_id
 _symmetry_equiv_pos_as_xyz
  1  'x, y, z'
loop_
 _atom_site_type_symbol
 _atom_site_label
 _atom_site_symmetry_multiplicity
 _atom_site_fract_x
 _atom_site_fract_y
 _atom_site_fract_z
 _atom_site_occupancy
  Dy  Dy0  1  0.997397  0.659392  0.033620  1
  Dy  Dy1  1  0.003313  0.341204  0.533384  1
  Dy  Dy2  1  0.659528  0.997391  0.966573  1
  Dy  Dy3  1  0.159573  0.503152  0.783100  1
  Dy  Dy4  1  0.838260  0.494763  0.281685  1
  Dy  Dy5  1  0.501948  0.159376  0.216482  1
  Dy  Dy6  1  0.498341  0.841976  0.717376  1
  Dy  Dy7  1  0.341201  0.001363  0.467520  1
  Ti  Ti8  1  0.348150  0.508620  0.374836  1
  Ti  Ti9  1  0.844671  0.995915  0.374659  1
  Ti  Ti10  1  0.008347  0.152467  0.123892  1
  Ti  Ti11  1  0.993487  0.847272  0.624017  1
  Ti  Ti12  1  0.510117  0.345652  0.626360  1
  Ti  Ti13  1  0.152310  0.008091  0.876246  1
  Ti  Ti14  1  0.669828  0.673006  0.500110  1
  Ti  Ti15  1  0.827134  0.173369  0.749915  1
  Ti  Ti16  1  0.173971  0.827489  0.248898  1
  Ti  Ti17  1  0.326742  0.326978  0.999972  1
  Ti  Ti18  1  0.491100  0.652305  0.126112  1
  Ti  Ti19  1  0.652450  0.491652  0.874048  1
  Si  Si20  1  0.953151  0.290795  0.935256  1
  Si  Si21  1  0.710360  0.046446  0.564637  1
  Si  Si22  1  0.209052  0.452814  0.185275  1
  Si  Si23  1  0.791532  0.547170  0.685253  1
  Si  Si24  1  0.452557  0.209751  0.815139  1
  Si  Si25  1  0.546495  0.791166  0.314500  1
  Si  Si26  1  0.290917  0.953276  0.064358  1
  Si  Si27  1  0.796803  0.870472  0.184170  1
  Si  Si28  1  0.305545  0.627056  0.569812  1
  Si  Si29  1  0.701897  0.369879  0.065148  1
  Si  Si30  1  0.630083  0.297671  0.434412  1
  Si  Si31  1  0.370054  0.702258  0.934643  1
  Si  Si32  1  0.130550  0.202554  0.315822  1
  Si  Si33  1  0.202296  0.130179  0.684377  1
  Si  Si34  1  0.870289  0.797213  0.815449  1
  As  As35  1  0.040549  0.709868  0.432948  1
