# generated using pymatgen
data_Ce5Zn2Tc3
_symmetry_space_group_name_H-M   'P 1'
_cell_length_a   8.32921985
_cell_length_b   8.32921879
_cell_length_c   8.32921900
_cell_angle_alpha   109.47121871
_cell_angle_beta   109.47121614
_cell_angle_gamma   109.47122082
_symmetry_Int_Tables_number   1
_chemical_formula_structural   Ce5Zn2Tc3
_chemical_formula_sum   'Ce10 Zn4 Tc6'
_cell_volume   444.82687643
_cell_formula_units_Z   2
loop_
 _symmetry_equiv_pos_site_id
 _symmetry_equiv_pos_as_xyz
  1  'x, y, z'
loop_
 _atom_site_type_symbol
 _atom_site_label
 _atom_site_symmetry_multiplicity
 _atom_site_fract_x
 _atom_site_fract_y
 _atom_site_fract_z
 _atom_site_occupancy
  Ce  Ce0  1  0.780307  0.780307  0.780307  1
  Ce  Ce1  1  0.307683  0.557683  0.750000  1
  Ce  Ce2  1  0.750000  0.307683  0.557683  1
  Ce  Ce3  1  0.557683  0.750000  0.307683  1
  Ce  Ce4  1  0.719693  0.500000  0.000000  1
  Ce  Ce5  1  0.000000  0.719693  0.500000  1
  Ce  Ce6  1  0.500000  0.000000  0.719693  1
  Ce  Ce7  1  0.250000  0.192317  0.942317  1
  Ce  Ce8  1  0.942317  0.250000  0.192317  1
  Ce  Ce9  1  0.192317  0.942317  0.250000  1
  Zn  Zn10  1  0.408942  0.408942  0.408942  1
  Zn  Zn11  1  0.091058  0.500000  0.000000  1
  Zn  Zn12  1  0.000000  0.091058  0.500000  1
  Zn  Zn13  1  0.500000  0.000000  0.091058  1
  Tc  Tc14  1  0.863845  0.113845  0.750000  1
  Tc  Tc15  1  0.750000  0.863845  0.113845  1
  Tc  Tc16  1  0.113845  0.750000  0.863845  1
  Tc  Tc17  1  0.250000  0.636155  0.386155  1
  Tc  Tc18  1  0.386155  0.250000  0.636155  1
  Tc  Tc19  1  0.636155  0.386155  0.250000  1
