# generated using pymatgen
data_DyEr3(B6Ru)2
_symmetry_space_group_name_H-M   'P 1'
_cell_length_a   3.64067800
_cell_length_b   9.10914300
_cell_length_c   11.48582200
_cell_angle_alpha   90.00289961
_cell_angle_beta   90.00000000
_cell_angle_gamma   90.00000000
_symmetry_Int_Tables_number   1
_chemical_formula_structural   DyEr3(B6Ru)2
_chemical_formula_sum   'Dy2 Er6 B24 Ru4'
_cell_volume   380.90955824
_cell_formula_units_Z   2
loop_
 _symmetry_equiv_pos_site_id
 _symmetry_equiv_pos_as_xyz
  1  'x, y, z'
loop_
 _atom_site_type_symbol
 _atom_site_label
 _atom_site_symmetry_multiplicity
 _atom_site_fract_x
 _atom_site_fract_y
 _atom_site_fract_z
 _atom_site_occupancy
  Dy  Dy0  1  0.000000  0.322534  0.414035  1
  Dy  Dy1  1  0.000000  0.677466  0.585965  1
  Er  Er2  1  0.000000  0.822463  0.085725  1
  Er  Er3  1  0.000000  0.177537  0.914275  1
  Er  Er4  1  0.000000  0.944046  0.372169  1
  Er  Er5  1  0.000000  0.055954  0.627831  1
  Er  Er6  1  0.000000  0.444049  0.127390  1
  Er  Er7  1  0.000000  0.555951  0.872610  1
  B  B8  1  0.500000  0.554430  0.432883  1
  B  B9  1  0.500000  0.445570  0.567117  1
  B  B10  1  0.500000  0.054040  0.066501  1
  B  B11  1  0.500000  0.945960  0.933499  1
  B  B12  1  0.500000  0.748868  0.419517  1
  B  B13  1  0.500000  0.251132  0.580483  1
  B  B14  1  0.500000  0.248490  0.079811  1
  B  B15  1  0.500000  0.751510  0.920189  1
  B  B16  1  0.500000  0.792076  0.265595  1
  B  B17  1  0.500000  0.207924  0.734405  1
  B  B18  1  0.500000  0.291642  0.233626  1
  B  B19  1  0.500000  0.708358  0.766374  1
  B  B20  1  0.500000  0.632320  0.184554  1
  B  B21  1  0.500000  0.367680  0.815446  1
  B  B22  1  0.500000  0.131837  0.314872  1
  B  B23  1  0.500000  0.868163  0.685128  1
  B  B24  1  0.500000  0.983245  0.212662  1
  B  B25  1  0.500000  0.016755  0.787338  1
  B  B26  1  0.500000  0.483802  0.286706  1
  B  B27  1  0.500000  0.516198  0.713294  1
  B  B28  1  0.500000  0.607743  0.029655  1
  B  B29  1  0.500000  0.392257  0.970345  1
  B  B30  1  0.500000  0.106588  0.470605  1
  B  B31  1  0.500000  0.893412  0.529395  1
  Ru  Ru32  1  0.000000  0.638730  0.320592  1
  Ru  Ru33  1  0.000000  0.361270  0.679408  1
  Ru  Ru34  1  0.000000  0.138111  0.178703  1
  Ru  Ru35  1  0.000000  0.861889  0.821297  1
