# generated using pymatgen
data_SmSe27
_symmetry_space_group_name_H-M   'P 1'
_cell_length_a   15.09919416
_cell_length_b   15.09914298
_cell_length_c   15.09908504
_cell_angle_alpha   118.87849212
_cell_angle_beta   118.87848591
_cell_angle_gamma   118.87907188
_symmetry_Int_Tables_number   1
_chemical_formula_structural   SmSe27
_chemical_formula_sum   'Sm1 Se27'
_cell_volume   942.49228684
_cell_formula_units_Z   1
loop_
 _symmetry_equiv_pos_site_id
 _symmetry_equiv_pos_as_xyz
  1  'x, y, z'
loop_
 _atom_site_type_symbol
 _atom_site_label
 _atom_site_symmetry_multiplicity
 _atom_site_fract_x
 _atom_site_fract_y
 _atom_site_fract_z
 _atom_site_occupancy
  Sm  Sm0  1  0.445079  0.445079  0.445077  1
  Se  Se1  1  0.000847  0.625431  0.625431  1
  Se  Se2  1  0.625423  0.625425  0.000839  1
  Se  Se3  1  0.625418  0.000834  0.625419  1
  Se  Se4  1  0.271775  0.899196  0.758033  1
  Se  Se5  1  0.899177  0.758017  0.271761  1
  Se  Se6  1  0.758025  0.271768  0.899187  1
  Se  Se7  1  0.899175  0.271757  0.758014  1
  Se  Se8  1  0.271758  0.758012  0.899176  1
  Se  Se9  1  0.758010  0.899175  0.271756  1
  Se  Se10  1  0.064732  0.602743  0.403325  1
  Se  Se11  1  0.602736  0.403317  0.064729  1
  Se  Se12  1  0.403308  0.064710  0.602726  1
  Se  Se13  1  0.602724  0.064714  0.403308  1
  Se  Se14  1  0.064708  0.403300  0.602709  1
  Se  Se15  1  0.403300  0.602716  0.064709  1
  Se  Se16  1  0.379189  0.757688  0.611059  1
  Se  Se17  1  0.757660  0.611037  0.379173  1
  Se  Se18  1  0.611023  0.379153  0.757649  1
  Se  Se19  1  0.757662  0.379169  0.611038  1
  Se  Se20  1  0.379155  0.611025  0.757641  1
  Se  Se21  1  0.611011  0.757636  0.379149  1
  Se  Se22  1  0.173138  0.421983  0.421971  1
  Se  Se23  1  0.421966  0.421962  0.173131  1
  Se  Se24  1  0.421972  0.173125  0.421971  1
  Se  Se25  1  0.023737  0.907193  0.907192  1
  Se  Se26  1  0.907195  0.907194  0.023736  1
  Se  Se27  1  0.907198  0.023741  0.907196  1
