# generated using pymatgen
data_CeMg(Si7Ir3)2
_symmetry_space_group_name_H-M   'P 1'
_cell_length_a   8.03828682
_cell_length_b   8.03828657
_cell_length_c   8.03828680
_cell_angle_alpha   56.60228793
_cell_angle_beta   56.60228702
_cell_angle_gamma   56.60228924
_symmetry_Int_Tables_number   1
_chemical_formula_structural   CeMg(Si7Ir3)2
_chemical_formula_sum   'Ce1 Mg1 Si14 Ir6'
_cell_volume   338.43334572
_cell_formula_units_Z   1
loop_
 _symmetry_equiv_pos_site_id
 _symmetry_equiv_pos_as_xyz
  1  'x, y, z'
loop_
 _atom_site_type_symbol
 _atom_site_label
 _atom_site_symmetry_multiplicity
 _atom_site_fract_x
 _atom_site_fract_y
 _atom_site_fract_z
 _atom_site_occupancy
  Ce  Ce0  1  0.500000  0.500000  0.500000  1
  Mg  Mg1  1  0.000000  0.000000  0.000000  1
  Si  Si2  1  0.853358  0.062687  0.675125  1
  Si  Si3  1  0.675125  0.853358  0.062687  1
  Si  Si4  1  0.062687  0.675125  0.853358  1
  Si  Si5  1  0.653111  0.829329  0.432959  1
  Si  Si6  1  0.250509  0.250509  0.250509  1
  Si  Si7  1  0.749491  0.749491  0.749491  1
  Si  Si8  1  0.170671  0.567041  0.346889  1
  Si  Si9  1  0.567041  0.346889  0.170671  1
  Si  Si10  1  0.346889  0.170671  0.567041  1
  Si  Si11  1  0.937313  0.324875  0.146642  1
  Si  Si12  1  0.324875  0.146642  0.937313  1
  Si  Si13  1  0.146642  0.937313  0.324875  1
  Si  Si14  1  0.829329  0.432959  0.653111  1
  Si  Si15  1  0.432959  0.653111  0.829329  1
  Ir  Ir16  1  0.749832  0.071751  0.429387  1
  Ir  Ir17  1  0.429387  0.749832  0.071751  1
  Ir  Ir18  1  0.071751  0.429387  0.749832  1
  Ir  Ir19  1  0.250168  0.928249  0.570613  1
  Ir  Ir20  1  0.570613  0.250168  0.928249  1
  Ir  Ir21  1  0.928249  0.570613  0.250168  1
