# generated using pymatgen
data_Tb2Er6Sc12Ga7Si9
_symmetry_space_group_name_H-M   'P 1'
_cell_length_a   7.15136978
_cell_length_b   7.40270762
_cell_length_c   14.23463283
_cell_angle_alpha   90.06205222
_cell_angle_beta   89.95590953
_cell_angle_gamma   90.07953101
_symmetry_Int_Tables_number   1
_chemical_formula_structural   Tb2Er6Sc12Ga7Si9
_chemical_formula_sum   'Tb2 Er6 Sc12 Ga7 Si9'
_cell_volume   753.57294830
_cell_formula_units_Z   1
loop_
 _symmetry_equiv_pos_site_id
 _symmetry_equiv_pos_as_xyz
  1  'x, y, z'
loop_
 _atom_site_type_symbol
 _atom_site_label
 _atom_site_symmetry_multiplicity
 _atom_site_fract_x
 _atom_site_fract_y
 _atom_site_fract_z
 _atom_site_occupancy
  Tb  Tb0  1  0.012511  0.173947  0.098623  1
  Tb  Tb1  1  0.989711  0.823635  0.901637  1
  Er  Er2  1  0.488488  0.676597  0.901566  1
  Er  Er3  1  0.989428  0.823557  0.599721  1
  Er  Er4  1  0.510222  0.322704  0.098915  1
  Er  Er5  1  0.010336  0.176047  0.400202  1
  Er  Er6  1  0.510701  0.323454  0.400339  1
  Er  Er7  1  0.489444  0.676348  0.599424  1
  Sc  Sc8  1  0.164203  0.502773  0.749752  1
  Sc  Sc9  1  0.836559  0.498126  0.250045  1
  Sc  Sc10  1  0.336227  0.002584  0.249111  1
  Sc  Sc11  1  0.663169  0.997704  0.749563  1
  Sc  Sc12  1  0.330243  0.173707  0.625804  1
  Sc  Sc13  1  0.669352  0.826581  0.373987  1
  Sc  Sc14  1  0.169556  0.673946  0.373875  1
  Sc  Sc15  1  0.667807  0.824976  0.126291  1
  Sc  Sc16  1  0.830024  0.326341  0.626040  1
  Sc  Sc17  1  0.329924  0.174396  0.874801  1
  Sc  Sc18  1  0.828886  0.326593  0.874213  1
  Sc  Sc19  1  0.172337  0.675632  0.125216  1
  Ga  Ga20  1  0.161106  0.463978  0.539692  1
  Ga  Ga21  1  0.838929  0.535971  0.460203  1
  Ga  Ga22  1  0.338526  0.963706  0.460322  1
  Ga  Ga23  1  0.838551  0.537451  0.040208  1
  Ga  Ga24  1  0.661418  0.036131  0.539556  1
  Ga  Ga25  1  0.160958  0.463042  0.960542  1
  Ga  Ga26  1  0.658833  0.037324  0.961030  1
  Si  Si27  1  0.032057  0.113535  0.750504  1
  Si  Si28  1  0.967547  0.885573  0.249842  1
  Si  Si29  1  0.467342  0.612843  0.249564  1
  Si  Si30  1  0.532192  0.386579  0.750186  1
  Si  Si31  1  0.284912  0.873817  0.750220  1
  Si  Si32  1  0.715433  0.126451  0.249551  1
  Si  Si33  1  0.215727  0.373416  0.249875  1
  Si  Si34  1  0.783779  0.626420  0.750128  1
  Si  Si35  1  0.343561  0.964113  0.039445  1
