# generated using pymatgen
data_Ba4H10PtAuF2
_symmetry_space_group_name_H-M   'P 1'
_cell_length_a   7.93868519
_cell_length_b   7.93439710
_cell_length_c   6.10340529
_cell_angle_alpha   89.95899461
_cell_angle_beta   89.95910459
_cell_angle_gamma   134.66570453
_symmetry_Int_Tables_number   1
_chemical_formula_structural   Ba4H10PtAuF2
_chemical_formula_sum   'Ba4 H10 Pt1 Au1 F2'
_cell_volume   273.42496536
_cell_formula_units_Z   1
loop_
 _symmetry_equiv_pos_site_id
 _symmetry_equiv_pos_as_xyz
  1  'x, y, z'
loop_
 _atom_site_type_symbol
 _atom_site_label
 _atom_site_symmetry_multiplicity
 _atom_site_fract_x
 _atom_site_fract_y
 _atom_site_fract_z
 _atom_site_occupancy
  Ba  Ba0  1  0.355974  0.643350  0.000019  1
  Ba  Ba1  1  0.857294  0.143706  0.499928  1
  Ba  Ba2  1  0.644026  0.356650  0.999981  1
  Ba  Ba3  1  0.142706  0.856294  0.500072  1
  H  H4  1  0.499017  0.000113  0.749254  1
  H  H5  1  0.500983  0.999887  0.250746  1
  H  H6  1  0.117769  0.889902  0.999871  1
  H  H7  1  0.610447  0.383156  0.500069  1
  H  H8  1  0.882231  0.110098  0.000129  1
  H  H9  1  0.389553  0.616844  0.499931  1
  H  H10  1  0.698390  0.698059  0.301066  1
  H  H11  1  0.301610  0.301941  0.698934  1
  H  H12  1  0.698341  0.698031  0.698619  1
  H  H13  1  0.301659  0.301969  0.301381  1
  Pt  Pt14  1  0.500000  0.500000  0.500000  1
  Au  Au15  1  0.000000  0.000000  0.000000  1
  F  F16  1  0.999996  0.500646  0.250081  1
  F  F17  1  0.000004  0.499354  0.749919  1
