# generated using pymatgen
data_Be2Nb7(BRu)6
_symmetry_space_group_name_H-M   'P 1'
_cell_length_a   9.60291500
_cell_length_b   9.60291446
_cell_length_c   3.19318000
_cell_angle_alpha   90.00000000
_cell_angle_beta   90.00000000
_cell_angle_gamma   119.99999843
_symmetry_Int_Tables_number   1
_chemical_formula_structural   Be2Nb7(BRu)6
_chemical_formula_sum   'Be2 Nb7 B6 Ru6'
_cell_volume   255.01174546
_cell_formula_units_Z   1
loop_
 _symmetry_equiv_pos_site_id
 _symmetry_equiv_pos_as_xyz
  1  'x, y, z'
loop_
 _atom_site_type_symbol
 _atom_site_label
 _atom_site_symmetry_multiplicity
 _atom_site_fract_x
 _atom_site_fract_y
 _atom_site_fract_z
 _atom_site_occupancy
  Be  Be0  1  0.333333  0.666667  0.000000  1
  Be  Be1  1  0.666667  0.333333  0.000000  1
  Nb  Nb2  1  0.000000  0.000000  0.000000  1
  Nb  Nb3  1  0.278044  0.914986  0.000000  1
  Nb  Nb4  1  0.636942  0.721956  0.000000  1
  Nb  Nb5  1  0.085014  0.363058  0.000000  1
  Nb  Nb6  1  0.721956  0.085014  0.000000  1
  Nb  Nb7  1  0.363058  0.278044  0.000000  1
  Nb  Nb8  1  0.914986  0.636942  0.000000  1
  B  B9  1  0.846965  0.781586  0.500000  1
  B  B10  1  0.934621  0.153035  0.500000  1
  B  B11  1  0.218414  0.065379  0.500000  1
  B  B12  1  0.153035  0.218414  0.500000  1
  B  B13  1  0.065379  0.846965  0.500000  1
  B  B14  1  0.781586  0.934621  0.500000  1
  Ru  Ru15  1  0.643308  0.493428  0.500000  1
  Ru  Ru16  1  0.850119  0.356692  0.500000  1
  Ru  Ru17  1  0.506572  0.149881  0.500000  1
  Ru  Ru18  1  0.356692  0.506572  0.500000  1
  Ru  Ru19  1  0.149881  0.643308  0.500000  1
  Ru  Ru20  1  0.493428  0.850119  0.500000  1
