# generated using pymatgen
data_TbTh7CrSe17
_symmetry_space_group_name_H-M   'P 1'
_cell_length_a   8.42204451
_cell_length_b   8.41806375
_cell_length_c   11.18065841
_cell_angle_alpha   80.37377364
_cell_angle_beta   80.38802652
_cell_angle_gamma   64.78956355
_symmetry_Int_Tables_number   1
_chemical_formula_structural   TbTh7CrSe17
_chemical_formula_sum   'Tb1 Th7 Cr1 Se17'
_cell_volume   702.99218108
_cell_formula_units_Z   1
loop_
 _symmetry_equiv_pos_site_id
 _symmetry_equiv_pos_as_xyz
  1  'x, y, z'
loop_
 _atom_site_type_symbol
 _atom_site_label
 _atom_site_symmetry_multiplicity
 _atom_site_fract_x
 _atom_site_fract_y
 _atom_site_fract_z
 _atom_site_occupancy
  Tb  Tb0  1  0.815991  0.303677  0.297068  1
  Th  Th1  1  0.697195  0.185304  0.701240  1
  Th  Th2  1  0.183631  0.697534  0.702809  1
  Th  Th3  1  0.302871  0.815758  0.295689  1
  Th  Th4  1  0.203540  0.204202  0.543137  1
  Th  Th5  1  0.795821  0.797455  0.452878  1
  Th  Th6  1  0.682265  0.677312  0.981940  1
  Th  Th7  1  0.318395  0.319366  0.022696  1
  Cr  Cr8  1  0.999589  0.001475  0.000921  1
  Se  Se9  1  0.822135  0.431665  0.532350  1
  Se  Se10  1  0.569082  0.178380  0.466919  1
  Se  Se11  1  0.178766  0.567349  0.466808  1
  Se  Se12  1  0.432930  0.820607  0.533419  1
  Se  Se13  1  0.946488  0.317900  0.028522  1
  Se  Se14  1  0.681025  0.053807  0.972066  1
  Se  Se15  1  0.053259  0.681342  0.972434  1
  Se  Se16  1  0.319321  0.946986  0.026618  1
  Se  Se17  1  0.210984  0.210253  0.278789  1
  Se  Se18  1  0.788506  0.788310  0.721769  1
  Se  Se19  1  0.056292  0.056208  0.776347  1
  Se  Se20  1  0.943307  0.947902  0.224516  1
  Se  Se21  1  0.301363  0.301635  0.756184  1
  Se  Se22  1  0.697451  0.697342  0.243993  1
  Se  Se23  1  0.519369  0.520438  0.831778  1
  Se  Se24  1  0.479193  0.480656  0.166973  1
  Se  Se25  1  0.001229  0.997133  0.502138  1
