# generated using pymatgen
data_NiRuCl6
_symmetry_space_group_name_H-M   'P 1'
_cell_length_a   6.14422396
_cell_length_b   6.14977055
_cell_length_c   20.03484538
_cell_angle_alpha   90.10320142
_cell_angle_beta   89.95322764
_cell_angle_gamma   120.01581779
_symmetry_Int_Tables_number   1
_chemical_formula_structural   NiRuCl6
_chemical_formula_sum   'Ni3 Ru3 Cl18'
_cell_volume   655.49989381
_cell_formula_units_Z   3
loop_
 _symmetry_equiv_pos_site_id
 _symmetry_equiv_pos_as_xyz
  1  'x, y, z'
loop_
 _atom_site_type_symbol
 _atom_site_label
 _atom_site_symmetry_multiplicity
 _atom_site_fract_x
 _atom_site_fract_y
 _atom_site_fract_z
 _atom_site_occupancy
  Ni  Ni0  1  0.555830  0.111225  0.166621  1
  Ni  Ni1  1  0.889294  0.444678  0.500018  1
  Ni  Ni2  1  0.555805  0.444717  0.833361  1
  Ru  Ru3  1  0.222578  0.444591  0.166625  1
  Ru  Ru4  1  0.556020  0.778072  0.500017  1
  Ru  Ru5  1  0.222546  0.778074  0.833366  1
  Cl  Cl6  1  0.519158  0.747331  0.766393  1
  Cl  Cl7  1  0.894387  0.746884  0.900377  1
  Cl  Cl8  1  0.519100  0.105515  0.900389  1
  Cl  Cl9  1  0.852417  0.747067  0.433010  1
  Cl  Cl10  1  0.227607  0.480605  0.433101  1
  Cl  Cl11  1  0.894117  0.146809  0.099641  1
  Cl  Cl12  1  0.519823  0.771853  0.233526  1
  Cl  Cl13  1  0.894062  0.480956  0.766313  1
  Cl  Cl14  1  0.252810  0.480816  0.900249  1
  Cl  Cl15  1  0.586618  0.481076  0.567013  1
  Cl  Cl16  1  0.852732  0.105507  0.567076  1
  Cl  Cl17  1  0.227960  0.747198  0.566997  1
  Cl  Cl18  1  0.252441  0.146959  0.233526  1
  Cl  Cl19  1  0.586241  0.105272  0.433059  1
  Cl  Cl20  1  0.894496  0.413807  0.233592  1
  Cl  Cl21  1  0.519301  0.413956  0.099625  1
  Cl  Cl22  1  0.252699  0.105354  0.766363  1
  Cl  Cl23  1  0.251961  0.771674  0.099744  1
