# generated using pymatgen
data_Ba3ErPd2O9
_symmetry_space_group_name_H-M   'P 1'
_cell_length_a   5.94044600
_cell_length_b   5.94205589
_cell_length_c   14.90801700
_cell_angle_alpha   90.00000000
_cell_angle_beta   90.00000000
_cell_angle_gamma   60.00896192
_symmetry_Int_Tables_number   1
_chemical_formula_structural   Ba3ErPd2O9
_chemical_formula_sum   'Ba6 Er2 Pd4 O18'
_cell_volume   455.76976147
_cell_formula_units_Z   2
loop_
 _symmetry_equiv_pos_site_id
 _symmetry_equiv_pos_as_xyz
  1  'x, y, z'
loop_
 _atom_site_type_symbol
 _atom_site_label
 _atom_site_symmetry_multiplicity
 _atom_site_fract_x
 _atom_site_fract_y
 _atom_site_fract_z
 _atom_site_occupancy
  Ba  Ba0  1  0.333807  0.332386  0.094090  1
  Ba  Ba1  1  0.999984  0.000031  0.255748  1
  Ba  Ba2  1  0.332800  0.334401  0.417511  1
  Ba  Ba3  1  0.666193  0.667613  0.594091  1
  Ba  Ba4  1  0.000016  0.999968  0.755749  1
  Ba  Ba5  1  0.667201  0.665599  0.917511  1
  Er  Er6  1  0.000670  0.998661  0.005749  1
  Er  Er7  1  0.999331  0.001339  0.505749  1
  Pd  Pd8  1  0.667337  0.665328  0.164910  1
  Pd  Pd9  1  0.666299  0.667401  0.346536  1
  Pd  Pd10  1  0.332663  0.334673  0.664909  1
  Pd  Pd11  1  0.333701  0.332598  0.846536  1
  O  O12  1  0.347734  0.824562  0.089877  1
  O  O13  1  0.827704  0.824562  0.089877  1
  O  O14  1  0.827872  0.344256  0.090521  1
  O  O15  1  0.516890  0.966221  0.255300  1
  O  O16  1  0.516801  0.516527  0.255934  1
  O  O17  1  0.966672  0.516527  0.255934  1
  O  O18  1  0.345772  0.828149  0.421211  1
  O  O19  1  0.826079  0.828149  0.421211  1
  O  O20  1  0.825895  0.348209  0.421691  1
  O  O21  1  0.172297  0.175437  0.589877  1
  O  O22  1  0.652266  0.175437  0.589877  1
  O  O23  1  0.172128  0.655744  0.590521  1
  O  O24  1  0.483111  0.033779  0.755301  1
  O  O25  1  0.033327  0.483475  0.755932  1
  O  O26  1  0.483198  0.483475  0.755932  1
  O  O27  1  0.173921  0.171850  0.921211  1
  O  O28  1  0.654228  0.171850  0.921211  1
  O  O29  1  0.174105  0.651791  0.921692  1
