# generated using pymatgen
data_YbCdIn4O8
_symmetry_space_group_name_H-M   'P 1'
_cell_length_a   6.60394103
_cell_length_b   6.60394068
_cell_length_c   6.60394200
_cell_angle_alpha   60.00000339
_cell_angle_beta   60.00000518
_cell_angle_gamma   59.99999877
_symmetry_Int_Tables_number   1
_chemical_formula_structural   YbCdIn4O8
_chemical_formula_sum   'Yb1 Cd1 In4 O8'
_cell_volume   203.65478885
_cell_formula_units_Z   1
loop_
 _symmetry_equiv_pos_site_id
 _symmetry_equiv_pos_as_xyz
  1  'x, y, z'
loop_
 _atom_site_type_symbol
 _atom_site_label
 _atom_site_symmetry_multiplicity
 _atom_site_fract_x
 _atom_site_fract_y
 _atom_site_fract_z
 _atom_site_occupancy
  Yb  Yb0  1  0.500000  0.500000  0.500000  1
  Cd  Cd1  1  0.750000  0.750000  0.750000  1
  In  In2  1  0.125765  0.125765  0.622704  1
  In  In3  1  0.125765  0.622704  0.125765  1
  In  In4  1  0.622704  0.125765  0.125765  1
  In  In5  1  0.125765  0.125765  0.125765  1
  O  O6  1  0.888126  0.335622  0.888126  1
  O  O7  1  0.362207  0.362207  0.913379  1
  O  O8  1  0.362207  0.362207  0.362207  1
  O  O9  1  0.913379  0.362207  0.362207  1
  O  O10  1  0.888126  0.888126  0.888126  1
  O  O11  1  0.335622  0.888126  0.888126  1
  O  O12  1  0.362207  0.913379  0.362207  1
  O  O13  1  0.888126  0.888126  0.335622  1
