# generated using pymatgen
data_Tb4Y16Cd3Ni2Ag3
_symmetry_space_group_name_H-M   'P 1'
_cell_length_a   9.65612100
_cell_length_b   9.65612154
_cell_length_c   9.62988300
_cell_angle_alpha   90.00000000
_cell_angle_beta   90.00000000
_cell_angle_gamma   119.99999472
_symmetry_Int_Tables_number   1
_chemical_formula_structural   Tb4Y16Cd3Ni2Ag3
_chemical_formula_sum   'Tb4 Y16 Cd3 Ni2 Ag3'
_cell_volume   777.60149724
_cell_formula_units_Z   1
loop_
 _symmetry_equiv_pos_site_id
 _symmetry_equiv_pos_as_xyz
  1  'x, y, z'
loop_
 _atom_site_type_symbol
 _atom_site_label
 _atom_site_symmetry_multiplicity
 _atom_site_fract_x
 _atom_site_fract_y
 _atom_site_fract_z
 _atom_site_occupancy
  Tb  Tb0  1  0.000000  0.000000  0.472158  1
  Tb  Tb1  1  0.542487  0.457513  0.250021  1
  Tb  Tb2  1  0.542487  0.084974  0.250021  1
  Tb  Tb3  1  0.915026  0.457513  0.250021  1
  Y  Y4  1  0.000000  0.000000  0.027493  1
  Y  Y5  1  0.456601  0.543399  0.749978  1
  Y  Y6  1  0.456601  0.913202  0.749978  1
  Y  Y7  1  0.086798  0.543399  0.749978  1
  Y  Y8  1  0.210557  0.789443  0.438410  1
  Y  Y9  1  0.210557  0.421113  0.438410  1
  Y  Y10  1  0.578887  0.789443  0.438410  1
  Y  Y11  1  0.790126  0.209874  0.561679  1
  Y  Y12  1  0.790126  0.580251  0.561679  1
  Y  Y13  1  0.419749  0.209874  0.561679  1
  Y  Y14  1  0.790112  0.209888  0.938213  1
  Y  Y15  1  0.790112  0.580223  0.938213  1
  Y  Y16  1  0.419777  0.209888  0.938213  1
  Y  Y17  1  0.210604  0.789396  0.061708  1
  Y  Y18  1  0.210604  0.421209  0.061708  1
  Y  Y19  1  0.578791  0.789396  0.061708  1
  Cd  Cd20  1  0.110939  0.889061  0.750045  1
  Cd  Cd21  1  0.110939  0.221877  0.750045  1
  Cd  Cd22  1  0.778123  0.889061  0.750045  1
  Ni  Ni23  1  0.333333  0.666667  0.249942  1
  Ni  Ni24  1  0.666667  0.333333  0.750102  1
  Ag  Ag25  1  0.874861  0.125139  0.250048  1
  Ag  Ag26  1  0.874861  0.749723  0.250048  1
  Ag  Ag27  1  0.250277  0.125139  0.250048  1
