# generated using pymatgen
data_CuS8Br3
_symmetry_space_group_name_H-M   'P 1'
_cell_length_a   8.41204873
_cell_length_b   10.59642402
_cell_length_c   11.06595585
_cell_angle_alpha   99.60305339
_cell_angle_beta   107.59271804
_cell_angle_gamma   104.29848163
_symmetry_Int_Tables_number   1
_chemical_formula_structural   CuS8Br3
_chemical_formula_sum   'Cu2 S16 Br6'
_cell_volume   879.44843984
_cell_formula_units_Z   2
loop_
 _symmetry_equiv_pos_site_id
 _symmetry_equiv_pos_as_xyz
  1  'x, y, z'
loop_
 _atom_site_type_symbol
 _atom_site_label
 _atom_site_symmetry_multiplicity
 _atom_site_fract_x
 _atom_site_fract_y
 _atom_site_fract_z
 _atom_site_occupancy
  Cu  Cu0  1  0.817152  0.951266  0.852733  1
  Cu  Cu1  1  0.182848  0.048734  0.147267  1
  S  S2  1  0.881011  0.523692  0.821905  1
  S  S3  1  0.118989  0.476308  0.178095  1
  S  S4  1  0.741559  0.439196  0.624119  1
  S  S5  1  0.258441  0.560804  0.375881  1
  S  S6  1  0.746178  0.243491  0.578549  1
  S  S7  1  0.253822  0.756509  0.421451  1
  S  S8  1  0.930967  0.239784  0.493720  1
  S  S9  1  0.069033  0.760216  0.506280  1
  S  S10  1  0.863815  0.370507  0.150196  1
  S  S11  1  0.136185  0.629493  0.849804  1
  S  S12  1  0.708568  0.492847  0.110972  1
  S  S13  1  0.291432  0.507153  0.889028  1
  S  S14  1  0.668951  0.568859  0.279655  1
  S  S15  1  0.331049  0.431141  0.720345  1
  S  S16  1  0.842018  0.762889  0.365589  1
  S  S17  1  0.157982  0.237111  0.634411  1
  Br  Br18  1  0.526298  0.932061  0.805078  1
  Br  Br19  1  0.473702  0.067939  0.194922  1
  Br  Br20  1  0.876243  0.013713  0.084034  1
  Br  Br21  1  0.123757  0.986287  0.915966  1
  Br  Br22  1  0.777103  0.876300  0.633762  1
  Br  Br23  1  0.222897  0.123700  0.366238  1
