# generated using pymatgen
data_Er4Rh2Pb5
_symmetry_space_group_name_H-M   'P 1'
_cell_length_a   8.18094048
_cell_length_b   3.53032400
_cell_length_c   9.86231100
_cell_angle_alpha   90.00000000
_cell_angle_beta   93.73236790
_cell_angle_gamma   90.00000000
_symmetry_Int_Tables_number   1
_chemical_formula_structural   Er4Rh2Pb5
_chemical_formula_sum   'Er4 Rh2 Pb5'
_cell_volume   284.23291950
_cell_formula_units_Z   1
loop_
 _symmetry_equiv_pos_site_id
 _symmetry_equiv_pos_as_xyz
  1  'x, y, z'
loop_
 _atom_site_type_symbol
 _atom_site_label
 _atom_site_symmetry_multiplicity
 _atom_site_fract_x
 _atom_site_fract_y
 _atom_site_fract_z
 _atom_site_occupancy
  Er  Er0  1  0.306544  0.500000  0.159031  1
  Er  Er1  1  0.698648  0.500000  0.434578  1
  Er  Er2  1  0.301353  0.500000  0.565423  1
  Er  Er3  1  0.693455  0.500000  0.840969  1
  Rh  Rh4  1  0.419095  0.000000  0.362808  1
  Rh  Rh5  1  0.580905  0.000000  0.637192  1
  Pb  Pb6  1  0.000000  0.000000  0.000000  1
  Pb  Pb7  1  0.646619  0.000000  0.137225  1
  Pb  Pb8  1  0.040260  0.000000  0.335519  1
  Pb  Pb9  1  0.959741  0.000000  0.664481  1
  Pb  Pb10  1  0.353381  0.000000  0.862775  1
