# generated using pymatgen
data_Tb4Th6Sn5BiC2
_symmetry_space_group_name_H-M   'P 1'
_cell_length_a   9.26912593
_cell_length_b   9.27416119
_cell_length_c   6.51285700
_cell_angle_alpha   90.00000000
_cell_angle_beta   90.00000000
_cell_angle_gamma   120.01795782
_symmetry_Int_Tables_number   1
_chemical_formula_structural   Tb4Th6Sn5BiC2
_chemical_formula_sum   'Tb4 Th6 Sn5 Bi1 C2'
_cell_volume   484.77138935
_cell_formula_units_Z   1
loop_
 _symmetry_equiv_pos_site_id
 _symmetry_equiv_pos_as_xyz
  1  'x, y, z'
loop_
 _atom_site_type_symbol
 _atom_site_label
 _atom_site_symmetry_multiplicity
 _atom_site_fract_x
 _atom_site_fract_y
 _atom_site_fract_z
 _atom_site_occupancy
  Tb  Tb0  1  0.662769  0.332403  0.998454  1
  Tb  Tb1  1  0.337231  0.669634  0.998454  1
  Tb  Tb2  1  0.337231  0.669634  0.501546  1
  Tb  Tb3  1  0.662769  0.332403  0.501546  1
  Th  Th4  1  0.777570  0.776861  0.750000  1
  Th  Th5  1  0.222430  0.999292  0.750000  1
  Th  Th6  1  0.000000  0.219540  0.750000  1
  Th  Th7  1  0.223903  0.220897  0.250000  1
  Th  Th8  1  0.776097  0.996994  0.250000  1
  Th  Th9  1  0.000000  0.780334  0.250000  1
  Sn  Sn10  1  0.404660  0.405728  0.750000  1
  Sn  Sn11  1  0.595340  0.001068  0.750000  1
  Sn  Sn12  1  0.000000  0.594762  0.750000  1
  Sn  Sn13  1  0.593971  0.593345  0.250000  1
  Sn  Sn14  1  0.406029  0.999374  0.250000  1
  Bi  Bi15  1  0.000000  0.406385  0.250000  1
  C  C16  1  0.000000  0.000674  0.000496  1
  C  C17  1  0.000000  0.000674  0.499504  1
