# generated using pymatgen
data_MgNb2SnRu4
_symmetry_space_group_name_H-M   'P 1'
_cell_length_a   4.46223400
_cell_length_b   6.30413200
_cell_length_c   13.37606300
_cell_angle_alpha   90.00000000
_cell_angle_beta   89.99910119
_cell_angle_gamma   90.00069073
_symmetry_Int_Tables_number   1
_chemical_formula_structural   MgNb2SnRu4
_chemical_formula_sum   'Mg3 Nb6 Sn3 Ru12'
_cell_volume   376.27550275
_cell_formula_units_Z   3
loop_
 _symmetry_equiv_pos_site_id
 _symmetry_equiv_pos_as_xyz
  1  'x, y, z'
loop_
 _atom_site_type_symbol
 _atom_site_label
 _atom_site_symmetry_multiplicity
 _atom_site_fract_x
 _atom_site_fract_y
 _atom_site_fract_z
 _atom_site_occupancy
  Mg  Mg0  1  0.499985  0.999997  0.502707  1
  Mg  Mg1  1  0.000136  0.500003  0.666663  1
  Mg  Mg2  1  0.500107  0.999999  0.830658  1
  Nb  Nb3  1  0.999998  0.999995  0.991588  1
  Nb  Nb4  1  0.499889  0.500015  0.166681  1
  Nb  Nb5  1  0.999911  0.999992  0.341749  1
  Nb  Nb6  1  0.500001  0.500007  0.507594  1
  Nb  Nb7  1  0.000093  0.999994  0.666679  1
  Nb  Nb8  1  0.500101  0.500005  0.825737  1
  Sn  Sn9  1  0.999992  0.500014  0.996699  1
  Sn  Sn10  1  0.499898  0.999959  0.166662  1
  Sn  Sn11  1  0.999907  0.500011  0.336612  1
  Ru  Ru12  1  0.499989  0.247271  0.999673  1
  Ru  Ru13  1  0.499988  0.752732  0.999675  1
  Ru  Ru14  1  0.999915  0.252264  0.166638  1
  Ru  Ru15  1  0.999912  0.747738  0.166638  1
  Ru  Ru16  1  0.499877  0.247113  0.333681  1
  Ru  Ru17  1  0.499878  0.752887  0.333680  1
  Ru  Ru18  1  0.999996  0.248232  0.501094  1
  Ru  Ru19  1  0.999997  0.751770  0.501092  1
  Ru  Ru20  1  0.500126  0.250671  0.666676  1
  Ru  Ru21  1  0.500112  0.749331  0.666674  1
  Ru  Ru22  1  0.000094  0.248179  0.832225  1
  Ru  Ru23  1  0.000093  0.751825  0.832225  1
