# generated using pymatgen
data_TbTm4U(Co3P2)6
_symmetry_space_group_name_H-M   'P 1'
_cell_length_a   3.68114100
_cell_length_b   10.50127200
_cell_length_c   12.08084100
_cell_angle_alpha   90.00000000
_cell_angle_beta   90.00000000
_cell_angle_gamma   90.00000000
_symmetry_Int_Tables_number   1
_chemical_formula_structural   TbTm4U(Co3P2)6
_chemical_formula_sum   'Tb1 Tm4 U1 Co18 P12'
_cell_volume   467.00499822
_cell_formula_units_Z   1
loop_
 _symmetry_equiv_pos_site_id
 _symmetry_equiv_pos_as_xyz
  1  'x, y, z'
loop_
 _atom_site_type_symbol
 _atom_site_label
 _atom_site_symmetry_multiplicity
 _atom_site_fract_x
 _atom_site_fract_y
 _atom_site_fract_z
 _atom_site_occupancy
  Tb  Tb0  1  0.500000  0.000000  0.476568  1
  Tm  Tm1  1  0.500000  0.816489  0.205696  1
  Tm  Tm2  1  0.500000  0.183511  0.205696  1
  Tm  Tm3  1  0.000000  0.683209  0.794910  1
  Tm  Tm4  1  0.000000  0.316791  0.794910  1
  U  U5  1  0.000000  0.500000  0.529765  1
  Co  Co6  1  0.500000  0.500000  0.159065  1
  Co  Co7  1  0.000000  0.000000  0.841596  1
  Co  Co8  1  0.500000  0.500000  0.694303  1
  Co  Co9  1  0.000000  0.000000  0.295621  1
  Co  Co10  1  0.000000  0.500000  0.985607  1
  Co  Co11  1  0.500000  0.000000  0.014106  1
  Co  Co12  1  0.500000  0.333956  0.993549  1
  Co  Co13  1  0.500000  0.666044  0.993549  1
  Co  Co14  1  0.000000  0.166957  0.005576  1
  Co  Co15  1  0.000000  0.833043  0.005576  1
  Co  Co16  1  0.500000  0.300019  0.431358  1
  Co  Co17  1  0.500000  0.699981  0.431358  1
  Co  Co18  1  0.000000  0.202063  0.569362  1
  Co  Co19  1  0.000000  0.797937  0.569362  1
  Co  Co20  1  0.500000  0.878941  0.711359  1
  Co  Co21  1  0.500000  0.121059  0.711359  1
  Co  Co22  1  0.000000  0.620445  0.290921  1
  Co  Co23  1  0.000000  0.379555  0.290921  1
  P  P24  1  0.500000  0.500000  0.878415  1
  P  P25  1  0.000000  0.000000  0.118126  1
  P  P26  1  0.500000  0.500000  0.346518  1
  P  P27  1  0.000000  0.000000  0.656022  1
  P  P28  1  0.500000  0.306703  0.616505  1
  P  P29  1  0.500000  0.693297  0.616505  1
  P  P30  1  0.000000  0.188985  0.382321  1
  P  P31  1  0.000000  0.811015  0.382321  1
  P  P32  1  0.500000  0.846390  0.893366  1
  P  P33  1  0.500000  0.153610  0.893366  1
  P  P34  1  0.000000  0.652957  0.107221  1
  P  P35  1  0.000000  0.347043  0.107221  1
