# generated using pymatgen
data_Tm2LuTh(Al3Ir)6
_symmetry_space_group_name_H-M   'P 1'
_cell_length_a   7.56116201
_cell_length_b   7.57207956
_cell_length_c   9.43997000
_cell_angle_alpha   90.00000000
_cell_angle_beta   90.00000000
_cell_angle_gamma   119.44531428
_symmetry_Int_Tables_number   1
_chemical_formula_structural   Tm2LuTh(Al3Ir)6
_chemical_formula_sum   'Tm2 Lu1 Th1 Al18 Ir6'
_cell_volume   470.65790772
_cell_formula_units_Z   1
loop_
 _symmetry_equiv_pos_site_id
 _symmetry_equiv_pos_as_xyz
  1  'x, y, z'
loop_
 _atom_site_type_symbol
 _atom_site_label
 _atom_site_symmetry_multiplicity
 _atom_site_fract_x
 _atom_site_fract_y
 _atom_site_fract_z
 _atom_site_occupancy
  Tm  Tm0  1  0.673597  0.995559  0.250000  1
  Tm  Tm1  1  0.326983  0.004082  0.750000  1
  Lu  Lu2  1  0.003227  0.327619  0.750000  1
  Th  Th3  1  0.995082  0.671146  0.250000  1
  Al  Al4  1  0.131099  0.133122  0.250000  1
  Al  Al5  1  0.872100  0.874636  0.750000  1
  Al  Al6  1  0.001247  0.330750  0.072509  1
  Al  Al7  1  0.999359  0.663972  0.917203  1
  Al  Al8  1  0.999359  0.663972  0.582797  1
  Al  Al9  1  0.340639  0.005427  0.427371  1
  Al  Al10  1  0.001247  0.330750  0.427491  1
  Al  Al11  1  0.664574  0.000639  0.576839  1
  Al  Al12  1  0.664574  0.000639  0.923161  1
  Al  Al13  1  0.340639  0.005427  0.072629  1
  Al  Al14  1  0.331975  0.332182  0.555810  1
  Al  Al15  1  0.662826  0.666802  0.453347  1
  Al  Al16  1  0.662826  0.666802  0.046653  1
  Al  Al17  1  0.331975  0.332182  0.944190  1
  Al  Al18  1  0.344601  0.548916  0.250000  1
  Al  Al19  1  0.658439  0.448425  0.750000  1
  Al  Al20  1  0.544121  0.336591  0.250000  1
  Al  Al21  1  0.449074  0.660700  0.750000  1
  Ir  Ir22  1  0.673368  0.329200  0.999950  1
  Ir  Ir23  1  0.326332  0.671758  0.000051  1
  Ir  Ir24  1  0.326332  0.671758  0.499949  1
  Ir  Ir25  1  0.673368  0.329200  0.500050  1
  Ir  Ir26  1  0.000517  0.998871  0.000200  1
  Ir  Ir27  1  0.000517  0.998871  0.499800  1
