# generated using pymatgen
data_Lu2Sc2Al17GaRh6
_symmetry_space_group_name_H-M   'P 1'
_cell_length_a   7.47858200
_cell_length_b   7.47858147
_cell_length_c   9.38867300
_cell_angle_alpha   90.00000000
_cell_angle_beta   90.00000000
_cell_angle_gamma   119.39497635
_symmetry_Int_Tables_number   1
_chemical_formula_structural   Lu2Sc2Al17GaRh6
_chemical_formula_sum   'Lu2 Sc2 Al17 Ga1 Rh6'
_cell_volume   457.49769244
_cell_formula_units_Z   1
loop_
 _symmetry_equiv_pos_site_id
 _symmetry_equiv_pos_as_xyz
  1  'x, y, z'
loop_
 _atom_site_type_symbol
 _atom_site_label
 _atom_site_symmetry_multiplicity
 _atom_site_fract_x
 _atom_site_fract_y
 _atom_site_fract_z
 _atom_site_occupancy
  Lu  Lu0  1  0.993482  0.674870  0.250000  1
  Lu  Lu1  1  0.674870  0.993482  0.250000  1
  Sc  Sc2  1  0.004544  0.327631  0.750000  1
  Sc  Sc3  1  0.327631  0.004544  0.750000  1
  Al  Al4  1  0.875890  0.875890  0.750000  1
  Al  Al5  1  0.000858  0.335681  0.071549  1
  Al  Al6  1  0.002248  0.664635  0.920474  1
  Al  Al7  1  0.002248  0.664635  0.579526  1
  Al  Al8  1  0.335681  0.000858  0.428451  1
  Al  Al9  1  0.000858  0.335681  0.428451  1
  Al  Al10  1  0.664635  0.002248  0.579526  1
  Al  Al11  1  0.664635  0.002248  0.920474  1
  Al  Al12  1  0.335681  0.000858  0.071549  1
  Al  Al13  1  0.330301  0.330301  0.560134  1
  Al  Al14  1  0.665896  0.665896  0.450331  1
  Al  Al15  1  0.665896  0.665896  0.049669  1
  Al  Al16  1  0.330301  0.330301  0.939866  1
  Al  Al17  1  0.338556  0.551021  0.250000  1
  Al  Al18  1  0.660284  0.444704  0.750000  1
  Al  Al19  1  0.551021  0.338556  0.250000  1
  Al  Al20  1  0.444704  0.660284  0.750000  1
  Ga  Ga21  1  0.132992  0.132992  0.250000  1
  Rh  Rh22  1  0.671977  0.326889  0.999903  1
  Rh  Rh23  1  0.326889  0.671977  0.999903  1
  Rh  Rh24  1  0.326889  0.671977  0.500097  1
  Rh  Rh25  1  0.671977  0.326889  0.500097  1
  Rh  Rh26  1  0.999527  0.999527  0.997751  1
  Rh  Rh27  1  0.999527  0.999527  0.502249  1
