# generated using pymatgen
data_Tb7Lu3(SiSb)4
_symmetry_space_group_name_H-M   'P 1'
_cell_length_a   8.46768499
_cell_length_b   8.51970722
_cell_length_c   7.82344549
_cell_angle_alpha   90.21001975
_cell_angle_beta   90.15545576
_cell_angle_gamma   125.33275400
_symmetry_Int_Tables_number   1
_chemical_formula_structural   Tb7Lu3(SiSb)4
_chemical_formula_sum   'Tb7 Lu3 Si4 Sb4'
_cell_volume   460.43080697
_cell_formula_units_Z   1
loop_
 _symmetry_equiv_pos_site_id
 _symmetry_equiv_pos_as_xyz
  1  'x, y, z'
loop_
 _atom_site_type_symbol
 _atom_site_label
 _atom_site_symmetry_multiplicity
 _atom_site_fract_x
 _atom_site_fract_y
 _atom_site_fract_z
 _atom_site_occupancy
  Tb  Tb0  1  0.958881  0.707367  0.666664  1
  Tb  Tb1  1  0.459926  0.207462  0.832609  1
  Tb  Tb2  1  0.796831  0.543405  0.168477  1
  Tb  Tb3  1  0.541356  0.795127  0.167450  1
  Tb  Tb4  1  0.203549  0.458150  0.832032  1
  Tb  Tb5  1  0.702934  0.957229  0.667892  1
  Tb  Tb6  1  0.296117  0.042436  0.332267  1
  Lu  Lu7  1  0.041195  0.288281  0.334746  1
  Lu  Lu8  1  0.000114  0.000959  0.000629  1
  Lu  Lu9  1  0.499260  0.499006  0.499440  1
  Si  Si10  1  0.368154  0.370140  0.130532  1
  Si  Si11  1  0.629651  0.630444  0.870875  1
  Si  Si12  1  0.129082  0.129926  0.627097  1
  Si  Si13  1  0.871429  0.872354  0.372056  1
  Sb  Sb14  1  0.796987  0.206165  0.005168  1
  Sb  Sb15  1  0.206620  0.797813  0.997386  1
  Sb  Sb16  1  0.709139  0.295197  0.500023  1
  Sb  Sb17  1  0.288775  0.698538  0.494661  1
