# generated using pymatgen
data_Dy2Ho6CdNi2Ag
_symmetry_space_group_name_H-M   'P 1'
_cell_length_a   9.44224058
_cell_length_b   9.44224060
_cell_length_c   9.42660200
_cell_angle_alpha   60.05477981
_cell_angle_beta   60.05477973
_cell_angle_gamma   60.04341224
_symmetry_Int_Tables_number   1
_chemical_formula_structural   Dy2Ho6CdNi2Ag
_chemical_formula_sum   'Dy4 Ho12 Cd2 Ni4 Ag2'
_cell_volume   594.96568125
_cell_formula_units_Z   2
loop_
 _symmetry_equiv_pos_site_id
 _symmetry_equiv_pos_as_xyz
  1  'x, y, z'
loop_
 _atom_site_type_symbol
 _atom_site_label
 _atom_site_symmetry_multiplicity
 _atom_site_fract_x
 _atom_site_fract_y
 _atom_site_fract_z
 _atom_site_occupancy
  Dy  Dy0  1  0.348914  0.348914  0.348426  1
  Dy  Dy1  1  0.348914  0.348914  0.953743  1
  Dy  Dy2  1  0.351553  0.948359  0.350043  1
  Dy  Dy3  1  0.948359  0.351553  0.350043  1
  Ho  Ho4  1  0.811781  0.188592  0.189380  1
  Ho  Ho5  1  0.188592  0.811781  0.810247  1
  Ho  Ho6  1  0.188592  0.811781  0.189380  1
  Ho  Ho7  1  0.811781  0.188592  0.810247  1
  Ho  Ho8  1  0.189377  0.189377  0.810623  1
  Ho  Ho9  1  0.811806  0.811806  0.188194  1
  Ho  Ho10  1  0.932875  0.563511  0.565088  1
  Ho  Ho11  1  0.563511  0.932875  0.938525  1
  Ho  Ho12  1  0.563511  0.932875  0.565088  1
  Ho  Ho13  1  0.932875  0.563511  0.938525  1
  Ho  Ho14  1  0.563252  0.563252  0.936748  1
  Ho  Ho15  1  0.935600  0.935600  0.564400  1
  Cd  Cd16  1  0.581699  0.258795  0.579753  1
  Cd  Cd17  1  0.258795  0.581699  0.579753  1
  Ni  Ni18  1  0.143255  0.143255  0.142981  1
  Ni  Ni19  1  0.143255  0.143255  0.570509  1
  Ni  Ni20  1  0.141715  0.572626  0.142830  1
  Ni  Ni21  1  0.572626  0.141715  0.142830  1
  Ag  Ag22  1  0.583680  0.583680  0.581923  1
  Ag  Ag23  1  0.583680  0.583680  0.250718  1
