# generated using pymatgen
data_Al3Ga(SnI8)2
_symmetry_space_group_name_H-M   'P 1'
_cell_length_a   8.27399113
_cell_length_b   8.51755694
_cell_length_c   15.60680451
_cell_angle_alpha   87.46776618
_cell_angle_beta   89.98546690
_cell_angle_gamma   90.01346170
_symmetry_Int_Tables_number   1
_chemical_formula_structural   Al3Ga(SnI8)2
_chemical_formula_sum   'Al3 Ga1 Sn2 I16'
_cell_volume   1098.80284339
_cell_formula_units_Z   1
loop_
 _symmetry_equiv_pos_site_id
 _symmetry_equiv_pos_as_xyz
  1  'x, y, z'
loop_
 _atom_site_type_symbol
 _atom_site_label
 _atom_site_symmetry_multiplicity
 _atom_site_fract_x
 _atom_site_fract_y
 _atom_site_fract_z
 _atom_site_occupancy
  Al  Al0  1  0.065575  0.220647  0.079542  1
  Al  Al1  1  0.570167  0.641606  0.778035  1
  Al  Al2  1  0.429864  0.641535  0.278035  1
  Ga  Ga3  1  0.934682  0.221827  0.579237  1
  Sn  Sn4  1  0.754088  0.073021  0.809176  1
  Sn  Sn5  1  0.245672  0.073039  0.309437  1
  I  I6  1  0.423144  0.615892  0.639252  1
  I  I7  1  0.576847  0.615893  0.139289  1
  I  I8  1  0.870474  0.731247  0.759975  1
  I  I9  1  0.129442  0.731035  0.260135  1
  I  I10  1  0.937859  0.481531  0.495610  1
  I  I11  1  0.062236  0.478347  0.996638  1
  I  I12  1  0.922168  0.997338  0.002007  1
  I  I13  1  0.079471  0.994959  0.501232  1
  I  I14  1  0.637511  0.126080  0.616922  1
  I  I15  1  0.359655  0.127610  0.116160  1
  I  I16  1  0.561108  0.386704  0.874707  1
  I  I17  1  0.438796  0.386650  0.374814  1
  I  I18  1  0.441959  0.861722  0.866637  1
  I  I19  1  0.557909  0.861653  0.366763  1
  I  I20  1  0.928463  0.233252  0.229651  1
  I  I21  1  0.072909  0.233212  0.731147  1
