# generated using pymatgen
data_Tm3Al2IrC
_symmetry_space_group_name_H-M   'P 1'
_cell_length_a   8.88550160
_cell_length_b   8.88550133
_cell_length_c   8.88550100
_cell_angle_alpha   59.99999750
_cell_angle_beta   59.99999853
_cell_angle_gamma   59.99999370
_symmetry_Int_Tables_number   1
_chemical_formula_structural   Tm3Al2IrC
_chemical_formula_sum   'Tm12 Al8 Ir4 C4'
_cell_volume   496.05607695
_cell_formula_units_Z   4
loop_
 _symmetry_equiv_pos_site_id
 _symmetry_equiv_pos_as_xyz
  1  'x, y, z'
loop_
 _atom_site_type_symbol
 _atom_site_label
 _atom_site_symmetry_multiplicity
 _atom_site_fract_x
 _atom_site_fract_y
 _atom_site_fract_z
 _atom_site_occupancy
  Tm  Tm0  1  0.950558  0.950558  0.549442  1
  Tm  Tm1  1  0.700558  0.299442  0.299442  1
  Tm  Tm2  1  0.299442  0.700558  0.700558  1
  Tm  Tm3  1  0.700558  0.700558  0.299442  1
  Tm  Tm4  1  0.700558  0.299442  0.700558  1
  Tm  Tm5  1  0.299442  0.700558  0.299442  1
  Tm  Tm6  1  0.549442  0.950558  0.549442  1
  Tm  Tm7  1  0.549442  0.950558  0.950558  1
  Tm  Tm8  1  0.950558  0.549442  0.549442  1
  Tm  Tm9  1  0.950558  0.549442  0.950558  1
  Tm  Tm10  1  0.299442  0.299442  0.700558  1
  Tm  Tm11  1  0.549442  0.549442  0.950558  1
  Al  Al12  1  0.923491  0.229527  0.923491  1
  Al  Al13  1  0.326509  0.326509  0.020473  1
  Al  Al14  1  0.020473  0.326509  0.326509  1
  Al  Al15  1  0.326509  0.326509  0.326509  1
  Al  Al16  1  0.229527  0.923491  0.923491  1
  Al  Al17  1  0.923491  0.923491  0.923491  1
  Al  Al18  1  0.923491  0.923491  0.229527  1
  Al  Al19  1  0.326509  0.020473  0.326509  1
  Ir  Ir20  1  0.125000  0.625000  0.125000  1
  Ir  Ir21  1  0.125000  0.125000  0.625000  1
  Ir  Ir22  1  0.625000  0.125000  0.125000  1
  Ir  Ir23  1  0.125000  0.125000  0.125000  1
  C  C24  1  0.625000  0.125000  0.625000  1
  C  C25  1  0.625000  0.625000  0.125000  1
  C  C26  1  0.125000  0.625000  0.625000  1
  C  C27  1  0.625000  0.625000  0.625000  1
