# generated using pymatgen
data_Pa4SiTc7
_symmetry_space_group_name_H-M   'P 1'
_cell_length_a   5.00379300
_cell_length_b   5.00379464
_cell_length_c   9.29927400
_cell_angle_alpha   90.00000000
_cell_angle_beta   90.00000000
_cell_angle_gamma   111.31504910
_symmetry_Int_Tables_number   1
_chemical_formula_structural   Pa4SiTc7
_chemical_formula_sum   'Pa4 Si1 Tc7'
_cell_volume   216.90790131
_cell_formula_units_Z   1
loop_
 _symmetry_equiv_pos_site_id
 _symmetry_equiv_pos_as_xyz
  1  'x, y, z'
loop_
 _atom_site_type_symbol
 _atom_site_label
 _atom_site_symmetry_multiplicity
 _atom_site_fract_x
 _atom_site_fract_y
 _atom_site_fract_z
 _atom_site_occupancy
  Pa  Pa0  1  0.330362  0.669638  0.426252  1
  Pa  Pa1  1  0.670064  0.329936  0.562702  1
  Pa  Pa2  1  0.670064  0.329936  0.937298  1
  Pa  Pa3  1  0.330362  0.669638  0.073748  1
  Si  Si4  1  0.833938  0.166062  0.250000  1
  Tc  Tc5  1  0.998316  0.001684  0.499281  1
  Tc  Tc6  1  0.998316  0.001684  0.000719  1
  Tc  Tc7  1  0.825739  0.660065  0.250000  1
  Tc  Tc8  1  0.339935  0.174261  0.250000  1
  Tc  Tc9  1  0.171140  0.828860  0.750000  1
  Tc  Tc10  1  0.171829  0.340064  0.750000  1
  Tc  Tc11  1  0.659936  0.828171  0.750000  1
