# generated using pymatgen
data_Sm2Sc3Ga4
_symmetry_space_group_name_H-M   'P 1'
_cell_length_a   7.37829542
_cell_length_b   7.62280853
_cell_length_c   14.60150243
_cell_angle_alpha   90.00823487
_cell_angle_beta   89.97647909
_cell_angle_gamma   90.00137543
_symmetry_Int_Tables_number   1
_chemical_formula_structural   Sm2Sc3Ga4
_chemical_formula_sum   'Sm8 Sc12 Ga16'
_cell_volume   821.23708888
_cell_formula_units_Z   4
loop_
 _symmetry_equiv_pos_site_id
 _symmetry_equiv_pos_as_xyz
  1  'x, y, z'
loop_
 _atom_site_type_symbol
 _atom_site_label
 _atom_site_symmetry_multiplicity
 _atom_site_fract_x
 _atom_site_fract_y
 _atom_site_fract_z
 _atom_site_occupancy
  Sm  Sm0  1  0.012827  0.176794  0.094818  1
  Sm  Sm1  1  0.987681  0.821691  0.905107  1
  Sm  Sm2  1  0.487410  0.678040  0.905023  1
  Sm  Sm3  1  0.987827  0.822530  0.595590  1
  Sm  Sm4  1  0.512666  0.322527  0.095381  1
  Sm  Sm5  1  0.011900  0.177572  0.404309  1
  Sm  Sm6  1  0.512037  0.322321  0.404145  1
  Sm  Sm7  1  0.487866  0.677570  0.595499  1
  Sc  Sc8  1  0.162373  0.502358  0.749949  1
  Sc  Sc9  1  0.838297  0.497867  0.249734  1
  Sc  Sc10  1  0.337442  0.002621  0.249428  1
  Sc  Sc11  1  0.661903  0.997668  0.750076  1
  Sc  Sc12  1  0.329757  0.172444  0.624556  1
  Sc  Sc13  1  0.669542  0.827409  0.375099  1
  Sc  Sc14  1  0.169911  0.672471  0.375295  1
  Sc  Sc15  1  0.668785  0.826829  0.124681  1
  Sc  Sc16  1  0.830073  0.327273  0.624765  1
  Sc  Sc17  1  0.329196  0.172791  0.876099  1
  Sc  Sc18  1  0.829766  0.328037  0.875817  1
  Sc  Sc19  1  0.172187  0.673513  0.123863  1
  Ga  Ga20  1  0.030668  0.120176  0.750724  1
  Ga  Ga21  1  0.968759  0.878827  0.249340  1
  Ga  Ga22  1  0.468983  0.619714  0.249823  1
  Ga  Ga23  1  0.530688  0.379365  0.750469  1
  Ga  Ga24  1  0.158907  0.463199  0.540935  1
  Ga  Ga25  1  0.840716  0.536650  0.458977  1
  Ga  Ga26  1  0.340726  0.963433  0.458784  1
  Ga  Ga27  1  0.841351  0.536442  0.041740  1
  Ga  Ga28  1  0.659055  0.036647  0.540789  1
  Ga  Ga29  1  0.158707  0.463907  0.959159  1
  Ga  Ga30  1  0.659707  0.036668  0.959161  1
  Ga  Ga31  1  0.285076  0.877169  0.750380  1
  Ga  Ga32  1  0.715084  0.122816  0.249556  1
  Ga  Ga33  1  0.214355  0.377185  0.249493  1
  Ga  Ga34  1  0.785135  0.623079  0.750306  1
  Ga  Ga35  1  0.342636  0.964399  0.041132  1
