# generated using pymatgen
data_Lu4MgZnSn3
_symmetry_space_group_name_H-M   'P 1'
_cell_length_a   7.34801100
_cell_length_b   8.05794800
_cell_length_c   15.02849600
_cell_angle_alpha   90.00000000
_cell_angle_beta   90.00000000
_cell_angle_gamma   90.00000000
_symmetry_Int_Tables_number   1
_chemical_formula_structural   Lu4MgZnSn3
_chemical_formula_sum   'Lu16 Mg4 Zn4 Sn12'
_cell_volume   889.83560316
_cell_formula_units_Z   4
loop_
 _symmetry_equiv_pos_site_id
 _symmetry_equiv_pos_as_xyz
  1  'x, y, z'
loop_
 _atom_site_type_symbol
 _atom_site_label
 _atom_site_symmetry_multiplicity
 _atom_site_fract_x
 _atom_site_fract_y
 _atom_site_fract_z
 _atom_site_occupancy
  Lu  Lu0  1  0.330019  0.170801  0.632879  1
  Lu  Lu1  1  0.669981  0.829199  0.367121  1
  Lu  Lu2  1  0.169981  0.670801  0.367121  1
  Lu  Lu3  1  0.669981  0.829199  0.132879  1
  Lu  Lu4  1  0.830019  0.329199  0.632879  1
  Lu  Lu5  1  0.330019  0.170801  0.867121  1
  Lu  Lu6  1  0.830019  0.329199  0.867121  1
  Lu  Lu7  1  0.169981  0.670801  0.132879  1
  Lu  Lu8  1  0.995531  0.184086  0.091014  1
  Lu  Lu9  1  0.004469  0.815914  0.908986  1
  Lu  Lu10  1  0.504469  0.684086  0.908986  1
  Lu  Lu11  1  0.004469  0.815914  0.591014  1
  Lu  Lu12  1  0.495531  0.315914  0.091014  1
  Lu  Lu13  1  0.995531  0.184086  0.408986  1
  Lu  Lu14  1  0.495531  0.315914  0.408986  1
  Lu  Lu15  1  0.504469  0.684086  0.591014  1
  Mg  Mg16  1  0.170475  0.497650  0.750000  1
  Mg  Mg17  1  0.829525  0.502350  0.250000  1
  Mg  Mg18  1  0.329525  0.997650  0.250000  1
  Mg  Mg19  1  0.670475  0.002350  0.750000  1
  Zn  Zn20  1  0.023000  0.097403  0.750000  1
  Zn  Zn21  1  0.977000  0.902597  0.250000  1
  Zn  Zn22  1  0.477000  0.597403  0.250000  1
  Zn  Zn23  1  0.523000  0.402597  0.750000  1
  Sn  Sn24  1  0.184737  0.465905  0.539442  1
  Sn  Sn25  1  0.815263  0.534095  0.460558  1
  Sn  Sn26  1  0.315263  0.965905  0.460558  1
  Sn  Sn27  1  0.815263  0.534095  0.039442  1
  Sn  Sn28  1  0.684737  0.034095  0.539442  1
  Sn  Sn29  1  0.184737  0.465905  0.960558  1
  Sn  Sn30  1  0.684737  0.034095  0.960558  1
  Sn  Sn31  1  0.315263  0.965905  0.039442  1
  Sn  Sn32  1  0.292678  0.855024  0.750000  1
  Sn  Sn33  1  0.707322  0.144976  0.250000  1
  Sn  Sn34  1  0.207322  0.355024  0.250000  1
  Sn  Sn35  1  0.792678  0.644976  0.750000  1
