# generated using pymatgen
data_Sm8InPd24
_symmetry_space_group_name_H-M   'P 1'
_cell_length_a   8.48837300
_cell_length_b   8.48837300
_cell_length_c   8.48837300
_cell_angle_alpha   90.00000000
_cell_angle_beta   90.00000000
_cell_angle_gamma   90.00000000
_symmetry_Int_Tables_number   1
_chemical_formula_structural   Sm8InPd24
_chemical_formula_sum   'Sm8 In1 Pd24'
_cell_volume   611.60829345
_cell_formula_units_Z   1
loop_
 _symmetry_equiv_pos_site_id
 _symmetry_equiv_pos_as_xyz
  1  'x, y, z'
loop_
 _atom_site_type_symbol
 _atom_site_label
 _atom_site_symmetry_multiplicity
 _atom_site_fract_x
 _atom_site_fract_y
 _atom_site_fract_z
 _atom_site_occupancy
  Sm  Sm0  1  0.251328  0.251328  0.251328  1
  Sm  Sm1  1  0.748672  0.748672  0.748672  1
  Sm  Sm2  1  0.748672  0.748672  0.251328  1
  Sm  Sm3  1  0.748672  0.251328  0.748672  1
  Sm  Sm4  1  0.251328  0.251328  0.748672  1
  Sm  Sm5  1  0.251328  0.748672  0.251328  1
  Sm  Sm6  1  0.251328  0.748672  0.748672  1
  Sm  Sm7  1  0.748672  0.251328  0.251328  1
  In  In8  1  0.000000  0.000000  0.000000  1
  Pd  Pd9  1  0.266936  0.500000  0.000000  1
  Pd  Pd10  1  0.733064  0.500000  0.000000  1
  Pd  Pd11  1  0.000000  0.266936  0.500000  1
  Pd  Pd12  1  0.500000  0.266936  0.000000  1
  Pd  Pd13  1  0.000000  0.733064  0.500000  1
  Pd  Pd14  1  0.500000  0.733064  0.000000  1
  Pd  Pd15  1  0.500000  0.000000  0.266936  1
  Pd  Pd16  1  0.266936  0.000000  0.500000  1
  Pd  Pd17  1  0.500000  0.000000  0.733064  1
  Pd  Pd18  1  0.733064  0.000000  0.500000  1
  Pd  Pd19  1  0.000000  0.500000  0.266936  1
  Pd  Pd20  1  0.000000  0.500000  0.733064  1
  Pd  Pd21  1  0.255379  0.500000  0.500000  1
  Pd  Pd22  1  0.744621  0.500000  0.500000  1
  Pd  Pd23  1  0.500000  0.255379  0.500000  1
  Pd  Pd24  1  0.500000  0.744621  0.500000  1
  Pd  Pd25  1  0.500000  0.500000  0.255379  1
  Pd  Pd26  1  0.500000  0.500000  0.744621  1
  Pd  Pd27  1  0.313730  0.000000  0.000000  1
  Pd  Pd28  1  0.686270  0.000000  0.000000  1
  Pd  Pd29  1  0.000000  0.313730  0.000000  1
  Pd  Pd30  1  0.000000  0.686270  0.000000  1
  Pd  Pd31  1  0.000000  0.000000  0.313730  1
  Pd  Pd32  1  0.000000  0.000000  0.686270  1
