# generated using pymatgen
data_EuGa4O7
_symmetry_space_group_name_H-M   'P 1'
_cell_length_a   8.20765863
_cell_length_b   8.20765829
_cell_length_c   5.76036352
_cell_angle_alpha   78.21125527
_cell_angle_beta   78.21125816
_cell_angle_gamma   69.16665967
_symmetry_Int_Tables_number   1
_chemical_formula_structural   EuGa4O7
_chemical_formula_sum   'Eu2 Ga8 O14'
_cell_volume   351.33529767
_cell_formula_units_Z   2
loop_
 _symmetry_equiv_pos_site_id
 _symmetry_equiv_pos_as_xyz
  1  'x, y, z'
loop_
 _atom_site_type_symbol
 _atom_site_label
 _atom_site_symmetry_multiplicity
 _atom_site_fract_x
 _atom_site_fract_y
 _atom_site_fract_z
 _atom_site_occupancy
  Eu  Eu0  1  0.700405  0.299595  0.250000  1
  Eu  Eu1  1  0.299595  0.700405  0.750000  1
  Ga  Ga2  1  0.248011  0.421528  0.312164  1
  Ga  Ga3  1  0.578472  0.751989  0.187836  1
  Ga  Ga4  1  0.942458  0.815850  0.254824  1
  Ga  Ga5  1  0.184150  0.057542  0.245176  1
  Ga  Ga6  1  0.057542  0.184150  0.745176  1
  Ga  Ga7  1  0.815850  0.942458  0.754824  1
  Ga  Ga8  1  0.421528  0.248011  0.812164  1
  Ga  Ga9  1  0.751989  0.578472  0.687836  1
  O  O10  1  0.033761  0.966239  0.750000  1
  O  O11  1  0.966239  0.033761  0.250000  1
  O  O12  1  0.132112  0.635671  0.144161  1
  O  O13  1  0.364329  0.867888  0.355839  1
  O  O14  1  0.867888  0.364329  0.855839  1
  O  O15  1  0.635671  0.132112  0.644161  1
  O  O16  1  0.674235  0.558694  0.415800  1
  O  O17  1  0.441306  0.325765  0.084200  1
  O  O18  1  0.325765  0.441306  0.584200  1
  O  O19  1  0.558694  0.674235  0.915800  1
  O  O20  1  0.747883  0.870896  0.086622  1
  O  O21  1  0.129104  0.252117  0.413378  1
  O  O22  1  0.252117  0.129104  0.913378  1
  O  O23  1  0.870896  0.747883  0.586622  1
