# generated using pymatgen
data_HfSc3Fe6SiGe
_symmetry_space_group_name_H-M   'P 1'
_cell_length_a   4.99803901
_cell_length_b   4.99815398
_cell_length_c   7.97643300
_cell_angle_alpha   89.99762288
_cell_angle_beta   90.00174333
_cell_angle_gamma   119.99467663
_symmetry_Int_Tables_number   1
_chemical_formula_structural   HfSc3Fe6SiGe
_chemical_formula_sum   'Hf1 Sc3 Fe6 Si1 Ge1'
_cell_volume   172.57263065
_cell_formula_units_Z   1
loop_
 _symmetry_equiv_pos_site_id
 _symmetry_equiv_pos_as_xyz
  1  'x, y, z'
loop_
 _atom_site_type_symbol
 _atom_site_label
 _atom_site_symmetry_multiplicity
 _atom_site_fract_x
 _atom_site_fract_y
 _atom_site_fract_z
 _atom_site_occupancy
  Hf  Hf0  1  0.666679  0.333333  0.935205  1
  Sc  Sc1  1  0.666678  0.333331  0.560867  1
  Sc  Sc2  1  0.333332  0.666680  0.437427  1
  Sc  Sc3  1  0.333332  0.666677  0.065715  1
  Fe  Fe4  1  0.172630  0.345276  0.755343  1
  Fe  Fe5  1  0.172626  0.827370  0.755346  1
  Fe  Fe6  1  0.654747  0.827380  0.755346  1
  Fe  Fe7  1  0.827422  0.654849  0.244840  1
  Fe  Fe8  1  0.827447  0.172565  0.244843  1
  Fe  Fe9  1  0.345181  0.172593  0.244840  1
  Si  Si10  1  0.999980  0.999982  0.000138  1
  Ge  Ge11  1  0.999945  0.999962  0.500090  1
