# generated using pymatgen
data_Al6GaSe10
_symmetry_space_group_name_H-M   'P 1'
_cell_length_a   9.66145168
_cell_length_b   9.66145083
_cell_length_c   9.66145235
_cell_angle_alpha   89.54230718
_cell_angle_beta   89.54230515
_cell_angle_gamma   89.54230663
_symmetry_Int_Tables_number   1
_chemical_formula_structural   Al6GaSe10
_chemical_formula_sum   'Al12 Ga2 Se20'
_cell_volume   901.74926942
_cell_formula_units_Z   2
loop_
 _symmetry_equiv_pos_site_id
 _symmetry_equiv_pos_as_xyz
  1  'x, y, z'
loop_
 _atom_site_type_symbol
 _atom_site_label
 _atom_site_symmetry_multiplicity
 _atom_site_fract_x
 _atom_site_fract_y
 _atom_site_fract_z
 _atom_site_occupancy
  Al  Al0  1  0.848233  0.890304  0.578680  1
  Al  Al1  1  0.578680  0.848233  0.890304  1
  Al  Al2  1  0.890304  0.578680  0.848233  1
  Al  Al3  1  0.151767  0.421320  0.109696  1
  Al  Al4  1  0.109696  0.151767  0.421320  1
  Al  Al5  1  0.421320  0.109696  0.151767  1
  Al  Al6  1  0.742014  0.164766  0.344229  1
  Al  Al7  1  0.344229  0.742014  0.164766  1
  Al  Al8  1  0.164766  0.344229  0.742014  1
  Al  Al9  1  0.257986  0.655771  0.835234  1
  Al  Al10  1  0.835234  0.257986  0.655771  1
  Al  Al11  1  0.655771  0.835234  0.257986  1
  Ga  Ga12  1  0.574140  0.574140  0.574140  1
  Ga  Ga13  1  0.425860  0.425860  0.425860  1
  Se  Se14  1  0.423841  0.921215  0.324688  1
  Se  Se15  1  0.921215  0.324688  0.423841  1
  Se  Se16  1  0.324688  0.423841  0.921215  1
  Se  Se17  1  0.078785  0.576159  0.675312  1
  Se  Se18  1  0.576159  0.675312  0.078785  1
  Se  Se19  1  0.675312  0.078785  0.576159  1
  Se  Se20  1  0.760793  0.695980  0.441047  1
  Se  Se21  1  0.441047  0.760793  0.695980  1
  Se  Se22  1  0.695980  0.441047  0.760793  1
  Se  Se23  1  0.239207  0.558953  0.304020  1
  Se  Se24  1  0.304020  0.239207  0.558953  1
  Se  Se25  1  0.558953  0.304020  0.239207  1
  Se  Se26  1  0.500000  0.078196  0.921804  1
  Se  Se27  1  0.921804  0.500000  0.078196  1
  Se  Se28  1  0.078196  0.921804  0.500000  1
  Se  Se29  1  0.000000  0.183035  0.816965  1
  Se  Se30  1  0.816965  0.000000  0.183035  1
  Se  Se31  1  0.183035  0.816965  0.000000  1
  Se  Se32  1  0.827164  0.827164  0.827164  1
  Se  Se33  1  0.172836  0.172836  0.172836  1
