# generated using pymatgen
data_SrDyBO4
_symmetry_space_group_name_H-M   'P 1'
_cell_length_a   3.67878000
_cell_length_b   9.74895800
_cell_length_c   10.98551900
_cell_angle_alpha   90.00000000
_cell_angle_beta   90.00000000
_cell_angle_gamma   90.00000000
_symmetry_Int_Tables_number   1
_chemical_formula_structural   SrDyBO4
_chemical_formula_sum   'Sr4 Dy4 B4 O16'
_cell_volume   393.98763830
_cell_formula_units_Z   4
loop_
 _symmetry_equiv_pos_site_id
 _symmetry_equiv_pos_as_xyz
  1  'x, y, z'
loop_
 _atom_site_type_symbol
 _atom_site_label
 _atom_site_symmetry_multiplicity
 _atom_site_fract_x
 _atom_site_fract_y
 _atom_site_fract_z
 _atom_site_occupancy
  Sr  Sr0  1  0.250000  0.659780  0.083385  1
  Sr  Sr1  1  0.750000  0.340220  0.916615  1
  Sr  Sr2  1  0.750000  0.159780  0.416615  1
  Sr  Sr3  1  0.250000  0.840220  0.583385  1
  Dy  Dy4  1  0.250000  0.081494  0.110988  1
  Dy  Dy5  1  0.750000  0.918506  0.889012  1
  Dy  Dy6  1  0.750000  0.581494  0.389012  1
  Dy  Dy7  1  0.250000  0.418506  0.610988  1
  B  B8  1  0.250000  0.363363  0.204368  1
  B  B9  1  0.750000  0.636637  0.795632  1
  B  B10  1  0.750000  0.863363  0.295632  1
  B  B11  1  0.250000  0.136637  0.704368  1
  O  O12  1  0.250000  0.490204  0.262167  1
  O  O13  1  0.750000  0.509796  0.737833  1
  O  O14  1  0.750000  0.990204  0.237833  1
  O  O15  1  0.250000  0.009796  0.762167  1
  O  O16  1  0.250000  0.241136  0.270533  1
  O  O17  1  0.750000  0.758864  0.729467  1
  O  O18  1  0.750000  0.741136  0.229467  1
  O  O19  1  0.250000  0.258864  0.770533  1
  O  O20  1  0.250000  0.356253  0.076940  1
  O  O21  1  0.750000  0.643747  0.923060  1
  O  O22  1  0.750000  0.856253  0.423060  1
  O  O23  1  0.250000  0.143747  0.576940  1
  O  O24  1  0.250000  0.612425  0.499699  1
  O  O25  1  0.750000  0.387575  0.500301  1
  O  O26  1  0.750000  0.112425  0.000301  1
  O  O27  1  0.250000  0.887575  0.999699  1
