# generated using pymatgen
data_LiHo2BRh5
_symmetry_space_group_name_H-M   'P 1'
_cell_length_a   5.85433266
_cell_length_b   5.79403959
_cell_length_c   5.79403902
_cell_angle_alpha   60.68966539
_cell_angle_beta   59.65517566
_cell_angle_gamma   59.65517718
_symmetry_Int_Tables_number   1
_chemical_formula_structural   LiHo2BRh5
_chemical_formula_sum   'Li1 Ho2 B1 Rh5'
_cell_volume   138.94095365
_cell_formula_units_Z   1
loop_
 _symmetry_equiv_pos_site_id
 _symmetry_equiv_pos_as_xyz
  1  'x, y, z'
loop_
 _atom_site_type_symbol
 _atom_site_label
 _atom_site_symmetry_multiplicity
 _atom_site_fract_x
 _atom_site_fract_y
 _atom_site_fract_z
 _atom_site_occupancy
  Li  Li0  1  0.727393  0.272608  0.272608  1
  Ho  Ho1  1  0.249642  0.250358  0.250358  1
  Ho  Ho2  1  0.749642  0.750358  0.750358  1
  B  B3  1  0.011099  0.988901  0.988901  1
  Rh  Rh4  1  0.252417  0.747584  0.253959  1
  Rh  Rh5  1  0.746040  0.747582  0.253961  1
  Rh  Rh6  1  0.252417  0.253959  0.747584  1
  Rh  Rh7  1  0.746040  0.253961  0.747582  1
  Rh  Rh8  1  0.265309  0.734692  0.734692  1
