# generated using pymatgen
data_Zr3(V2Os)2
_symmetry_space_group_name_H-M   'P 1'
_cell_length_a   5.20346445
_cell_length_b   5.25674843
_cell_length_c   12.74732554
_cell_angle_alpha   90.27800004
_cell_angle_beta   89.61223814
_cell_angle_gamma   120.08487038
_symmetry_Int_Tables_number   1
_chemical_formula_structural   Zr3(V2Os)2
_chemical_formula_sum   'Zr6 V8 Os4'
_cell_volume   301.70109152
_cell_formula_units_Z   2
loop_
 _symmetry_equiv_pos_site_id
 _symmetry_equiv_pos_as_xyz
  1  'x, y, z'
loop_
 _atom_site_type_symbol
 _atom_site_label
 _atom_site_symmetry_multiplicity
 _atom_site_fract_x
 _atom_site_fract_y
 _atom_site_fract_z
 _atom_site_occupancy
  Zr  Zr0  1  0.334512  0.664521  0.917967  1
  Zr  Zr1  1  0.001905  0.001586  0.248015  1
  Zr  Zr2  1  0.667457  0.332931  0.583120  1
  Zr  Zr3  1  0.332543  0.667069  0.666880  1
  Zr  Zr4  1  0.998095  0.998414  0.001984  1
  Zr  Zr5  1  0.665488  0.335479  0.332033  1
  V  V6  1  0.166827  0.334410  0.457268  1
  V  V7  1  0.833173  0.665590  0.792732  1
  V  V8  1  0.334113  0.668588  0.291755  1
  V  V9  1  0.000000  0.000000  0.625000  1
  V  V10  1  0.665887  0.331412  0.958245  1
  V  V11  1  0.000000  0.500000  0.125000  1
  V  V12  1  0.666021  0.833763  0.458076  1
  V  V13  1  0.333979  0.166237  0.791924  1
  Os  Os14  1  0.500000  0.500000  0.125000  1
  Os  Os15  1  0.165865  0.834549  0.458148  1
  Os  Os16  1  0.834135  0.165451  0.791852  1
  Os  Os17  1  0.500000  0.000000  0.125000  1
