# generated using pymatgen
data_Li3Sc(Ta2N3)4
_symmetry_space_group_name_H-M   'P 1'
_cell_length_a   5.25372700
_cell_length_b   5.25372584
_cell_length_c   10.37649900
_cell_angle_alpha   90.00000000
_cell_angle_beta   90.00000000
_cell_angle_gamma   120.00000098
_symmetry_Int_Tables_number   1
_chemical_formula_structural   Li3Sc(Ta2N3)4
_chemical_formula_sum   'Li3 Sc1 Ta8 N12'
_cell_volume   248.03695084
_cell_formula_units_Z   1
loop_
 _symmetry_equiv_pos_site_id
 _symmetry_equiv_pos_as_xyz
  1  'x, y, z'
loop_
 _atom_site_type_symbol
 _atom_site_label
 _atom_site_symmetry_multiplicity
 _atom_site_fract_x
 _atom_site_fract_y
 _atom_site_fract_z
 _atom_site_occupancy
  Li  Li0  1  0.333333  0.666667  0.500000  1
  Li  Li1  1  0.666667  0.333333  0.500000  1
  Li  Li2  1  0.666667  0.333333  0.000000  1
  Sc  Sc3  1  0.333333  0.666667  0.000000  1
  Ta  Ta4  1  0.997725  0.344675  0.252265  1
  Ta  Ta5  1  0.655325  0.002275  0.747735  1
  Ta  Ta6  1  0.346950  0.344675  0.747735  1
  Ta  Ta7  1  0.000000  0.000000  0.500000  1
  Ta  Ta8  1  0.000000  0.000000  0.000000  1
  Ta  Ta9  1  0.655325  0.653050  0.252265  1
  Ta  Ta10  1  0.346950  0.002275  0.252265  1
  Ta  Ta11  1  0.997725  0.653050  0.747735  1
  N  N12  1  0.676836  0.677735  0.623565  1
  N  N13  1  0.675779  0.673886  0.877029  1
  N  N14  1  0.326114  0.324221  0.122971  1
  N  N15  1  0.322265  0.323164  0.376435  1
  N  N16  1  0.326114  0.001893  0.877029  1
  N  N17  1  0.322265  0.999101  0.623565  1
  N  N18  1  0.000899  0.677735  0.376435  1
  N  N19  1  0.998107  0.673886  0.122971  1
  N  N20  1  0.675779  0.001893  0.122971  1
  N  N21  1  0.676836  0.999101  0.376435  1
  N  N22  1  0.998107  0.324221  0.877029  1
  N  N23  1  0.000899  0.323164  0.623565  1
