# generated using pymatgen
data_Ce6NbAl23Tc8
_symmetry_space_group_name_H-M   'P 1'
_cell_length_a   9.00125700
_cell_length_b   9.00125655
_cell_length_c   9.70685000
_cell_angle_alpha   90.00000000
_cell_angle_beta   90.00000000
_cell_angle_gamma   119.99999797
_symmetry_Int_Tables_number   1
_chemical_formula_structural   Ce6NbAl23Tc8
_chemical_formula_sum   'Ce6 Nb1 Al23 Tc8'
_cell_volume   681.10687003
_cell_formula_units_Z   1
loop_
 _symmetry_equiv_pos_site_id
 _symmetry_equiv_pos_as_xyz
  1  'x, y, z'
loop_
 _atom_site_type_symbol
 _atom_site_label
 _atom_site_symmetry_multiplicity
 _atom_site_fract_x
 _atom_site_fract_y
 _atom_site_fract_z
 _atom_site_occupancy
  Ce  Ce0  1  0.805163  0.610325  0.753169  1
  Ce  Ce1  1  0.193749  0.806251  0.247747  1
  Ce  Ce2  1  0.612501  0.806251  0.247747  1
  Ce  Ce3  1  0.389675  0.194837  0.753169  1
  Ce  Ce4  1  0.805163  0.194837  0.753169  1
  Ce  Ce5  1  0.193749  0.387499  0.247747  1
  Nb  Nb6  1  0.333333  0.666667  0.512832  1
  Al  Al7  1  0.666667  0.333333  0.999261  1
  Al  Al8  1  0.666667  0.333333  0.499455  1
  Al  Al9  1  0.333333  0.666667  0.005230  1
  Al  Al10  1  0.157163  0.314326  0.577868  1
  Al  Al11  1  0.685674  0.842837  0.577868  1
  Al  Al12  1  0.157163  0.842837  0.577868  1
  Al  Al13  1  0.838819  0.161181  0.077960  1
  Al  Al14  1  0.838886  0.161114  0.420889  1
  Al  Al15  1  0.838819  0.677638  0.077960  1
  Al  Al16  1  0.322362  0.161181  0.077960  1
  Al  Al17  1  0.678262  0.839131  0.922292  1
  Al  Al18  1  0.160869  0.321738  0.922292  1
  Al  Al19  1  0.838886  0.677772  0.420889  1
  Al  Al20  1  0.000000  0.000000  0.249379  1
  Al  Al21  1  0.000000  0.000000  0.750218  1
  Al  Al22  1  0.562135  0.124271  0.247957  1
  Al  Al23  1  0.439492  0.560508  0.751523  1
  Al  Al24  1  0.121016  0.560508  0.751523  1
  Al  Al25  1  0.875729  0.437865  0.247957  1
  Al  Al26  1  0.562135  0.437865  0.247957  1
  Al  Al27  1  0.439492  0.878984  0.751523  1
  Al  Al28  1  0.160869  0.839131  0.922292  1
  Al  Al29  1  0.322228  0.161114  0.420889  1
  Tc  Tc30  1  0.000000  0.000000  0.498893  1
  Tc  Tc31  1  0.000000  0.000000  0.000265  1
  Tc  Tc32  1  0.498632  0.997263  0.497644  1
  Tc  Tc33  1  0.499772  0.500228  0.997775  1
  Tc  Tc34  1  0.000455  0.500228  0.997775  1
  Tc  Tc35  1  0.002737  0.501368  0.497644  1
  Tc  Tc36  1  0.498632  0.501368  0.497644  1
  Tc  Tc37  1  0.499772  0.999545  0.997775  1
