# generated using pymatgen
data_YbEu7ThPt6
_symmetry_space_group_name_H-M   'P 1'
_cell_length_a   7.86489424
_cell_length_b   7.86489413
_cell_length_c   7.86489475
_cell_angle_alpha   69.35594711
_cell_angle_beta   69.35594615
_cell_angle_gamma   69.35595505
_symmetry_Int_Tables_number   1
_chemical_formula_structural   YbEu7ThPt6
_chemical_formula_sum   'Yb1 Eu7 Th1 Pt6'
_cell_volume   411.29665722
_cell_formula_units_Z   1
loop_
 _symmetry_equiv_pos_site_id
 _symmetry_equiv_pos_as_xyz
  1  'x, y, z'
loop_
 _atom_site_type_symbol
 _atom_site_label
 _atom_site_symmetry_multiplicity
 _atom_site_fract_x
 _atom_site_fract_y
 _atom_site_fract_z
 _atom_site_occupancy
  Yb  Yb0  1  0.003376  0.003376  0.003376  1
  Eu  Eu1  1  0.196014  0.196014  0.196014  1
  Eu  Eu2  1  0.333306  0.603298  0.847772  1
  Eu  Eu3  1  0.847772  0.333306  0.603298  1
  Eu  Eu4  1  0.603298  0.847772  0.333306  1
  Eu  Eu5  1  0.668020  0.392294  0.153204  1
  Eu  Eu6  1  0.153204  0.668020  0.392294  1
  Eu  Eu7  1  0.392294  0.153204  0.668020  1
  Th  Th8  1  0.809028  0.809028  0.809028  1
  Pt  Pt9  1  0.149842  0.951546  0.602896  1
  Pt  Pt10  1  0.602896  0.149842  0.951546  1
  Pt  Pt11  1  0.951546  0.602896  0.149842  1
  Pt  Pt12  1  0.828618  0.036123  0.424664  1
  Pt  Pt13  1  0.424664  0.828618  0.036123  1
  Pt  Pt14  1  0.036123  0.424664  0.828618  1
