# generated using pymatgen
data_Zr3Nb5(GaC3)2
_symmetry_space_group_name_H-M   'P 1'
_cell_length_a   3.22870700
_cell_length_b   3.22870824
_cell_length_c   24.37701800
_cell_angle_alpha   90.00000000
_cell_angle_beta   90.00000000
_cell_angle_gamma   119.99997708
_symmetry_Int_Tables_number   1
_chemical_formula_structural   Zr3Nb5(GaC3)2
_chemical_formula_sum   'Zr3 Nb5 Ga2 C6'
_cell_volume   220.07400494
_cell_formula_units_Z   1
loop_
 _symmetry_equiv_pos_site_id
 _symmetry_equiv_pos_as_xyz
  1  'x, y, z'
loop_
 _atom_site_type_symbol
 _atom_site_label
 _atom_site_symmetry_multiplicity
 _atom_site_fract_x
 _atom_site_fract_y
 _atom_site_fract_z
 _atom_site_occupancy
  Zr  Zr0  1  0.666667  0.333333  0.554079  1
  Zr  Zr1  1  0.666667  0.333333  0.944368  1
  Zr  Zr2  1  0.333333  0.666667  0.056096  1
  Nb  Nb3  1  0.000000  0.000000  0.341375  1
  Nb  Nb4  1  0.000000  0.000000  0.660899  1
  Nb  Nb5  1  0.000000  0.000000  0.837197  1
  Nb  Nb6  1  0.000000  0.000000  0.163729  1
  Nb  Nb7  1  0.333333  0.666667  0.442825  1
  Ga  Ga8  1  0.333333  0.666667  0.251946  1
  Ga  Ga9  1  0.666667  0.333333  0.749101  1
  C  C10  1  0.000000  0.000000  0.495804  1
  C  C11  1  0.000000  0.000000  0.000264  1
  C  C12  1  0.666667  0.333333  0.389145  1
  C  C13  1  0.333333  0.666667  0.612582  1
  C  C14  1  0.333333  0.666667  0.884462  1
  C  C15  1  0.666667  0.333333  0.116130  1
