# generated using pymatgen
data_HoAl2(Fe3Re2)2
_symmetry_space_group_name_H-M   'P 1'
_cell_length_a   6.57364539
_cell_length_b   6.57364541
_cell_length_c   6.57364448
_cell_angle_alpha   137.49984022
_cell_angle_beta   96.90363380
_cell_angle_gamma   98.19397322
_symmetry_Int_Tables_number   1
_chemical_formula_structural   HoAl2(Fe3Re2)2
_chemical_formula_sum   'Ho1 Al2 Fe6 Re4'
_cell_volume   178.84915402
_cell_formula_units_Z   1
loop_
 _symmetry_equiv_pos_site_id
 _symmetry_equiv_pos_as_xyz
  1  'x, y, z'
loop_
 _atom_site_type_symbol
 _atom_site_label
 _atom_site_symmetry_multiplicity
 _atom_site_fract_x
 _atom_site_fract_y
 _atom_site_fract_z
 _atom_site_occupancy
  Ho  Ho0  1  0.000000  0.000000  0.000000  1
  Al  Al1  1  0.792541  0.292541  0.500000  1
  Al  Al2  1  0.207459  0.707459  0.500000  1
  Fe  Fe3  1  0.500000  0.000000  0.000000  1
  Fe  Fe4  1  0.500000  0.500000  0.500000  1
  Fe  Fe5  1  0.000000  0.000000  0.500000  1
  Fe  Fe6  1  0.000000  0.500000  0.000000  1
  Fe  Fe7  1  0.226653  0.500000  0.726653  1
  Fe  Fe8  1  0.773347  0.500000  0.273347  1
  Re  Re9  1  0.356790  0.356790  0.000000  1
  Re  Re10  1  0.643210  0.643210  0.000000  1
  Re  Re11  1  0.641100  0.000000  0.641100  1
  Re  Re12  1  0.358900  0.000000  0.358900  1
