# generated using pymatgen
data_La2Pr(InHg2)3
_symmetry_space_group_name_H-M   'P 1'
_cell_length_a   5.21661416
_cell_length_b   7.50333500
_cell_length_c   15.93082900
_cell_angle_alpha   90.00000000
_cell_angle_beta   89.96185490
_cell_angle_gamma   90.00000000
_symmetry_Int_Tables_number   1
_chemical_formula_structural   La2Pr(InHg2)3
_chemical_formula_sum   'La4 Pr2 In6 Hg12'
_cell_volume   623.56442754
_cell_formula_units_Z   2
loop_
 _symmetry_equiv_pos_site_id
 _symmetry_equiv_pos_as_xyz
  1  'x, y, z'
loop_
 _atom_site_type_symbol
 _atom_site_label
 _atom_site_symmetry_multiplicity
 _atom_site_fract_x
 _atom_site_fract_y
 _atom_site_fract_z
 _atom_site_occupancy
  La  La0  1  0.001246  0.000000  0.000408  1
  La  La1  1  0.500565  0.500000  0.166866  1
  La  La2  1  0.999560  0.000000  0.333105  1
  La  La3  1  0.499694  0.500000  0.499619  1
  Pr  Pr4  1  0.000247  0.000000  0.666278  1
  Pr  Pr5  1  0.499678  0.500000  0.833619  1
  In  In6  1  0.999859  0.500000  0.000239  1
  In  In7  1  0.499968  0.000000  0.166807  1
  In  In8  1  0.999946  0.500000  0.333217  1
  In  In9  1  0.500138  0.000000  0.499856  1
  In  In10  1  0.000405  0.500000  0.666740  1
  In  In11  1  0.499447  0.000000  0.833282  1
  Hg  Hg12  1  0.500120  0.251884  0.000325  1
  Hg  Hg13  1  0.500120  0.748115  0.000325  1
  Hg  Hg14  1  0.000051  0.248012  0.166643  1
  Hg  Hg15  1  0.000051  0.751989  0.166643  1
  Hg  Hg16  1  0.499773  0.251943  0.333370  1
  Hg  Hg17  1  0.499773  0.748056  0.333370  1
  Hg  Hg18  1  0.999922  0.248268  0.499651  1
  Hg  Hg19  1  0.999922  0.751732  0.499651  1
  Hg  Hg20  1  0.500090  0.252061  0.666317  1
  Hg  Hg21  1  0.500090  0.747938  0.666317  1
  Hg  Hg22  1  0.999661  0.247947  0.833675  1
  Hg  Hg23  1  0.999661  0.752054  0.833675  1
