# generated using pymatgen
data_TbLu9In8(NiAu)2
_symmetry_space_group_name_H-M   'P 1'
_cell_length_a   3.57240400
_cell_length_b   8.00980125
_cell_length_c   17.90220809
_cell_angle_alpha   89.86781195
_cell_angle_beta   90.00000000
_cell_angle_gamma   90.00000000
_symmetry_Int_Tables_number   1
_chemical_formula_structural   TbLu9In8(NiAu)2
_chemical_formula_sum   'Tb1 Lu9 In8 Ni2 Au2'
_cell_volume   512.25682365
_cell_formula_units_Z   1
loop_
 _symmetry_equiv_pos_site_id
 _symmetry_equiv_pos_as_xyz
  1  'x, y, z'
loop_
 _atom_site_type_symbol
 _atom_site_label
 _atom_site_symmetry_multiplicity
 _atom_site_fract_x
 _atom_site_fract_y
 _atom_site_fract_z
 _atom_site_occupancy
  Tb  Tb0  1  0.000000  0.000000  0.500000  1
  Lu  Lu1  1  0.000000  0.879181  0.081084  1
  Lu  Lu2  1  0.000000  0.739531  0.282893  1
  Lu  Lu3  1  0.000000  0.726919  0.776120  1
  Lu  Lu4  1  0.000000  0.385743  0.411801  1
  Lu  Lu5  1  0.000000  0.120819  0.918916  1
  Lu  Lu6  1  0.000000  0.260469  0.717107  1
  Lu  Lu7  1  0.000000  0.500000  0.000000  1
  Lu  Lu8  1  0.000000  0.273081  0.223880  1
  Lu  Lu9  1  0.000000  0.614257  0.588199  1
  In  In10  1  0.500000  0.209852  0.066550  1
  In  In11  1  0.500000  0.426798  0.849548  1
  In  In12  1  0.500000  0.573202  0.150452  1
  In  In13  1  0.500000  0.080557  0.352104  1
  In  In14  1  0.500000  0.919443  0.647896  1
  In  In15  1  0.500000  0.790148  0.933450  1
  In  In16  1  0.500000  0.702973  0.433013  1
  In  In17  1  0.500000  0.297027  0.566987  1
  Ni  Ni18  1  0.500000  0.524968  0.696210  1
  Ni  Ni19  1  0.500000  0.475032  0.303790  1
  Au  Au20  1  0.500000  0.972767  0.198270  1
  Au  Au21  1  0.500000  0.027233  0.801730  1
