# generated using pymatgen
data_YHoCo2(P3Ir4)2
_symmetry_space_group_name_H-M   'P 1'
_cell_length_a   3.93273900
_cell_length_b   10.72749700
_cell_length_c   12.39265300
_cell_angle_alpha   90.00000000
_cell_angle_beta   90.00000000
_cell_angle_gamma   90.00000000
_symmetry_Int_Tables_number   1
_chemical_formula_structural   YHoCo2(P3Ir4)2
_chemical_formula_sum   'Y2 Ho2 Co4 P12 Ir16'
_cell_volume   522.82676971
_cell_formula_units_Z   2
loop_
 _symmetry_equiv_pos_site_id
 _symmetry_equiv_pos_as_xyz
  1  'x, y, z'
loop_
 _atom_site_type_symbol
 _atom_site_label
 _atom_site_symmetry_multiplicity
 _atom_site_fract_x
 _atom_site_fract_y
 _atom_site_fract_z
 _atom_site_occupancy
  Y  Y0  1  0.250000  0.585801  0.709478  1
  Y  Y1  1  0.250000  0.914199  0.209478  1
  Ho  Ho2  1  0.750000  0.414087  0.290573  1
  Ho  Ho3  1  0.750000  0.085913  0.790573  1
  Co  Co4  1  0.250000  0.462282  0.934022  1
  Co  Co5  1  0.250000  0.037718  0.434022  1
  Co  Co6  1  0.750000  0.537419  0.066276  1
  Co  Co7  1  0.750000  0.962581  0.566276  1
  P  P8  1  0.250000  0.425983  0.105621  1
  P  P9  1  0.250000  0.074017  0.605621  1
  P  P10  1  0.750000  0.573980  0.894686  1
  P  P11  1  0.750000  0.926020  0.394686  1
  P  P12  1  0.250000  0.271457  0.871343  1
  P  P13  1  0.250000  0.228543  0.371343  1
  P  P14  1  0.750000  0.728247  0.128356  1
  P  P15  1  0.750000  0.771753  0.628356  1
  P  P16  1  0.250000  0.594578  0.385074  1
  P  P17  1  0.250000  0.905422  0.885074  1
  P  P18  1  0.750000  0.405202  0.614791  1
  P  P19  1  0.750000  0.094798  0.114791  1
  Ir  Ir20  1  0.250000  0.721686  0.981983  1
  Ir  Ir21  1  0.250000  0.778314  0.481983  1
  Ir  Ir22  1  0.750000  0.278312  0.018085  1
  Ir  Ir23  1  0.750000  0.221688  0.518085  1
  Ir  Ir24  1  0.250000  0.407666  0.477868  1
  Ir  Ir25  1  0.250000  0.092334  0.977868  1
  Ir  Ir26  1  0.750000  0.592132  0.521201  1
  Ir  Ir27  1  0.750000  0.907868  0.021201  1
  Ir  Ir28  1  0.250000  0.231972  0.179490  1
  Ir  Ir29  1  0.250000  0.268028  0.679490  1
  Ir  Ir30  1  0.750000  0.768695  0.820784  1
  Ir  Ir31  1  0.750000  0.731305  0.320784  1
  Ir  Ir32  1  0.250000  0.886952  0.699514  1
  Ir  Ir33  1  0.250000  0.613048  0.199514  1
  Ir  Ir34  1  0.750000  0.114040  0.300853  1
  Ir  Ir35  1  0.750000  0.385960  0.800853  1
