# generated using pymatgen
data_YbEu2LuSb3
_symmetry_space_group_name_H-M   'P 1'
_cell_length_a   8.03027642
_cell_length_b   8.23854842
_cell_length_c   8.28606300
_cell_angle_alpha   110.15092183
_cell_angle_beta   108.96526689
_cell_angle_gamma   108.90047220
_symmetry_Int_Tables_number   1
_chemical_formula_structural   YbEu2LuSb3
_chemical_formula_sum   'Yb2 Eu4 Lu2 Sb6'
_cell_volume   424.00194334
_cell_formula_units_Z   2
loop_
 _symmetry_equiv_pos_site_id
 _symmetry_equiv_pos_as_xyz
  1  'x, y, z'
loop_
 _atom_site_type_symbol
 _atom_site_label
 _atom_site_symmetry_multiplicity
 _atom_site_fract_x
 _atom_site_fract_y
 _atom_site_fract_z
 _atom_site_occupancy
  Yb  Yb0  1  0.855807  0.854832  0.855296  1
  Yb  Yb1  1  0.000975  0.145168  0.500464  1
  Eu  Eu2  1  0.499372  0.996951  0.642426  1
  Eu  Eu3  1  0.357122  0.354562  0.357043  1
  Eu  Eu4  1  0.502420  0.003049  0.145475  1
  Eu  Eu5  1  0.002559  0.645438  0.502479  1
  Lu  Lu6  1  0.142646  0.501320  0.002313  1
  Lu  Lu7  1  0.641326  0.498680  0.000992  1
  Sb  Sb8  1  0.379233  0.617807  0.762450  1
  Sb  Sb9  1  0.877835  0.259526  0.117262  1
  Sb  Sb10  1  0.618307  0.740474  0.357736  1
  Sb  Sb11  1  0.110210  0.859448  0.235435  1
  Sb  Sb12  1  0.250763  0.140552  0.875987  1
  Sb  Sb13  1  0.761426  0.382193  0.644643  1
