# generated using pymatgen
data_Ti3GaTc3As2
_symmetry_space_group_name_H-M   'P 1'
_cell_length_a   3.37946800
_cell_length_b   6.83582288
_cell_length_c   6.83582334
_cell_angle_alpha   59.99221895
_cell_angle_beta   90.00000000
_cell_angle_gamma   90.00000000
_symmetry_Int_Tables_number   1
_chemical_formula_structural   Ti3GaTc3As2
_chemical_formula_sum   'Ti3 Ga1 Tc3 As2'
_cell_volume   136.74975122
_cell_formula_units_Z   1
loop_
 _symmetry_equiv_pos_site_id
 _symmetry_equiv_pos_as_xyz
  1  'x, y, z'
loop_
 _atom_site_type_symbol
 _atom_site_label
 _atom_site_symmetry_multiplicity
 _atom_site_fract_x
 _atom_site_fract_y
 _atom_site_fract_z
 _atom_site_occupancy
  Ti  Ti0  1  0.500000  0.597844  0.402156  1
  Ti  Ti1  1  0.500000  0.402113  0.999872  1
  Ti  Ti2  1  0.500000  0.000128  0.597887  1
  Ga  Ga3  1  0.500000  0.999866  0.000134  1
  Tc  Tc4  1  0.000000  0.263744  0.736256  1
  Tc  Tc5  1  0.000000  0.736117  0.999987  1
  Tc  Tc6  1  0.000000  0.000013  0.263883  1
  As  As7  1  0.000000  0.333413  0.333336  1
  As  As8  1  0.000000  0.666664  0.666587  1
