# generated using pymatgen
data_K8Nb3V4Sn(PO5)8
_symmetry_space_group_name_H-M   'P 1'
_cell_length_a   6.55366600
_cell_length_b   10.94595500
_cell_length_c   13.15462500
_cell_angle_alpha   90.00000000
_cell_angle_beta   90.00000000
_cell_angle_gamma   90.00000000
_symmetry_Int_Tables_number   1
_chemical_formula_structural   K8Nb3V4Sn(PO5)8
_chemical_formula_sum   'K8 Nb3 V4 Sn1 P8 O40'
_cell_volume   943.66193016
_cell_formula_units_Z   1
loop_
 _symmetry_equiv_pos_site_id
 _symmetry_equiv_pos_as_xyz
  1  'x, y, z'
loop_
 _atom_site_type_symbol
 _atom_site_label
 _atom_site_symmetry_multiplicity
 _atom_site_fract_x
 _atom_site_fract_y
 _atom_site_fract_z
 _atom_site_occupancy
  K  K0  1  0.719948  0.302690  0.872408  1
  K  K1  1  0.279777  0.802223  0.126128  1
  K  K2  1  0.225887  0.804304  0.626317  1
  K  K3  1  0.778712  0.301443  0.374236  1
  K  K4  1  0.802880  0.054727  0.607338  1
  K  K5  1  0.196109  0.564747  0.395791  1
  K  K6  1  0.303705  0.569379  0.894657  1
  K  K7  1  0.689687  0.064476  0.103727  1
  Nb  Nb8  1  0.994235  0.502336  0.130082  1
  Nb  Nb9  1  0.504630  0.503538  0.632149  1
  Nb  Nb10  1  0.494181  0.002269  0.369679  1
  V  V11  1  0.236910  0.246779  0.746027  1
  V  V12  1  0.751714  0.751003  0.253496  1
  V  V13  1  0.758556  0.759542  0.753936  1
  V  V14  1  0.252138  0.250748  0.245831  1
  Sn  Sn15  1  0.004440  0.999921  0.876277  1
  P  P16  1  0.001798  0.505052  0.684372  1
  P  P17  1  0.998058  0.004391  0.316493  1
  P  P18  1  0.498510  0.006789  0.819476  1
  P  P19  1  0.498042  0.504030  0.182687  1
  P  P20  1  0.164159  0.253815  0.996562  1
  P  P21  1  0.835864  0.756128  0.002319  1
  P  P22  1  0.664990  0.753114  0.500828  1
  P  P23  1  0.338128  0.255543  0.498642  1
  O  O24  1  0.447466  0.375445  0.723921  1
  O  O25  1  0.540084  0.880775  0.274663  1
  O  O26  1  0.970855  0.880341  0.764490  1
  O  O27  1  0.040560  0.379534  0.224223  1
  O  O28  1  0.029177  0.371016  0.008798  1
  O  O29  1  0.971658  0.875210  0.995068  1
  O  O30  1  0.529296  0.870818  0.488790  1
  O  O31  1  0.471345  0.373611  0.509813  1
  O  O32  1  0.299840  0.231866  0.090449  1
  O  O33  1  0.701552  0.738412  0.908057  1
  O  O34  1  0.797755  0.730966  0.405540  1
  O  O35  1  0.201620  0.235953  0.593428  1
  O  O36  1  0.042646  0.392077  0.751716  1
  O  O37  1  0.963047  0.891037  0.249366  1
  O  O38  1  0.540181  0.895841  0.750315  1
  O  O39  1  0.462663  0.390838  0.250098  1
  O  O40  1  0.538723  0.626853  0.726690  1
  O  O41  1  0.466668  0.127425  0.273969  1
  O  O42  1  0.037687  0.143585  0.770266  1
  O  O43  1  0.966795  0.626067  0.225917  1
  O  O44  1  0.967911  0.616297  0.753540  1
  O  O45  1  0.030599  0.117170  0.247738  1
  O  O46  1  0.455568  0.118164  0.748415  1
  O  O47  1  0.529641  0.616950  0.251138  1
  O  O48  1  0.811696  0.478233  0.615400  1
  O  O49  1  0.186579  0.981814  0.387379  1
  O  O50  1  0.319490  0.981482  0.894335  1
  O  O51  1  0.686726  0.481026  0.111948  1
  O  O52  1  0.298100  0.270228  0.900085  1
  O  O53  1  0.700700  0.771285  0.098267  1
  O  O54  1  0.803088  0.771018  0.594392  1
  O  O55  1  0.201072  0.271431  0.403404  1
  O  O56  1  0.186978  0.531067  0.612308  1
  O  O57  1  0.811948  0.030130  0.388035  1
  O  O58  1  0.685463  0.039951  0.888137  1
  O  O59  1  0.311970  0.529224  0.110921  1
  O  O60  1  0.010126  0.144576  0.982755  1
  O  O61  1  0.987703  0.646699  0.015230  1
  O  O62  1  0.514159  0.642968  0.515702  1
  O  O63  1  0.487806  0.145237  0.485838  1
