# generated using pymatgen
data_La4Nd4Cd2OsPd
_symmetry_space_group_name_H-M   'P 1'
_cell_length_a   10.06959972
_cell_length_b   10.06960087
_cell_length_c   10.20268700
_cell_angle_alpha   59.56182928
_cell_angle_beta   59.56182543
_cell_angle_gamma   59.81500297
_symmetry_Int_Tables_number   1
_chemical_formula_structural   La4Nd4Cd2OsPd
_chemical_formula_sum   'La8 Nd8 Cd4 Os2 Pd2'
_cell_volume   725.62629562
_cell_formula_units_Z   2
loop_
 _symmetry_equiv_pos_site_id
 _symmetry_equiv_pos_as_xyz
  1  'x, y, z'
loop_
 _atom_site_type_symbol
 _atom_site_label
 _atom_site_symmetry_multiplicity
 _atom_site_fract_x
 _atom_site_fract_y
 _atom_site_fract_z
 _atom_site_occupancy
  La  La0  1  0.346164  0.346164  0.357850  1
  La  La1  1  0.346164  0.346164  0.949821  1
  La  La2  1  0.344579  0.956919  0.349251  1
  La  La3  1  0.956919  0.344579  0.349251  1
  La  La4  1  0.818109  0.188954  0.190206  1
  La  La5  1  0.188954  0.818109  0.802733  1
  La  La6  1  0.188954  0.818109  0.190206  1
  La  La7  1  0.818109  0.188954  0.802733  1
  Nd  Nd8  1  0.191079  0.191079  0.808921  1
  Nd  Nd9  1  0.803962  0.803962  0.196038  1
  Nd  Nd10  1  0.935188  0.559587  0.567489  1
  Nd  Nd11  1  0.559587  0.935188  0.937735  1
  Nd  Nd12  1  0.559587  0.935188  0.567489  1
  Nd  Nd13  1  0.935188  0.559587  0.937735  1
  Nd  Nd14  1  0.564230  0.564230  0.935770  1
  Nd  Nd15  1  0.937241  0.937241  0.562759  1
  Cd  Cd16  1  0.580869  0.580869  0.579225  1
  Cd  Cd17  1  0.580869  0.580869  0.259037  1
  Cd  Cd18  1  0.579027  0.257667  0.581654  1
  Cd  Cd19  1  0.257667  0.579027  0.581654  1
  Os  Os20  1  0.141824  0.141824  0.140484  1
  Os  Os21  1  0.141824  0.141824  0.575868  1
  Pd  Pd22  1  0.147949  0.575958  0.138045  1
  Pd  Pd23  1  0.575958  0.147949  0.138045  1
