# generated using pymatgen
data_Ac8Cd2CoOs
_symmetry_space_group_name_H-M   'P 1'
_cell_length_a   10.57345049
_cell_length_b   10.47000117
_cell_length_c   10.47000070
_cell_angle_alpha   59.51789735
_cell_angle_beta   59.67261127
_cell_angle_gamma   59.67261230
_symmetry_Int_Tables_number   1
_chemical_formula_structural   Ac8Cd2CoOs
_chemical_formula_sum   'Ac16 Cd4 Co2 Os2'
_cell_volume   812.52477877
_cell_formula_units_Z   2
loop_
 _symmetry_equiv_pos_site_id
 _symmetry_equiv_pos_as_xyz
  1  'x, y, z'
loop_
 _atom_site_type_symbol
 _atom_site_label
 _atom_site_symmetry_multiplicity
 _atom_site_fract_x
 _atom_site_fract_y
 _atom_site_fract_z
 _atom_site_occupancy
  Ac  Ac0  1  0.940514  0.939550  0.556372  1
  Ac  Ac1  1  0.810284  0.189716  0.189716  1
  Ac  Ac2  1  0.937506  0.562494  0.562494  1
  Ac  Ac3  1  0.940514  0.556372  0.939550  1
  Ac  Ac4  1  0.813054  0.807937  0.188643  1
  Ac  Ac5  1  0.341258  0.346554  0.346554  1
  Ac  Ac6  1  0.556998  0.943002  0.943002  1
  Ac  Ac7  1  0.563564  0.939550  0.556372  1
  Ac  Ac8  1  0.190545  0.809455  0.809455  1
  Ac  Ac9  1  0.190367  0.188643  0.807937  1
  Ac  Ac10  1  0.343650  0.349284  0.963417  1
  Ac  Ac11  1  0.343650  0.963417  0.349284  1
  Ac  Ac12  1  0.813054  0.188643  0.807937  1
  Ac  Ac13  1  0.563564  0.556372  0.939550  1
  Ac  Ac14  1  0.190367  0.807937  0.188643  1
  Ac  Ac15  1  0.965634  0.346554  0.346554  1
  Cd  Cd16  1  0.579121  0.576872  0.264887  1
  Cd  Cd17  1  0.264410  0.577845  0.577845  1
  Cd  Cd18  1  0.579902  0.577845  0.577845  1
  Cd  Cd19  1  0.579121  0.264887  0.576872  1
  Co  Co20  1  0.136850  0.584305  0.141997  1
  Co  Co21  1  0.136850  0.141997  0.584305  1
  Os  Os22  1  0.581710  0.140386  0.140386  1
  Os  Os23  1  0.137520  0.140386  0.140386  1
