# generated using pymatgen
data_Yb6CeCo4Sn13
_symmetry_space_group_name_H-M   'P 1'
_cell_length_a   11.15061900
_cell_length_b   11.15061900
_cell_length_c   4.62831500
_cell_angle_alpha   90.00000000
_cell_angle_beta   90.00000000
_cell_angle_gamma   90.00000000
_symmetry_Int_Tables_number   1
_chemical_formula_structural   Yb6CeCo4Sn13
_chemical_formula_sum   'Yb6 Ce1 Co4 Sn13'
_cell_volume   575.46758123
_cell_formula_units_Z   1
loop_
 _symmetry_equiv_pos_site_id
 _symmetry_equiv_pos_as_xyz
  1  'x, y, z'
loop_
 _atom_site_type_symbol
 _atom_site_label
 _atom_site_symmetry_multiplicity
 _atom_site_fract_x
 _atom_site_fract_y
 _atom_site_fract_z
 _atom_site_occupancy
  Yb  Yb0  1  0.337883  0.670097  0.500000  1
  Yb  Yb1  1  0.662117  0.329903  0.500000  1
  Yb  Yb2  1  0.329903  0.337883  0.500000  1
  Yb  Yb3  1  0.670097  0.662117  0.500000  1
  Yb  Yb4  1  0.500000  0.000000  0.500000  1
  Yb  Yb5  1  0.000000  0.500000  0.500000  1
  Ce  Ce6  1  0.000000  0.000000  0.000000  1
  Co  Co7  1  0.118744  0.725519  0.000000  1
  Co  Co8  1  0.881256  0.274481  0.000000  1
  Co  Co9  1  0.274481  0.118744  0.000000  1
  Co  Co10  1  0.725519  0.881256  0.000000  1
  Sn  Sn11  1  0.283728  0.888383  0.000000  1
  Sn  Sn12  1  0.716272  0.111617  0.000000  1
  Sn  Sn13  1  0.111617  0.283728  0.000000  1
  Sn  Sn14  1  0.888383  0.716272  0.000000  1
  Sn  Sn15  1  0.077791  0.805356  0.500000  1
  Sn  Sn16  1  0.922209  0.194644  0.500000  1
  Sn  Sn17  1  0.194644  0.077791  0.500000  1
  Sn  Sn18  1  0.805356  0.922209  0.500000  1
  Sn  Sn19  1  0.520990  0.786478  0.000000  1
  Sn  Sn20  1  0.479010  0.213522  0.000000  1
  Sn  Sn21  1  0.213522  0.520990  0.000000  1
  Sn  Sn22  1  0.786478  0.479010  0.000000  1
  Sn  Sn23  1  0.500000  0.500000  0.000000  1
