# generated using pymatgen
data_Er3Tm2In2Bi
_symmetry_space_group_name_H-M   'P 1'
_cell_length_a   6.55551900
_cell_length_b   8.96062104
_cell_length_c   8.92464000
_cell_angle_alpha   119.86376585
_cell_angle_beta   90.00144995
_cell_angle_gamma   89.99823967
_symmetry_Int_Tables_number   1
_chemical_formula_structural   Er3Tm2In2Bi
_chemical_formula_sum   'Er6 Tm4 In4 Bi2'
_cell_volume   454.63313700
_cell_formula_units_Z   2
loop_
 _symmetry_equiv_pos_site_id
 _symmetry_equiv_pos_as_xyz
  1  'x, y, z'
loop_
 _atom_site_type_symbol
 _atom_site_label
 _atom_site_symmetry_multiplicity
 _atom_site_fract_x
 _atom_site_fract_y
 _atom_site_fract_z
 _atom_site_occupancy
  Er  Er0  1  0.750002  0.228329  0.990770  1
  Er  Er1  1  0.750014  0.771528  0.762384  1
  Er  Er2  1  0.750036  0.999966  0.239089  1
  Er  Er3  1  0.250004  0.765232  0.000471  1
  Er  Er4  1  0.249958  0.234904  0.235299  1
  Er  Er5  1  0.250003  0.000048  0.763188  1
  Tm  Tm6  1  0.492898  0.328795  0.667264  1
  Tm  Tm7  1  0.492885  0.671213  0.338465  1
  Tm  Tm8  1  0.007102  0.671208  0.338467  1
  Tm  Tm9  1  0.007107  0.328795  0.667276  1
  In  In10  1  0.749999  0.999979  0.595587  1
  In  In11  1  0.250019  0.398175  0.003186  1
  In  In12  1  0.249989  0.601874  0.605031  1
  In  In13  1  0.249985  0.000017  0.397994  1
  Bi  Bi14  1  0.749997  0.603753  0.999686  1
  Bi  Bi15  1  0.750001  0.396183  0.395845  1
