# generated using pymatgen
data_Rb2V(Si2O5)3
_symmetry_space_group_name_H-M   'P 1'
_cell_length_a   7.07966287
_cell_length_b   7.33731378
_cell_length_c   7.61312511
_cell_angle_alpha   100.29704880
_cell_angle_beta   104.66714007
_cell_angle_gamma   112.65362486
_symmetry_Int_Tables_number   1
_chemical_formula_structural   Rb2V(Si2O5)3
_chemical_formula_sum   'Rb2 V1 Si6 O15'
_cell_volume   335.73526930
_cell_formula_units_Z   1
loop_
 _symmetry_equiv_pos_site_id
 _symmetry_equiv_pos_as_xyz
  1  'x, y, z'
loop_
 _atom_site_type_symbol
 _atom_site_label
 _atom_site_symmetry_multiplicity
 _atom_site_fract_x
 _atom_site_fract_y
 _atom_site_fract_z
 _atom_site_occupancy
  Rb  Rb0  1  0.297498  0.716811  0.822398  1
  Rb  Rb1  1  0.702502  0.283189  0.177602  1
  V  V2  1  0.000000  0.000000  0.000000  1
  Si  Si3  1  0.709527  0.815286  0.265252  1
  Si  Si4  1  0.290473  0.184714  0.734748  1
  Si  Si5  1  0.151579  0.833915  0.360612  1
  Si  Si6  1  0.848421  0.166085  0.639388  1
  Si  Si7  1  0.325097  0.497849  0.311045  1
  Si  Si8  1  0.674903  0.502151  0.688955  1
  O  O9  1  0.468957  0.607337  0.185394  1
  O  O10  1  0.531043  0.392663  0.814606  1
  O  O11  1  0.211508  0.640756  0.381687  1
  O  O12  1  0.788492  0.359244  0.618313  1
  O  O13  1  0.864715  0.731541  0.814649  1
  O  O14  1  0.135285  0.268459  0.185351  1
  O  O15  1  0.895109  0.741656  0.354974  1
  O  O16  1  0.104891  0.258344  0.645026  1
  O  O17  1  0.751050  0.909923  0.095883  1
  O  O18  1  0.500000  0.500000  0.500000  1
  O  O19  1  0.301831  0.018355  0.566439  1
  O  O20  1  0.698169  0.981645  0.433561  1
  O  O21  1  0.825241  0.095769  0.823681  1
  O  O22  1  0.174759  0.904231  0.176319  1
  O  O23  1  0.248950  0.090077  0.904117  1
