# generated using pymatgen
data_PtS23
_symmetry_space_group_name_H-M   'P 1'
_cell_length_a   5.50516713
_cell_length_b   9.47704113
_cell_length_c   15.28837100
_cell_angle_alpha   89.43707157
_cell_angle_beta   85.89415028
_cell_angle_gamma   90.52197322
_symmetry_Int_Tables_number   1
_chemical_formula_structural   PtS23
_chemical_formula_sum   'Pt1 S23'
_cell_volume   795.51146513
_cell_formula_units_Z   1
loop_
 _symmetry_equiv_pos_site_id
 _symmetry_equiv_pos_as_xyz
  1  'x, y, z'
loop_
 _atom_site_type_symbol
 _atom_site_label
 _atom_site_symmetry_multiplicity
 _atom_site_fract_x
 _atom_site_fract_y
 _atom_site_fract_z
 _atom_site_occupancy
  Pt  Pt0  1  0.449086  0.252008  0.438424  1
  S  S1  1  0.515983  0.801711  0.395515  1
  S  S2  1  0.991918  0.304700  0.111083  1
  S  S3  1  0.790628  0.209855  0.512327  1
  S  S4  1  0.301861  0.767584  0.510160  1
  S  S5  1  0.194098  0.261207  0.995712  1
  S  S6  1  0.795713  0.738181  0.006020  1
  S  S7  1  0.325805  0.317564  0.315080  1
  S  S8  1  0.670347  0.612666  0.356070  1
  S  S9  1  0.793305  0.126740  0.150690  1
  S  S10  1  0.204537  0.870282  0.135285  1
  S  S11  1  0.717948  0.633934  0.637945  1
  S  S12  1  0.307385  0.389615  0.629648  1
  S  S13  1  0.205653  0.875023  0.856739  1
  S  S14  1  0.791734  0.130400  0.863032  1
  S  S15  1  0.999676  0.693198  0.110789  1
  S  S16  1  0.510962  0.807603  0.614543  1
  S  S17  1  0.477493  0.191733  0.588802  1
  S  S18  1  0.002412  0.696420  0.891217  1
  S  S19  1  0.991186  0.308048  0.890912  1
  S  S20  1  0.450134  0.517048  0.270940  1
  S  S21  1  0.005334  0.996791  0.222526  1
  S  S22  1  0.501808  0.493836  0.716465  1
  S  S23  1  0.004991  0.003849  0.780079  1
