# generated using pymatgen
data_YHo2Er(Si3Rh)2
_symmetry_space_group_name_H-M   'P 1'
_cell_length_a   8.16066108
_cell_length_b   8.15863014
_cell_length_c   7.87159600
_cell_angle_alpha   90.00000000
_cell_angle_beta   90.00000000
_cell_angle_gamma   119.99177086
_symmetry_Int_Tables_number   1
_chemical_formula_structural   YHo2Er(Si3Rh)2
_chemical_formula_sum   'Y2 Ho4 Er2 Si12 Rh4'
_cell_volume   453.91237382
_cell_formula_units_Z   2
loop_
 _symmetry_equiv_pos_site_id
 _symmetry_equiv_pos_as_xyz
  1  'x, y, z'
loop_
 _atom_site_type_symbol
 _atom_site_label
 _atom_site_symmetry_multiplicity
 _atom_site_fract_x
 _atom_site_fract_y
 _atom_site_fract_z
 _atom_site_occupancy
  Y  Y0  1  0.000051  0.000026  0.250000  1
  Y  Y1  1  0.999899  0.999950  0.750000  1
  Ho  Ho2  1  0.981946  0.490972  0.250000  1
  Ho  Ho3  1  0.491062  0.508953  0.750000  1
  Ho  Ho4  1  0.491062  0.982109  0.750000  1
  Ho  Ho5  1  0.017882  0.508942  0.750000  1
  Er  Er6  1  0.509009  0.491023  0.250000  1
  Er  Er7  1  0.509009  0.017986  0.250000  1
  Si  Si8  1  0.167228  0.832911  0.499555  1
  Si  Si9  1  0.167228  0.334315  0.499555  1
  Si  Si10  1  0.665607  0.832803  0.499497  1
  Si  Si11  1  0.832707  0.167031  0.500104  1
  Si  Si12  1  0.832707  0.665678  0.500104  1
  Si  Si13  1  0.334412  0.167207  0.499906  1
  Si  Si14  1  0.832707  0.167031  0.999896  1
  Si  Si15  1  0.832707  0.665678  0.999896  1
  Si  Si16  1  0.334412  0.167207  0.000094  1
  Si  Si17  1  0.167228  0.832911  0.000445  1
  Si  Si18  1  0.167228  0.334315  0.000445  1
  Si  Si19  1  0.665607  0.832803  0.000503  1
  Rh  Rh20  1  0.333705  0.666853  0.465463  1
  Rh  Rh21  1  0.666445  0.333222  0.533444  1
  Rh  Rh22  1  0.666445  0.333222  0.966556  1
  Rh  Rh23  1  0.333705  0.666853  0.034537  1
