# generated using pymatgen
data_Nb4IrRh3Se16
_symmetry_space_group_name_H-M   'P 1'
_cell_length_a   3.62076800
_cell_length_b   11.93329200
_cell_length_c   13.30564500
_cell_angle_alpha   90.00139958
_cell_angle_beta   90.00000000
_cell_angle_gamma   90.00000000
_symmetry_Int_Tables_number   1
_chemical_formula_structural   Nb4IrRh3Se16
_chemical_formula_sum   'Nb4 Ir1 Rh3 Se16'
_cell_volume   574.90607533
_cell_formula_units_Z   1
loop_
 _symmetry_equiv_pos_site_id
 _symmetry_equiv_pos_as_xyz
  1  'x, y, z'
loop_
 _atom_site_type_symbol
 _atom_site_label
 _atom_site_symmetry_multiplicity
 _atom_site_fract_x
 _atom_site_fract_y
 _atom_site_fract_z
 _atom_site_occupancy
  Nb  Nb0  1  0.000000  0.050466  0.000661  1
  Nb  Nb1  1  0.500000  0.950570  0.499520  1
  Nb  Nb2  1  0.000000  0.267441  0.494833  1
  Nb  Nb3  1  0.500000  0.733599  0.994898  1
  Ir  Ir4  1  0.500000  0.248753  0.993431  1
  Rh  Rh5  1  0.000000  0.529080  0.998571  1
  Rh  Rh6  1  0.500000  0.470015  0.498749  1
  Rh  Rh7  1  0.000000  0.748707  0.494165  1
  Se  Se8  1  0.500000  0.103498  0.132301  1
  Se  Se9  1  0.000000  0.896933  0.630677  1
  Se  Se10  1  0.500000  0.154177  0.599474  1
  Se  Se11  1  0.000000  0.847022  0.099270  1
  Se  Se12  1  0.500000  0.320170  0.363772  1
  Se  Se13  1  0.000000  0.679902  0.864133  1
  Se  Se14  1  0.500000  0.434335  0.900162  1
  Se  Se15  1  0.000000  0.564910  0.400561  1
  Se  Se16  1  0.000000  0.064224  0.395988  1
  Se  Se17  1  0.500000  0.937075  0.895791  1
  Se  Se18  1  0.000000  0.195323  0.866886  1
  Se  Se19  1  0.500000  0.804957  0.367793  1
  Se  Se20  1  0.000000  0.344769  0.092317  1
  Se  Se21  1  0.500000  0.653728  0.592303  1
  Se  Se22  1  0.000000  0.414731  0.625128  1
  Se  Se23  1  0.500000  0.585615  0.124733  1
