# generated using pymatgen
data_CaCdHg2(NO3)8
_symmetry_space_group_name_H-M   'P 1'
_cell_length_a   8.00876696
_cell_length_b   7.99983384
_cell_length_c   8.00705530
_cell_angle_alpha   89.64846124
_cell_angle_beta   89.61952458
_cell_angle_gamma   89.93641830
_symmetry_Int_Tables_number   1
_chemical_formula_structural   CaCdHg2(NO3)8
_chemical_formula_sum   'Ca1 Cd1 Hg2 N8 O24'
_cell_volume   512.98120390
_cell_formula_units_Z   1
loop_
 _symmetry_equiv_pos_site_id
 _symmetry_equiv_pos_as_xyz
  1  'x, y, z'
loop_
 _atom_site_type_symbol
 _atom_site_label
 _atom_site_symmetry_multiplicity
 _atom_site_fract_x
 _atom_site_fract_y
 _atom_site_fract_z
 _atom_site_occupancy
  Ca  Ca0  1  0.000000  0.000000  0.000000  1
  Cd  Cd1  1  0.500000  0.000000  0.500000  1
  Hg  Hg2  1  0.000000  0.500000  0.500000  1
  Hg  Hg3  1  0.500000  0.500000  0.000000  1
  N  N4  1  0.333907  0.329991  0.336447  1
  N  N5  1  0.337971  0.167344  0.832094  1
  N  N6  1  0.171314  0.838600  0.335423  1
  N  N7  1  0.835831  0.335023  0.167687  1
  N  N8  1  0.666093  0.670009  0.663553  1
  N  N9  1  0.164169  0.664977  0.832313  1
  N  N10  1  0.828686  0.161400  0.664577  1
  N  N11  1  0.662029  0.832656  0.167906  1
  O  O12  1  0.737854  0.310621  0.045465  1
  O  O13  1  0.191295  0.958052  0.233446  1
  O  O14  1  0.269576  0.818064  0.456771  1
  O  O15  1  0.236080  0.186879  0.951090  1
  O  O16  1  0.234811  0.306891  0.458841  1
  O  O17  1  0.455058  0.230537  0.314104  1
  O  O18  1  0.310952  0.452082  0.237621  1
  O  O19  1  0.188176  0.541770  0.736582  1
  O  O20  1  0.950310  0.261388  0.685785  1
  O  O21  1  0.682491  0.953026  0.268774  1
  O  O22  1  0.044276  0.764908  0.809424  1
  O  O23  1  0.539277  0.734545  0.188680  1
  O  O24  1  0.808705  0.041948  0.766554  1
  O  O25  1  0.730424  0.181936  0.543229  1
  O  O26  1  0.763920  0.813121  0.048910  1
  O  O27  1  0.262146  0.689379  0.954535  1
  O  O28  1  0.765189  0.693109  0.541159  1
  O  O29  1  0.544942  0.769463  0.685896  1
  O  O30  1  0.689048  0.547918  0.762379  1
  O  O31  1  0.811824  0.458230  0.263418  1
  O  O32  1  0.049690  0.738612  0.314215  1
  O  O33  1  0.317509  0.046974  0.731226  1
  O  O34  1  0.955724  0.235092  0.190576  1
  O  O35  1  0.460723  0.265455  0.811320  1
