# generated using pymatgen
data_ThHg5(Pd2Au)6
_symmetry_space_group_name_H-M   'P 1'
_cell_length_a   4.37611000
_cell_length_b   7.48524100
_cell_length_c   13.10409700
_cell_angle_alpha   90.00000000
_cell_angle_beta   89.99977682
_cell_angle_gamma   90.00000000
_symmetry_Int_Tables_number   1
_chemical_formula_structural   ThHg5(Pd2Au)6
_chemical_formula_sum   'Th1 Hg5 Pd12 Au6'
_cell_volume   429.24092001
_cell_formula_units_Z   1
loop_
 _symmetry_equiv_pos_site_id
 _symmetry_equiv_pos_as_xyz
  1  'x, y, z'
loop_
 _atom_site_type_symbol
 _atom_site_label
 _atom_site_symmetry_multiplicity
 _atom_site_fract_x
 _atom_site_fract_y
 _atom_site_fract_z
 _atom_site_occupancy
  Th  Th0  1  0.000000  0.000000  0.000000  1
  Hg  Hg1  1  0.499948  0.500000  0.171988  1
  Hg  Hg2  1  0.999965  0.000000  0.334310  1
  Hg  Hg3  1  0.500000  0.500000  0.500000  1
  Hg  Hg4  1  0.000035  0.000000  0.665690  1
  Hg  Hg5  1  0.500052  0.500000  0.828012  1
  Pd  Pd6  1  0.500001  0.259618  0.000000  1
  Pd  Pd7  1  0.500001  0.740381  0.000000  1
  Pd  Pd8  1  0.999948  0.253061  0.168022  1
  Pd  Pd9  1  0.999948  0.746940  0.168022  1
  Pd  Pd10  1  0.499960  0.250053  0.334285  1
  Pd  Pd11  1  0.499960  0.749948  0.334285  1
  Pd  Pd12  1  0.000000  0.246464  0.500000  1
  Pd  Pd13  1  0.000000  0.753536  0.500000  1
  Pd  Pd14  1  0.500039  0.250053  0.665715  1
  Pd  Pd15  1  0.500039  0.749948  0.665715  1
  Pd  Pd16  1  0.000051  0.253061  0.831978  1
  Pd  Pd17  1  0.000051  0.746940  0.831978  1
  Au  Au18  1  0.000000  0.500000  0.000000  1
  Au  Au19  1  0.499965  0.000000  0.168022  1
  Au  Au20  1  0.999963  0.500000  0.339009  1
  Au  Au21  1  0.500000  0.000000  0.500000  1
  Au  Au22  1  0.000037  0.500000  0.660991  1
  Au  Au23  1  0.500035  0.000000  0.831978  1
