# generated using pymatgen
data_La13ThRh6
_symmetry_space_group_name_H-M   'P 1'
_cell_length_a   10.26522700
_cell_length_b   10.26522781
_cell_length_c   6.48808000
_cell_angle_alpha   90.00000000
_cell_angle_beta   90.00000000
_cell_angle_gamma   120.00000062
_symmetry_Int_Tables_number   1
_chemical_formula_structural   La13ThRh6
_chemical_formula_sum   'La13 Th1 Rh6'
_cell_volume   592.08488512
_cell_formula_units_Z   1
loop_
 _symmetry_equiv_pos_site_id
 _symmetry_equiv_pos_as_xyz
  1  'x, y, z'
loop_
 _atom_site_type_symbol
 _atom_site_label
 _atom_site_symmetry_multiplicity
 _atom_site_fract_x
 _atom_site_fract_y
 _atom_site_fract_z
 _atom_site_occupancy
  La  La0  1  0.333333  0.666667  0.066566  1
  La  La1  1  0.873813  0.747626  0.767726  1
  La  La2  1  0.252374  0.126187  0.767726  1
  La  La3  1  0.873813  0.126187  0.767726  1
  La  La4  1  0.125787  0.251574  0.267304  1
  La  La5  1  0.748426  0.874213  0.267304  1
  La  La6  1  0.125787  0.874213  0.267304  1
  La  La7  1  0.459660  0.919321  0.595202  1
  La  La8  1  0.080679  0.540340  0.595202  1
  La  La9  1  0.459660  0.540340  0.595202  1
  La  La10  1  0.541993  0.083984  0.090753  1
  La  La11  1  0.916016  0.458007  0.090753  1
  La  La12  1  0.541993  0.458007  0.090753  1
  Th  Th13  1  0.666667  0.333333  0.560355  1
  Rh  Rh14  1  0.189581  0.379160  0.852505  1
  Rh  Rh15  1  0.620840  0.810419  0.852505  1
  Rh  Rh16  1  0.189581  0.810419  0.852505  1
  Rh  Rh17  1  0.806981  0.613963  0.355886  1
  Rh  Rh18  1  0.386037  0.193019  0.355886  1
  Rh  Rh19  1  0.806981  0.193019  0.355886  1
