# generated using pymatgen
data_Pr16Cd4Pt3Rh
_symmetry_space_group_name_H-M   'P 1'
_cell_length_a   10.07152896
_cell_length_b   10.07152890
_cell_length_c   10.07152879
_cell_angle_alpha   60.03706538
_cell_angle_beta   60.03706424
_cell_angle_gamma   60.03707011
_symmetry_Int_Tables_number   1
_chemical_formula_structural   Pr16Cd4Pt3Rh
_chemical_formula_sum   'Pr16 Cd4 Pt3 Rh1'
_cell_volume   722.99609001
_cell_formula_units_Z   1
loop_
 _symmetry_equiv_pos_site_id
 _symmetry_equiv_pos_as_xyz
  1  'x, y, z'
loop_
 _atom_site_type_symbol
 _atom_site_label
 _atom_site_symmetry_multiplicity
 _atom_site_fract_x
 _atom_site_fract_y
 _atom_site_fract_z
 _atom_site_occupancy
  Pr  Pr0  1  0.349947  0.349947  0.349947  1
  Pr  Pr1  1  0.349225  0.349225  0.948820  1
  Pr  Pr2  1  0.349225  0.948820  0.349225  1
  Pr  Pr3  1  0.948820  0.349225  0.349225  1
  Pr  Pr4  1  0.813559  0.190844  0.190844  1
  Pr  Pr5  1  0.190679  0.808346  0.808346  1
  Pr  Pr6  1  0.190844  0.813559  0.190844  1
  Pr  Pr7  1  0.808346  0.190679  0.808346  1
  Pr  Pr8  1  0.190844  0.190844  0.813559  1
  Pr  Pr9  1  0.808346  0.808346  0.190679  1
  Pr  Pr10  1  0.938644  0.563156  0.563156  1
  Pr  Pr11  1  0.561505  0.936353  0.936353  1
  Pr  Pr12  1  0.563156  0.938644  0.563156  1
  Pr  Pr13  1  0.936353  0.561505  0.936353  1
  Pr  Pr14  1  0.563156  0.563156  0.938644  1
  Pr  Pr15  1  0.936353  0.936353  0.561505  1
  Cd  Cd16  1  0.580100  0.580100  0.580100  1
  Cd  Cd17  1  0.580465  0.580465  0.258593  1
  Cd  Cd18  1  0.580465  0.258593  0.580465  1
  Cd  Cd19  1  0.258593  0.580465  0.580465  1
  Pt  Pt20  1  0.143371  0.143371  0.571416  1
  Pt  Pt21  1  0.143371  0.571416  0.143371  1
  Pt  Pt22  1  0.571416  0.143371  0.143371  1
  Rh  Rh23  1  0.143215  0.143215  0.143215  1
