# generated using pymatgen
data_Tb9Tm(SiB4)4
_symmetry_space_group_name_H-M   'P 1'
_cell_length_a   7.24277500
_cell_length_b   7.24277500
_cell_length_c   8.12364100
_cell_angle_alpha   90.00000000
_cell_angle_beta   90.00000000
_cell_angle_gamma   90.00000000
_symmetry_Int_Tables_number   1
_chemical_formula_structural   Tb9Tm(SiB4)4
_chemical_formula_sum   'Tb9 Tm1 Si4 B16'
_cell_volume   426.14825118
_cell_formula_units_Z   1
loop_
 _symmetry_equiv_pos_site_id
 _symmetry_equiv_pos_as_xyz
  1  'x, y, z'
loop_
 _atom_site_type_symbol
 _atom_site_label
 _atom_site_symmetry_multiplicity
 _atom_site_fract_x
 _atom_site_fract_y
 _atom_site_fract_z
 _atom_site_occupancy
  Tb  Tb0  1  0.680583  0.180107  0.224631  1
  Tb  Tb1  1  0.319417  0.819893  0.775369  1
  Tb  Tb2  1  0.319417  0.819893  0.224631  1
  Tb  Tb3  1  0.819893  0.680583  0.224631  1
  Tb  Tb4  1  0.819893  0.680583  0.775369  1
  Tb  Tb5  1  0.680583  0.180107  0.775369  1
  Tb  Tb6  1  0.180107  0.319417  0.775369  1
  Tb  Tb7  1  0.180107  0.319417  0.224631  1
  Tb  Tb8  1  0.500000  0.500000  0.500000  1
  Tm  Tm9  1  0.000000  0.000000  0.500000  1
  Si  Si10  1  0.113532  0.616351  0.500000  1
  Si  Si11  1  0.886468  0.383649  0.500000  1
  Si  Si12  1  0.383649  0.113532  0.500000  1
  Si  Si13  1  0.616351  0.886468  0.500000  1
  B  B14  1  0.172410  0.039022  0.000000  1
  B  B15  1  0.827590  0.960978  0.000000  1
  B  B16  1  0.960978  0.172410  0.000000  1
  B  B17  1  0.327579  0.539126  0.000000  1
  B  B18  1  0.039022  0.827590  0.000000  1
  B  B19  1  0.672421  0.460874  0.000000  1
  B  B20  1  0.539126  0.672421  0.000000  1
  B  B21  1  0.460874  0.327579  0.000000  1
  B  B22  1  0.090299  0.590179  0.000000  1
  B  B23  1  0.909701  0.409821  0.000000  1
  B  B24  1  0.409821  0.090299  0.000000  1
  B  B25  1  0.590179  0.909701  0.000000  1
  B  B26  1  0.000000  0.000000  0.161758  1
  B  B27  1  0.000000  0.000000  0.838242  1
  B  B28  1  0.500000  0.500000  0.839020  1
  B  B29  1  0.500000  0.500000  0.160980  1
