# generated using pymatgen
data_Cd2Bi3Sb3O14
_symmetry_space_group_name_H-M   'P 1'
_cell_length_a   7.48595614
_cell_length_b   7.48595569
_cell_length_c   7.48595724
_cell_angle_alpha   61.23164351
_cell_angle_beta   61.23164680
_cell_angle_gamma   61.23164868
_symmetry_Int_Tables_number   1
_chemical_formula_structural   Cd2Bi3Sb3O14
_chemical_formula_sum   'Cd2 Bi3 Sb3 O14'
_cell_volume   304.85459835
_cell_formula_units_Z   1
loop_
 _symmetry_equiv_pos_site_id
 _symmetry_equiv_pos_as_xyz
  1  'x, y, z'
loop_
 _atom_site_type_symbol
 _atom_site_label
 _atom_site_symmetry_multiplicity
 _atom_site_fract_x
 _atom_site_fract_y
 _atom_site_fract_z
 _atom_site_occupancy
  Cd  Cd0  1  0.500000  0.500000  0.500000  1
  Cd  Cd1  1  0.000000  0.000000  0.000000  1
  Bi  Bi2  1  0.000000  0.500000  0.500000  1
  Bi  Bi3  1  0.500000  0.500000  0.000000  1
  Bi  Bi4  1  0.500000  0.000000  0.500000  1
  Sb  Sb5  1  0.500000  0.000000  0.000000  1
  Sb  Sb6  1  0.000000  0.000000  0.500000  1
  Sb  Sb7  1  0.000000  0.500000  0.000000  1
  O  O8  1  0.916907  0.313783  0.313783  1
  O  O9  1  0.368267  0.902484  0.902484  1
  O  O10  1  0.313783  0.313783  0.916907  1
  O  O11  1  0.902484  0.902484  0.368267  1
  O  O12  1  0.902484  0.368267  0.902484  1
  O  O13  1  0.313783  0.916907  0.313783  1
  O  O14  1  0.083093  0.686217  0.686217  1
  O  O15  1  0.631733  0.097516  0.097516  1
  O  O16  1  0.686217  0.686217  0.083093  1
  O  O17  1  0.097516  0.097516  0.631733  1
  O  O18  1  0.097516  0.631733  0.097516  1
  O  O19  1  0.686217  0.083093  0.686217  1
  O  O20  1  0.381882  0.381882  0.381882  1
  O  O21  1  0.618118  0.618118  0.618118  1
