# generated using pymatgen
data_Ho4Al18IrPd4Ru
_symmetry_space_group_name_H-M   'P 1'
_cell_length_a   7.60560924
_cell_length_b   7.60560857
_cell_length_c   9.44336348
_cell_angle_alpha   89.95052806
_cell_angle_beta   89.95053012
_cell_angle_gamma   119.49772729
_symmetry_Int_Tables_number   1
_chemical_formula_structural   Ho4Al18IrPd4Ru
_chemical_formula_sum   'Ho4 Al18 Ir1 Pd4 Ru1'
_cell_volume   475.44531176
_cell_formula_units_Z   1
loop_
 _symmetry_equiv_pos_site_id
 _symmetry_equiv_pos_as_xyz
  1  'x, y, z'
loop_
 _atom_site_type_symbol
 _atom_site_label
 _atom_site_symmetry_multiplicity
 _atom_site_fract_x
 _atom_site_fract_y
 _atom_site_fract_z
 _atom_site_occupancy
  Ho  Ho0  1  0.995356  0.670627  0.250034  1
  Ho  Ho1  1  0.004644  0.329373  0.749966  1
  Ho  Ho2  1  0.670627  0.995356  0.250034  1
  Ho  Ho3  1  0.329373  0.004644  0.749966  1
  Al  Al4  1  0.125857  0.125857  0.248151  1
  Al  Al5  1  0.874143  0.874143  0.751849  1
  Al  Al6  1  0.999406  0.329537  0.075750  1
  Al  Al7  1  0.000594  0.670463  0.924250  1
  Al  Al8  1  0.999616  0.667749  0.577078  1
  Al  Al9  1  0.332251  0.000384  0.422922  1
  Al  Al10  1  0.000384  0.332251  0.422922  1
  Al  Al11  1  0.667749  0.999616  0.577078  1
  Al  Al12  1  0.670463  0.000594  0.924250  1
  Al  Al13  1  0.329537  0.999406  0.075750  1
  Al  Al14  1  0.330170  0.330170  0.554645  1
  Al  Al15  1  0.669830  0.669830  0.445355  1
  Al  Al16  1  0.671966  0.671966  0.053548  1
  Al  Al17  1  0.328034  0.328034  0.946452  1
  Al  Al18  1  0.341818  0.547828  0.249555  1
  Al  Al19  1  0.658182  0.452172  0.750445  1
  Al  Al20  1  0.547828  0.341818  0.249555  1
  Al  Al21  1  0.452172  0.658182  0.750445  1
  Ir  Ir22  1  0.000000  0.000000  0.500000  1
  Pd  Pd23  1  0.672535  0.327465  0.000000  1
  Pd  Pd24  1  0.327465  0.672535  0.000000  1
  Pd  Pd25  1  0.327600  0.672400  0.500000  1
  Pd  Pd26  1  0.672400  0.327600  0.500000  1
  Ru  Ru27  1  0.000000  0.000000  0.000000  1
