# generated using pymatgen
data_TbDyHo6Mo2(OsC4)2
_symmetry_space_group_name_H-M   'P 1'
_cell_length_a   5.09050700
_cell_length_b   6.58287109
_cell_length_c   9.88170777
_cell_angle_alpha   89.06098058
_cell_angle_beta   90.00000000
_cell_angle_gamma   90.00000000
_symmetry_Int_Tables_number   1
_chemical_formula_structural   TbDyHo6Mo2(OsC4)2
_chemical_formula_sum   'Tb1 Dy1 Ho6 Mo2 Os2 C8'
_cell_volume   331.09305224
_cell_formula_units_Z   1
loop_
 _symmetry_equiv_pos_site_id
 _symmetry_equiv_pos_as_xyz
  1  'x, y, z'
loop_
 _atom_site_type_symbol
 _atom_site_label
 _atom_site_symmetry_multiplicity
 _atom_site_fract_x
 _atom_site_fract_y
 _atom_site_fract_z
 _atom_site_occupancy
  Tb  Tb0  1  0.750000  0.968043  0.715071  1
  Dy  Dy1  1  0.250000  0.032173  0.284449  1
  Ho  Ho2  1  0.250000  0.676682  0.557815  1
  Ho  Ho3  1  0.750000  0.322901  0.442051  1
  Ho  Ho4  1  0.750000  0.825691  0.058137  1
  Ho  Ho5  1  0.250000  0.174568  0.942003  1
  Ho  Ho6  1  0.250000  0.539047  0.218566  1
  Ho  Ho7  1  0.750000  0.461051  0.781575  1
  Mo  Mo8  1  0.250000  0.715046  0.867841  1
  Mo  Mo9  1  0.750000  0.285223  0.132435  1
  Os  Os10  1  0.750000  0.780511  0.366582  1
  Os  Os11  1  0.250000  0.219310  0.633285  1
  C  C12  1  0.250000  0.447931  0.757370  1
  C  C13  1  0.750000  0.552240  0.242572  1
  C  C14  1  0.750000  0.047647  0.260382  1
  C  C15  1  0.250000  0.952406  0.739914  1
  C  C16  1  0.250000  0.823832  0.052254  1
  C  C17  1  0.750000  0.176718  0.948128  1
  C  C18  1  0.750000  0.674630  0.548586  1
  C  C19  1  0.250000  0.324346  0.450983  1
