# generated using pymatgen
data_LaTh(Ga3Rh)3
_symmetry_space_group_name_H-M   'P 1'
_cell_length_a   7.71960839
_cell_length_b   7.71602192
_cell_length_c   9.60570700
_cell_angle_alpha   90.00000000
_cell_angle_beta   90.00000000
_cell_angle_gamma   119.56739972
_symmetry_Int_Tables_number   1
_chemical_formula_structural   LaTh(Ga3Rh)3
_chemical_formula_sum   'La2 Th2 Ga18 Rh6'
_cell_volume   497.65158735
_cell_formula_units_Z   2
loop_
 _symmetry_equiv_pos_site_id
 _symmetry_equiv_pos_as_xyz
  1  'x, y, z'
loop_
 _atom_site_type_symbol
 _atom_site_label
 _atom_site_symmetry_multiplicity
 _atom_site_fract_x
 _atom_site_fract_y
 _atom_site_fract_z
 _atom_site_occupancy
  La  La0  1  0.669942  0.996293  0.750000  1
  La  La1  1  0.330058  0.003707  0.250000  1
  Th  Th2  1  0.997434  0.670469  0.750000  1
  Th  Th3  1  0.002566  0.329531  0.250000  1
  Ga  Ga4  1  0.131755  0.130748  0.750000  1
  Ga  Ga5  1  0.868245  0.869252  0.250000  1
  Ga  Ga6  1  0.003120  0.333882  0.579364  1
  Ga  Ga7  1  0.996880  0.666118  0.420636  1
  Ga  Ga8  1  0.996880  0.666118  0.079364  1
  Ga  Ga9  1  0.336483  0.004271  0.921827  1
  Ga  Ga10  1  0.003120  0.333882  0.920636  1
  Ga  Ga11  1  0.663517  0.995729  0.078173  1
  Ga  Ga12  1  0.663517  0.995729  0.421827  1
  Ga  Ga13  1  0.336483  0.004271  0.578173  1
  Ga  Ga14  1  0.335686  0.334665  0.056401  1
  Ga  Ga15  1  0.664314  0.665335  0.943599  1
  Ga  Ga16  1  0.664314  0.665335  0.556401  1
  Ga  Ga17  1  0.335686  0.334665  0.443599  1
  Ga  Ga18  1  0.340312  0.544378  0.750000  1
  Ga  Ga19  1  0.659688  0.455622  0.250000  1
  Ga  Ga20  1  0.545544  0.341319  0.750000  1
  Ga  Ga21  1  0.454456  0.658681  0.250000  1
  Rh  Rh22  1  0.674226  0.331501  0.499847  1
  Rh  Rh23  1  0.325774  0.668499  0.500153  1
  Rh  Rh24  1  0.325774  0.668499  0.999847  1
  Rh  Rh25  1  0.674226  0.331501  0.000153  1
  Rh  Rh26  1  0.000000  0.000000  0.500000  1
  Rh  Rh27  1  0.000000  0.000000  0.000000  1
