# generated using pymatgen
data_Ga4Pd3Pt5
_symmetry_space_group_name_H-M   'P 1'
_cell_length_a   4.10421700
_cell_length_b   5.63699025
_cell_length_c   7.91671072
_cell_angle_alpha   89.59925938
_cell_angle_beta   90.00000000
_cell_angle_gamma   90.00000000
_symmetry_Int_Tables_number   1
_chemical_formula_structural   Ga4Pd3Pt5
_chemical_formula_sum   'Ga4 Pd3 Pt5'
_cell_volume   183.15203635
_cell_formula_units_Z   1
loop_
 _symmetry_equiv_pos_site_id
 _symmetry_equiv_pos_as_xyz
  1  'x, y, z'
loop_
 _atom_site_type_symbol
 _atom_site_label
 _atom_site_symmetry_multiplicity
 _atom_site_fract_x
 _atom_site_fract_y
 _atom_site_fract_z
 _atom_site_occupancy
  Ga  Ga0  1  0.750000  0.207393  0.390770  1
  Ga  Ga1  1  0.250000  0.794859  0.607289  1
  Ga  Ga2  1  0.750000  0.706110  0.109684  1
  Ga  Ga3  1  0.250000  0.294336  0.892759  1
  Pd  Pd4  1  0.250000  0.957478  0.292350  1
  Pd  Pd5  1  0.750000  0.542252  0.795569  1
  Pd  Pd6  1  0.250000  0.457087  0.205492  1
  Pt  Pt7  1  0.750000  0.162671  0.066735  1
  Pt  Pt8  1  0.250000  0.835248  0.933152  1
  Pt  Pt9  1  0.750000  0.663167  0.431894  1
  Pt  Pt10  1  0.250000  0.337660  0.568259  1
  Pt  Pt11  1  0.750000  0.041739  0.706047  1
