# generated using pymatgen
data_Sc4Mn6SiTc
_symmetry_space_group_name_H-M   'P 1'
_cell_length_a   4.90508900
_cell_length_b   4.90508953
_cell_length_c   8.27955400
_cell_angle_alpha   90.00000000
_cell_angle_beta   90.00000000
_cell_angle_gamma   120.00000320
_symmetry_Int_Tables_number   1
_chemical_formula_structural   Sc4Mn6SiTc
_chemical_formula_sum   'Sc4 Mn6 Si1 Tc1'
_cell_volume   172.51679880
_cell_formula_units_Z   1
loop_
 _symmetry_equiv_pos_site_id
 _symmetry_equiv_pos_as_xyz
  1  'x, y, z'
loop_
 _atom_site_type_symbol
 _atom_site_label
 _atom_site_symmetry_multiplicity
 _atom_site_fract_x
 _atom_site_fract_y
 _atom_site_fract_z
 _atom_site_occupancy
  Sc  Sc0  1  0.333333  0.666667  0.565200  1
  Sc  Sc1  1  0.666667  0.333333  0.434800  1
  Sc  Sc2  1  0.666667  0.333333  0.065826  1
  Sc  Sc3  1  0.333333  0.666667  0.934174  1
  Mn  Mn4  1  0.172912  0.345825  0.253441  1
  Mn  Mn5  1  0.827088  0.654175  0.746559  1
  Mn  Mn6  1  0.654175  0.827088  0.253441  1
  Mn  Mn7  1  0.345825  0.172912  0.746559  1
  Mn  Mn8  1  0.172912  0.827088  0.253441  1
  Mn  Mn9  1  0.827088  0.172912  0.746559  1
  Si  Si10  1  0.000000  0.000000  0.500000  1
  Tc  Tc11  1  0.000000  0.000000  0.000000  1
