# generated using pymatgen
data_Dy2Lu3Si12Ir19
_symmetry_space_group_name_H-M   'P 1'
_cell_length_a   12.81095200
_cell_length_b   12.81095211
_cell_length_c   3.97497000
_cell_angle_alpha   90.00000000
_cell_angle_beta   90.00000000
_cell_angle_gamma   119.99999973
_symmetry_Int_Tables_number   1
_chemical_formula_structural   Dy2Lu3Si12Ir19
_chemical_formula_sum   'Dy2 Lu3 Si12 Ir19'
_cell_volume   564.97248780
_cell_formula_units_Z   1
loop_
 _symmetry_equiv_pos_site_id
 _symmetry_equiv_pos_as_xyz
  1  'x, y, z'
loop_
 _atom_site_type_symbol
 _atom_site_label
 _atom_site_symmetry_multiplicity
 _atom_site_fract_x
 _atom_site_fract_y
 _atom_site_fract_z
 _atom_site_occupancy
  Dy  Dy0  1  0.333333  0.666667  0.500000  1
  Dy  Dy1  1  0.666667  0.333333  0.500000  1
  Lu  Lu2  1  0.000000  0.815329  0.000000  1
  Lu  Lu3  1  0.184671  0.184671  0.000000  1
  Lu  Lu4  1  0.815329  0.000000  0.000000  1
  Si  Si5  1  0.000000  0.633038  0.500000  1
  Si  Si6  1  0.366962  0.366962  0.500000  1
  Si  Si7  1  0.633038  0.000000  0.500000  1
  Si  Si8  1  0.518946  0.687536  0.000000  1
  Si  Si9  1  0.312464  0.831410  0.000000  1
  Si  Si10  1  0.168590  0.481054  0.000000  1
  Si  Si11  1  0.481054  0.168590  0.000000  1
  Si  Si12  1  0.687536  0.518946  0.000000  1
  Si  Si13  1  0.831410  0.312464  0.000000  1
  Si  Si14  1  0.000000  0.180605  0.500000  1
  Si  Si15  1  0.819395  0.819395  0.500000  1
  Si  Si16  1  0.180605  0.000000  0.500000  1
  Ir  Ir17  1  0.512632  0.873660  0.000000  1
  Ir  Ir18  1  0.126340  0.638972  0.000000  1
  Ir  Ir19  1  0.361028  0.487368  0.000000  1
  Ir  Ir20  1  0.487368  0.361028  0.000000  1
  Ir  Ir21  1  0.873660  0.512632  0.000000  1
  Ir  Ir22  1  0.638972  0.126340  0.000000  1
  Ir  Ir23  1  0.000000  0.447566  0.500000  1
  Ir  Ir24  1  0.552434  0.552434  0.500000  1
  Ir  Ir25  1  0.447566  0.000000  0.500000  1
  Ir  Ir26  1  0.000000  0.282212  0.000000  1
  Ir  Ir27  1  0.717788  0.717788  0.000000  1
  Ir  Ir28  1  0.282212  0.000000  0.000000  1
  Ir  Ir29  1  0.624176  0.806544  0.500000  1
  Ir  Ir30  1  0.193456  0.817631  0.500000  1
  Ir  Ir31  1  0.182369  0.375824  0.500000  1
  Ir  Ir32  1  0.375824  0.182369  0.500000  1
  Ir  Ir33  1  0.806544  0.624176  0.500000  1
  Ir  Ir34  1  0.817631  0.193456  0.500000  1
  Ir  Ir35  1  0.000000  0.000000  0.500000  1
