# generated using pymatgen
data_Li(PrRh)2
_symmetry_space_group_name_H-M   'P 1'
_cell_length_a   5.64148938
_cell_length_b   5.64148974
_cell_length_c   5.64148920
_cell_angle_alpha   136.46993958
_cell_angle_beta   114.81891273
_cell_angle_gamma   81.67633461
_symmetry_Int_Tables_number   1
_chemical_formula_structural   Li(PrRh)2
_chemical_formula_sum   'Li1 Pr2 Rh2'
_cell_volume   108.52190508
_cell_formula_units_Z   1
loop_
 _symmetry_equiv_pos_site_id
 _symmetry_equiv_pos_as_xyz
  1  'x, y, z'
loop_
 _atom_site_type_symbol
 _atom_site_label
 _atom_site_symmetry_multiplicity
 _atom_site_fract_x
 _atom_site_fract_y
 _atom_site_fract_z
 _atom_site_occupancy
  Li  Li0  1  0.000000  0.000000  0.000000  1
  Pr  Pr1  1  0.701179  0.201179  0.500000  1
  Pr  Pr2  1  0.298821  0.798821  0.500000  1
  Rh  Rh3  1  0.737610  0.500000  0.237610  1
  Rh  Rh4  1  0.262390  0.500000  0.762390  1
