# generated using pymatgen
data_Nd7ErSc12Si15Rh
_symmetry_space_group_name_H-M   'P 1'
_cell_length_a   7.24035807
_cell_length_b   7.47939481
_cell_length_c   14.18806273
_cell_angle_alpha   89.90058003
_cell_angle_beta   89.89091879
_cell_angle_gamma   90.27509101
_symmetry_Int_Tables_number   1
_chemical_formula_structural   Nd7ErSc12Si15Rh
_chemical_formula_sum   'Nd7 Er1 Sc12 Si15 Rh1'
_cell_volume   768.32178902
_cell_formula_units_Z   1
loop_
 _symmetry_equiv_pos_site_id
 _symmetry_equiv_pos_as_xyz
  1  'x, y, z'
loop_
 _atom_site_type_symbol
 _atom_site_label
 _atom_site_symmetry_multiplicity
 _atom_site_fract_x
 _atom_site_fract_y
 _atom_site_fract_z
 _atom_site_occupancy
  Nd  Nd0  1  0.013429  0.172316  0.097970  1
  Nd  Nd1  1  0.987084  0.827381  0.900241  1
  Nd  Nd2  1  0.485038  0.673886  0.901969  1
  Nd  Nd3  1  0.990449  0.823276  0.595801  1
  Nd  Nd4  1  0.512834  0.328372  0.096795  1
  Nd  Nd5  1  0.012642  0.177258  0.404550  1
  Nd  Nd6  1  0.509200  0.325257  0.403553  1
  Er  Er7  1  0.485456  0.670229  0.599988  1
  Sc  Sc8  1  0.161961  0.499717  0.743004  1
  Sc  Sc9  1  0.838820  0.499011  0.252772  1
  Sc  Sc10  1  0.340017  0.995685  0.251142  1
  Sc  Sc11  1  0.661580  0.999861  0.748017  1
  Sc  Sc12  1  0.332291  0.187019  0.621685  1
  Sc  Sc13  1  0.668680  0.823231  0.374776  1
  Sc  Sc14  1  0.170550  0.665040  0.378692  1
  Sc  Sc15  1  0.673005  0.825291  0.126500  1
  Sc  Sc16  1  0.830263  0.328196  0.622443  1
  Sc  Sc17  1  0.327863  0.176986  0.874441  1
  Sc  Sc18  1  0.830838  0.323540  0.874352  1
  Sc  Sc19  1  0.170311  0.676677  0.125148  1
  Si  Si20  1  0.034846  0.123840  0.748597  1
  Si  Si21  1  0.969186  0.875160  0.252482  1
  Si  Si22  1  0.465843  0.622081  0.249048  1
  Si  Si23  1  0.538171  0.379878  0.751264  1
  Si  Si24  1  0.290117  0.883860  0.747836  1
  Si  Si25  1  0.712142  0.120756  0.250096  1
  Si  Si26  1  0.213988  0.378458  0.249262  1
  Si  Si27  1  0.781651  0.620605  0.749659  1
  Si  Si28  1  0.839360  0.538296  0.459970  1
  Si  Si29  1  0.349409  0.956988  0.462888  1
  Si  Si30  1  0.849092  0.537748  0.038908  1
  Si  Si31  1  0.649824  0.030747  0.540975  1
  Si  Si32  1  0.149986  0.463706  0.960597  1
  Si  Si33  1  0.652051  0.036817  0.960684  1
  Si  Si34  1  0.349927  0.963540  0.039265  1
  Rh  Rh35  1  0.152097  0.469296  0.544629  1
