# generated using pymatgen
data_Li9Ca3Pb4
_symmetry_space_group_name_H-M   'P 1'
_cell_length_a   6.97901400
_cell_length_b   6.97901400
_cell_length_c   6.97901400
_cell_angle_alpha   89.99840730
_cell_angle_beta   90.00159270
_cell_angle_gamma   90.00159270
_symmetry_Int_Tables_number   1
_chemical_formula_structural   Li9Ca3Pb4
_chemical_formula_sum   'Li9 Ca3 Pb4'
_cell_volume   339.92429722
_cell_formula_units_Z   1
loop_
 _symmetry_equiv_pos_site_id
 _symmetry_equiv_pos_as_xyz
  1  'x, y, z'
loop_
 _atom_site_type_symbol
 _atom_site_label
 _atom_site_symmetry_multiplicity
 _atom_site_fract_x
 _atom_site_fract_y
 _atom_site_fract_z
 _atom_site_occupancy
  Li  Li0  1  0.015176  0.984824  0.984824  1
  Li  Li1  1  0.484652  0.984804  0.984804  1
  Li  Li2  1  0.015196  0.515350  0.984804  1
  Li  Li3  1  0.484650  0.515352  0.984709  1
  Li  Li4  1  0.015196  0.984804  0.515350  1
  Li  Li5  1  0.484650  0.984709  0.515352  1
  Li  Li6  1  0.015291  0.515352  0.515352  1
  Li  Li7  1  0.484663  0.515339  0.515339  1
  Li  Li8  1  0.250370  0.749631  0.749631  1
  Ca  Ca9  1  0.249839  0.249812  0.249812  1
  Ca  Ca10  1  0.750189  0.750162  0.249812  1
  Ca  Ca11  1  0.750189  0.249812  0.750162  1
  Pb  Pb12  1  0.749885  0.250116  0.250116  1
  Pb  Pb13  1  0.250074  0.749927  0.250084  1
  Pb  Pb14  1  0.250074  0.250084  0.749927  1
  Pb  Pb15  1  0.749917  0.749927  0.749927  1
