# generated using pymatgen
data_Tb10ErTmRu4
_symmetry_space_group_name_H-M   'P 1'
_cell_length_a   6.33222314
_cell_length_b   7.30314280
_cell_length_c   9.22052242
_cell_angle_alpha   89.94437861
_cell_angle_beta   90.38200157
_cell_angle_gamma   89.88312698
_symmetry_Int_Tables_number   1
_chemical_formula_structural   Tb10ErTmRu4
_chemical_formula_sum   'Tb10 Er1 Tm1 Ru4'
_cell_volume   426.39368619
_cell_formula_units_Z   1
loop_
 _symmetry_equiv_pos_site_id
 _symmetry_equiv_pos_as_xyz
  1  'x, y, z'
loop_
 _atom_site_type_symbol
 _atom_site_label
 _atom_site_symmetry_multiplicity
 _atom_site_fract_x
 _atom_site_fract_y
 _atom_site_fract_z
 _atom_site_occupancy
  Tb  Tb0  1  0.634562  0.040367  0.251284  1
  Tb  Tb1  1  0.365644  0.959790  0.748707  1
  Tb  Tb2  1  0.133636  0.459248  0.748210  1
  Tb  Tb3  1  0.866072  0.540453  0.251765  1
  Tb  Tb4  1  0.170623  0.177264  0.065211  1
  Tb  Tb5  1  0.829334  0.822822  0.934703  1
  Tb  Tb6  1  0.669828  0.322500  0.933478  1
  Tb  Tb7  1  0.829374  0.822492  0.564509  1
  Tb  Tb8  1  0.330244  0.677495  0.066207  1
  Tb  Tb9  1  0.170518  0.177562  0.435642  1
  Er  Er10  1  0.331297  0.675689  0.435603  1
  Tm  Tm11  1  0.668792  0.324350  0.564806  1
  Ru  Ru12  1  0.461034  0.386072  0.253358  1
  Ru  Ru13  1  0.539257  0.613620  0.746703  1
  Ru  Ru14  1  0.958205  0.114697  0.749283  1
  Ru  Ru15  1  0.041580  0.885579  0.250532  1
