# generated using pymatgen
data_TmLu2PuB16
_symmetry_space_group_name_H-M   'P 1'
_cell_length_a   7.05356049
_cell_length_b   7.05356167
_cell_length_c   3.98462900
_cell_angle_alpha   90.00000000
_cell_angle_beta   90.00000000
_cell_angle_gamma   90.57269171
_symmetry_Int_Tables_number   1
_chemical_formula_structural   TmLu2PuB16
_chemical_formula_sum   'Tm1 Lu2 Pu1 B16'
_cell_volume   198.23624372
_cell_formula_units_Z   1
loop_
 _symmetry_equiv_pos_site_id
 _symmetry_equiv_pos_as_xyz
  1  'x, y, z'
loop_
 _atom_site_type_symbol
 _atom_site_label
 _atom_site_symmetry_multiplicity
 _atom_site_fract_x
 _atom_site_fract_y
 _atom_site_fract_z
 _atom_site_occupancy
  Tm  Tm0  1  0.182915  0.682915  0.000000  1
  Lu  Lu1  1  0.682232  0.818410  0.000000  1
  Lu  Lu2  1  0.318410  0.182232  0.000000  1
  Pu  Pu3  1  0.814133  0.314133  0.000000  1
  B  B4  1  0.322058  0.462178  0.500000  1
  B  B5  1  0.676895  0.539496  0.500000  1
  B  B6  1  0.537217  0.323727  0.500000  1
  B  B7  1  0.461227  0.677824  0.500000  1
  B  B8  1  0.001714  0.998378  0.201536  1
  B  B9  1  0.498378  0.501714  0.798464  1
  B  B10  1  0.001714  0.998378  0.798464  1
  B  B11  1  0.498378  0.501714  0.201536  1
  B  B12  1  0.588012  0.088012  0.500000  1
  B  B13  1  0.085862  0.414106  0.500000  1
  B  B14  1  0.914106  0.585862  0.500000  1
  B  B15  1  0.413522  0.913522  0.500000  1
  B  B16  1  0.039496  0.176895  0.500000  1
  B  B17  1  0.177824  0.961227  0.500000  1
  B  B18  1  0.823727  0.037217  0.500000  1
  B  B19  1  0.962178  0.822058  0.500000  1
