# generated using pymatgen
data_Ac2Zn21Rh
_symmetry_space_group_name_H-M   'P 1'
_cell_length_a   8.41381001
_cell_length_b   8.41023132
_cell_length_c   8.41023149
_cell_angle_alpha   99.44014985
_cell_angle_beta   100.24081199
_cell_angle_gamma   131.13543902
_symmetry_Int_Tables_number   1
_chemical_formula_structural   Ac2Zn21Rh
_chemical_formula_sum   'Ac2 Zn21 Rh1'
_cell_volume   408.15820680
_cell_formula_units_Z   1
loop_
 _symmetry_equiv_pos_site_id
 _symmetry_equiv_pos_as_xyz
  1  'x, y, z'
loop_
 _atom_site_type_symbol
 _atom_site_label
 _atom_site_symmetry_multiplicity
 _atom_site_fract_x
 _atom_site_fract_y
 _atom_site_fract_z
 _atom_site_occupancy
  Ac  Ac0  1  0.255085  0.750088  0.504998  1
  Ac  Ac1  1  0.994915  0.999912  0.995002  1
  Zn  Zn2  1  0.901324  0.570030  0.088447  1
  Zn  Zn3  1  0.625000  0.875000  0.250000  1
  Zn  Zn4  1  0.431137  0.510428  0.326841  1
  Zn  Zn5  1  0.485899  0.569031  0.670974  1
  Zn  Zn6  1  0.431137  0.104295  0.920709  1
  Zn  Zn7  1  0.764101  0.180969  0.829026  1
  Zn  Zn8  1  0.485899  0.814924  0.916869  1
  Zn  Zn9  1  0.500755  0.490726  0.010028  1
  Zn  Zn10  1  0.764101  0.935076  0.583131  1
  Zn  Zn11  1  0.749245  0.259274  0.489972  1
  Zn  Zn12  1  0.064752  0.650856  0.831937  1
  Zn  Zn13  1  0.125000  0.375000  0.750000  1
  Zn  Zn14  1  0.348676  0.179970  0.411553  1
  Zn  Zn15  1  0.818863  0.645705  0.579291  1
  Zn  Zn16  1  0.901324  0.812877  0.331294  1
  Zn  Zn17  1  0.185248  0.099144  0.668063  1
  Zn  Zn18  1  0.064752  0.232816  0.413896  1
  Zn  Zn19  1  0.348676  0.937123  0.168706  1
  Zn  Zn20  1  0.818863  0.239572  0.173159  1
  Zn  Zn21  1  0.185248  0.517184  0.086104  1
  Zn  Zn22  1  0.625000  0.375000  0.750000  1
  Rh  Rh23  1  0.625000  0.375000  0.250000  1
