# generated using pymatgen
data_NbMoF10
_symmetry_space_group_name_H-M   'P 1'
_cell_length_a   5.85573985
_cell_length_b   7.65555857
_cell_length_c   10.11550653
_cell_angle_alpha   88.02179820
_cell_angle_beta   106.01270564
_cell_angle_gamma   98.98970990
_symmetry_Int_Tables_number   1
_chemical_formula_structural   NbMoF10
_chemical_formula_sum   'Nb2 Mo2 F20'
_cell_volume   430.50165166
_cell_formula_units_Z   2
loop_
 _symmetry_equiv_pos_site_id
 _symmetry_equiv_pos_as_xyz
  1  'x, y, z'
loop_
 _atom_site_type_symbol
 _atom_site_label
 _atom_site_symmetry_multiplicity
 _atom_site_fract_x
 _atom_site_fract_y
 _atom_site_fract_z
 _atom_site_occupancy
  Nb  Nb0  1  0.341992  0.387746  0.222457  1
  Nb  Nb1  1  0.658008  0.612254  0.777543  1
  Mo  Mo2  1  0.965454  0.764912  0.315845  1
  Mo  Mo3  1  0.034546  0.235088  0.684155  1
  F  F4  1  0.035040  0.255504  0.171379  1
  F  F5  1  0.964960  0.744496  0.828621  1
  F  F6  1  0.493702  0.224961  0.159298  1
  F  F7  1  0.506298  0.775039  0.840702  1
  F  F8  1  0.113904  0.231498  0.875704  1
  F  F9  1  0.886096  0.768502  0.124296  1
  F  F10  1  0.965483  0.296812  0.499544  1
  F  F11  1  0.034517  0.703188  0.500456  1
  F  F12  1  0.770717  0.053261  0.662791  1
  F  F13  1  0.229283  0.946739  0.337209  1
  F  F14  1  0.239251  0.075380  0.669191  1
  F  F15  1  0.760749  0.924620  0.330809  1
  F  F16  1  0.323002  0.440207  0.712205  1
  F  F17  1  0.676998  0.559793  0.287795  1
  F  F18  1  0.814747  0.416647  0.701540  1
  F  F19  1  0.185253  0.583353  0.298460  1
  F  F20  1  0.694104  0.455360  0.928409  1
  F  F21  1  0.305896  0.544640  0.071591  1
  F  F22  1  0.573018  0.670056  0.589182  1
  F  F23  1  0.426982  0.329944  0.410818  1
