# generated using pymatgen
data_Cs12Na8Hf4As11P
_symmetry_space_group_name_H-M   'P 1'
_cell_length_a   11.09586069
_cell_length_b   11.09585982
_cell_length_c   16.82465400
_cell_angle_alpha   90.01244648
_cell_angle_beta   90.01244841
_cell_angle_gamma   142.74156067
_symmetry_Int_Tables_number   1
_chemical_formula_structural   Cs12Na8Hf4As11P
_chemical_formula_sum   'Cs12 Na8 Hf4 As11 P1'
_cell_volume   1254.06044346
_cell_formula_units_Z   1
loop_
 _symmetry_equiv_pos_site_id
 _symmetry_equiv_pos_as_xyz
  1  'x, y, z'
loop_
 _atom_site_type_symbol
 _atom_site_label
 _atom_site_symmetry_multiplicity
 _atom_site_fract_x
 _atom_site_fract_y
 _atom_site_fract_z
 _atom_site_occupancy
  Cs  Cs0  1  0.948473  0.608839  0.825030  1
  Cs  Cs1  1  0.551430  0.890813  0.325455  1
  Cs  Cs2  1  0.391170  0.051465  0.174810  1
  Cs  Cs3  1  0.051465  0.391170  0.174810  1
  Cs  Cs4  1  0.890813  0.551430  0.325455  1
  Cs  Cs5  1  0.447847  0.108649  0.674203  1
  Cs  Cs6  1  0.608839  0.948473  0.825030  1
  Cs  Cs7  1  0.281965  0.281965  0.316057  1
  Cs  Cs8  1  0.782783  0.782783  0.185099  1
  Cs  Cs9  1  0.217120  0.217120  0.815498  1
  Cs  Cs10  1  0.717314  0.717314  0.684247  1
  Cs  Cs11  1  0.108649  0.447847  0.674203  1
  Na  Na12  1  0.919754  0.080301  0.000003  1
  Na  Na13  1  0.580757  0.421230  0.499592  1
  Na  Na14  1  0.080301  0.919754  0.000003  1
  Na  Na15  1  0.421230  0.580757  0.499592  1
  Na  Na16  1  0.754488  0.245586  0.000004  1
  Na  Na17  1  0.745715  0.254260  0.499954  1
  Na  Na18  1  0.245586  0.754488  0.000004  1
  Na  Na19  1  0.254260  0.745715  0.499954  1
  Hf  Hf20  1  0.585003  0.414954  0.000061  1
  Hf  Hf21  1  0.913939  0.081784  0.498906  1
  Hf  Hf22  1  0.414954  0.585003  0.000061  1
  Hf  Hf23  1  0.081784  0.913939  0.498906  1
  As  As24  1  0.869323  0.558757  0.091178  1
  As  As25  1  0.441466  0.130660  0.909007  1
  As  As26  1  0.630693  0.940445  0.590389  1
  As  As27  1  0.940445  0.630693  0.590389  1
  As  As28  1  0.130660  0.441466  0.909007  1
  As  As29  1  0.558757  0.869323  0.091178  1
  As  As30  1  0.367794  0.058151  0.408200  1
  As  As31  1  0.199389  0.199389  0.583362  1
  As  As32  1  0.698858  0.698858  0.916416  1
  As  As33  1  0.301164  0.301164  0.083865  1
  As  As34  1  0.058151  0.367794  0.408200  1
  P  P35  1  0.807661  0.807661  0.421872  1
