# generated using pymatgen
data_La2Tm(InIr6)3
_symmetry_space_group_name_H-M   'P 1'
_cell_length_a   8.96203340
_cell_length_b   8.96203340
_cell_length_c   5.22233700
_cell_angle_alpha   90.00000000
_cell_angle_beta   90.00000000
_cell_angle_gamma   89.81719369
_symmetry_Int_Tables_number   1
_chemical_formula_structural   La2Tm(InIr6)3
_chemical_formula_sum   'La2 Tm1 In3 Ir18'
_cell_volume   419.44575140
_cell_formula_units_Z   1
loop_
 _symmetry_equiv_pos_site_id
 _symmetry_equiv_pos_as_xyz
  1  'x, y, z'
loop_
 _atom_site_type_symbol
 _atom_site_label
 _atom_site_symmetry_multiplicity
 _atom_site_fract_x
 _atom_site_fract_y
 _atom_site_fract_z
 _atom_site_occupancy
  La  La0  1  0.499124  0.504464  0.000000  1
  La  La1  1  0.004464  0.999124  0.000000  1
  Tm  Tm2  1  0.618288  0.118288  0.000000  1
  In  In3  1  0.378006  0.878006  0.000000  1
  In  In4  1  0.120769  0.379101  0.000000  1
  In  In5  1  0.879101  0.620769  0.000000  1
  Ir  Ir6  1  0.498475  0.998475  0.500000  1
  Ir  Ir7  1  0.001818  0.501818  0.500000  1
  Ir  Ir8  1  0.703911  0.556056  0.500000  1
  Ir  Ir9  1  0.296466  0.441503  0.500000  1
  Ir  Ir10  1  0.203561  0.942491  0.500000  1
  Ir  Ir11  1  0.793196  0.059660  0.500000  1
  Ir  Ir12  1  0.442491  0.703561  0.500000  1
  Ir  Ir13  1  0.559660  0.293196  0.500000  1
  Ir  Ir14  1  0.056056  0.203911  0.500000  1
  Ir  Ir15  1  0.941503  0.796466  0.500000  1
  Ir  Ir16  1  0.822024  0.322024  0.755801  1
  Ir  Ir17  1  0.180144  0.680144  0.756926  1
  Ir  Ir18  1  0.319143  0.180244  0.755910  1
  Ir  Ir19  1  0.680244  0.819143  0.755910  1
  Ir  Ir20  1  0.180144  0.680144  0.243074  1
  Ir  Ir21  1  0.822024  0.322024  0.244199  1
  Ir  Ir22  1  0.680244  0.819143  0.244090  1
  Ir  Ir23  1  0.319143  0.180244  0.244090  1
