# generated using pymatgen
data_LuPa5F24
_symmetry_space_group_name_H-M   'P 1'
_cell_length_a   8.34491798
_cell_length_b   8.45759689
_cell_length_c   8.35446571
_cell_angle_alpha   63.20888710
_cell_angle_beta   63.68135748
_cell_angle_gamma   80.27657180
_symmetry_Int_Tables_number   1
_chemical_formula_structural   LuPa5F24
_chemical_formula_sum   'Lu1 Pa5 F24'
_cell_volume   471.43353326
_cell_formula_units_Z   1
loop_
 _symmetry_equiv_pos_site_id
 _symmetry_equiv_pos_as_xyz
  1  'x, y, z'
loop_
 _atom_site_type_symbol
 _atom_site_label
 _atom_site_symmetry_multiplicity
 _atom_site_fract_x
 _atom_site_fract_y
 _atom_site_fract_z
 _atom_site_occupancy
  Lu  Lu0  1  0.774488  0.637395  0.169316  1
  Pa  Pa1  1  0.640663  0.764401  0.667112  1
  Pa  Pa2  1  0.380296  0.226270  0.329572  1
  Pa  Pa3  1  0.211369  0.371444  0.840029  1
  Pa  Pa4  1  0.788242  0.206234  0.739511  1
  Pa  Pa5  1  0.217921  0.786943  0.242098  1
  F  F6  1  0.317825  0.260367  0.610983  1
  F  F7  1  0.681555  0.737140  0.395141  1
  F  F8  1  0.736296  0.680923  0.898999  1
  F  F9  1  0.267024  0.328542  0.103098  1
  F  F10  1  0.817419  0.935153  0.952094  1
  F  F11  1  0.167981  0.071261  0.047796  1
  F  F12  1  0.070012  0.169714  0.542389  1
  F  F13  1  0.939946  0.823714  0.457773  1
  F  F14  1  0.401289  0.598444  0.753352  1
  F  F15  1  0.600015  0.404215  0.248695  1
  F  F16  1  0.499793  0.995715  0.504685  1
  F  F17  1  0.991645  0.499566  0.008894  1
  F  F18  1  0.497878  0.250215  0.797253  1
  F  F19  1  0.499346  0.739214  0.210644  1
  F  F20  1  0.749917  0.492307  0.713535  1
  F  F21  1  0.247059  0.499872  0.298442  1
  F  F22  1  0.399402  0.812478  0.922770  1
  F  F23  1  0.605192  0.189901  0.071981  1
  F  F24  1  0.190829  0.604228  0.572940  1
  F  F25  1  0.804722  0.403756  0.430484  1
  F  F26  1  0.726399  0.028106  0.636973  1
  F  F27  1  0.281565  0.978999  0.337648  1
  F  F28  1  0.972179  0.275892  0.842446  1
  F  F29  1  0.021734  0.727593  0.153348  1
