# generated using pymatgen
data_Yb7Zr(Si4W3)4
_symmetry_space_group_name_H-M   'P 1'
_cell_length_a   6.70144554
_cell_length_b   6.88420705
_cell_length_c   12.97392618
_cell_angle_alpha   89.78568354
_cell_angle_beta   89.98495106
_cell_angle_gamma   90.13486782
_symmetry_Int_Tables_number   1
_chemical_formula_structural   Yb7Zr(Si4W3)4
_chemical_formula_sum   'Yb7 Zr1 Si16 W12'
_cell_volume   598.53504130
_cell_formula_units_Z   1
loop_
 _symmetry_equiv_pos_site_id
 _symmetry_equiv_pos_as_xyz
  1  'x, y, z'
loop_
 _atom_site_type_symbol
 _atom_site_label
 _atom_site_symmetry_multiplicity
 _atom_site_fract_x
 _atom_site_fract_y
 _atom_site_fract_z
 _atom_site_occupancy
  Yb  Yb0  1  0.998584  0.166862  0.090235  1
  Yb  Yb1  1  0.002071  0.834396  0.909963  1
  Yb  Yb2  1  0.502429  0.666029  0.910095  1
  Yb  Yb3  1  0.001994  0.833838  0.589381  1
  Yb  Yb4  1  0.498405  0.331707  0.090156  1
  Yb  Yb5  1  0.999622  0.167643  0.410423  1
  Yb  Yb6  1  0.498633  0.330480  0.409085  1
  Zr  Zr7  1  0.501319  0.673093  0.596995  1
  Si  Si8  1  0.035014  0.125549  0.747769  1
  Si  Si9  1  0.964152  0.878367  0.250668  1
  Si  Si10  1  0.464356  0.618733  0.249362  1
  Si  Si11  1  0.535533  0.377526  0.748523  1
  Si  Si12  1  0.298726  0.863220  0.750553  1
  Si  Si13  1  0.701057  0.135049  0.250354  1
  Si  Si14  1  0.199957  0.362157  0.250121  1
  Si  Si15  1  0.801910  0.639570  0.750820  1
  Si  Si16  1  0.167572  0.460664  0.544819  1
  Si  Si17  1  0.835473  0.541900  0.456789  1
  Si  Si18  1  0.338676  0.954099  0.457692  1
  Si  Si19  1  0.839062  0.542224  0.044563  1
  Si  Si20  1  0.660851  0.041112  0.544501  1
  Si  Si21  1  0.160475  0.457737  0.954340  1
  Si  Si22  1  0.660979  0.043122  0.954539  1
  Si  Si23  1  0.338735  0.957383  0.044393  1
  W  W24  1  0.163942  0.494791  0.747801  1
  W  W25  1  0.839353  0.509193  0.250999  1
  W  W26  1  0.340227  0.987900  0.250817  1
  W  W27  1  0.660807  0.006443  0.747175  1
  W  W28  1  0.334196  0.163652  0.625104  1
  W  W29  1  0.661481  0.829503  0.375015  1
  W  W30  1  0.165082  0.666090  0.373370  1
  W  W31  1  0.664076  0.832286  0.127893  1
  W  W32  1  0.831456  0.340472  0.625599  1
  W  W33  1  0.335087  0.166608  0.870885  1
  W  W34  1  0.834820  0.333909  0.871757  1
  W  W35  1  0.163889  0.666696  0.127447  1
