# generated using pymatgen
data_Sr4Lu(IrO6)2
_symmetry_space_group_name_H-M   'P 1'
_cell_length_a   5.69197611
_cell_length_b   5.69196679
_cell_length_c   9.74029120
_cell_angle_alpha   73.01830131
_cell_angle_beta   106.98238505
_cell_angle_gamma   120.02611139
_symmetry_Int_Tables_number   1
_chemical_formula_structural   Sr4Lu(IrO6)2
_chemical_formula_sum   'Sr4 Lu1 Ir2 O12'
_cell_volume   257.21792856
_cell_formula_units_Z   1
loop_
 _symmetry_equiv_pos_site_id
 _symmetry_equiv_pos_as_xyz
  1  'x, y, z'
loop_
 _atom_site_type_symbol
 _atom_site_label
 _atom_site_symmetry_multiplicity
 _atom_site_fract_x
 _atom_site_fract_y
 _atom_site_fract_z
 _atom_site_occupancy
  Sr  Sr0  1  0.714864  0.285142  0.144944  1
  Sr  Sr1  1  0.134648  0.865354  0.403985  1
  Sr  Sr2  1  0.865351  0.134644  0.596015  1
  Sr  Sr3  1  0.285135  0.714857  0.855057  1
  Lu  Lu4  1  0.000000  0.000000  0.000000  1
  Ir  Ir5  1  0.422212  0.577808  0.266619  1
  Ir  Ir6  1  0.577789  0.422191  0.733381  1
  O  O7  1  0.220528  0.303672  0.136859  1
  O  O8  1  0.696347  0.779488  0.136864  1
  O  O9  1  0.220287  0.779732  0.136895  1
  O  O10  1  0.130740  0.377674  0.375137  1
  O  O11  1  0.622170  0.377849  0.375269  1
  O  O12  1  0.622345  0.869278  0.375137  1
  O  O13  1  0.377656  0.130724  0.624863  1
  O  O14  1  0.869261  0.622326  0.624863  1
  O  O15  1  0.377831  0.622153  0.624731  1
  O  O16  1  0.779712  0.220267  0.863104  1
  O  O17  1  0.303651  0.220511  0.863135  1
  O  O18  1  0.779471  0.696327  0.863140  1
