# generated using pymatgen
data_Nd17Sm3Si15Cl
_symmetry_space_group_name_H-M   'P 1'
_cell_length_a   7.95925250
_cell_length_b   7.86757751
_cell_length_c   15.28327600
_cell_angle_alpha   89.51014998
_cell_angle_beta   89.18434514
_cell_angle_gamma   91.02522303
_symmetry_Int_Tables_number   1
_chemical_formula_structural   Nd17Sm3Si15Cl
_chemical_formula_sum   'Nd17 Sm3 Si15 Cl1'
_cell_volume   956.75202421
_cell_formula_units_Z   1
loop_
 _symmetry_equiv_pos_site_id
 _symmetry_equiv_pos_as_xyz
  1  'x, y, z'
loop_
 _atom_site_type_symbol
 _atom_site_label
 _atom_site_symmetry_multiplicity
 _atom_site_fract_x
 _atom_site_fract_y
 _atom_site_fract_z
 _atom_site_occupancy
  Nd  Nd0  1  0.686901  0.687246  0.498180  1
  Nd  Nd1  1  0.381755  0.002532  0.442203  1
  Nd  Nd2  1  0.500272  0.859928  0.701457  1
  Nd  Nd3  1  0.510960  0.122425  0.196578  1
  Nd  Nd4  1  0.874050  0.483183  0.299774  1
  Nd  Nd5  1  0.122788  0.520696  0.802081  1
  Nd  Nd6  1  0.635255  0.987220  0.952378  1
  Nd  Nd7  1  0.994834  0.382511  0.546778  1
  Nd  Nd8  1  0.995425  0.623642  0.052367  1
  Nd  Nd9  1  0.142799  0.990598  0.873585  1
  Nd  Nd10  1  0.519451  0.631360  0.124685  1
  Nd  Nd11  1  0.473852  0.360535  0.631682  1
  Nd  Nd12  1  0.637856  0.521079  0.876534  1
  Nd  Nd13  1  0.365260  0.476419  0.375913  1
  Nd  Nd14  1  0.871464  0.019659  0.377403  1
  Nd  Nd15  1  0.984650  0.125319  0.122765  1
  Nd  Nd16  1  0.019013  0.873850  0.621497  1
  Sm  Sm17  1  0.313323  0.311043  0.998552  1
  Sm  Sm18  1  0.186499  0.806877  0.249273  1
  Sm  Sm19  1  0.795612  0.189657  0.753559  1
  Si  Si20  1  0.334619  0.697815  0.948598  1
  Si  Si21  1  0.660353  0.303898  0.453988  1
  Si  Si22  1  0.702164  0.335105  0.050541  1
  Si  Si23  1  0.303490  0.664682  0.552107  1
  Si  Si24  1  0.806975  0.830009  0.203523  1
  Si  Si25  1  0.168963  0.190774  0.295043  1
  Si  Si26  1  0.844432  0.807958  0.797103  1
  Si  Si27  1  0.289494  0.923874  0.059048  1
  Si  Si28  1  0.573342  0.784128  0.308288  1
  Si  Si29  1  0.453293  0.206474  0.824015  1
  Si  Si30  1  0.790326  0.576804  0.687740  1
  Si  Si31  1  0.212449  0.424647  0.188899  1
  Si  Si32  1  0.705399  0.074200  0.562748  1
  Si  Si33  1  0.930953  0.291564  0.938923  1
  Si  Si34  1  0.076499  0.711520  0.439861  1
  Cl  Cl35  1  0.135228  0.200769  0.692334  1
