# generated using pymatgen
data_Tm2Lu10GaCo4Ru
_symmetry_space_group_name_H-M   'P 1'
_cell_length_a   8.05742121
_cell_length_b   8.05323496
_cell_length_c   8.05788288
_cell_angle_alpha   111.22626468
_cell_angle_beta   110.90799841
_cell_angle_gamma   106.30095015
_symmetry_Int_Tables_number   1
_chemical_formula_structural   Tm2Lu10GaCo4Ru
_chemical_formula_sum   'Tm2 Lu10 Ga1 Co4 Ru1'
_cell_volume   401.70310983
_cell_formula_units_Z   1
loop_
 _symmetry_equiv_pos_site_id
 _symmetry_equiv_pos_as_xyz
  1  'x, y, z'
loop_
 _atom_site_type_symbol
 _atom_site_label
 _atom_site_symmetry_multiplicity
 _atom_site_fract_x
 _atom_site_fract_y
 _atom_site_fract_z
 _atom_site_occupancy
  Tm  Tm0  1  0.817313  0.778702  0.595647  1
  Tm  Tm1  1  0.420432  0.728256  0.692658  1
  Lu  Lu2  1  0.578423  0.271617  0.306172  1
  Lu  Lu3  1  0.183298  0.221311  0.404685  1
  Lu  Lu4  1  0.183530  0.778462  0.962130  1
  Lu  Lu5  1  0.683920  0.486724  0.804079  1
  Lu  Lu6  1  0.683790  0.880273  0.196687  1
  Lu  Lu7  1  0.965018  0.272275  0.693009  1
  Lu  Lu8  1  0.034501  0.728068  0.305958  1
  Lu  Lu9  1  0.316357  0.120879  0.803954  1
  Lu  Lu10  1  0.315641  0.512456  0.195188  1
  Lu  Lu11  1  0.817488  0.222195  0.039293  1
  Ga  Ga12  1  0.498573  0.000309  0.499812  1
  Co  Co13  1  0.888301  0.886658  0.002297  1
  Co  Co14  1  0.371349  0.500034  0.871759  1
  Co  Co15  1  0.628311  0.499665  0.127742  1
  Co  Co16  1  0.114656  0.114137  0.001354  1
  Ru  Ru17  1  0.999099  0.497981  0.497578  1
