# generated using pymatgen
data_Y4Ho6FeHg3
_symmetry_space_group_name_H-M   'P 1'
_cell_length_a   9.57847400
_cell_length_b   9.57847539
_cell_length_c   9.60277300
_cell_angle_alpha   90.00000000
_cell_angle_beta   90.00000000
_cell_angle_gamma   119.99998828
_symmetry_Int_Tables_number   1
_chemical_formula_structural   Y4Ho6FeHg3
_chemical_formula_sum   'Y8 Ho12 Fe2 Hg6'
_cell_volume   762.99212986
_cell_formula_units_Z   2
loop_
 _symmetry_equiv_pos_site_id
 _symmetry_equiv_pos_as_xyz
  1  'x, y, z'
loop_
 _atom_site_type_symbol
 _atom_site_label
 _atom_site_symmetry_multiplicity
 _atom_site_fract_x
 _atom_site_fract_y
 _atom_site_fract_z
 _atom_site_occupancy
  Y  Y0  1  0.000000  0.000000  0.500000  1
  Y  Y1  1  0.000000  0.000000  0.000000  1
  Y  Y2  1  0.541631  0.458369  0.250000  1
  Y  Y3  1  0.541631  0.083263  0.250000  1
  Y  Y4  1  0.916737  0.458369  0.250000  1
  Y  Y5  1  0.458369  0.541631  0.750000  1
  Y  Y6  1  0.458369  0.916737  0.750000  1
  Y  Y7  1  0.083263  0.541631  0.750000  1
  Ho  Ho8  1  0.212204  0.787796  0.435447  1
  Ho  Ho9  1  0.212204  0.424410  0.435447  1
  Ho  Ho10  1  0.575590  0.787796  0.435447  1
  Ho  Ho11  1  0.787796  0.212204  0.564553  1
  Ho  Ho12  1  0.787796  0.575590  0.564553  1
  Ho  Ho13  1  0.424410  0.212204  0.564553  1
  Ho  Ho14  1  0.787796  0.212204  0.935447  1
  Ho  Ho15  1  0.787796  0.575590  0.935447  1
  Ho  Ho16  1  0.424410  0.212204  0.935447  1
  Ho  Ho17  1  0.212204  0.787796  0.064553  1
  Ho  Ho18  1  0.212204  0.424410  0.064553  1
  Ho  Ho19  1  0.575590  0.787796  0.064553  1
  Fe  Fe20  1  0.333333  0.666667  0.250000  1
  Fe  Fe21  1  0.666667  0.333333  0.750000  1
  Hg  Hg22  1  0.881855  0.118145  0.250000  1
  Hg  Hg23  1  0.881855  0.763711  0.250000  1
  Hg  Hg24  1  0.236289  0.118145  0.250000  1
  Hg  Hg25  1  0.118145  0.881855  0.750000  1
  Hg  Hg26  1  0.118145  0.236289  0.750000  1
  Hg  Hg27  1  0.763711  0.881855  0.750000  1
