# generated using pymatgen
data_Nd2ReSi4Tc7
_symmetry_space_group_name_H-M   'P 1'
_cell_length_a   4.17721700
_cell_length_b   7.27543536
_cell_length_c   15.49723975
_cell_angle_alpha   90.03574661
_cell_angle_beta   90.00000000
_cell_angle_gamma   90.00000000
_symmetry_Int_Tables_number   1
_chemical_formula_structural   Nd2ReSi4Tc7
_chemical_formula_sum   'Nd4 Re2 Si8 Tc14'
_cell_volume   470.97764127
_cell_formula_units_Z   2
loop_
 _symmetry_equiv_pos_site_id
 _symmetry_equiv_pos_as_xyz
  1  'x, y, z'
loop_
 _atom_site_type_symbol
 _atom_site_label
 _atom_site_symmetry_multiplicity
 _atom_site_fract_x
 _atom_site_fract_y
 _atom_site_fract_z
 _atom_site_occupancy
  Nd  Nd0  1  0.000000  0.581528  0.117317  1
  Nd  Nd1  1  0.000000  0.418472  0.882683  1
  Nd  Nd2  1  0.500000  0.081616  0.382999  1
  Nd  Nd3  1  0.500000  0.918384  0.617001  1
  Re  Re4  1  0.000000  0.136051  0.053004  1
  Re  Re5  1  0.000000  0.863949  0.946996  1
  Si  Si6  1  0.000000  0.823520  0.474376  1
  Si  Si7  1  0.000000  0.176480  0.525624  1
  Si  Si8  1  0.500000  0.325377  0.025486  1
  Si  Si9  1  0.500000  0.674623  0.974514  1
  Si  Si10  1  0.000000  0.294912  0.273438  1
  Si  Si11  1  0.000000  0.705088  0.726562  1
  Si  Si12  1  0.500000  0.795238  0.227086  1
  Si  Si13  1  0.500000  0.204762  0.772914  1
  Tc  Tc14  1  0.500000  0.637569  0.447496  1
  Tc  Tc15  1  0.500000  0.362431  0.552504  1
  Tc  Tc16  1  0.000000  0.729584  0.320173  1
  Tc  Tc17  1  0.000000  0.270416  0.679827  1
  Tc  Tc18  1  0.500000  0.230964  0.179840  1
  Tc  Tc19  1  0.500000  0.769036  0.820160  1
  Tc  Tc20  1  0.000000  0.435192  0.419116  1
  Tc  Tc21  1  0.000000  0.564808  0.580884  1
  Tc  Tc22  1  0.500000  0.932421  0.081014  1
  Tc  Tc23  1  0.500000  0.067579  0.918986  1
  Tc  Tc24  1  0.000000  0.990553  0.206568  1
  Tc  Tc25  1  0.000000  0.009447  0.793432  1
  Tc  Tc26  1  0.500000  0.490799  0.294115  1
  Tc  Tc27  1  0.500000  0.509201  0.705885  1
