# generated using pymatgen
data_Na4UPaTe6
_symmetry_space_group_name_H-M   'P 1'
_cell_length_a   7.80195135
_cell_length_b   7.80195089
_cell_length_c   7.91307700
_cell_angle_alpha   80.42650349
_cell_angle_beta   80.42649661
_cell_angle_gamma   119.72407964
_symmetry_Int_Tables_number   1
_chemical_formula_structural   Na4UPaTe6
_chemical_formula_sum   'Na4 U1 Pa1 Te6'
_cell_volume   394.68061904
_cell_formula_units_Z   1
loop_
 _symmetry_equiv_pos_site_id
 _symmetry_equiv_pos_as_xyz
  1  'x, y, z'
loop_
 _atom_site_type_symbol
 _atom_site_label
 _atom_site_symmetry_multiplicity
 _atom_site_fract_x
 _atom_site_fract_y
 _atom_site_fract_z
 _atom_site_occupancy
  Na  Na0  1  0.339811  0.660189  0.500000  1
  Na  Na1  1  0.660182  0.339818  0.500000  1
  Na  Na2  1  0.000058  0.999942  0.500000  1
  Na  Na3  1  0.500125  0.499875  0.000000  1
  U  U4  1  0.832610  0.167390  0.000000  1
  Pa  Pa5  1  0.167277  0.832723  0.000000  1
  Te  Te6  1  0.775517  0.769637  0.235532  1
  Te  Te7  1  0.414395  0.066301  0.234332  1
  Te  Te8  1  0.073031  0.427068  0.234420  1
  Te  Te9  1  0.572932  0.926969  0.765580  1
  Te  Te10  1  0.933699  0.585605  0.765668  1
  Te  Te11  1  0.230363  0.224483  0.764468  1
