# generated using pymatgen
data_Tm3Lu13Cd3InNi4
_symmetry_space_group_name_H-M   'P 1'
_cell_length_a   9.36047984
_cell_length_b   9.36425351
_cell_length_c   9.36425368
_cell_angle_alpha   60.09348086
_cell_angle_beta   60.08655160
_cell_angle_gamma   60.08655741
_symmetry_Int_Tables_number   1
_chemical_formula_structural   Tm3Lu13Cd3InNi4
_chemical_formula_sum   'Tm3 Lu13 Cd3 In1 Ni4'
_cell_volume   581.57143624
_cell_formula_units_Z   1
loop_
 _symmetry_equiv_pos_site_id
 _symmetry_equiv_pos_as_xyz
  1  'x, y, z'
loop_
 _atom_site_type_symbol
 _atom_site_label
 _atom_site_symmetry_multiplicity
 _atom_site_fract_x
 _atom_site_fract_y
 _atom_site_fract_z
 _atom_site_occupancy
  Tm  Tm0  1  0.348035  0.348201  0.348201  1
  Tm  Tm1  1  0.348434  0.348621  0.954959  1
  Tm  Tm2  1  0.348434  0.954959  0.348621  1
  Lu  Lu3  1  0.955134  0.348532  0.348532  1
  Lu  Lu4  1  0.812246  0.187676  0.187676  1
  Lu  Lu5  1  0.187906  0.811686  0.811686  1
  Lu  Lu6  1  0.187610  0.812228  0.187551  1
  Lu  Lu7  1  0.811646  0.187983  0.811491  1
  Lu  Lu8  1  0.187610  0.187551  0.812228  1
  Lu  Lu9  1  0.811646  0.811491  0.187983  1
  Lu  Lu10  1  0.938229  0.563581  0.563581  1
  Lu  Lu11  1  0.564067  0.936643  0.936643  1
  Lu  Lu12  1  0.563575  0.938192  0.563699  1
  Lu  Lu13  1  0.936698  0.564002  0.936758  1
  Lu  Lu14  1  0.563575  0.563699  0.938192  1
  Lu  Lu15  1  0.936698  0.936758  0.564002  1
  Cd  Cd16  1  0.581778  0.581547  0.252939  1
  Cd  Cd17  1  0.581778  0.252939  0.581547  1
  Cd  Cd18  1  0.252860  0.581656  0.581656  1
  In  In19  1  0.582323  0.581950  0.581950  1
  Ni  Ni20  1  0.142139  0.142411  0.142411  1
  Ni  Ni21  1  0.141903  0.142125  0.573575  1
  Ni  Ni22  1  0.141903  0.573575  0.142125  1
  Ni  Ni23  1  0.573772  0.141991  0.141991  1
