# generated using pymatgen
data_Zr2PdAu7
_symmetry_space_group_name_H-M   'P 1'
_cell_length_a   5.11820180
_cell_length_b   5.11820283
_cell_length_c   9.43981316
_cell_angle_alpha   89.48520680
_cell_angle_beta   89.48520783
_cell_angle_gamma   47.54013829
_symmetry_Int_Tables_number   1
_chemical_formula_structural   Zr2PdAu7
_chemical_formula_sum   'Zr2 Pd1 Au7'
_cell_volume   182.42604444
_cell_formula_units_Z   1
loop_
 _symmetry_equiv_pos_site_id
 _symmetry_equiv_pos_as_xyz
  1  'x, y, z'
loop_
 _atom_site_type_symbol
 _atom_site_label
 _atom_site_symmetry_multiplicity
 _atom_site_fract_x
 _atom_site_fract_y
 _atom_site_fract_z
 _atom_site_occupancy
  Zr  Zr0  1  0.699448  0.699448  0.898437  1
  Zr  Zr1  1  0.199652  0.199652  0.403400  1
  Pd  Pd2  1  0.501172  0.501172  0.495551  1
  Au  Au3  1  0.000223  0.000223  0.996783  1
  Au  Au4  1  0.796463  0.796463  0.598182  1
  Au  Au5  1  0.297901  0.297901  0.100836  1
  Au  Au6  1  0.399573  0.399573  0.799745  1
  Au  Au7  1  0.901932  0.901932  0.306294  1
  Au  Au8  1  0.100059  0.100059  0.696834  1
  Au  Au9  1  0.603578  0.603578  0.203937  1
