# generated using pymatgen
data_GdHfAgS4
_symmetry_space_group_name_H-M   'P 1'
_cell_length_a   7.82888097
_cell_length_b   7.82888129
_cell_length_c   7.82888095
_cell_angle_alpha   118.46236775
_cell_angle_beta   121.66309583
_cell_angle_gamma   89.91376761
_symmetry_Int_Tables_number   1
_chemical_formula_structural   GdHfAgS4
_chemical_formula_sum   'Gd2 Hf2 Ag2 S8'
_cell_volume   338.64679509
_cell_formula_units_Z   2
loop_
 _symmetry_equiv_pos_site_id
 _symmetry_equiv_pos_as_xyz
  1  'x, y, z'
loop_
 _atom_site_type_symbol
 _atom_site_label
 _atom_site_symmetry_multiplicity
 _atom_site_fract_x
 _atom_site_fract_y
 _atom_site_fract_z
 _atom_site_occupancy
  Gd  Gd0  1  0.000000  0.000000  0.500000  1
  Gd  Gd1  1  0.000000  0.500000  0.000000  1
  Hf  Hf2  1  0.000000  0.000000  0.000000  1
  Hf  Hf3  1  0.500000  0.000000  0.500000  1
  Ag  Ag4  1  0.375300  0.625300  0.750000  1
  Ag  Ag5  1  0.624700  0.374700  0.250000  1
  S  S6  1  0.251925  0.782538  0.030614  1
  S  S7  1  0.748075  0.778689  0.530614  1
  S  S8  1  0.221575  0.228944  0.992631  1
  S  S9  1  0.736313  0.228944  0.507369  1
  S  S10  1  0.778425  0.771056  0.007369  1
  S  S11  1  0.263687  0.771056  0.492631  1
  S  S12  1  0.748075  0.217462  0.969386  1
  S  S13  1  0.251925  0.221311  0.469386  1
