# generated using pymatgen
data_Er20Ir5Rh6Au
_symmetry_space_group_name_H-M   'P 1'
_cell_length_a   10.85404051
_cell_length_b   10.85852550
_cell_length_c   6.31097656
_cell_angle_alpha   89.98134142
_cell_angle_beta   90.02034001
_cell_angle_gamma   90.44386801
_symmetry_Int_Tables_number   1
_chemical_formula_structural   Er20Ir5Rh6Au
_chemical_formula_sum   'Er20 Ir5 Rh6 Au1'
_cell_volume   743.78219626
_cell_formula_units_Z   1
loop_
 _symmetry_equiv_pos_site_id
 _symmetry_equiv_pos_as_xyz
  1  'x, y, z'
loop_
 _atom_site_type_symbol
 _atom_site_label
 _atom_site_symmetry_multiplicity
 _atom_site_fract_x
 _atom_site_fract_y
 _atom_site_fract_z
 _atom_site_occupancy
  Er  Er0  1  0.295348  0.084298  0.366096  1
  Er  Er1  1  0.293574  0.904080  0.882014  1
  Er  Er2  1  0.709641  0.089989  0.877302  1
  Er  Er3  1  0.706291  0.908805  0.376544  1
  Er  Er4  1  0.588202  0.789439  0.879871  1
  Er  Er5  1  0.589011  0.209749  0.379692  1
  Er  Er6  1  0.410919  0.789641  0.380514  1
  Er  Er7  1  0.420014  0.211152  0.879040  1
  Er  Er8  1  0.211679  0.420452  0.620792  1
  Er  Er9  1  0.209580  0.591211  0.119920  1
  Er  Er10  1  0.789567  0.413150  0.119736  1
  Er  Er11  1  0.790019  0.588523  0.620634  1
  Er  Er12  1  0.910994  0.707334  0.123339  1
  Er  Er13  1  0.904349  0.294422  0.618456  1
  Er  Er14  1  0.090188  0.710429  0.621806  1
  Er  Er15  1  0.086757  0.296489  0.133835  1
  Er  Er16  1  0.995055  0.996427  0.498515  1
  Er  Er17  1  0.996647  0.995485  0.001654  1
  Er  Er18  1  0.499274  0.500658  0.001176  1
  Er  Er19  1  0.501456  0.499433  0.498903  1
  Ir  Ir20  1  0.152685  0.847556  0.249446  1
  Ir  Ir21  1  0.653603  0.345533  0.751502  1
  Ir  Ir22  1  0.655421  0.654506  0.249670  1
  Ir  Ir23  1  0.344537  0.343494  0.250574  1
  Ir  Ir24  1  0.346412  0.653078  0.748672  1
  Rh  Rh25  1  0.847386  0.153084  0.250389  1
  Rh  Rh26  1  0.843658  0.844743  0.750069  1
  Rh  Rh27  1  0.500988  0.000564  0.123527  1
  Rh  Rh28  1  0.500471  0.999785  0.627494  1
  Rh  Rh29  1  0.999789  0.499731  0.872399  1
  Rh  Rh30  1  0.000508  0.499978  0.376580  1
  Au  Au31  1  0.155975  0.156781  0.749840  1
