# generated using pymatgen
data_Ce8Ga3Si12Ni
_symmetry_space_group_name_H-M   'P 1'
_cell_length_a   8.18378300
_cell_length_b   8.18378364
_cell_length_c   8.25940200
_cell_angle_alpha   90.00000000
_cell_angle_beta   90.00000000
_cell_angle_gamma   119.99999339
_symmetry_Int_Tables_number   1
_chemical_formula_structural   Ce8Ga3Si12Ni
_chemical_formula_sum   'Ce8 Ga3 Si12 Ni1'
_cell_volume   479.05735162
_cell_formula_units_Z   1
loop_
 _symmetry_equiv_pos_site_id
 _symmetry_equiv_pos_as_xyz
  1  'x, y, z'
loop_
 _atom_site_type_symbol
 _atom_site_label
 _atom_site_symmetry_multiplicity
 _atom_site_fract_x
 _atom_site_fract_y
 _atom_site_fract_z
 _atom_site_occupancy
  Ce  Ce0  1  0.000000  0.000000  0.249997  1
  Ce  Ce1  1  0.000000  0.000000  0.750403  1
  Ce  Ce2  1  0.499671  0.500329  0.250012  1
  Ce  Ce3  1  0.499671  0.999341  0.250012  1
  Ce  Ce4  1  0.000659  0.500329  0.250012  1
  Ce  Ce5  1  0.498671  0.501329  0.750310  1
  Ce  Ce6  1  0.498671  0.997343  0.750310  1
  Ce  Ce7  1  0.002657  0.501329  0.750310  1
  Ga  Ga8  1  0.666667  0.333333  0.501234  1
  Ga  Ga9  1  0.666667  0.333333  0.998180  1
  Ga  Ga10  1  0.333333  0.666667  0.002234  1
  Si  Si11  1  0.172175  0.827825  0.499459  1
  Si  Si12  1  0.172175  0.344350  0.499459  1
  Si  Si13  1  0.655650  0.827825  0.499459  1
  Si  Si14  1  0.837024  0.162976  0.499897  1
  Si  Si15  1  0.837024  0.674046  0.499897  1
  Si  Si16  1  0.325954  0.162976  0.499897  1
  Si  Si17  1  0.835069  0.164931  0.000855  1
  Si  Si18  1  0.835069  0.670137  0.000855  1
  Si  Si19  1  0.329863  0.164931  0.000855  1
  Si  Si20  1  0.164684  0.835316  0.000334  1
  Si  Si21  1  0.164684  0.329370  0.000334  1
  Si  Si22  1  0.670630  0.835316  0.000334  1
  Ni  Ni23  1  0.333333  0.666667  0.495354  1
