# generated using pymatgen
data_Na2Co3Ni9As7
_symmetry_space_group_name_H-M   'P 1'
_cell_length_a   9.43649100
_cell_length_b   9.43648945
_cell_length_c   3.70384800
_cell_angle_alpha   90.00000000
_cell_angle_beta   90.00000000
_cell_angle_gamma   119.99999493
_symmetry_Int_Tables_number   1
_chemical_formula_structural   Na2Co3Ni9As7
_chemical_formula_sum   'Na2 Co3 Ni9 As7'
_cell_volume   285.63064333
_cell_formula_units_Z   1
loop_
 _symmetry_equiv_pos_site_id
 _symmetry_equiv_pos_as_xyz
  1  'x, y, z'
loop_
 _atom_site_type_symbol
 _atom_site_label
 _atom_site_symmetry_multiplicity
 _atom_site_fract_x
 _atom_site_fract_y
 _atom_site_fract_z
 _atom_site_occupancy
  Na  Na0  1  0.666667  0.333333  0.000000  1
  Na  Na1  1  0.000000  0.000000  0.500000  1
  Co  Co2  1  0.488154  0.941869  0.000000  1
  Co  Co3  1  0.058131  0.546285  0.000000  1
  Co  Co4  1  0.453715  0.511846  0.000000  1
  Ni  Ni5  1  0.711706  0.094005  0.500000  1
  Ni  Ni6  1  0.905995  0.617702  0.500000  1
  Ni  Ni7  1  0.382298  0.288294  0.500000  1
  Ni  Ni8  1  0.771900  0.720440  0.000000  1
  Ni  Ni9  1  0.279560  0.051459  0.000000  1
  Ni  Ni10  1  0.948541  0.228100  0.000000  1
  Ni  Ni11  1  0.546459  0.759034  0.500000  1
  Ni  Ni12  1  0.240966  0.787424  0.500000  1
  Ni  Ni13  1  0.212576  0.453541  0.500000  1
  As  As14  1  0.333333  0.666667  0.000000  1
  As  As15  1  0.447844  0.072957  0.500000  1
  As  As16  1  0.927043  0.374886  0.500000  1
  As  As17  1  0.625114  0.552156  0.500000  1
  As  As18  1  0.739750  0.951058  0.000000  1
  As  As19  1  0.048942  0.788693  0.000000  1
  As  As20  1  0.211307  0.260250  0.000000  1
