# generated using pymatgen
data_Na(Sr3Ga2)7
_symmetry_space_group_name_H-M   'P 1'
_cell_length_a   12.11282461
_cell_length_b   12.11282558
_cell_length_c   12.11282500
_cell_angle_alpha   60.00000432
_cell_angle_beta   60.00000167
_cell_angle_gamma   60.00000061
_symmetry_Int_Tables_number   1
_chemical_formula_structural   Na(Sr3Ga2)7
_chemical_formula_sum   'Na1 Sr21 Ga14'
_cell_volume   1256.67032303
_cell_formula_units_Z   1
loop_
 _symmetry_equiv_pos_site_id
 _symmetry_equiv_pos_as_xyz
  1  'x, y, z'
loop_
 _atom_site_type_symbol
 _atom_site_label
 _atom_site_symmetry_multiplicity
 _atom_site_fract_x
 _atom_site_fract_y
 _atom_site_fract_z
 _atom_site_occupancy
  Na  Na0  1  0.500000  0.500000  0.500000  1
  Sr  Sr1  1  0.869371  0.869371  0.391886  1
  Sr  Sr2  1  0.608114  0.130629  0.130629  1
  Sr  Sr3  1  0.869371  0.391886  0.869371  1
  Sr  Sr4  1  0.130629  0.130629  0.130629  1
  Sr  Sr5  1  0.391886  0.869371  0.869371  1
  Sr  Sr6  1  0.869371  0.869371  0.869371  1
  Sr  Sr7  1  0.167581  0.832419  0.500000  1
  Sr  Sr8  1  0.832419  0.500000  0.500000  1
  Sr  Sr9  1  0.130629  0.130629  0.608114  1
  Sr  Sr10  1  0.832419  0.167581  0.500000  1
  Sr  Sr11  1  0.167581  0.500000  0.500000  1
  Sr  Sr12  1  0.130629  0.608114  0.130629  1
  Sr  Sr13  1  0.500000  0.500000  0.167581  1
  Sr  Sr14  1  0.500000  0.167581  0.832419  1
  Sr  Sr15  1  0.500000  0.832419  0.167581  1
  Sr  Sr16  1  0.500000  0.500000  0.832419  1
  Sr  Sr17  1  0.500000  0.167581  0.500000  1
  Sr  Sr18  1  0.167581  0.500000  0.832419  1
  Sr  Sr19  1  0.000000  0.000000  0.000000  1
  Sr  Sr20  1  0.500000  0.832419  0.500000  1
  Sr  Sr21  1  0.832419  0.500000  0.167581  1
  Ga  Ga22  1  0.693458  0.919625  0.693458  1
  Ga  Ga23  1  0.693458  0.693458  0.919625  1
  Ga  Ga24  1  0.693458  0.693458  0.693458  1
  Ga  Ga25  1  0.306542  0.080375  0.306542  1
  Ga  Ga26  1  0.919625  0.693458  0.693458  1
  Ga  Ga27  1  0.306542  0.306542  0.080375  1
  Ga  Ga28  1  0.080375  0.306542  0.306542  1
  Ga  Ga29  1  0.306542  0.306542  0.306542  1
  Ga  Ga30  1  0.782551  0.217449  0.782551  1
  Ga  Ga31  1  0.782551  0.217449  0.217449  1
  Ga  Ga32  1  0.217449  0.782551  0.217449  1
  Ga  Ga33  1  0.217449  0.782551  0.782551  1
  Ga  Ga34  1  0.782551  0.782551  0.217449  1
  Ga  Ga35  1  0.217449  0.217449  0.782551  1
