# generated using pymatgen
data_Dy2HoIn3CoPt2
_symmetry_space_group_name_H-M   'P 1'
_cell_length_a   7.66458268
_cell_length_b   7.67017887
_cell_length_c   3.76824400
_cell_angle_alpha   90.00000000
_cell_angle_beta   90.00000000
_cell_angle_gamma   120.02414926
_symmetry_Int_Tables_number   1
_chemical_formula_structural   Dy2HoIn3CoPt2
_chemical_formula_sum   'Dy2 Ho1 In3 Co1 Pt2'
_cell_volume   191.80411431
_cell_formula_units_Z   1
loop_
 _symmetry_equiv_pos_site_id
 _symmetry_equiv_pos_as_xyz
  1  'x, y, z'
loop_
 _atom_site_type_symbol
 _atom_site_label
 _atom_site_symmetry_multiplicity
 _atom_site_fract_x
 _atom_site_fract_y
 _atom_site_fract_z
 _atom_site_occupancy
  Dy  Dy0  1  0.593695  0.999972  0.500000  1
  Dy  Dy1  1  0.406305  0.406277  0.500000  1
  Ho  Ho2  1  0.000000  0.593796  0.500000  1
  In  In3  1  0.752224  0.751893  0.000000  1
  In  In4  1  0.000000  0.248239  0.000000  1
  In  In5  1  0.247776  0.999669  0.000000  1
  Co  Co6  1  0.000000  0.999678  0.500000  1
  Pt  Pt7  1  0.332521  0.666499  0.000000  1
  Pt  Pt8  1  0.667479  0.333977  0.000000  1
