# generated using pymatgen
data_Ce6ZrCo17P12
_symmetry_space_group_name_H-M   'P 1'
_cell_length_a   3.76619000
_cell_length_b   10.60236400
_cell_length_c   12.43702600
_cell_angle_alpha   90.00000000
_cell_angle_beta   90.00000000
_cell_angle_gamma   90.00000000
_symmetry_Int_Tables_number   1
_chemical_formula_structural   Ce6ZrCo17P12
_chemical_formula_sum   'Ce6 Zr1 Co17 P12'
_cell_volume   496.61688152
_cell_formula_units_Z   1
loop_
 _symmetry_equiv_pos_site_id
 _symmetry_equiv_pos_as_xyz
  1  'x, y, z'
loop_
 _atom_site_type_symbol
 _atom_site_label
 _atom_site_symmetry_multiplicity
 _atom_site_fract_x
 _atom_site_fract_y
 _atom_site_fract_z
 _atom_site_occupancy
  Ce  Ce0  1  0.000000  0.500000  0.532166  1
  Ce  Ce1  1  0.500000  0.000000  0.477688  1
  Ce  Ce2  1  0.500000  0.821503  0.210038  1
  Ce  Ce3  1  0.500000  0.178497  0.210038  1
  Ce  Ce4  1  0.000000  0.683396  0.794368  1
  Ce  Ce5  1  0.000000  0.316604  0.794368  1
  Zr  Zr6  1  0.500000  0.500000  0.152435  1
  Co  Co7  1  0.000000  0.000000  0.836498  1
  Co  Co8  1  0.500000  0.500000  0.702599  1
  Co  Co9  1  0.000000  0.000000  0.296035  1
  Co  Co10  1  0.000000  0.500000  0.983478  1
  Co  Co11  1  0.500000  0.000000  0.014980  1
  Co  Co12  1  0.500000  0.327186  0.987595  1
  Co  Co13  1  0.500000  0.672814  0.987595  1
  Co  Co14  1  0.000000  0.161486  0.999591  1
  Co  Co15  1  0.000000  0.838514  0.999591  1
  Co  Co16  1  0.500000  0.297833  0.433542  1
  Co  Co17  1  0.500000  0.702167  0.433542  1
  Co  Co18  1  0.000000  0.199139  0.570754  1
  Co  Co19  1  0.000000  0.800861  0.570754  1
  Co  Co20  1  0.500000  0.880737  0.710701  1
  Co  Co21  1  0.500000  0.119263  0.710701  1
  Co  Co22  1  0.000000  0.622600  0.296347  1
  Co  Co23  1  0.000000  0.377400  0.296347  1
  P  P24  1  0.500000  0.500000  0.883875  1
  P  P25  1  0.000000  0.000000  0.113093  1
  P  P26  1  0.500000  0.500000  0.359580  1
  P  P27  1  0.000000  0.000000  0.657115  1
  P  P28  1  0.500000  0.304706  0.615477  1
  P  P29  1  0.500000  0.695294  0.615477  1
  P  P30  1  0.000000  0.191722  0.389237  1
  P  P31  1  0.000000  0.808278  0.389237  1
  P  P32  1  0.500000  0.854293  0.890750  1
  P  P33  1  0.500000  0.145707  0.890750  1
  P  P34  1  0.000000  0.664936  0.096828  1
  P  P35  1  0.000000  0.335064  0.096828  1
