# generated using pymatgen
data_Er18Tm2GaBi11
_symmetry_space_group_name_H-M   'P 1'
_cell_length_a   8.17468784
_cell_length_b   9.45411409
_cell_length_c   11.92447500
_cell_angle_alpha   90.00400593
_cell_angle_beta   89.94447528
_cell_angle_gamma   89.99300412
_symmetry_Int_Tables_number   1
_chemical_formula_structural   Er18Tm2GaBi11
_chemical_formula_sum   'Er18 Tm2 Ga1 Bi11'
_cell_volume   921.57582951
_cell_formula_units_Z   1
loop_
 _symmetry_equiv_pos_site_id
 _symmetry_equiv_pos_as_xyz
  1  'x, y, z'
loop_
 _atom_site_type_symbol
 _atom_site_label
 _atom_site_symmetry_multiplicity
 _atom_site_fract_x
 _atom_site_fract_y
 _atom_site_fract_z
 _atom_site_occupancy
  Er  Er0  1  0.036736  0.250224  0.510832  1
  Er  Er1  1  0.978484  0.750228  0.489285  1
  Er  Er2  1  0.475400  0.750269  0.011376  1
  Er  Er3  1  0.524951  0.250145  0.988711  1
  Er  Er4  1  0.355875  0.250426  0.293062  1
  Er  Er5  1  0.646977  0.750222  0.716161  1
  Er  Er6  1  0.147026  0.750102  0.782974  1
  Er  Er7  1  0.854088  0.250390  0.216302  1
  Er  Er8  1  0.190971  0.250034  0.777991  1
  Er  Er9  1  0.812126  0.749914  0.217842  1
  Er  Er10  1  0.313008  0.749827  0.281315  1
  Er  Er11  1  0.675086  0.250020  0.710970  1
  Er  Er12  1  0.193257  0.065452  0.059763  1
  Er  Er13  1  0.806977  0.935475  0.940853  1
  Er  Er14  1  0.309690  0.949268  0.558586  1
  Er  Er15  1  0.806913  0.564645  0.941072  1
  Er  Er16  1  0.683948  0.071304  0.445297  1
  Er  Er17  1  0.193413  0.434826  0.059932  1
  Tm  Tm18  1  0.683282  0.427244  0.445535  1
  Tm  Tm19  1  0.309235  0.549904  0.558683  1
  Ga  Ga20  1  0.407720  0.250766  0.539600  1
  Bi  Bi21  1  0.593957  0.748983  0.457561  1
  Bi  Bi22  1  0.093615  0.749899  0.042813  1
  Bi  Bi23  1  0.908227  0.249983  0.955129  1
  Bi  Bi24  1  0.064866  0.003240  0.325304  1
  Bi  Bi25  1  0.934363  0.996877  0.674450  1
  Bi  Bi26  1  0.434479  0.996072  0.825152  1
  Bi  Bi27  1  0.934654  0.503229  0.674455  1
  Bi  Bi28  1  0.565572  0.004279  0.174421  1
  Bi  Bi29  1  0.064915  0.496789  0.325162  1
  Bi  Bi30  1  0.565564  0.495906  0.174382  1
  Bi  Bi31  1  0.434631  0.504056  0.825031  1
