# generated using pymatgen
data_Ba6Nb3MoS16
_symmetry_space_group_name_H-M   'P 1'
_cell_length_a   11.31923534
_cell_length_b   11.31923433
_cell_length_c   11.31923500
_cell_angle_alpha   51.63092690
_cell_angle_beta   51.63093094
_cell_angle_gamma   51.63093202
_symmetry_Int_Tables_number   1
_chemical_formula_structural   Ba6Nb3MoS16
_chemical_formula_sum   'Ba6 Nb3 Mo1 S16'
_cell_volume   823.51272488
_cell_formula_units_Z   1
loop_
 _symmetry_equiv_pos_site_id
 _symmetry_equiv_pos_as_xyz
  1  'x, y, z'
loop_
 _atom_site_type_symbol
 _atom_site_label
 _atom_site_symmetry_multiplicity
 _atom_site_fract_x
 _atom_site_fract_y
 _atom_site_fract_z
 _atom_site_occupancy
  Ba  Ba0  1  0.749661  0.432441  0.068465  1
  Ba  Ba1  1  0.571700  0.929873  0.247728  1
  Ba  Ba2  1  0.068465  0.749661  0.432442  1
  Ba  Ba3  1  0.929874  0.247728  0.571700  1
  Ba  Ba4  1  0.432442  0.068466  0.749660  1
  Ba  Ba5  1  0.247728  0.571700  0.929874  1
  Nb  Nb6  1  0.160398  0.160398  0.160398  1
  Nb  Nb7  1  0.339512  0.339512  0.339512  1
  Nb  Nb8  1  0.660462  0.660462  0.660462  1
  Mo  Mo9  1  0.839398  0.839398  0.839398  1
  S  S10  1  0.613268  0.788786  0.038571  1
  S  S11  1  0.081995  0.081995  0.081995  1
  S  S12  1  0.543213  0.286188  0.109622  1
  S  S13  1  0.956274  0.389717  0.214890  1
  S  S14  1  0.109622  0.543212  0.286188  1
  S  S15  1  0.214889  0.956275  0.389717  1
  S  S16  1  0.418076  0.418076  0.418076  1
  S  S17  1  0.713574  0.890653  0.457158  1
  S  S18  1  0.286188  0.109622  0.543213  1
  S  S19  1  0.581989  0.581989  0.581989  1
  S  S20  1  0.788786  0.038571  0.613268  1
  S  S21  1  0.890653  0.457159  0.713574  1
  S  S22  1  0.038571  0.613268  0.788786  1
  S  S23  1  0.457159  0.713574  0.890653  1
  S  S24  1  0.916386  0.916386  0.916386  1
  S  S25  1  0.389718  0.214889  0.956274  1
