# generated using pymatgen
data_Sr4Li(MoO4)3
_symmetry_space_group_name_H-M   'P 1'
_cell_length_a   5.68610101
_cell_length_b   5.70812733
_cell_length_c   8.08795625
_cell_angle_alpha   89.69512560
_cell_angle_beta   89.81106469
_cell_angle_gamma   89.83021860
_symmetry_Int_Tables_number   1
_chemical_formula_structural   Sr4Li(MoO4)3
_chemical_formula_sum   'Sr4 Li1 Mo3 O12'
_cell_volume   262.50442103
_cell_formula_units_Z   1
loop_
 _symmetry_equiv_pos_site_id
 _symmetry_equiv_pos_as_xyz
  1  'x, y, z'
loop_
 _atom_site_type_symbol
 _atom_site_label
 _atom_site_symmetry_multiplicity
 _atom_site_fract_x
 _atom_site_fract_y
 _atom_site_fract_z
 _atom_site_occupancy
  Sr  Sr0  1  0.513363  0.496931  0.766231  1
  Sr  Sr1  1  0.018777  0.006153  0.766194  1
  Sr  Sr2  1  0.486637  0.503069  0.233769  1
  Sr  Sr3  1  0.981223  0.993847  0.233806  1
  Li  Li4  1  0.500000  0.000000  0.000000  1
  Mo  Mo5  1  0.000000  0.500000  0.500000  1
  Mo  Mo6  1  0.500000  0.000000  0.500000  1
  Mo  Mo7  1  0.000000  0.500000  0.000000  1
  O  O8  1  0.751893  0.726126  0.030749  1
  O  O9  1  0.215673  0.780281  0.464548  1
  O  O10  1  0.281269  0.285111  0.537794  1
  O  O11  1  0.771906  0.254066  0.974230  1
  O  O12  1  0.248107  0.273874  0.969251  1
  O  O13  1  0.784327  0.219719  0.535452  1
  O  O14  1  0.718731  0.714889  0.462206  1
  O  O15  1  0.228094  0.745934  0.025770  1
  O  O16  1  0.492966  0.940516  0.731022  1
  O  O17  1  0.989358  0.564948  0.757492  1
  O  O18  1  0.507034  0.059484  0.268978  1
  O  O19  1  0.010642  0.435052  0.242508  1
