# generated using pymatgen
data_V2As2Cl2O5
_symmetry_space_group_name_H-M   'P 1'
_cell_length_a   6.46016683
_cell_length_b   7.30244720
_cell_length_c   9.19854737
_cell_angle_alpha   107.42175232
_cell_angle_beta   104.22538330
_cell_angle_gamma   102.61549431
_symmetry_Int_Tables_number   1
_chemical_formula_structural   V2As2Cl2O5
_chemical_formula_sum   'V4 As4 Cl4 O10'
_cell_volume   380.81475532
_cell_formula_units_Z   2
loop_
 _symmetry_equiv_pos_site_id
 _symmetry_equiv_pos_as_xyz
  1  'x, y, z'
loop_
 _atom_site_type_symbol
 _atom_site_label
 _atom_site_symmetry_multiplicity
 _atom_site_fract_x
 _atom_site_fract_y
 _atom_site_fract_z
 _atom_site_occupancy
  V  V0  1  0.417645  0.688343  0.513314  1
  V  V1  1  0.582355  0.311657  0.486686  1
  V  V2  1  0.877382  0.784088  0.354189  1
  V  V3  1  0.122618  0.215912  0.645811  1
  As  As4  1  0.899141  0.841371  0.751434  1
  As  As5  1  0.100859  0.158629  0.248566  1
  As  As6  1  0.686177  0.221462  0.786286  1
  As  As7  1  0.313823  0.778538  0.213714  1
  Cl  Cl8  1  0.232919  0.596321  0.700525  1
  Cl  Cl9  1  0.767081  0.403679  0.299475  1
  Cl  Cl10  1  0.792879  0.720577  0.068526  1
  Cl  Cl11  1  0.207121  0.279423  0.931474  1
  O  O12  1  0.822397  0.255637  0.637885  1
  O  O13  1  0.177603  0.744363  0.362115  1
  O  O14  1  0.566452  0.778372  0.357771  1
  O  O15  1  0.433548  0.221628  0.642229  1
  O  O16  1  0.637697  0.943191  0.717068  1
  O  O17  1  0.362303  0.056809  0.282932  1
  O  O18  1  0.686882  0.606089  0.613583  1
  O  O19  1  0.313118  0.393911  0.386417  1
  O  O20  1  0.998559  0.919723  0.605327  1
  O  O21  1  0.001441  0.080277  0.394673  1
