# generated using pymatgen
data_NdErTcB6
_symmetry_space_group_name_H-M   'P 1'
_cell_length_a   3.72470700
_cell_length_b   9.21936000
_cell_length_c   11.67242600
_cell_angle_alpha   90.00000000
_cell_angle_beta   90.00000000
_cell_angle_gamma   90.00000000
_symmetry_Int_Tables_number   1
_chemical_formula_structural   NdErTcB6
_chemical_formula_sum   'Nd4 Er4 Tc4 B24'
_cell_volume   400.82427729
_cell_formula_units_Z   4
loop_
 _symmetry_equiv_pos_site_id
 _symmetry_equiv_pos_as_xyz
  1  'x, y, z'
loop_
 _atom_site_type_symbol
 _atom_site_label
 _atom_site_symmetry_multiplicity
 _atom_site_fract_x
 _atom_site_fract_y
 _atom_site_fract_z
 _atom_site_occupancy
  Nd  Nd0  1  0.000000  0.323356  0.414701  1
  Nd  Nd1  1  0.000000  0.676644  0.585299  1
  Nd  Nd2  1  0.000000  0.823356  0.085299  1
  Nd  Nd3  1  0.000000  0.176644  0.914701  1
  Er  Er4  1  0.000000  0.943052  0.368926  1
  Er  Er5  1  0.000000  0.056948  0.631074  1
  Er  Er6  1  0.000000  0.443052  0.131074  1
  Er  Er7  1  0.000000  0.556948  0.868926  1
  Tc  Tc8  1  0.000000  0.640454  0.318585  1
  Tc  Tc9  1  0.000000  0.359546  0.681415  1
  Tc  Tc10  1  0.000000  0.140454  0.181415  1
  Tc  Tc11  1  0.000000  0.859546  0.818585  1
  B  B12  1  0.500000  0.555681  0.430202  1
  B  B13  1  0.500000  0.444319  0.569798  1
  B  B14  1  0.500000  0.055681  0.069798  1
  B  B15  1  0.500000  0.944319  0.930202  1
  B  B16  1  0.500000  0.750499  0.415714  1
  B  B17  1  0.500000  0.249501  0.584286  1
  B  B18  1  0.500000  0.250499  0.084286  1
  B  B19  1  0.500000  0.749501  0.915714  1
  B  B20  1  0.500000  0.792125  0.265712  1
  B  B21  1  0.500000  0.207875  0.734288  1
  B  B22  1  0.500000  0.292125  0.234288  1
  B  B23  1  0.500000  0.707875  0.765712  1
  B  B24  1  0.500000  0.629794  0.185847  1
  B  B25  1  0.500000  0.370206  0.814153  1
  B  B26  1  0.500000  0.129794  0.314153  1
  B  B27  1  0.500000  0.870206  0.685847  1
  B  B28  1  0.500000  0.984220  0.213262  1
  B  B29  1  0.500000  0.015780  0.786738  1
  B  B30  1  0.500000  0.484220  0.286738  1
  B  B31  1  0.500000  0.515780  0.713262  1
  B  B32  1  0.500000  0.596056  0.026347  1
  B  B33  1  0.500000  0.403944  0.973653  1
  B  B34  1  0.500000  0.096056  0.473653  1
  B  B35  1  0.500000  0.903944  0.526347  1
