# generated using pymatgen
data_HoNp3(Ga8Pt3)3
_symmetry_space_group_name_H-M   'P 1'
_cell_length_a   7.51154264
_cell_length_b   7.59697606
_cell_length_c   13.36127600
_cell_angle_alpha   84.75217066
_cell_angle_beta   79.55681859
_cell_angle_gamma   60.21465972
_symmetry_Int_Tables_number   1
_chemical_formula_structural   HoNp3(Ga8Pt3)3
_chemical_formula_sum   'Ho1 Np3 Ga24 Pt9'
_cell_volume   650.77210004
_cell_formula_units_Z   1
loop_
 _symmetry_equiv_pos_site_id
 _symmetry_equiv_pos_as_xyz
  1  'x, y, z'
loop_
 _atom_site_type_symbol
 _atom_site_label
 _atom_site_symmetry_multiplicity
 _atom_site_fract_x
 _atom_site_fract_y
 _atom_site_fract_z
 _atom_site_occupancy
  Ho  Ho0  1  0.394144  0.169643  0.810608  1
  Np  Np1  1  0.605085  0.830404  0.192696  1
  Np  Np2  1  0.733818  0.497884  0.807669  1
  Np  Np3  1  0.266321  0.502825  0.191996  1
  Ga  Ga4  1  0.684165  0.832905  0.940122  1
  Ga  Ga5  1  0.317245  0.166101  0.060365  1
  Ga  Ga6  1  0.145214  0.833293  0.559528  1
  Ga  Ga7  1  0.854267  0.166710  0.441358  1
  Ga  Ga8  1  0.478640  0.166569  0.556765  1
  Ga  Ga9  1  0.521508  0.833822  0.443433  1
  Ga  Ga10  1  0.220436  0.164999  0.323744  1
  Ga  Ga11  1  0.778173  0.836094  0.676686  1
  Ga  Ga12  1  0.436814  0.503435  0.676288  1
  Ga  Ga13  1  0.562791  0.494975  0.324453  1
  Ga  Ga14  1  0.108156  0.162323  0.675845  1
  Ga  Ga15  1  0.892626  0.837983  0.325190  1
  Ga  Ga16  1  0.357754  0.497711  0.940492  1
  Ga  Ga17  1  0.642499  0.503330  0.058477  1
  Ga  Ga18  1  0.018707  0.170800  0.943627  1
  Ga  Ga19  1  0.980538  0.829346  0.055387  1
  Ga  Ga20  1  0.187568  0.499284  0.442874  1
  Ga  Ga21  1  0.812772  0.500273  0.557791  1
  Ga  Ga22  1  0.734975  0.164143  0.180623  1
  Ga  Ga23  1  0.266172  0.834653  0.818041  1
  Ga  Ga24  1  0.060142  0.631806  0.817524  1
  Ga  Ga25  1  0.939472  0.367494  0.181701  1
  Ga  Ga26  1  0.856584  0.040227  0.817403  1
  Ga  Ga27  1  0.143009  0.960695  0.181674  1
  Pt  Pt28  1  0.118913  0.495368  0.638856  1
  Pt  Pt29  1  0.881700  0.503078  0.361495  1
  Pt  Pt30  1  0.661823  0.168233  0.998300  1
  Pt  Pt31  1  0.337481  0.833886  0.999438  1
  Pt  Pt32  1  0.542623  0.166967  0.360558  1
  Pt  Pt33  1  0.457810  0.834003  0.639303  1
  Pt  Pt34  1  0.779222  0.171070  0.637755  1
  Pt  Pt35  1  0.218954  0.829447  0.362772  1
  Pt  Pt36  1  0.001877  0.498223  0.999161  1
