# generated using pymatgen
data_Lu5OsRuC7
_symmetry_space_group_name_H-M   'P 1'
_cell_length_a   8.00121009
_cell_length_b   8.00120930
_cell_length_c   3.43653500
_cell_angle_alpha   90.00000000
_cell_angle_beta   90.00000000
_cell_angle_gamma   121.11114832
_symmetry_Int_Tables_number   1
_chemical_formula_structural   Lu5OsRuC7
_chemical_formula_sum   'Lu5 Os1 Ru1 C7'
_cell_volume   188.36071904
_cell_formula_units_Z   1
loop_
 _symmetry_equiv_pos_site_id
 _symmetry_equiv_pos_as_xyz
  1  'x, y, z'
loop_
 _atom_site_type_symbol
 _atom_site_label
 _atom_site_symmetry_multiplicity
 _atom_site_fract_x
 _atom_site_fract_y
 _atom_site_fract_z
 _atom_site_occupancy
  Lu  Lu0  1  0.341135  0.080276  0.500000  1
  Lu  Lu1  1  0.661401  0.921007  0.500000  1
  Lu  Lu2  1  0.078993  0.338599  0.500000  1
  Lu  Lu3  1  0.919724  0.658865  0.500000  1
  Lu  Lu4  1  0.500032  0.499968  0.000000  1
  Os  Os5  1  0.285795  0.714205  0.000000  1
  Ru  Ru6  1  0.714000  0.286000  0.000000  1
  C  C7  1  0.173389  0.172692  0.000000  1
  C  C8  1  0.827308  0.826611  0.000000  1
  C  C9  1  0.999822  0.000178  0.000000  1
  C  C10  1  0.371803  0.628197  0.500000  1
  C  C11  1  0.625672  0.374328  0.500000  1
  C  C12  1  0.499048  0.998121  0.000000  1
  C  C13  1  0.001879  0.500952  0.000000  1
