# generated using pymatgen
data_Nd4Sm(BN3)2
_symmetry_space_group_name_H-M   'P 1'
_cell_length_a   6.40933338
_cell_length_b   6.40933341
_cell_length_c   8.87395194
_cell_angle_alpha   74.82569287
_cell_angle_beta   74.82569332
_cell_angle_gamma   32.63864080
_symmetry_Int_Tables_number   1
_chemical_formula_structural   Nd4Sm(BN3)2
_chemical_formula_sum   'Nd4 Sm1 B2 N6'
_cell_volume   189.15530137
_cell_formula_units_Z   1
loop_
 _symmetry_equiv_pos_site_id
 _symmetry_equiv_pos_as_xyz
  1  'x, y, z'
loop_
 _atom_site_type_symbol
 _atom_site_label
 _atom_site_symmetry_multiplicity
 _atom_site_fract_x
 _atom_site_fract_y
 _atom_site_fract_z
 _atom_site_occupancy
  Nd  Nd0  1  0.624080  0.624080  0.627843  1
  Nd  Nd1  1  0.307712  0.307712  0.820860  1
  Nd  Nd2  1  0.692288  0.692288  0.179140  1
  Nd  Nd3  1  0.375920  0.375920  0.372157  1
  Sm  Sm4  1  0.000000  0.000000  0.000000  1
  B  B5  1  0.055057  0.055057  0.409456  1
  B  B6  1  0.944943  0.944943  0.590544  1
  N  N7  1  0.025329  0.025329  0.259059  1
  N  N8  1  0.345933  0.345933  0.080006  1
  N  N9  1  0.826759  0.826759  0.584570  1
  N  N10  1  0.974671  0.974671  0.740941  1
  N  N11  1  0.654067  0.654067  0.919994  1
  N  N12  1  0.173241  0.173241  0.415430  1
