# generated using pymatgen
data_Ca20Cd3Ag8Pb
_symmetry_space_group_name_H-M   'P 1'
_cell_length_a   8.14028400
_cell_length_b   8.14028400
_cell_length_c   14.93017100
_cell_angle_alpha   90.00000000
_cell_angle_beta   90.00000000
_cell_angle_gamma   90.00000000
_symmetry_Int_Tables_number   1
_chemical_formula_structural   Ca20Cd3Ag8Pb
_chemical_formula_sum   'Ca20 Cd3 Ag8 Pb1'
_cell_volume   989.33618954
_cell_formula_units_Z   1
loop_
 _symmetry_equiv_pos_site_id
 _symmetry_equiv_pos_as_xyz
  1  'x, y, z'
loop_
 _atom_site_type_symbol
 _atom_site_label
 _atom_site_symmetry_multiplicity
 _atom_site_fract_x
 _atom_site_fract_y
 _atom_site_fract_z
 _atom_site_occupancy
  Ca  Ca0  1  0.670149  0.166243  0.106879  1
  Ca  Ca1  1  0.168426  0.668736  0.607979  1
  Ca  Ca2  1  0.329851  0.833757  0.106879  1
  Ca  Ca3  1  0.831574  0.331264  0.607979  1
  Ca  Ca4  1  0.833757  0.670149  0.106879  1
  Ca  Ca5  1  0.331264  0.168426  0.607979  1
  Ca  Ca6  1  0.166243  0.329851  0.106879  1
  Ca  Ca7  1  0.668736  0.831574  0.607979  1
  Ca  Ca8  1  0.833757  0.329851  0.893121  1
  Ca  Ca9  1  0.331264  0.831574  0.392021  1
  Ca  Ca10  1  0.166243  0.670149  0.893121  1
  Ca  Ca11  1  0.668736  0.168426  0.392021  1
  Ca  Ca12  1  0.670149  0.833757  0.893121  1
  Ca  Ca13  1  0.168426  0.331264  0.392021  1
  Ca  Ca14  1  0.329851  0.166243  0.893121  1
  Ca  Ca15  1  0.831574  0.668736  0.392021  1
  Ca  Ca16  1  0.500000  0.500000  0.752497  1
  Ca  Ca17  1  0.000000  0.000000  0.248716  1
  Ca  Ca18  1  0.000000  0.000000  0.751284  1
  Ca  Ca19  1  0.500000  0.500000  0.247503  1
  Cd  Cd20  1  0.500000  0.500000  0.500000  1
  Cd  Cd21  1  0.500000  0.500000  0.000000  1
  Cd  Cd22  1  0.000000  0.000000  0.500000  1
  Ag  Ag23  1  0.624033  0.125958  0.750539  1
  Ag  Ag24  1  0.125958  0.624033  0.249461  1
  Ag  Ag25  1  0.874042  0.375967  0.249461  1
  Ag  Ag26  1  0.375967  0.874042  0.750539  1
  Ag  Ag27  1  0.874042  0.624033  0.750539  1
  Ag  Ag28  1  0.375967  0.125958  0.249461  1
  Ag  Ag29  1  0.125958  0.375967  0.750539  1
  Ag  Ag30  1  0.624033  0.874042  0.249461  1
  Pb  Pb31  1  0.000000  0.000000  0.000000  1
