# generated using pymatgen
data_SrErSi4N7
_symmetry_space_group_name_H-M   'P 1'
_cell_length_a   6.03207900
_cell_length_b   6.03207855
_cell_length_c   9.84400300
_cell_angle_alpha   90.00000000
_cell_angle_beta   90.00000000
_cell_angle_gamma   119.99998601
_symmetry_Int_Tables_number   1
_chemical_formula_structural   SrErSi4N7
_chemical_formula_sum   'Sr2 Er2 Si8 N14'
_cell_volume   310.19617584
_cell_formula_units_Z   2
loop_
 _symmetry_equiv_pos_site_id
 _symmetry_equiv_pos_as_xyz
  1  'x, y, z'
loop_
 _atom_site_type_symbol
 _atom_site_label
 _atom_site_symmetry_multiplicity
 _atom_site_fract_x
 _atom_site_fract_y
 _atom_site_fract_z
 _atom_site_occupancy
  Sr  Sr0  1  0.666667  0.333333  0.581219  1
  Sr  Sr1  1  0.333333  0.666667  0.081219  1
  Er  Er2  1  0.666667  0.333333  0.950726  1
  Er  Er3  1  0.333333  0.666667  0.450726  1
  Si  Si4  1  0.173957  0.347914  0.759998  1
  Si  Si5  1  0.826043  0.173957  0.259998  1
  Si  Si6  1  0.347914  0.173957  0.259998  1
  Si  Si7  1  0.652086  0.826043  0.759998  1
  Si  Si8  1  0.173957  0.826043  0.759998  1
  Si  Si9  1  0.826043  0.652086  0.259998  1
  Si  Si10  1  0.000000  0.000000  0.027015  1
  Si  Si11  1  0.000000  0.000000  0.527015  1
  N  N12  1  0.000000  0.000000  0.836009  1
  N  N13  1  0.000000  0.000000  0.336009  1
  N  N14  1  0.846020  0.692040  0.086433  1
  N  N15  1  0.153980  0.846020  0.586433  1
  N  N16  1  0.692040  0.846020  0.586433  1
  N  N17  1  0.307960  0.153980  0.086433  1
  N  N18  1  0.846020  0.153980  0.086433  1
  N  N19  1  0.153980  0.307960  0.586433  1
  N  N20  1  0.489480  0.510520  0.812853  1
  N  N21  1  0.978961  0.489480  0.312853  1
  N  N22  1  0.510520  0.021039  0.312853  1
  N  N23  1  0.489480  0.978961  0.812853  1
  N  N24  1  0.510520  0.489480  0.312853  1
  N  N25  1  0.021039  0.510520  0.812853  1
