# generated using pymatgen
data_Er14Tm6CoBi8Ir3
_symmetry_space_group_name_H-M   'P 1'
_cell_length_a   7.91653896
_cell_length_b   8.94896620
_cell_length_c   12.40674230
_cell_angle_alpha   89.98537998
_cell_angle_beta   90.23649236
_cell_angle_gamma   90.01960471
_symmetry_Int_Tables_number   1
_chemical_formula_structural   Er14Tm6CoBi8Ir3
_chemical_formula_sum   'Er14 Tm6 Co1 Bi8 Ir3'
_cell_volume   878.94610070
_cell_formula_units_Z   1
loop_
 _symmetry_equiv_pos_site_id
 _symmetry_equiv_pos_as_xyz
  1  'x, y, z'
loop_
 _atom_site_type_symbol
 _atom_site_label
 _atom_site_symmetry_multiplicity
 _atom_site_fract_x
 _atom_site_fract_y
 _atom_site_fract_z
 _atom_site_occupancy
  Er  Er0  1  0.657513  0.749895  0.699854  1
  Er  Er1  1  0.338715  0.250061  0.292809  1
  Er  Er2  1  0.160875  0.250032  0.793089  1
  Er  Er3  1  0.839288  0.749940  0.206843  1
  Er  Er4  1  0.122980  0.749984  0.808355  1
  Er  Er5  1  0.875376  0.249997  0.191219  1
  Er  Er6  1  0.624277  0.250126  0.691400  1
  Er  Er7  1  0.380852  0.749831  0.314606  1
  Er  Er8  1  0.556640  0.749988  0.997490  1
  Er  Er9  1  0.446421  0.250013  0.001227  1
  Er  Er10  1  0.055428  0.250181  0.501425  1
  Er  Er11  1  0.946333  0.749819  0.498479  1
  Er  Er12  1  0.672980  0.035684  0.435658  1
  Er  Er13  1  0.325334  0.955970  0.565671  1
  Tm  Tm14  1  0.826340  0.457108  0.933226  1
  Tm  Tm15  1  0.174835  0.542148  0.066674  1
  Tm  Tm16  1  0.326049  0.544028  0.565528  1
  Tm  Tm17  1  0.174835  0.957842  0.066655  1
  Tm  Tm18  1  0.672238  0.464266  0.435824  1
  Tm  Tm19  1  0.826356  0.042890  0.933244  1
  Co  Co20  1  0.567639  0.749698  0.492255  1
  Bi  Bi21  1  0.932466  0.008797  0.672120  1
  Bi  Bi22  1  0.066405  0.990802  0.327644  1
  Bi  Bi23  1  0.434189  0.990533  0.826636  1
  Bi  Bi24  1  0.066159  0.509170  0.327690  1
  Bi  Bi25  1  0.565512  0.008027  0.173466  1
  Bi  Bi26  1  0.932694  0.491212  0.672064  1
  Bi  Bi27  1  0.565563  0.491959  0.173509  1
  Bi  Bi28  1  0.434137  0.509454  0.826574  1
  Ir  Ir29  1  0.929379  0.749993  0.991849  1
  Ir  Ir30  1  0.072305  0.250009  0.008879  1
  Ir  Ir31  1  0.429884  0.250544  0.508033  1
