# generated using pymatgen
data_GdPaF8
_symmetry_space_group_name_H-M   'P 1'
_cell_length_a   8.37721362
_cell_length_b   8.41812135
_cell_length_c   8.27494895
_cell_angle_alpha   63.66173168
_cell_angle_beta   63.95993969
_cell_angle_gamma   80.64530181
_symmetry_Int_Tables_number   1
_chemical_formula_structural   GdPaF8
_chemical_formula_sum   'Gd3 Pa3 F24'
_cell_volume   469.50932414
_cell_formula_units_Z   3
loop_
 _symmetry_equiv_pos_site_id
 _symmetry_equiv_pos_as_xyz
  1  'x, y, z'
loop_
 _atom_site_type_symbol
 _atom_site_label
 _atom_site_symmetry_multiplicity
 _atom_site_fract_x
 _atom_site_fract_y
 _atom_site_fract_z
 _atom_site_occupancy
  Gd  Gd0  1  0.368865  0.234038  0.334411  1
  Gd  Gd1  1  0.222290  0.362420  0.842104  1
  Gd  Gd2  1  0.779366  0.620866  0.167151  1
  Pa  Pa3  1  0.628097  0.775955  0.662937  1
  Pa  Pa4  1  0.786500  0.208829  0.756546  1
  Pa  Pa5  1  0.212233  0.786130  0.261514  1
  F  F6  1  0.314133  0.265066  0.607813  1
  F  F7  1  0.683899  0.743633  0.394687  1
  F  F8  1  0.727151  0.684799  0.887160  1
  F  F9  1  0.269835  0.318385  0.103385  1
  F  F10  1  0.823397  0.936503  0.943850  1
  F  F11  1  0.183001  0.048070  0.050817  1
  F  F12  1  0.049833  0.172850  0.556516  1
  F  F13  1  0.929169  0.828935  0.461454  1
  F  F14  1  0.413776  0.602239  0.742002  1
  F  F15  1  0.600904  0.404534  0.245077  1
  F  F16  1  0.503239  0.992220  0.501019  1
  F  F17  1  0.003317  0.508041  0.992123  1
  F  F18  1  0.514185  0.243815  0.789701  1
  F  F19  1  0.491917  0.756204  0.200858  1
  F  F20  1  0.742486  0.499984  0.712182  1
  F  F21  1  0.252854  0.517379  0.285197  1
  F  F22  1  0.403440  0.810367  0.912680  1
  F  F23  1  0.616864  0.181750  0.061094  1
  F  F24  1  0.180634  0.613485  0.565393  1
  F  F25  1  0.812718  0.389720  0.446970  1
  F  F26  1  0.721535  0.022293  0.646976  1
  F  F27  1  0.269761  0.967442  0.352770  1
  F  F28  1  0.965624  0.274729  0.847442  1
  F  F29  1  0.028976  0.729320  0.168173  1
