# generated using pymatgen
data_Ca11Y9Sn16
_symmetry_space_group_name_H-M   'P 1'
_cell_length_a   7.89006064
_cell_length_b   8.47524763
_cell_length_c   16.05238000
_cell_angle_alpha   90.00000000
_cell_angle_beta   90.00000000
_cell_angle_gamma   89.85458603
_symmetry_Int_Tables_number   1
_chemical_formula_structural   Ca11Y9Sn16
_chemical_formula_sum   'Ca11 Y9 Sn16'
_cell_volume   1073.42268815
_cell_formula_units_Z   1
loop_
 _symmetry_equiv_pos_site_id
 _symmetry_equiv_pos_as_xyz
  1  'x, y, z'
loop_
 _atom_site_type_symbol
 _atom_site_label
 _atom_site_symmetry_multiplicity
 _atom_site_fract_x
 _atom_site_fract_y
 _atom_site_fract_z
 _atom_site_occupancy
  Ca  Ca0  1  0.504056  0.687918  0.593889  1
  Ca  Ca1  1  0.003948  0.814283  0.907766  1
  Ca  Ca2  1  0.494935  0.311232  0.092250  1
  Ca  Ca3  1  0.995975  0.187943  0.408076  1
  Ca  Ca4  1  0.494935  0.311232  0.407750  1
  Ca  Ca5  1  0.995975  0.187943  0.091924  1
  Ca  Ca6  1  0.504056  0.687918  0.906111  1
  Ca  Ca7  1  0.003948  0.814283  0.592234  1
  Ca  Ca8  1  0.335977  0.990167  0.750000  1
  Ca  Ca9  1  0.163645  0.489347  0.250000  1
  Ca  Ca10  1  0.662674  0.009161  0.250000  1
  Y  Y11  1  0.672867  0.164929  0.622386  1
  Y  Y12  1  0.173966  0.333238  0.876987  1
  Y  Y13  1  0.326966  0.832177  0.122206  1
  Y  Y14  1  0.827506  0.665580  0.378076  1
  Y  Y15  1  0.326966  0.832177  0.377794  1
  Y  Y16  1  0.827506  0.665580  0.121924  1
  Y  Y17  1  0.672867  0.164929  0.877614  1
  Y  Y18  1  0.173966  0.333238  0.623013  1
  Y  Y19  1  0.837642  0.510475  0.750000  1
  Sn  Sn20  1  0.671563  0.963196  0.459545  1
  Sn  Sn21  1  0.171312  0.536103  0.039790  1
  Sn  Sn22  1  0.329414  0.036529  0.959478  1
  Sn  Sn23  1  0.829261  0.465728  0.543557  1
  Sn  Sn24  1  0.329414  0.036529  0.540522  1
  Sn  Sn25  1  0.829261  0.465728  0.956443  1
  Sn  Sn26  1  0.671563  0.963196  0.040455  1
  Sn  Sn27  1  0.171312  0.536103  0.460210  1
  Sn  Sn28  1  0.474263  0.379848  0.750000  1
  Sn  Sn29  1  0.969726  0.131574  0.750000  1
  Sn  Sn30  1  0.529170  0.622913  0.250000  1
  Sn  Sn31  1  0.028318  0.874970  0.250000  1
  Sn  Sn32  1  0.720543  0.866623  0.750000  1
  Sn  Sn33  1  0.210295  0.629653  0.750000  1
  Sn  Sn34  1  0.281155  0.126108  0.250000  1
  Sn  Sn35  1  0.783056  0.371450  0.250000  1
