# generated using pymatgen
data_Ac2La(MgRh)3
_symmetry_space_group_name_H-M   'P 1'
_cell_length_a   7.61933700
_cell_length_b   7.67855977
_cell_length_c   4.32679500
_cell_angle_alpha   90.00000000
_cell_angle_beta   90.00000000
_cell_angle_gamma   119.74519505
_symmetry_Int_Tables_number   1
_chemical_formula_structural   Ac2La(MgRh)3
_chemical_formula_sum   'Ac2 La1 Mg3 Rh3'
_cell_volume   219.78764403
_cell_formula_units_Z   1
loop_
 _symmetry_equiv_pos_site_id
 _symmetry_equiv_pos_as_xyz
  1  'x, y, z'
loop_
 _atom_site_type_symbol
 _atom_site_label
 _atom_site_symmetry_multiplicity
 _atom_site_fract_x
 _atom_site_fract_y
 _atom_site_fract_z
 _atom_site_occupancy
  Ac  Ac0  1  0.000456  0.582216  0.000000  1
  Ac  Ac1  1  0.418239  0.417784  0.000000  1
  La  La2  1  0.585891  0.000000  0.000000  1
  Mg  Mg3  1  0.765847  0.773967  0.500000  1
  Mg  Mg4  1  0.991879  0.226033  0.500000  1
  Mg  Mg5  1  0.236480  0.000000  0.500000  1
  Rh  Rh6  1  0.340630  0.676831  0.500000  1
  Rh  Rh7  1  0.663800  0.323169  0.500000  1
  Rh  Rh8  1  0.996778  0.000000  0.000000  1
