# generated using pymatgen
data_HoHf(Al3Rh)3
_symmetry_space_group_name_H-M   'P 1'
_cell_length_a   7.50777953
_cell_length_b   7.49359028
_cell_length_c   9.32981200
_cell_angle_alpha   90.00000000
_cell_angle_beta   90.00000000
_cell_angle_gamma   119.68435216
_symmetry_Int_Tables_number   1
_chemical_formula_structural   HoHf(Al3Rh)3
_chemical_formula_sum   'Ho2 Hf2 Al18 Rh6'
_cell_volume   456.01335388
_cell_formula_units_Z   2
loop_
 _symmetry_equiv_pos_site_id
 _symmetry_equiv_pos_as_xyz
  1  'x, y, z'
loop_
 _atom_site_type_symbol
 _atom_site_label
 _atom_site_symmetry_multiplicity
 _atom_site_fract_x
 _atom_site_fract_y
 _atom_site_fract_z
 _atom_site_occupancy
  Ho  Ho0  1  0.670551  0.993747  0.250000  1
  Ho  Ho1  1  0.329449  0.006253  0.750000  1
  Hf  Hf2  1  0.995067  0.671412  0.250000  1
  Hf  Hf3  1  0.004933  0.328588  0.750000  1
  Al  Al4  1  0.125073  0.123279  0.250000  1
  Al  Al5  1  0.874927  0.876721  0.750000  1
  Al  Al6  1  0.999154  0.337322  0.075848  1
  Al  Al7  1  0.000846  0.662678  0.924152  1
  Al  Al8  1  0.000846  0.662678  0.575848  1
  Al  Al9  1  0.332113  0.997656  0.420927  1
  Al  Al10  1  0.999154  0.337322  0.424152  1
  Al  Al11  1  0.667887  0.002344  0.579073  1
  Al  Al12  1  0.667887  0.002344  0.920927  1
  Al  Al13  1  0.332113  0.997656  0.079073  1
  Al  Al14  1  0.330801  0.333457  0.556910  1
  Al  Al15  1  0.669199  0.666543  0.443090  1
  Al  Al16  1  0.669199  0.666543  0.056910  1
  Al  Al17  1  0.330801  0.333457  0.943090  1
  Al  Al18  1  0.334245  0.548619  0.250000  1
  Al  Al19  1  0.665755  0.451381  0.750000  1
  Al  Al20  1  0.555599  0.343347  0.250000  1
  Al  Al21  1  0.444401  0.656653  0.750000  1
  Rh  Rh22  1  0.673141  0.327819  0.999348  1
  Rh  Rh23  1  0.326859  0.672181  0.000652  1
  Rh  Rh24  1  0.326859  0.672181  0.499348  1
  Rh  Rh25  1  0.673141  0.327819  0.500652  1
  Rh  Rh26  1  0.000000  0.000000  0.000000  1
  Rh  Rh27  1  0.000000  0.000000  0.500000  1
