# generated using pymatgen
data_Y3CI3
_symmetry_space_group_name_H-M   'P 1'
_cell_length_a   3.92790500
_cell_length_b   8.73490461
_cell_length_c   11.89015147
_cell_angle_alpha   92.16951827
_cell_angle_beta   90.00000000
_cell_angle_gamma   90.00000000
_symmetry_Int_Tables_number   1
_chemical_formula_structural   Y3CI3
_chemical_formula_sum   'Y6 C2 I6'
_cell_volume   407.65719721
_cell_formula_units_Z   2
loop_
 _symmetry_equiv_pos_site_id
 _symmetry_equiv_pos_as_xyz
  1  'x, y, z'
loop_
 _atom_site_type_symbol
 _atom_site_label
 _atom_site_symmetry_multiplicity
 _atom_site_fract_x
 _atom_site_fract_y
 _atom_site_fract_z
 _atom_site_occupancy
  Y  Y0  1  0.250000  0.919156  0.599428  1
  Y  Y1  1  0.750000  0.080844  0.400572  1
  Y  Y2  1  0.250000  0.886793  0.186677  1
  Y  Y3  1  0.750000  0.113207  0.813323  1
  Y  Y4  1  0.250000  0.291904  0.615826  1
  Y  Y5  1  0.750000  0.708096  0.384174  1
  C  C6  1  0.250000  0.882656  0.387019  1
  C  C7  1  0.750000  0.117344  0.612981  1
  I  I8  1  0.250000  0.859382  0.873120  1
  I  I9  1  0.750000  0.140618  0.126880  1
  I  I10  1  0.250000  0.375412  0.871758  1
  I  I11  1  0.750000  0.624588  0.128242  1
  I  I12  1  0.250000  0.382640  0.367730  1
  I  I13  1  0.750000  0.617360  0.632270  1
