# generated using pymatgen
data_SmDy9(Pb3Cl)2
_symmetry_space_group_name_H-M   'P 1'
_cell_length_a   9.23326079
_cell_length_b   9.23325996
_cell_length_c   6.62130200
_cell_angle_alpha   90.00000000
_cell_angle_beta   90.00000000
_cell_angle_gamma   119.97473492
_symmetry_Int_Tables_number   1
_chemical_formula_structural   SmDy9(Pb3Cl)2
_chemical_formula_sum   'Sm1 Dy9 Pb6 Cl2'
_cell_volume   488.98406155
_cell_formula_units_Z   1
loop_
 _symmetry_equiv_pos_site_id
 _symmetry_equiv_pos_as_xyz
  1  'x, y, z'
loop_
 _atom_site_type_symbol
 _atom_site_label
 _atom_site_symmetry_multiplicity
 _atom_site_fract_x
 _atom_site_fract_y
 _atom_site_fract_z
 _atom_site_occupancy
  Sm  Sm0  1  0.260732  0.260732  0.750000  1
  Dy  Dy1  1  0.261652  0.999509  0.250000  1
  Dy  Dy2  1  0.740719  0.001321  0.750000  1
  Dy  Dy3  1  0.999509  0.261652  0.250000  1
  Dy  Dy4  1  0.001321  0.740719  0.750000  1
  Dy  Dy5  1  0.737897  0.737897  0.250000  1
  Dy  Dy6  1  0.333503  0.666794  0.000275  1
  Dy  Dy7  1  0.666794  0.333503  0.000275  1
  Dy  Dy8  1  0.666794  0.333503  0.499725  1
  Dy  Dy9  1  0.333503  0.666794  0.499725  1
  Pb  Pb10  1  0.611472  0.000092  0.250000  1
  Pb  Pb11  1  0.390174  0.997951  0.750000  1
  Pb  Pb12  1  0.000092  0.611472  0.250000  1
  Pb  Pb13  1  0.997951  0.390174  0.750000  1
  Pb  Pb14  1  0.388366  0.388366  0.250000  1
  Pb  Pb15  1  0.614368  0.614368  0.750000  1
  Cl  Cl16  1  0.997577  0.997577  0.002788  1
  Cl  Cl17  1  0.997577  0.997577  0.497212  1
