# generated using pymatgen
data_TbTm3(Al3Pt4)2
_symmetry_space_group_name_H-M   'P 1'
_cell_length_a   8.11564398
_cell_length_b   8.11564341
_cell_length_c   7.60072217
_cell_angle_alpha   90.08134778
_cell_angle_beta   89.91865386
_cell_angle_gamma   140.01240959
_symmetry_Int_Tables_number   1
_chemical_formula_structural   TbTm3(Al3Pt4)2
_chemical_formula_sum   'Tb1 Tm3 Al6 Pt8'
_cell_volume   321.70342041
_cell_formula_units_Z   1
loop_
 _symmetry_equiv_pos_site_id
 _symmetry_equiv_pos_as_xyz
  1  'x, y, z'
loop_
 _atom_site_type_symbol
 _atom_site_label
 _atom_site_symmetry_multiplicity
 _atom_site_fract_x
 _atom_site_fract_y
 _atom_site_fract_z
 _atom_site_occupancy
  Tb  Tb0  1  0.605987  0.394013  0.092508  1
  Tm  Tm1  1  0.106085  0.893915  0.408259  1
  Tm  Tm2  1  0.894385  0.105615  0.592193  1
  Tm  Tm3  1  0.393767  0.606233  0.908568  1
  Al  Al4  1  0.999435  0.000565  0.999368  1
  Al  Al5  1  0.499776  0.500224  0.499291  1
  Al  Al6  1  0.022734  0.477319  0.250878  1
  Al  Al7  1  0.477757  0.021929  0.749940  1
  Al  Al8  1  0.978071  0.522243  0.749940  1
  Al  Al9  1  0.522681  0.977266  0.250878  1
  Pt  Pt10  1  0.189934  0.309224  0.250684  1
  Pt  Pt11  1  0.308049  0.190989  0.747841  1
  Pt  Pt12  1  0.809011  0.691951  0.747841  1
  Pt  Pt13  1  0.690776  0.810066  0.250684  1
  Pt  Pt14  1  0.183739  0.816261  0.029517  1
  Pt  Pt15  1  0.817500  0.182500  0.970926  1
  Pt  Pt16  1  0.317351  0.682649  0.529202  1
  Pt  Pt17  1  0.682963  0.317037  0.471481  1
