# generated using pymatgen
data_SrLi4Nd3Pt4
_symmetry_space_group_name_H-M   'P 1'
_cell_length_a   4.16328700
_cell_length_b   7.30250236
_cell_length_c   8.63500967
_cell_angle_alpha   89.27096966
_cell_angle_beta   90.00000000
_cell_angle_gamma   90.00000000
_symmetry_Int_Tables_number   1
_chemical_formula_structural   SrLi4Nd3Pt4
_chemical_formula_sum   'Sr1 Li4 Nd3 Pt4'
_cell_volume   262.50388045
_cell_formula_units_Z   1
loop_
 _symmetry_equiv_pos_site_id
 _symmetry_equiv_pos_as_xyz
  1  'x, y, z'
loop_
 _atom_site_type_symbol
 _atom_site_label
 _atom_site_symmetry_multiplicity
 _atom_site_fract_x
 _atom_site_fract_y
 _atom_site_fract_z
 _atom_site_occupancy
  Sr  Sr0  1  0.250000  0.040461  0.683550  1
  Li  Li1  1  0.250000  0.131844  0.058871  1
  Li  Li2  1  0.250000  0.618976  0.445307  1
  Li  Li3  1  0.750000  0.877484  0.947097  1
  Li  Li4  1  0.750000  0.369367  0.551855  1
  Nd  Nd5  1  0.250000  0.546391  0.820372  1
  Nd  Nd6  1  0.750000  0.953978  0.318087  1
  Nd  Nd7  1  0.750000  0.461771  0.182258  1
  Pt  Pt8  1  0.250000  0.252075  0.364703  1
  Pt  Pt9  1  0.250000  0.757985  0.120609  1
  Pt  Pt10  1  0.750000  0.727509  0.615656  1
  Pt  Pt11  1  0.750000  0.262160  0.891635  1
