# generated using pymatgen
data_NdCo3Si2
_symmetry_space_group_name_H-M   'P 1'
_cell_length_a   6.34838351
_cell_length_b   6.34838235
_cell_length_c   6.34838361
_cell_angle_alpha   130.31187173
_cell_angle_beta   114.43944526
_cell_angle_gamma   86.52120540
_symmetry_Int_Tables_number   1
_chemical_formula_structural   NdCo3Si2
_chemical_formula_sum   'Nd2 Co6 Si4'
_cell_volume   169.53689466
_cell_formula_units_Z   2
loop_
 _symmetry_equiv_pos_site_id
 _symmetry_equiv_pos_as_xyz
  1  'x, y, z'
loop_
 _atom_site_type_symbol
 _atom_site_label
 _atom_site_symmetry_multiplicity
 _atom_site_fract_x
 _atom_site_fract_y
 _atom_site_fract_z
 _atom_site_occupancy
  Nd  Nd0  1  0.750000  0.034066  0.284066  1
  Nd  Nd1  1  0.250000  0.965934  0.715934  1
  Co  Co2  1  0.221534  0.500000  0.721534  1
  Co  Co3  1  0.721534  0.000000  0.721534  1
  Co  Co4  1  0.778466  0.500000  0.278466  1
  Co  Co5  1  0.278466  0.000000  0.278466  1
  Co  Co6  1  0.500000  0.500000  0.500000  1
  Co  Co7  1  0.000000  0.500000  0.000000  1
  Si  Si8  1  0.579820  0.376046  0.796226  1
  Si  Si9  1  0.420180  0.623954  0.203774  1
  Si  Si10  1  0.079820  0.283594  0.203774  1
  Si  Si11  1  0.920180  0.716406  0.796226  1
