# generated using pymatgen
data_Hf10CuSn4GeSb2
_symmetry_space_group_name_H-M   'P 1'
_cell_length_a   8.62496827
_cell_length_b   8.62496962
_cell_length_c   5.79071341
_cell_angle_alpha   90.02152996
_cell_angle_beta   90.02152655
_cell_angle_gamma   120.01758494
_symmetry_Int_Tables_number   1
_chemical_formula_structural   Hf10CuSn4GeSb2
_chemical_formula_sum   'Hf10 Cu1 Sn4 Ge1 Sb2'
_cell_volume   372.99299692
_cell_formula_units_Z   1
loop_
 _symmetry_equiv_pos_site_id
 _symmetry_equiv_pos_as_xyz
  1  'x, y, z'
loop_
 _atom_site_type_symbol
 _atom_site_label
 _atom_site_symmetry_multiplicity
 _atom_site_fract_x
 _atom_site_fract_y
 _atom_site_fract_z
 _atom_site_occupancy
  Hf  Hf0  1  0.666769  0.332564  0.999333  1
  Hf  Hf1  1  0.332564  0.666769  0.999333  1
  Hf  Hf2  1  0.332916  0.666817  0.500945  1
  Hf  Hf3  1  0.666817  0.332916  0.500945  1
  Hf  Hf4  1  0.734448  0.734448  0.750555  1
  Hf  Hf5  1  0.266402  0.000270  0.751561  1
  Hf  Hf6  1  0.000270  0.266402  0.751561  1
  Hf  Hf7  1  0.263695  0.263695  0.248972  1
  Hf  Hf8  1  0.735333  0.000370  0.249163  1
  Hf  Hf9  1  0.000370  0.735333  0.249163  1
  Cu  Cu10  1  0.999002  0.999002  0.997219  1
  Sn  Sn11  1  0.388822  0.388822  0.751578  1
  Sn  Sn12  1  0.612500  0.999513  0.751011  1
  Sn  Sn13  1  0.999513  0.612500  0.751011  1
  Sn  Sn14  1  0.611029  0.611029  0.248972  1
  Ge  Ge15  1  0.999664  0.999664  0.502026  1
  Sb  Sb16  1  0.389826  0.000058  0.248327  1
  Sb  Sb17  1  0.000058  0.389826  0.248327  1
