# generated using pymatgen
data_Ca2ThPaPt4
_symmetry_space_group_name_H-M   'P 1'
_cell_length_a   4.50781700
_cell_length_b   5.70361848
_cell_length_c   7.14450800
_cell_angle_alpha   89.25474248
_cell_angle_beta   90.00000000
_cell_angle_gamma   90.00000000
_symmetry_Int_Tables_number   1
_chemical_formula_structural   Ca2ThPaPt4
_chemical_formula_sum   'Ca2 Th1 Pa1 Pt4'
_cell_volume   183.67596577
_cell_formula_units_Z   1
loop_
 _symmetry_equiv_pos_site_id
 _symmetry_equiv_pos_as_xyz
  1  'x, y, z'
loop_
 _atom_site_type_symbol
 _atom_site_label
 _atom_site_symmetry_multiplicity
 _atom_site_fract_x
 _atom_site_fract_y
 _atom_site_fract_z
 _atom_site_occupancy
  Ca  Ca0  1  0.750000  0.142597  0.321178  1
  Ca  Ca1  1  0.250000  0.858402  0.680556  1
  Th  Th2  1  0.750000  0.351758  0.817122  1
  Pa  Pa3  1  0.250000  0.646425  0.184404  1
  Pt  Pt4  1  0.250000  0.172805  0.046504  1
  Pt  Pt5  1  0.750000  0.820046  0.974120  1
  Pt  Pt6  1  0.750000  0.646928  0.434436  1
  Pt  Pt7  1  0.250000  0.361040  0.541678  1
