# generated using pymatgen
data_PrNd15(ErIr3)4
_symmetry_space_group_name_H-M   'P 1'
_cell_length_a   11.20851504
_cell_length_b   11.20682812
_cell_length_c   6.51694009
_cell_angle_alpha   89.98352943
_cell_angle_beta   90.00923157
_cell_angle_gamma   89.99862037
_symmetry_Int_Tables_number   1
_chemical_formula_structural   PrNd15(ErIr3)4
_chemical_formula_sum   'Pr1 Nd15 Er4 Ir12'
_cell_volume   818.60519155
_cell_formula_units_Z   1
loop_
 _symmetry_equiv_pos_site_id
 _symmetry_equiv_pos_as_xyz
  1  'x, y, z'
loop_
 _atom_site_type_symbol
 _atom_site_label
 _atom_site_symmetry_multiplicity
 _atom_site_fract_x
 _atom_site_fract_y
 _atom_site_fract_z
 _atom_site_occupancy
  Pr  Pr0  1  0.288404  0.087800  0.379248  1
  Nd  Nd1  1  0.288819  0.912229  0.879710  1
  Nd  Nd2  1  0.711148  0.087603  0.879757  1
  Nd  Nd3  1  0.711208  0.912391  0.379767  1
  Nd  Nd4  1  0.587601  0.788831  0.879742  1
  Nd  Nd5  1  0.587818  0.211279  0.379725  1
  Nd  Nd6  1  0.412462  0.788615  0.379775  1
  Nd  Nd7  1  0.412545  0.211304  0.879758  1
  Nd  Nd8  1  0.211171  0.412508  0.620347  1
  Nd  Nd9  1  0.211201  0.587595  0.120264  1
  Nd  Nd10  1  0.788824  0.412402  0.120249  1
  Nd  Nd11  1  0.788826  0.587575  0.620247  1
  Nd  Nd12  1  0.912419  0.711190  0.120266  1
  Nd  Nd13  1  0.912374  0.288836  0.620241  1
  Nd  Nd14  1  0.087580  0.711165  0.620253  1
  Nd  Nd15  1  0.087470  0.288910  0.120058  1
  Er  Er16  1  0.999777  0.999890  0.500143  1
  Er  Er17  1  0.999962  0.000002  0.999929  1
  Er  Er18  1  0.499998  0.499984  0.000012  1
  Er  Er19  1  0.500026  0.500023  0.500053  1
  Ir  Ir20  1  0.851514  0.148472  0.250013  1
  Ir  Ir21  1  0.851540  0.851531  0.749968  1
  Ir  Ir22  1  0.148231  0.148597  0.750709  1
  Ir  Ir23  1  0.148337  0.851223  0.249795  1
  Ir  Ir24  1  0.648478  0.351523  0.750011  1
  Ir  Ir25  1  0.648466  0.648498  0.250004  1
  Ir  Ir26  1  0.351623  0.351839  0.249883  1
  Ir  Ir27  1  0.351506  0.648485  0.749983  1
  Ir  Ir28  1  0.500269  0.999870  0.118581  1
  Ir  Ir29  1  0.500401  0.999833  0.619265  1
  Ir  Ir30  1  0.000010  0.499977  0.881127  1
  Ir  Ir31  1  0.999990  0.500016  0.381116  1
