# generated using pymatgen
data_Pr6LuInO12
_symmetry_space_group_name_H-M   'P 1'
_cell_length_a   6.96231598
_cell_length_b   6.96231575
_cell_length_c   6.96231697
_cell_angle_alpha   92.62402892
_cell_angle_beta   92.62402615
_cell_angle_gamma   92.62400531
_symmetry_Int_Tables_number   1
_chemical_formula_structural   Pr6LuInO12
_chemical_formula_sum   'Pr6 Lu1 In1 O12'
_cell_volume   336.39503744
_cell_formula_units_Z   1
loop_
 _symmetry_equiv_pos_site_id
 _symmetry_equiv_pos_as_xyz
  1  'x, y, z'
loop_
 _atom_site_type_symbol
 _atom_site_label
 _atom_site_symmetry_multiplicity
 _atom_site_fract_x
 _atom_site_fract_y
 _atom_site_fract_z
 _atom_site_occupancy
  Pr  Pr0  1  0.560152  0.068512  0.254206  1
  Pr  Pr1  1  0.068512  0.254206  0.560152  1
  Pr  Pr2  1  0.745794  0.439848  0.931488  1
  Pr  Pr3  1  0.254206  0.560152  0.068512  1
  Pr  Pr4  1  0.931488  0.745794  0.439848  1
  Pr  Pr5  1  0.439848  0.931488  0.745794  1
  Lu  Lu6  1  0.000000  0.000000  0.000000  1
  In  In7  1  0.500000  0.500000  0.500000  1
  O  O8  1  0.695573  0.085436  0.935360  1
  O  O9  1  0.914564  0.064640  0.304427  1
  O  O10  1  0.407552  0.195440  0.536746  1
  O  O11  1  0.064640  0.304427  0.914564  1
  O  O12  1  0.536746  0.407552  0.195440  1
  O  O13  1  0.804560  0.463254  0.592448  1
  O  O14  1  0.195440  0.536746  0.407552  1
  O  O15  1  0.463254  0.592448  0.804560  1
  O  O16  1  0.935360  0.695573  0.085436  1
  O  O17  1  0.592448  0.804560  0.463254  1
  O  O18  1  0.085436  0.935360  0.695573  1
  O  O19  1  0.304427  0.914564  0.064640  1
