# generated using pymatgen
data_Sc8Ga3Co
_symmetry_space_group_name_H-M   'P 1'
_cell_length_a   9.38292400
_cell_length_b   9.38302740
_cell_length_c   6.37290400
_cell_angle_alpha   90.00000000
_cell_angle_beta   90.00000000
_cell_angle_gamma   120.00017209
_symmetry_Int_Tables_number   1
_chemical_formula_structural   Sc8Ga3Co
_chemical_formula_sum   'Sc16 Ga6 Co2'
_cell_volume   485.90172189
_cell_formula_units_Z   2
loop_
 _symmetry_equiv_pos_site_id
 _symmetry_equiv_pos_as_xyz
  1  'x, y, z'
loop_
 _atom_site_type_symbol
 _atom_site_label
 _atom_site_symmetry_multiplicity
 _atom_site_fract_x
 _atom_site_fract_y
 _atom_site_fract_z
 _atom_site_occupancy
  Sc  Sc0  1  0.174276  0.825696  0.504003  1
  Sc  Sc1  1  0.651413  0.825712  0.504009  1
  Sc  Sc2  1  0.174275  0.348584  0.504003  1
  Sc  Sc3  1  0.825724  0.174304  0.004003  1
  Sc  Sc4  1  0.348587  0.174288  0.004009  1
  Sc  Sc5  1  0.825725  0.651416  0.004003  1
  Sc  Sc6  1  0.333320  0.666665  0.832911  1
  Sc  Sc7  1  0.666680  0.333335  0.332911  1
  Sc  Sc8  1  0.467334  0.532661  0.209795  1
  Sc  Sc9  1  0.065313  0.532658  0.209802  1
  Sc  Sc10  1  0.467337  0.934679  0.209799  1
  Sc  Sc11  1  0.532666  0.467339  0.709795  1
  Sc  Sc12  1  0.934687  0.467342  0.709802  1
  Sc  Sc13  1  0.532663  0.065321  0.709799  1
  Sc  Sc14  1  0.999993  0.999997  0.228833  1
  Sc  Sc15  1  0.000007  0.000003  0.728833  1
  Ga  Ga16  1  0.163644  0.836354  0.964305  1
  Ga  Ga17  1  0.672708  0.836354  0.964247  1
  Ga  Ga18  1  0.163646  0.327292  0.964290  1
  Ga  Ga19  1  0.836356  0.163646  0.464305  1
  Ga  Ga20  1  0.327292  0.163646  0.464247  1
  Ga  Ga21  1  0.836354  0.672708  0.464290  1
  Co  Co22  1  0.333308  0.666660  0.441422  1
  Co  Co23  1  0.666692  0.333340  0.941422  1
