# generated using pymatgen
data_HoThCu2(AsP)2
_symmetry_space_group_name_H-M   'P 1'
_cell_length_a   3.89646500
_cell_length_b   3.89646500
_cell_length_c   9.71515300
_cell_angle_alpha   90.00000000
_cell_angle_beta   90.00000000
_cell_angle_gamma   90.00000000
_symmetry_Int_Tables_number   1
_chemical_formula_structural   HoThCu2(AsP)2
_chemical_formula_sum   'Ho1 Th1 Cu2 As2 P2'
_cell_volume   147.49972262
_cell_formula_units_Z   1
loop_
 _symmetry_equiv_pos_site_id
 _symmetry_equiv_pos_as_xyz
  1  'x, y, z'
loop_
 _atom_site_type_symbol
 _atom_site_label
 _atom_site_symmetry_multiplicity
 _atom_site_fract_x
 _atom_site_fract_y
 _atom_site_fract_z
 _atom_site_occupancy
  Ho  Ho0  1  0.500000  0.000000  0.240959  1
  Th  Th1  1  0.000000  0.500000  0.760818  1
  Cu  Cu2  1  0.000000  0.000000  0.493651  1
  Cu  Cu3  1  0.500000  0.500000  0.493651  1
  As  As4  1  0.500000  0.500000  0.006873  1
  As  As5  1  0.000000  0.000000  0.006873  1
  P  P6  1  0.500000  0.000000  0.649621  1
  P  P7  1  0.000000  0.500000  0.347556  1
