# generated using pymatgen
data_Er3Tm9Ni5Bi
_symmetry_space_group_name_H-M   'P 1'
_cell_length_a   8.24129592
_cell_length_b   8.24129695
_cell_length_c   8.24348798
_cell_angle_alpha   109.48691402
_cell_angle_beta   111.52542376
_cell_angle_gamma   107.41603841
_symmetry_Int_Tables_number   1
_chemical_formula_structural   Er3Tm9Ni5Bi
_chemical_formula_sum   'Er3 Tm9 Ni5 Bi1'
_cell_volume   430.50902771
_cell_formula_units_Z   1
loop_
 _symmetry_equiv_pos_site_id
 _symmetry_equiv_pos_as_xyz
  1  'x, y, z'
loop_
 _atom_site_type_symbol
 _atom_site_label
 _atom_site_symmetry_multiplicity
 _atom_site_fract_x
 _atom_site_fract_y
 _atom_site_fract_z
 _atom_site_occupancy
  Er  Er0  1  0.290246  0.179283  0.469529  1
  Er  Er1  1  0.710195  0.821139  0.531334  1
  Er  Er2  1  0.290412  0.820962  0.111373  1
  Tm  Tm3  1  0.709711  0.179173  0.888885  1
  Tm  Tm4  1  0.627018  0.319192  0.307126  1
  Tm  Tm5  1  0.373025  0.680787  0.692542  1
  Tm  Tm6  1  0.011756  0.319517  0.692542  1
  Tm  Tm7  1  0.987934  0.680108  0.307126  1
  Tm  Tm8  1  0.208482  0.402856  0.193681  1
  Tm  Tm9  1  0.791126  0.596517  0.805906  1
  Tm  Tm10  1  0.209390  0.014780  0.805906  1
  Tm  Tm11  1  0.790824  0.985199  0.193681  1
  Ni  Ni12  1  0.999695  0.367062  0.366756  1
  Ni  Ni13  1  0.999909  0.632716  0.632624  1
  Ni  Ni14  1  0.377075  0.877181  0.500691  1
  Ni  Ni15  1  0.623510  0.123616  0.500691  1
  Ni  Ni16  1  0.999706  0.999980  0.999686  1
  Bi  Bi17  1  0.499986  0.499932  0.999919  1
