# generated using pymatgen
data_ZrGa5Fe6Sb
_symmetry_space_group_name_H-M   'P 1'
_cell_length_a   6.57097509
_cell_length_b   6.57097433
_cell_length_c   6.57097426
_cell_angle_alpha   134.90249991
_cell_angle_beta   99.87556870
_cell_angle_gamma   97.04151225
_symmetry_Int_Tables_number   1
_chemical_formula_structural   ZrGa5Fe6Sb
_chemical_formula_sum   'Zr1 Ga5 Fe6 Sb1'
_cell_volume   185.52208053
_cell_formula_units_Z   1
loop_
 _symmetry_equiv_pos_site_id
 _symmetry_equiv_pos_as_xyz
  1  'x, y, z'
loop_
 _atom_site_type_symbol
 _atom_site_label
 _atom_site_symmetry_multiplicity
 _atom_site_fract_x
 _atom_site_fract_y
 _atom_site_fract_z
 _atom_site_occupancy
  Zr  Zr0  1  0.994500  0.000000  0.994500  1
  Ga  Ga1  1  0.666324  0.000000  0.666324  1
  Ga  Ga2  1  0.664581  0.662958  0.001623  1
  Ga  Ga3  1  0.338665  0.337042  0.001623  1
  Ga  Ga4  1  0.169934  0.669894  0.500040  1
  Ga  Ga5  1  0.830146  0.330106  0.500040  1
  Fe  Fe6  1  0.754011  0.500000  0.254011  1
  Fe  Fe7  1  0.243452  0.500000  0.743452  1
  Fe  Fe8  1  0.995216  0.999725  0.502871  1
  Fe  Fe9  1  0.995216  0.492345  0.995491  1
  Fe  Fe10  1  0.503146  0.000275  0.995491  1
  Fe  Fe11  1  0.503146  0.507655  0.502871  1
  Sb  Sb12  1  0.341664  0.000000  0.341664  1
