# generated using pymatgen
data_Ce2MnAl2Si2Ir3
_symmetry_space_group_name_H-M   'P 1'
_cell_length_a   4.06696400
_cell_length_b   4.06696400
_cell_length_c   10.67832700
_cell_angle_alpha   90.00000000
_cell_angle_beta   90.00000000
_cell_angle_gamma   90.00000000
_symmetry_Int_Tables_number   1
_chemical_formula_structural   Ce2MnAl2Si2Ir3
_chemical_formula_sum   'Ce2 Mn1 Al2 Si2 Ir3'
_cell_volume   176.62162343
_cell_formula_units_Z   1
loop_
 _symmetry_equiv_pos_site_id
 _symmetry_equiv_pos_as_xyz
  1  'x, y, z'
loop_
 _atom_site_type_symbol
 _atom_site_label
 _atom_site_symmetry_multiplicity
 _atom_site_fract_x
 _atom_site_fract_y
 _atom_site_fract_z
 _atom_site_occupancy
  Ce  Ce0  1  0.000000  0.500000  0.744513  1
  Ce  Ce1  1  0.500000  0.000000  0.255487  1
  Mn  Mn2  1  0.000000  0.000000  0.500000  1
  Al  Al3  1  0.000000  0.000000  0.000000  1
  Al  Al4  1  0.500000  0.500000  0.000000  1
  Si  Si5  1  0.000000  0.500000  0.374835  1
  Si  Si6  1  0.500000  0.000000  0.625165  1
  Ir  Ir7  1  0.500000  0.000000  0.855164  1
  Ir  Ir8  1  0.500000  0.500000  0.500000  1
  Ir  Ir9  1  0.000000  0.500000  0.144836  1
