# generated using pymatgen
data_TmPa3MnNi3Sn2
_symmetry_space_group_name_H-M   'P 1'
_cell_length_a   7.39356036
_cell_length_b   7.39355916
_cell_length_c   3.53705900
_cell_angle_alpha   90.00000000
_cell_angle_beta   90.00000000
_cell_angle_gamma   91.45459032
_symmetry_Int_Tables_number   1
_chemical_formula_structural   TmPa3MnNi3Sn2
_chemical_formula_sum   'Tm1 Pa3 Mn1 Ni3 Sn2'
_cell_volume   193.29005439
_cell_formula_units_Z   1
loop_
 _symmetry_equiv_pos_site_id
 _symmetry_equiv_pos_as_xyz
  1  'x, y, z'
loop_
 _atom_site_type_symbol
 _atom_site_label
 _atom_site_symmetry_multiplicity
 _atom_site_fract_x
 _atom_site_fract_y
 _atom_site_fract_z
 _atom_site_occupancy
  Tm  Tm0  1  0.831162  0.668838  0.500000  1
  Pa  Pa1  1  0.663422  0.173553  0.500000  1
  Pa  Pa2  1  0.326447  0.836578  0.500000  1
  Pa  Pa3  1  0.179569  0.320431  0.500000  1
  Mn  Mn4  1  0.359488  0.140512  0.000000  1
  Ni  Ni5  1  0.882713  0.362148  0.000000  1
  Ni  Ni6  1  0.137852  0.617287  0.000000  1
  Ni  Ni7  1  0.619304  0.880696  0.000000  1
  Sn  Sn8  1  0.506760  0.506717  0.000000  1
  Sn  Sn9  1  0.993283  0.993240  0.000000  1
