# generated using pymatgen
data_NaCa(Si2Pd3)2
_symmetry_space_group_name_H-M   'P 1'
_cell_length_a   6.77584829
_cell_length_b   6.77584809
_cell_length_c   6.77584852
_cell_angle_alpha   130.22785541
_cell_angle_beta   116.11992059
_cell_angle_gamma   85.06184762
_symmetry_Int_Tables_number   1
_chemical_formula_structural   NaCa(Si2Pd3)2
_chemical_formula_sum   'Na1 Ca1 Si4 Pd6'
_cell_volume   204.14561336
_cell_formula_units_Z   1
loop_
 _symmetry_equiv_pos_site_id
 _symmetry_equiv_pos_as_xyz
  1  'x, y, z'
loop_
 _atom_site_type_symbol
 _atom_site_label
 _atom_site_symmetry_multiplicity
 _atom_site_fract_x
 _atom_site_fract_y
 _atom_site_fract_z
 _atom_site_occupancy
  Na  Na0  1  0.500000  0.019742  0.519742  1
  Ca  Ca1  1  0.000000  0.953383  0.953383  1
  Si  Si2  1  0.315911  0.389240  0.073329  1
  Si  Si3  1  0.844240  0.281337  0.437098  1
  Si  Si4  1  0.684089  0.757417  0.073329  1
  Si  Si5  1  0.155760  0.592858  0.437098  1
  Pd  Pd6  1  0.950857  0.493956  0.947018  1
  Pd  Pd7  1  0.546938  0.493956  0.543099  1
  Pd  Pd8  1  0.049143  0.996160  0.543099  1
  Pd  Pd9  1  0.722911  0.505396  0.228307  1
  Pd  Pd10  1  0.277089  0.505396  0.782484  1
  Pd  Pd11  1  0.453062  0.996160  0.947018  1
