# generated using pymatgen
data_Hf4FeB4MoRu10
_symmetry_space_group_name_H-M   'P 1'
_cell_length_a   9.36881100
_cell_length_b   9.36881100
_cell_length_c   3.07895400
_cell_angle_alpha   90.00000000
_cell_angle_beta   90.00000000
_cell_angle_gamma   90.00000000
_symmetry_Int_Tables_number   1
_chemical_formula_structural   Hf4FeB4MoRu10
_chemical_formula_sum   'Hf4 Fe1 B4 Mo1 Ru10'
_cell_volume   270.25401597
_cell_formula_units_Z   1
loop_
 _symmetry_equiv_pos_site_id
 _symmetry_equiv_pos_as_xyz
  1  'x, y, z'
loop_
 _atom_site_type_symbol
 _atom_site_label
 _atom_site_symmetry_multiplicity
 _atom_site_fract_x
 _atom_site_fract_y
 _atom_site_fract_z
 _atom_site_occupancy
  Hf  Hf0  1  0.674177  0.178308  0.000000  1
  Hf  Hf1  1  0.325823  0.821692  0.000000  1
  Hf  Hf2  1  0.178308  0.325823  0.000000  1
  Hf  Hf3  1  0.821692  0.674177  0.000000  1
  Fe  Fe4  1  0.500000  0.500000  0.000000  1
  B  B5  1  0.127517  0.618646  0.000000  1
  B  B6  1  0.872483  0.381354  0.000000  1
  B  B7  1  0.618646  0.872483  0.000000  1
  B  B8  1  0.381354  0.127517  0.000000  1
  Mo  Mo9  1  0.000000  0.000000  0.000000  1
  Ru  Ru10  1  0.216412  0.071250  0.500000  1
  Ru  Ru11  1  0.783588  0.928750  0.500000  1
  Ru  Ru12  1  0.071250  0.783588  0.500000  1
  Ru  Ru13  1  0.713273  0.429701  0.500000  1
  Ru  Ru14  1  0.928750  0.216412  0.500000  1
  Ru  Ru15  1  0.286727  0.570299  0.500000  1
  Ru  Ru16  1  0.570299  0.713273  0.500000  1
  Ru  Ru17  1  0.429701  0.286727  0.500000  1
  Ru  Ru18  1  0.500000  0.000000  0.500000  1
  Ru  Ru19  1  0.000000  0.500000  0.500000  1
