# generated using pymatgen
data_Sm2GePt6
_symmetry_space_group_name_H-M   'P 1'
_cell_length_a   6.85308550
_cell_length_b   6.85308575
_cell_length_c   6.85308688
_cell_angle_alpha   49.16617455
_cell_angle_beta   49.16617781
_cell_angle_gamma   49.16616432
_symmetry_Int_Tables_number   1
_chemical_formula_structural   Sm2GePt6
_chemical_formula_sum   'Sm2 Ge1 Pt6'
_cell_volume   169.23647936
_cell_formula_units_Z   1
loop_
 _symmetry_equiv_pos_site_id
 _symmetry_equiv_pos_as_xyz
  1  'x, y, z'
loop_
 _atom_site_type_symbol
 _atom_site_label
 _atom_site_symmetry_multiplicity
 _atom_site_fract_x
 _atom_site_fract_y
 _atom_site_fract_z
 _atom_site_occupancy
  Sm  Sm0  1  0.218596  0.218596  0.218596  1
  Sm  Sm1  1  0.781404  0.781404  0.781404  1
  Ge  Ge2  1  0.500000  0.500000  0.500000  1
  Pt  Pt3  1  0.733690  0.228352  0.228353  1
  Pt  Pt4  1  0.228352  0.733690  0.228353  1
  Pt  Pt5  1  0.771648  0.771648  0.266309  1
  Pt  Pt6  1  0.228352  0.228352  0.733691  1
  Pt  Pt7  1  0.771648  0.266310  0.771647  1
  Pt  Pt8  1  0.266310  0.771648  0.771647  1
