# generated using pymatgen
data_LiLa8Ho11Si16
_symmetry_space_group_name_H-M   'P 1'
_cell_length_a   7.51302206
_cell_length_b   7.84235719
_cell_length_c   14.89125800
_cell_angle_alpha   90.00000000
_cell_angle_beta   90.00000000
_cell_angle_gamma   90.10342436
_symmetry_Int_Tables_number   1
_chemical_formula_structural   LiLa8Ho11Si16
_chemical_formula_sum   'Li1 La8 Ho11 Si16'
_cell_volume   877.38855243
_cell_formula_units_Z   1
loop_
 _symmetry_equiv_pos_site_id
 _symmetry_equiv_pos_as_xyz
  1  'x, y, z'
loop_
 _atom_site_type_symbol
 _atom_site_label
 _atom_site_symmetry_multiplicity
 _atom_site_fract_x
 _atom_site_fract_y
 _atom_site_fract_z
 _atom_site_occupancy
  Li  Li0  1  0.648413  0.993036  0.250000  1
  La  La1  1  0.969289  0.823838  0.101426  1
  La  La2  1  0.479583  0.685079  0.398475  1
  La  La3  1  0.522589  0.322790  0.902101  1
  La  La4  1  0.022611  0.178213  0.598041  1
  La  La5  1  0.022611  0.178213  0.901959  1
  La  La6  1  0.522589  0.322790  0.597899  1
  La  La7  1  0.479583  0.685079  0.101525  1
  La  La8  1  0.969289  0.823838  0.398574  1
  Ho  Ho9  1  0.148474  0.506918  0.250000  1
  Ho  Ho10  1  0.849771  0.491244  0.750000  1
  Ho  Ho11  1  0.348419  0.009625  0.750000  1
  Ho  Ho12  1  0.681991  0.821401  0.876083  1
  Ho  Ho13  1  0.181248  0.677274  0.623038  1
  Ho  Ho14  1  0.816177  0.314968  0.124975  1
  Ho  Ho15  1  0.327258  0.173459  0.374618  1
  Ho  Ho16  1  0.327258  0.173459  0.125382  1
  Ho  Ho17  1  0.816177  0.314968  0.375025  1
  Ho  Ho18  1  0.181248  0.677274  0.876962  1
  Ho  Ho19  1  0.681991  0.821401  0.623917  1
  Si  Si20  1  0.771636  0.608114  0.250000  1
  Si  Si21  1  0.262907  0.881809  0.250000  1
  Si  Si22  1  0.727151  0.120289  0.750000  1
  Si  Si23  1  0.228542  0.381023  0.750000  1
  Si  Si24  1  0.029701  0.112929  0.250000  1
  Si  Si25  1  0.522030  0.397056  0.250000  1
  Si  Si26  1  0.476536  0.614315  0.750000  1
  Si  Si27  1  0.976874  0.882896  0.750000  1
  Si  Si28  1  0.857106  0.530928  0.962661  1
  Si  Si29  1  0.357292  0.968385  0.539658  1
  Si  Si30  1  0.644980  0.034437  0.034388  1
  Si  Si31  1  0.144650  0.469600  0.458378  1
  Si  Si32  1  0.144650  0.469600  0.041622  1
  Si  Si33  1  0.644980  0.034437  0.465612  1
  Si  Si34  1  0.357292  0.968385  0.960342  1
  Si  Si35  1  0.857106  0.530928  0.537339  1
