# generated using pymatgen
data_LiErH6Os
_symmetry_space_group_name_H-M   'P 1'
_cell_length_a   4.83783611
_cell_length_b   4.83783719
_cell_length_c   4.83783700
_cell_angle_alpha   60.00000816
_cell_angle_beta   60.00000074
_cell_angle_gamma   60.00000791
_symmetry_Int_Tables_number   1
_chemical_formula_structural   LiErH6Os
_chemical_formula_sum   'Li1 Er1 H6 Os1'
_cell_volume   80.06425921
_cell_formula_units_Z   1
loop_
 _symmetry_equiv_pos_site_id
 _symmetry_equiv_pos_as_xyz
  1  'x, y, z'
loop_
 _atom_site_type_symbol
 _atom_site_label
 _atom_site_symmetry_multiplicity
 _atom_site_fract_x
 _atom_site_fract_y
 _atom_site_fract_z
 _atom_site_occupancy
  Li  Li0  1  0.750000  0.750000  0.750000  1
  Er  Er1  1  0.250000  0.250000  0.250000  1
  H  H2  1  0.749821  0.250179  0.250179  1
  H  H3  1  0.250179  0.749821  0.749821  1
  H  H4  1  0.250179  0.749821  0.250179  1
  H  H5  1  0.749821  0.250179  0.749821  1
  H  H6  1  0.250179  0.250179  0.749821  1
  H  H7  1  0.749821  0.749821  0.250179  1
  Os  Os8  1  0.000000  0.000000  0.000000  1
