# generated using pymatgen
data_Li15(PdPt)2
_symmetry_space_group_name_H-M   'P 1'
_cell_length_a   9.10508667
_cell_length_b   9.10508612
_cell_length_c   9.10508600
_cell_angle_alpha   109.47122260
_cell_angle_beta   109.47122136
_cell_angle_gamma   109.47121485
_symmetry_Int_Tables_number   1
_chemical_formula_structural   Li15(PdPt)2
_chemical_formula_sum   'Li30 Pd4 Pt4'
_cell_volume   581.07249674
_cell_formula_units_Z   2
loop_
 _symmetry_equiv_pos_site_id
 _symmetry_equiv_pos_as_xyz
  1  'x, y, z'
loop_
 _atom_site_type_symbol
 _atom_site_label
 _atom_site_symmetry_multiplicity
 _atom_site_fract_x
 _atom_site_fract_y
 _atom_site_fract_z
 _atom_site_occupancy
  Li  Li0  1  0.871793  0.250000  0.121793  1
  Li  Li1  1  0.628207  0.750000  0.378207  1
  Li  Li2  1  0.250000  0.121793  0.871793  1
  Li  Li3  1  0.750000  0.378207  0.628207  1
  Li  Li4  1  0.121793  0.871793  0.250000  1
  Li  Li5  1  0.378207  0.628207  0.750000  1
  Li  Li6  1  0.779565  0.695722  0.158231  1
  Li  Li7  1  0.462509  0.804278  0.583843  1
  Li  Li8  1  0.037491  0.621335  0.341769  1
  Li  Li9  1  0.720435  0.878665  0.916157  1
  Li  Li10  1  0.655514  0.194501  0.273362  1
  Li  Li11  1  0.078861  0.305499  0.961014  1
  Li  Li12  1  0.844486  0.117847  0.538986  1
  Li  Li13  1  0.421139  0.382153  0.226638  1
  Li  Li14  1  0.695722  0.158231  0.779565  1
  Li  Li15  1  0.804278  0.583843  0.462509  1
  Li  Li16  1  0.621335  0.341769  0.037491  1
  Li  Li17  1  0.878665  0.916157  0.720435  1
  Li  Li18  1  0.194501  0.273362  0.655514  1
  Li  Li19  1  0.305499  0.961014  0.078861  1
  Li  Li20  1  0.117847  0.538986  0.844486  1
  Li  Li21  1  0.382153  0.226638  0.421139  1
  Li  Li22  1  0.158231  0.779565  0.695722  1
  Li  Li23  1  0.583843  0.462509  0.804278  1
  Li  Li24  1  0.341769  0.037491  0.621335  1
  Li  Li25  1  0.916157  0.720435  0.878665  1
  Li  Li26  1  0.273362  0.655514  0.194501  1
  Li  Li27  1  0.961014  0.078861  0.305499  1
  Li  Li28  1  0.538986  0.844486  0.117847  1
  Li  Li29  1  0.226638  0.421139  0.382153  1
  Pd  Pd30  1  0.500000  0.000000  0.412880  1
  Pd  Pd31  1  0.412880  0.500000  0.000000  1
  Pd  Pd32  1  0.000000  0.412880  0.500000  1
  Pd  Pd33  1  0.087120  0.087120  0.087120  1
  Pt  Pt34  1  0.914307  0.500000  0.000000  1
  Pt  Pt35  1  0.500000  0.000000  0.914307  1
  Pt  Pt36  1  0.000000  0.914307  0.500000  1
  Pt  Pt37  1  0.585693  0.585693  0.585693  1
