# generated using pymatgen
data_Ho3Er6Tm7(CdPt)4
_symmetry_space_group_name_H-M   'P 1'
_cell_length_a   9.59079941
_cell_length_b   9.58820511
_cell_length_c   9.58820500
_cell_angle_alpha   60.00000383
_cell_angle_beta   60.00895147
_cell_angle_gamma   60.00895079
_symmetry_Int_Tables_number   1
_chemical_formula_structural   Ho3Er6Tm7(CdPt)4
_chemical_formula_sum   'Ho3 Er6 Tm7 Cd4 Pt4'
_cell_volume   623.55274419
_cell_formula_units_Z   1
loop_
 _symmetry_equiv_pos_site_id
 _symmetry_equiv_pos_as_xyz
  1  'x, y, z'
loop_
 _atom_site_type_symbol
 _atom_site_label
 _atom_site_symmetry_multiplicity
 _atom_site_fract_x
 _atom_site_fract_y
 _atom_site_fract_z
 _atom_site_occupancy
  Ho  Ho0  1  0.352837  0.352834  0.352834  1
  Ho  Ho1  1  0.352837  0.352834  0.941496  1
  Ho  Ho2  1  0.352837  0.941496  0.352834  1
  Er  Er3  1  0.934589  0.565349  0.565349  1
  Er  Er4  1  0.565502  0.934475  0.934475  1
  Er  Er5  1  0.565502  0.934475  0.565548  1
  Er  Er6  1  0.934589  0.565349  0.934713  1
  Er  Er7  1  0.565502  0.565548  0.934475  1
  Er  Er8  1  0.934589  0.934713  0.565349  1
  Tm  Tm9  1  0.942490  0.352504  0.352504  1
  Tm  Tm10  1  0.811499  0.188624  0.188624  1
  Tm  Tm11  1  0.188362  0.811635  0.811635  1
  Tm  Tm12  1  0.188362  0.811635  0.188368  1
  Tm  Tm13  1  0.811499  0.188624  0.811254  1
  Tm  Tm14  1  0.188362  0.188368  0.811635  1
  Tm  Tm15  1  0.811499  0.811254  0.188624  1
  Cd  Cd16  1  0.582555  0.582147  0.582147  1
  Cd  Cd17  1  0.582555  0.582147  0.253150  1
  Cd  Cd18  1  0.582555  0.253150  0.582147  1
  Cd  Cd19  1  0.253115  0.582295  0.582295  1
  Pt  Pt20  1  0.142268  0.143400  0.143400  1
  Pt  Pt21  1  0.142268  0.143400  0.570932  1
  Pt  Pt22  1  0.142268  0.570932  0.143400  1
  Pt  Pt23  1  0.571557  0.142814  0.142814  1
