# generated using pymatgen
data_La3Er3(BiO7)2
_symmetry_space_group_name_H-M   'P 1'
_cell_length_a   6.67054507
_cell_length_b   6.69871958
_cell_length_c   7.84688833
_cell_angle_alpha   106.98574963
_cell_angle_beta   89.88848939
_cell_angle_gamma   99.11296771
_symmetry_Int_Tables_number   1
_chemical_formula_structural   La3Er3(BiO7)2
_chemical_formula_sum   'La3 Er3 Bi2 O14'
_cell_volume   330.73826804
_cell_formula_units_Z   1
loop_
 _symmetry_equiv_pos_site_id
 _symmetry_equiv_pos_as_xyz
  1  'x, y, z'
loop_
 _atom_site_type_symbol
 _atom_site_label
 _atom_site_symmetry_multiplicity
 _atom_site_fract_x
 _atom_site_fract_y
 _atom_site_fract_z
 _atom_site_occupancy
  La  La0  1  0.729625  0.464581  0.113430  1
  La  La1  1  0.737442  0.481716  0.622110  1
  La  La2  1  0.257396  0.517957  0.381367  1
  Er  Er3  1  0.463711  0.004491  0.251838  1
  Er  Er4  1  0.531901  0.992744  0.747685  1
  Er  Er5  1  0.270911  0.539494  0.884068  1
  Bi  Bi6  1  0.002074  0.004428  0.503504  1
  Bi  Bi7  1  0.005469  0.000415  0.997435  1
  O  O8  1  0.437679  0.657274  0.158227  1
  O  O9  1  0.536854  0.340374  0.832449  1
  O  O10  1  0.305972  0.930106  0.954148  1
  O  O11  1  0.702011  0.060425  0.049731  1
  O  O12  1  0.302126  0.938011  0.516344  1
  O  O13  1  0.700192  0.061281  0.481770  1
  O  O14  1  0.540980  0.354492  0.341482  1
  O  O15  1  0.450550  0.645180  0.667467  1
  O  O16  1  0.941371  0.664771  0.942361  1
  O  O17  1  0.083825  0.330751  0.038640  1
  O  O18  1  0.076871  0.341871  0.625910  1
  O  O19  1  0.927787  0.663168  0.388018  1
  O  O20  1  0.871219  0.923931  0.730641  1
  O  O21  1  0.124034  0.082539  0.271375  1
