# generated using pymatgen
data_PrNdAs7Pd12
_symmetry_space_group_name_H-M   'P 1'
_cell_length_a   10.11778500
_cell_length_b   10.11778539
_cell_length_c   4.18714600
_cell_angle_alpha   90.00000000
_cell_angle_beta   90.00000000
_cell_angle_gamma   120.00000200
_symmetry_Int_Tables_number   1
_chemical_formula_structural   PrNdAs7Pd12
_chemical_formula_sum   'Pr1 Nd1 As7 Pd12'
_cell_volume   371.20997434
_cell_formula_units_Z   1
loop_
 _symmetry_equiv_pos_site_id
 _symmetry_equiv_pos_as_xyz
  1  'x, y, z'
loop_
 _atom_site_type_symbol
 _atom_site_label
 _atom_site_symmetry_multiplicity
 _atom_site_fract_x
 _atom_site_fract_y
 _atom_site_fract_z
 _atom_site_occupancy
  Pr  Pr0  1  0.666667  0.333333  0.245700  1
  Nd  Nd1  1  0.000000  0.000000  0.752326  1
  As  As2  1  0.333333  0.666667  0.482209  1
  As  As3  1  0.741868  0.782138  0.252049  1
  As  As4  1  0.040269  0.258132  0.252049  1
  As  As5  1  0.217862  0.959731  0.252049  1
  As  As6  1  0.924567  0.552057  0.744659  1
  As  As7  1  0.627491  0.075433  0.744659  1
  As  As8  1  0.447943  0.372509  0.744659  1
  Pd  Pd9  1  0.770538  0.044935  0.249461  1
  Pd  Pd10  1  0.274396  0.229462  0.249461  1
  Pd  Pd11  1  0.955065  0.725604  0.249461  1
  Pd  Pd12  1  0.897897  0.288324  0.746360  1
  Pd  Pd13  1  0.390426  0.102103  0.746360  1
  Pd  Pd14  1  0.711676  0.609574  0.746360  1
  Pd  Pd15  1  0.475959  0.553912  0.227542  1
  Pd  Pd16  1  0.077952  0.524041  0.227542  1
  Pd  Pd17  1  0.446088  0.922048  0.227542  1
  Pd  Pd18  1  0.193346  0.775700  0.770357  1
  Pd  Pd19  1  0.582355  0.806654  0.770357  1
  Pd  Pd20  1  0.224300  0.417645  0.770357  1
