# generated using pymatgen
data_Ce2Y3P12Ir10Ru9
_symmetry_space_group_name_H-M   'P 1'
_cell_length_a   12.67025700
_cell_length_b   12.67025674
_cell_length_c   3.97177800
_cell_angle_alpha   90.00000000
_cell_angle_beta   90.00000000
_cell_angle_gamma   119.99999285
_symmetry_Int_Tables_number   1
_chemical_formula_structural   Ce2Y3P12Ir10Ru9
_chemical_formula_sum   'Ce2 Y3 P12 Ir10 Ru9'
_cell_volume   552.18736897
_cell_formula_units_Z   1
loop_
 _symmetry_equiv_pos_site_id
 _symmetry_equiv_pos_as_xyz
  1  'x, y, z'
loop_
 _atom_site_type_symbol
 _atom_site_label
 _atom_site_symmetry_multiplicity
 _atom_site_fract_x
 _atom_site_fract_y
 _atom_site_fract_z
 _atom_site_occupancy
  Ce  Ce0  1  0.333333  0.666667  0.500000  1
  Ce  Ce1  1  0.666667  0.333333  0.500000  1
  Y  Y2  1  0.187969  0.187969  0.000000  1
  Y  Y3  1  0.812031  0.000000  0.000000  1
  Y  Y4  1  0.000000  0.812031  0.000000  1
  P  P5  1  0.307444  0.828780  0.000000  1
  P  P6  1  0.171220  0.478664  0.000000  1
  P  P7  1  0.521336  0.692556  0.000000  1
  P  P8  1  0.828780  0.307444  0.000000  1
  P  P9  1  0.478664  0.171220  0.000000  1
  P  P10  1  0.692556  0.521336  0.000000  1
  P  P11  1  0.363059  0.363059  0.500000  1
  P  P12  1  0.636941  0.000000  0.500000  1
  P  P13  1  0.000000  0.636941  0.500000  1
  P  P14  1  0.819366  0.819366  0.500000  1
  P  P15  1  0.180634  0.000000  0.500000  1
  P  P16  1  0.000000  0.180634  0.500000  1
  Ir  Ir17  1  0.128267  0.635493  0.000000  1
  Ir  Ir18  1  0.364507  0.492773  0.000000  1
  Ir  Ir19  1  0.507227  0.871733  0.000000  1
  Ir  Ir20  1  0.635493  0.128267  0.000000  1
  Ir  Ir21  1  0.492773  0.364507  0.000000  1
  Ir  Ir22  1  0.871733  0.507227  0.000000  1
  Ir  Ir23  1  0.714764  0.714764  0.000000  1
  Ir  Ir24  1  0.285236  0.000000  0.000000  1
  Ir  Ir25  1  0.000000  0.285236  0.000000  1
  Ir  Ir26  1  0.000000  0.000000  0.500000  1
  Ru  Ru27  1  0.196898  0.818023  0.500000  1
  Ru  Ru28  1  0.181977  0.378874  0.500000  1
  Ru  Ru29  1  0.621126  0.803102  0.500000  1
  Ru  Ru30  1  0.818023  0.196898  0.500000  1
  Ru  Ru31  1  0.378874  0.181977  0.500000  1
  Ru  Ru32  1  0.803102  0.621126  0.500000  1
  Ru  Ru33  1  0.546435  0.546435  0.500000  1
  Ru  Ru34  1  0.453565  0.000000  0.500000  1
  Ru  Ru35  1  0.000000  0.453565  0.500000  1
