# generated using pymatgen
data_Lu2GaB2Ir2Ru3
_symmetry_space_group_name_H-M   'P 1'
_cell_length_a   9.55101070
_cell_length_b   9.55067370
_cell_length_c   3.07236800
_cell_angle_alpha   90.00000000
_cell_angle_beta   90.00000000
_cell_angle_gamma   89.91388393
_symmetry_Int_Tables_number   1
_chemical_formula_structural   Lu2GaB2Ir2Ru3
_chemical_formula_sum   'Lu4 Ga2 B4 Ir4 Ru6'
_cell_volume   280.25675005
_cell_formula_units_Z   2
loop_
 _symmetry_equiv_pos_site_id
 _symmetry_equiv_pos_as_xyz
  1  'x, y, z'
loop_
 _atom_site_type_symbol
 _atom_site_label
 _atom_site_symmetry_multiplicity
 _atom_site_fract_x
 _atom_site_fract_y
 _atom_site_fract_z
 _atom_site_occupancy
  Lu  Lu0  1  0.674821  0.174857  0.000000  1
  Lu  Lu1  1  0.324420  0.826571  0.000000  1
  Lu  Lu2  1  0.173936  0.324242  0.000000  1
  Lu  Lu3  1  0.826429  0.673983  0.000000  1
  Ga  Ga4  1  0.000219  0.998804  0.000000  1
  Ga  Ga5  1  0.502697  0.499425  0.000000  1
  B  B6  1  0.120709  0.624151  0.000000  1
  B  B7  1  0.875755  0.379611  0.000000  1
  B  B8  1  0.624155  0.879284  0.000000  1
  B  B9  1  0.374902  0.121321  0.000000  1
  Ir  Ir10  1  0.930016  0.216124  0.500000  1
  Ir  Ir11  1  0.284445  0.568713  0.500000  1
  Ir  Ir12  1  0.570243  0.717220  0.500000  1
  Ir  Ir13  1  0.429450  0.283489  0.500000  1
  Ru  Ru14  1  0.216343  0.068771  0.500000  1
  Ru  Ru15  1  0.783206  0.930203  0.500000  1
  Ru  Ru16  1  0.070817  0.782841  0.500000  1
  Ru  Ru17  1  0.716947  0.430273  0.500000  1
  Ru  Ru18  1  0.499617  0.000863  0.500000  1
  Ru  Ru19  1  0.000872  0.499253  0.500000  1
