# generated using pymatgen
data_Eu2Ga12Pt
_symmetry_space_group_name_H-M   'P 1'
_cell_length_a   6.12713200
_cell_length_b   6.12713200
_cell_length_c   15.80809900
_cell_angle_alpha   90.00000000
_cell_angle_beta   90.00000000
_cell_angle_gamma   90.00000000
_symmetry_Int_Tables_number   1
_chemical_formula_structural   Eu2Ga12Pt
_chemical_formula_sum   'Eu4 Ga24 Pt2'
_cell_volume   593.46364602
_cell_formula_units_Z   2
loop_
 _symmetry_equiv_pos_site_id
 _symmetry_equiv_pos_as_xyz
  1  'x, y, z'
loop_
 _atom_site_type_symbol
 _atom_site_label
 _atom_site_symmetry_multiplicity
 _atom_site_fract_x
 _atom_site_fract_y
 _atom_site_fract_z
 _atom_site_occupancy
  Eu  Eu0  1  0.000000  0.500000  0.244251  1
  Eu  Eu1  1  0.500000  0.000000  0.244251  1
  Eu  Eu2  1  0.000000  0.500000  0.755749  1
  Eu  Eu3  1  0.500000  0.000000  0.755749  1
  Ga  Ga4  1  0.000000  0.000000  0.344358  1
  Ga  Ga5  1  0.249977  0.250023  0.910550  1
  Ga  Ga6  1  0.329540  0.170460  0.568692  1
  Ga  Ga7  1  0.249977  0.749977  0.089450  1
  Ga  Ga8  1  0.670460  0.829540  0.568692  1
  Ga  Ga9  1  0.000000  0.000000  0.812143  1
  Ga  Ga10  1  0.329540  0.829540  0.431308  1
  Ga  Ga11  1  0.000000  0.000000  0.187857  1
  Ga  Ga12  1  0.500000  0.500000  0.344358  1
  Ga  Ga13  1  0.250023  0.249977  0.089450  1
  Ga  Ga14  1  0.749977  0.750023  0.089450  1
  Ga  Ga15  1  0.000000  0.000000  0.655642  1
  Ga  Ga16  1  0.829540  0.670460  0.431308  1
  Ga  Ga17  1  0.829540  0.329540  0.568692  1
  Ga  Ga18  1  0.500000  0.500000  0.187857  1
  Ga  Ga19  1  0.250023  0.750023  0.910550  1
  Ga  Ga20  1  0.500000  0.500000  0.655642  1
  Ga  Ga21  1  0.750023  0.749977  0.910550  1
  Ga  Ga22  1  0.670460  0.170460  0.431308  1
  Ga  Ga23  1  0.170460  0.329540  0.431308  1
  Ga  Ga24  1  0.500000  0.500000  0.812143  1
  Ga  Ga25  1  0.749977  0.249977  0.910550  1
  Ga  Ga26  1  0.750023  0.250023  0.089450  1
  Ga  Ga27  1  0.170460  0.670460  0.568692  1
  Pt  Pt28  1  0.000000  0.500000  0.000000  1
  Pt  Pt29  1  0.500000  0.000000  0.000000  1
