# generated using pymatgen
data_Hf2MnBe8Rh
_symmetry_space_group_name_H-M   'P 1'
_cell_length_a   4.41254900
_cell_length_b   4.41254929
_cell_length_c   7.33003700
_cell_angle_alpha   90.00000000
_cell_angle_beta   90.00000000
_cell_angle_gamma   120.00002031
_symmetry_Int_Tables_number   1
_chemical_formula_structural   Hf2MnBe8Rh
_chemical_formula_sum   'Hf2 Mn1 Be8 Rh1'
_cell_volume   123.59924578
_cell_formula_units_Z   1
loop_
 _symmetry_equiv_pos_site_id
 _symmetry_equiv_pos_as_xyz
  1  'x, y, z'
loop_
 _atom_site_type_symbol
 _atom_site_label
 _atom_site_symmetry_multiplicity
 _atom_site_fract_x
 _atom_site_fract_y
 _atom_site_fract_z
 _atom_site_occupancy
  Hf  Hf0  1  0.333333  0.666667  0.068146  1
  Hf  Hf1  1  0.666667  0.333333  0.558903  1
  Mn  Mn2  1  0.333333  0.666667  0.431077  1
  Be  Be3  1  0.000000  0.000000  0.995980  1
  Be  Be4  1  0.000000  0.000000  0.501512  1
  Be  Be5  1  0.834563  0.669125  0.257306  1
  Be  Be6  1  0.168138  0.831862  0.747641  1
  Be  Be7  1  0.663724  0.831862  0.747641  1
  Be  Be8  1  0.330875  0.165437  0.257306  1
  Be  Be9  1  0.834563  0.165437  0.257306  1
  Be  Be10  1  0.168138  0.336276  0.747641  1
  Rh  Rh11  1  0.666667  0.333333  0.929541  1
