# generated using pymatgen
data_LaPrGeIrI2
_symmetry_space_group_name_H-M   'P 1'
_cell_length_a   4.38720000
_cell_length_b   4.38719944
_cell_length_c   11.83272100
_cell_angle_alpha   90.00000000
_cell_angle_beta   90.00000000
_cell_angle_gamma   120.00000425
_symmetry_Int_Tables_number   1
_chemical_formula_structural   LaPrGeIrI2
_chemical_formula_sum   'La1 Pr1 Ge1 Ir1 I2'
_cell_volume   197.23775379
_cell_formula_units_Z   1
loop_
 _symmetry_equiv_pos_site_id
 _symmetry_equiv_pos_as_xyz
  1  'x, y, z'
loop_
 _atom_site_type_symbol
 _atom_site_label
 _atom_site_symmetry_multiplicity
 _atom_site_fract_x
 _atom_site_fract_y
 _atom_site_fract_z
 _atom_site_occupancy
  La  La0  1  0.000000  0.000000  0.838765  1
  Pr  Pr1  1  0.000000  0.000000  0.162677  1
  Ge  Ge2  1  0.666667  0.333333  0.005714  1
  Ir  Ir3  1  0.333333  0.666667  0.997076  1
  I  I4  1  0.666667  0.333333  0.653419  1
  I  I5  1  0.333333  0.666667  0.342348  1
