# generated using pymatgen
data_Dy3ZnCd3CuPt
_symmetry_space_group_name_H-M   'P 1'
_cell_length_a   7.66914700
_cell_length_b   7.66914764
_cell_length_c   3.85353000
_cell_angle_alpha   90.00000000
_cell_angle_beta   90.00000000
_cell_angle_gamma   120.00001018
_symmetry_Int_Tables_number   1
_chemical_formula_structural   Dy3ZnCd3CuPt
_chemical_formula_sum   'Dy3 Zn1 Cd3 Cu1 Pt1'
_cell_volume   196.28336389
_cell_formula_units_Z   1
loop_
 _symmetry_equiv_pos_site_id
 _symmetry_equiv_pos_as_xyz
  1  'x, y, z'
loop_
 _atom_site_type_symbol
 _atom_site_label
 _atom_site_symmetry_multiplicity
 _atom_site_fract_x
 _atom_site_fract_y
 _atom_site_fract_z
 _atom_site_occupancy
  Dy  Dy0  1  0.020777  0.417703  0.500000  1
  Dy  Dy1  1  0.582297  0.603074  0.500000  1
  Dy  Dy2  1  0.396926  0.979223  0.500000  1
  Zn  Zn3  1  0.666667  0.333333  0.000000  1
  Cd  Cd4  1  0.989675  0.743185  0.000000  1
  Cd  Cd5  1  0.256815  0.246489  0.000000  1
  Cd  Cd6  1  0.753511  0.010325  0.000000  1
  Cu  Cu7  1  0.000000  0.000000  0.500000  1
  Pt  Pt8  1  0.333333  0.666667  0.000000  1
