# generated using pymatgen
data_SrZnIO6
_symmetry_space_group_name_H-M   'P 1'
_cell_length_a   5.29848600
_cell_length_b   5.29848645
_cell_length_c   5.38862700
_cell_angle_alpha   90.00000000
_cell_angle_beta   90.00000000
_cell_angle_gamma   119.99999718
_symmetry_Int_Tables_number   1
_chemical_formula_structural   SrZnIO6
_chemical_formula_sum   'Sr1 Zn1 I1 O6'
_cell_volume   131.01239511
_cell_formula_units_Z   1
loop_
 _symmetry_equiv_pos_site_id
 _symmetry_equiv_pos_as_xyz
  1  'x, y, z'
loop_
 _atom_site_type_symbol
 _atom_site_label
 _atom_site_symmetry_multiplicity
 _atom_site_fract_x
 _atom_site_fract_y
 _atom_site_fract_z
 _atom_site_occupancy
  Sr  Sr0  1  0.000000  0.000000  0.000000  1
  Zn  Zn1  1  0.333333  0.666667  0.500000  1
  I  I2  1  0.666667  0.333333  0.500000  1
  O  O3  1  0.390487  0.025650  0.703914  1
  O  O4  1  0.974350  0.364837  0.703914  1
  O  O5  1  0.635163  0.609513  0.703914  1
  O  O6  1  0.974350  0.609513  0.296086  1
  O  O7  1  0.635163  0.025650  0.296086  1
  O  O8  1  0.390487  0.364837  0.296086  1
