# generated using pymatgen
data_Pr16Tm4(Ir3Ru)3
_symmetry_space_group_name_H-M   'P 1'
_cell_length_a   11.21687100
_cell_length_b   11.21687100
_cell_length_c   6.55956800
_cell_angle_alpha   90.00000000
_cell_angle_beta   90.00000000
_cell_angle_gamma   90.00000000
_symmetry_Int_Tables_number   1
_chemical_formula_structural   Pr16Tm4(Ir3Ru)3
_chemical_formula_sum   'Pr16 Tm4 Ir9 Ru3'
_cell_volume   825.31300594
_cell_formula_units_Z   1
loop_
 _symmetry_equiv_pos_site_id
 _symmetry_equiv_pos_as_xyz
  1  'x, y, z'
loop_
 _atom_site_type_symbol
 _atom_site_label
 _atom_site_symmetry_multiplicity
 _atom_site_fract_x
 _atom_site_fract_y
 _atom_site_fract_z
 _atom_site_occupancy
  Pr  Pr0  1  0.290775  0.086069  0.381001  1
  Pr  Pr1  1  0.290885  0.914264  0.881371  1
  Pr  Pr2  1  0.709115  0.085736  0.881371  1
  Pr  Pr3  1  0.709225  0.913931  0.381001  1
  Pr  Pr4  1  0.585736  0.790885  0.881371  1
  Pr  Pr5  1  0.586069  0.209225  0.381001  1
  Pr  Pr6  1  0.413931  0.790775  0.381001  1
  Pr  Pr7  1  0.414264  0.209115  0.881371  1
  Pr  Pr8  1  0.211092  0.413199  0.620598  1
  Pr  Pr9  1  0.210904  0.586667  0.117522  1
  Pr  Pr10  1  0.789096  0.413333  0.117522  1
  Pr  Pr11  1  0.788908  0.586801  0.620598  1
  Pr  Pr12  1  0.913333  0.710904  0.117522  1
  Pr  Pr13  1  0.913199  0.288908  0.620598  1
  Pr  Pr14  1  0.086801  0.711092  0.620598  1
  Pr  Pr15  1  0.086667  0.289096  0.117522  1
  Tm  Tm16  1  0.000000  0.000000  0.499330  1
  Tm  Tm17  1  0.000000  0.000000  0.999390  1
  Tm  Tm18  1  0.500000  0.500000  0.999390  1
  Tm  Tm19  1  0.500000  0.500000  0.499330  1
  Ir  Ir20  1  0.854458  0.146248  0.250122  1
  Ir  Ir21  1  0.854173  0.853602  0.749639  1
  Ir  Ir22  1  0.145827  0.146398  0.749639  1
  Ir  Ir23  1  0.145542  0.853752  0.250122  1
  Ir  Ir24  1  0.646398  0.354173  0.749639  1
  Ir  Ir25  1  0.646248  0.645542  0.250122  1
  Ir  Ir26  1  0.353752  0.354458  0.250122  1
  Ir  Ir27  1  0.353602  0.645827  0.749639  1
  Ir  Ir28  1  0.000000  0.500000  0.383846  1
  Ru  Ru29  1  0.500000  0.000000  0.116433  1
  Ru  Ru30  1  0.500000  0.000000  0.616103  1
  Ru  Ru31  1  0.000000  0.500000  0.885161  1
