# generated using pymatgen
data_Y2HoTm(Al3Rh)6
_symmetry_space_group_name_H-M   'P 1'
_cell_length_a   7.54507405
_cell_length_b   7.54756646
_cell_length_c   9.45241800
_cell_angle_alpha   90.00000000
_cell_angle_beta   90.00000000
_cell_angle_gamma   119.29660552
_symmetry_Int_Tables_number   1
_chemical_formula_structural   Y2HoTm(Al3Rh)6
_chemical_formula_sum   'Y2 Ho1 Tm1 Al18 Rh6'
_cell_volume   469.43859602
_cell_formula_units_Z   1
loop_
 _symmetry_equiv_pos_site_id
 _symmetry_equiv_pos_as_xyz
  1  'x, y, z'
loop_
 _atom_site_type_symbol
 _atom_site_label
 _atom_site_symmetry_multiplicity
 _atom_site_fract_x
 _atom_site_fract_y
 _atom_site_fract_z
 _atom_site_occupancy
  Y  Y0  1  0.005933  0.327897  0.750000  1
  Y  Y1  1  0.672120  0.994083  0.250000  1
  Ho  Ho2  1  0.994122  0.672087  0.250000  1
  Tm  Tm3  1  0.327925  0.005808  0.750000  1
  Al  Al4  1  0.128384  0.128410  0.250000  1
  Al  Al5  1  0.871691  0.871580  0.750000  1
  Al  Al6  1  0.000940  0.335755  0.075267  1
  Al  Al7  1  0.999499  0.664491  0.923941  1
  Al  Al8  1  0.999499  0.664491  0.576059  1
  Al  Al9  1  0.335842  0.000912  0.425107  1
  Al  Al10  1  0.000940  0.335755  0.424733  1
  Al  Al11  1  0.663556  0.999147  0.575736  1
  Al  Al12  1  0.663556  0.999147  0.924264  1
  Al  Al13  1  0.335842  0.000912  0.074893  1
  Al  Al14  1  0.332857  0.332411  0.550479  1
  Al  Al15  1  0.667143  0.667226  0.450912  1
  Al  Al16  1  0.667143  0.667226  0.049088  1
  Al  Al17  1  0.332857  0.332411  0.949521  1
  Al  Al18  1  0.339980  0.550712  0.250000  1
  Al  Al19  1  0.659664  0.449318  0.750000  1
  Al  Al20  1  0.550530  0.339532  0.250000  1
  Al  Al21  1  0.450006  0.660737  0.750000  1
  Rh  Rh22  1  0.671864  0.327747  0.999635  1
  Rh  Rh23  1  0.327570  0.672021  0.999657  1
  Rh  Rh24  1  0.327570  0.672021  0.500343  1
  Rh  Rh25  1  0.671864  0.327747  0.500365  1
  Rh  Rh26  1  0.000551  0.000208  0.999402  1
  Rh  Rh27  1  0.000551  0.000208  0.500598  1
