# generated using pymatgen
data_TmNb8GeSe16
_symmetry_space_group_name_H-M   'P 1'
_cell_length_a   7.03856400
_cell_length_b   7.03856467
_cell_length_c   14.16892000
_cell_angle_alpha   90.00000000
_cell_angle_beta   90.00000000
_cell_angle_gamma   119.99999687
_symmetry_Int_Tables_number   1
_chemical_formula_structural   TmNb8GeSe16
_chemical_formula_sum   'Tm1 Nb8 Ge1 Se16'
_cell_volume   607.90478597
_cell_formula_units_Z   1
loop_
 _symmetry_equiv_pos_site_id
 _symmetry_equiv_pos_as_xyz
  1  'x, y, z'
loop_
 _atom_site_type_symbol
 _atom_site_label
 _atom_site_symmetry_multiplicity
 _atom_site_fract_x
 _atom_site_fract_y
 _atom_site_fract_z
 _atom_site_occupancy
  Tm  Tm0  1  0.000000  0.000000  0.500000  1
  Nb  Nb1  1  0.000000  0.000000  0.249225  1
  Nb  Nb2  1  0.000000  0.000000  0.750775  1
  Nb  Nb3  1  0.506155  0.012310  0.247545  1
  Nb  Nb4  1  0.987690  0.493845  0.247545  1
  Nb  Nb5  1  0.506155  0.493845  0.247545  1
  Nb  Nb6  1  0.493845  0.987690  0.752455  1
  Nb  Nb7  1  0.012310  0.506155  0.752455  1
  Nb  Nb8  1  0.493845  0.506155  0.752455  1
  Ge  Ge9  1  0.000000  0.000000  0.000000  1
  Se  Se10  1  0.333333  0.666667  0.872856  1
  Se  Se11  1  0.666667  0.333333  0.127144  1
  Se  Se12  1  0.666667  0.333333  0.368245  1
  Se  Se13  1  0.333333  0.666667  0.631755  1
  Se  Se14  1  0.169169  0.830831  0.365451  1
  Se  Se15  1  0.169169  0.338337  0.365451  1
  Se  Se16  1  0.661663  0.830831  0.365451  1
  Se  Se17  1  0.830831  0.169169  0.634549  1
  Se  Se18  1  0.830831  0.661663  0.634549  1
  Se  Se19  1  0.338337  0.169169  0.634549  1
  Se  Se20  1  0.831764  0.168236  0.868107  1
  Se  Se21  1  0.831764  0.663529  0.868107  1
  Se  Se22  1  0.336471  0.168236  0.868107  1
  Se  Se23  1  0.168236  0.831764  0.131893  1
  Se  Se24  1  0.168236  0.336471  0.131893  1
  Se  Se25  1  0.663529  0.831764  0.131893  1
