# generated using pymatgen
data_LaTh(Pd3Se4)2
_symmetry_space_group_name_H-M   'P 1'
_cell_length_a   7.11389400
_cell_length_b   7.11389400
_cell_length_c   7.11389400
_cell_angle_alpha   90.00000000
_cell_angle_beta   90.00000000
_cell_angle_gamma   90.00000000
_symmetry_Int_Tables_number   1
_chemical_formula_structural   LaTh(Pd3Se4)2
_chemical_formula_sum   'La1 Th1 Pd6 Se8'
_cell_volume   360.01630412
_cell_formula_units_Z   1
loop_
 _symmetry_equiv_pos_site_id
 _symmetry_equiv_pos_as_xyz
  1  'x, y, z'
loop_
 _atom_site_type_symbol
 _atom_site_label
 _atom_site_symmetry_multiplicity
 _atom_site_fract_x
 _atom_site_fract_y
 _atom_site_fract_z
 _atom_site_occupancy
  La  La0  1  0.000000  0.000000  0.000000  1
  Th  Th1  1  0.500000  0.500000  0.500000  1
  Pd  Pd2  1  0.500000  0.000000  0.749619  1
  Pd  Pd3  1  0.000000  0.250381  0.500000  1
  Pd  Pd4  1  0.749619  0.500000  0.000000  1
  Pd  Pd5  1  0.500000  0.000000  0.250381  1
  Pd  Pd6  1  0.000000  0.749619  0.500000  1
  Pd  Pd7  1  0.250381  0.500000  0.000000  1
  Se  Se8  1  0.747053  0.252947  0.747053  1
  Se  Se9  1  0.252947  0.747053  0.252947  1
  Se  Se10  1  0.747053  0.747053  0.252947  1
  Se  Se11  1  0.252947  0.252947  0.747053  1
  Se  Se12  1  0.252947  0.747053  0.747053  1
  Se  Se13  1  0.747053  0.252947  0.252947  1
  Se  Se14  1  0.252947  0.252947  0.252947  1
  Se  Se15  1  0.747053  0.747053  0.747053  1
