# generated using pymatgen
data_Cs2LiGaSb2
_symmetry_space_group_name_H-M   'P 1'
_cell_length_a   11.26007879
_cell_length_b   11.26007823
_cell_length_c   6.96918800
_cell_angle_alpha   90.00000000
_cell_angle_beta   90.00000000
_cell_angle_gamma   104.14708243
_symmetry_Int_Tables_number   1
_chemical_formula_structural   Cs2LiGaSb2
_chemical_formula_sum   'Cs8 Li4 Ga4 Sb8'
_cell_volume   856.82010433
_cell_formula_units_Z   4
loop_
 _symmetry_equiv_pos_site_id
 _symmetry_equiv_pos_as_xyz
  1  'x, y, z'
loop_
 _atom_site_type_symbol
 _atom_site_label
 _atom_site_symmetry_multiplicity
 _atom_site_fract_x
 _atom_site_fract_y
 _atom_site_fract_z
 _atom_site_occupancy
  Cs  Cs0  1  0.079300  0.420700  0.750000  1
  Cs  Cs1  1  0.671211  0.328789  0.780781  1
  Cs  Cs2  1  0.328789  0.671211  0.219219  1
  Cs  Cs3  1  0.579300  0.920700  0.750000  1
  Cs  Cs4  1  0.420700  0.079300  0.250000  1
  Cs  Cs5  1  0.920700  0.579300  0.250000  1
  Cs  Cs6  1  0.828789  0.171211  0.280781  1
  Cs  Cs7  1  0.171211  0.828789  0.719219  1
  Li  Li8  1  0.119382  0.119382  0.500000  1
  Li  Li9  1  0.880618  0.880618  0.500000  1
  Li  Li10  1  0.380618  0.380618  0.000000  1
  Li  Li11  1  0.619382  0.619382  0.000000  1
  Ga  Ga12  1  0.867238  0.867238  0.000000  1
  Ga  Ga13  1  0.367238  0.367238  0.500000  1
  Ga  Ga14  1  0.632762  0.632762  0.500000  1
  Ga  Ga15  1  0.132762  0.132762  0.000000  1
  Sb  Sb16  1  0.835607  0.664393  0.750000  1
  Sb  Sb17  1  0.084712  0.915288  0.209738  1
  Sb  Sb18  1  0.415288  0.584712  0.709738  1
  Sb  Sb19  1  0.584712  0.415288  0.290262  1
  Sb  Sb20  1  0.664393  0.835607  0.250000  1
  Sb  Sb21  1  0.164393  0.335607  0.250000  1
  Sb  Sb22  1  0.335607  0.164393  0.750000  1
  Sb  Sb23  1  0.915288  0.084712  0.790262  1
