# generated using pymatgen
data_Li8Y4Ho4Sn5Sb3
_symmetry_space_group_name_H-M   'P 1'
_cell_length_a   9.39006500
_cell_length_b   9.39126165
_cell_length_c   7.19764300
_cell_angle_alpha   89.99745156
_cell_angle_beta   90.00034600
_cell_angle_gamma   119.99784215
_symmetry_Int_Tables_number   1
_chemical_formula_structural   Li8Y4Ho4Sn5Sb3
_chemical_formula_sum   'Li8 Y4 Ho4 Sn5 Sb3'
_cell_volume   549.69642849
_cell_formula_units_Z   1
loop_
 _symmetry_equiv_pos_site_id
 _symmetry_equiv_pos_as_xyz
  1  'x, y, z'
loop_
 _atom_site_type_symbol
 _atom_site_label
 _atom_site_symmetry_multiplicity
 _atom_site_fract_x
 _atom_site_fract_y
 _atom_site_fract_z
 _atom_site_occupancy
  Li  Li0  1  0.166448  0.332916  0.284023  1
  Li  Li1  1  0.166375  0.833487  0.284052  1
  Li  Li2  1  0.667096  0.833489  0.284048  1
  Li  Li3  1  0.833232  0.666449  0.786174  1
  Li  Li4  1  0.833353  0.166865  0.786057  1
  Li  Li5  1  0.333531  0.166866  0.786044  1
  Li  Li6  1  0.333301  0.666592  0.675870  1
  Li  Li7  1  0.666720  0.333445  0.179140  1
  Y  Y8  1  0.512354  0.024739  0.490767  1
  Y  Y9  1  0.512275  0.487643  0.490712  1
  Y  Y10  1  0.975380  0.487668  0.490702  1
  Y  Y11  1  0.489564  0.979099  0.995843  1
  Ho  Ho12  1  0.489623  0.510420  0.996001  1
  Ho  Ho13  1  0.020768  0.510390  0.996037  1
  Ho  Ho14  1  0.000039  0.000053  0.497417  1
  Ho  Ho15  1  0.999993  0.000002  0.004658  1
  Sn  Sn16  1  0.833204  0.666350  0.230932  1
  Sn  Sn17  1  0.833490  0.166969  0.231262  1
  Sn  Sn18  1  0.333460  0.166931  0.231273  1
  Sn  Sn19  1  0.333130  0.666293  0.259385  1
  Sn  Sn20  1  0.666770  0.333539  0.760908  1
  Sb  Sb21  1  0.166665  0.333336  0.733742  1
  Sb  Sb22  1  0.166445  0.833229  0.733446  1
  Sb  Sb23  1  0.666782  0.833230  0.733479  1
