# generated using pymatgen
data_Mg5Cu16Si7Ag
_symmetry_space_group_name_H-M   'P 1'
_cell_length_a   8.26152601
_cell_length_b   8.22186503
_cell_length_c   8.26152674
_cell_angle_alpha   60.15867962
_cell_angle_beta   59.68265264
_cell_angle_gamma   60.15867821
_symmetry_Int_Tables_number   1
_chemical_formula_structural   Mg5Cu16Si7Ag
_chemical_formula_sum   'Mg5 Cu16 Si7 Ag1'
_cell_volume   396.78573041
_cell_formula_units_Z   1
loop_
 _symmetry_equiv_pos_site_id
 _symmetry_equiv_pos_as_xyz
  1  'x, y, z'
loop_
 _atom_site_type_symbol
 _atom_site_label
 _atom_site_symmetry_multiplicity
 _atom_site_fract_x
 _atom_site_fract_y
 _atom_site_fract_z
 _atom_site_occupancy
  Mg  Mg0  1  0.294622  0.705378  0.702485  1
  Mg  Mg1  1  0.702485  0.297515  0.294622  1
  Mg  Mg2  1  0.702485  0.705378  0.294622  1
  Mg  Mg3  1  0.294622  0.297515  0.702485  1
  Mg  Mg4  1  0.703496  0.296504  0.703496  1
  Cu  Cu5  1  0.121141  0.114432  0.121141  1
  Cu  Cu6  1  0.356714  0.878859  0.885568  1
  Cu  Cu7  1  0.877936  0.361831  0.877936  1
  Cu  Cu8  1  0.885568  0.878859  0.356714  1
  Cu  Cu9  1  0.121141  0.643286  0.121141  1
  Cu  Cu10  1  0.117704  0.122064  0.638169  1
  Cu  Cu11  1  0.638169  0.122064  0.117704  1
  Cu  Cu12  1  0.877936  0.882296  0.877936  1
  Cu  Cu13  1  0.331576  0.334476  0.331576  1
  Cu  Cu14  1  0.997628  0.668424  0.665524  1
  Cu  Cu15  1  0.665893  0.998224  0.665893  1
  Cu  Cu16  1  0.665524  0.668424  0.997628  1
  Cu  Cu17  1  0.331576  0.002372  0.331576  1
  Cu  Cu18  1  0.330009  0.334107  0.001776  1
  Cu  Cu19  1  0.001776  0.334107  0.330009  1
  Cu  Cu20  1  0.665893  0.669991  0.665893  1
  Si  Si21  1  0.997877  0.002123  0.997877  1
  Si  Si22  1  0.998504  0.501496  0.998504  1
  Si  Si23  1  0.498381  0.002817  0.997183  1
  Si  Si24  1  0.997183  0.501619  0.498381  1
  Si  Si25  1  0.498504  0.001496  0.498504  1
  Si  Si26  1  0.997183  0.002817  0.498381  1
  Si  Si27  1  0.498381  0.501619  0.997183  1
  Ag  Ag28  1  0.330095  0.669905  0.330095  1
