# generated using pymatgen
data_Tb3HfIr2
_symmetry_space_group_name_H-M   'P 1'
_cell_length_a   4.59425300
_cell_length_b   7.16671704
_cell_length_c   8.53846690
_cell_angle_alpha   90.38385492
_cell_angle_beta   90.00000000
_cell_angle_gamma   90.00000000
_symmetry_Int_Tables_number   1
_chemical_formula_structural   Tb3HfIr2
_chemical_formula_sum   'Tb6 Hf2 Ir4'
_cell_volume   281.12878643
_cell_formula_units_Z   2
loop_
 _symmetry_equiv_pos_site_id
 _symmetry_equiv_pos_as_xyz
  1  'x, y, z'
loop_
 _atom_site_type_symbol
 _atom_site_label
 _atom_site_symmetry_multiplicity
 _atom_site_fract_x
 _atom_site_fract_y
 _atom_site_fract_z
 _atom_site_occupancy
  Tb  Tb0  1  0.750000  0.144906  0.080034  1
  Tb  Tb1  1  0.250000  0.855094  0.919966  1
  Tb  Tb2  1  0.750000  0.507398  0.821942  1
  Tb  Tb3  1  0.250000  0.492602  0.178058  1
  Tb  Tb4  1  0.750000  0.019280  0.667740  1
  Tb  Tb5  1  0.250000  0.980720  0.332260  1
  Hf  Hf6  1  0.750000  0.638817  0.426198  1
  Hf  Hf7  1  0.250000  0.361183  0.573802  1
  Ir  Ir8  1  0.750000  0.271266  0.422496  1
  Ir  Ir9  1  0.250000  0.728734  0.577504  1
  Ir  Ir10  1  0.750000  0.743225  0.107363  1
  Ir  Ir11  1  0.250000  0.256775  0.892637  1
