# generated using pymatgen
data_Tm3Fe4Co4P6Ru
_symmetry_space_group_name_H-M   'P 1'
_cell_length_a   3.70169000
_cell_length_b   10.56545300
_cell_length_c   12.06336500
_cell_angle_alpha   90.00000000
_cell_angle_beta   90.00000000
_cell_angle_gamma   90.00000000
_symmetry_Int_Tables_number   1
_chemical_formula_structural   Tm3Fe4Co4P6Ru
_chemical_formula_sum   'Tm6 Fe8 Co8 P12 Ru2'
_cell_volume   471.79858775
_cell_formula_units_Z   2
loop_
 _symmetry_equiv_pos_site_id
 _symmetry_equiv_pos_as_xyz
  1  'x, y, z'
loop_
 _atom_site_type_symbol
 _atom_site_label
 _atom_site_symmetry_multiplicity
 _atom_site_fract_x
 _atom_site_fract_y
 _atom_site_fract_z
 _atom_site_occupancy
  Tm  Tm0  1  0.000000  0.500000  0.526427  1
  Tm  Tm1  1  0.500000  0.000000  0.472579  1
  Tm  Tm2  1  0.500000  0.820026  0.203665  1
  Tm  Tm3  1  0.500000  0.179974  0.203665  1
  Tm  Tm4  1  0.000000  0.679604  0.796629  1
  Tm  Tm5  1  0.000000  0.320396  0.796629  1
  Fe  Fe6  1  0.000000  0.500000  0.988150  1
  Fe  Fe7  1  0.500000  0.000000  0.011589  1
  Fe  Fe8  1  0.500000  0.332025  0.992331  1
  Fe  Fe9  1  0.500000  0.667975  0.992331  1
  Fe  Fe10  1  0.000000  0.168108  0.007581  1
  Fe  Fe11  1  0.000000  0.831892  0.007581  1
  Fe  Fe12  1  0.500000  0.296424  0.430734  1
  Fe  Fe13  1  0.500000  0.703576  0.430734  1
  Co  Co14  1  0.500000  0.500000  0.700169  1
  Co  Co15  1  0.000000  0.000000  0.300587  1
  Co  Co16  1  0.000000  0.202392  0.570732  1
  Co  Co17  1  0.000000  0.797608  0.570732  1
  Co  Co18  1  0.500000  0.879214  0.707929  1
  Co  Co19  1  0.500000  0.120786  0.707929  1
  Co  Co20  1  0.000000  0.620877  0.291276  1
  Co  Co21  1  0.000000  0.379123  0.291276  1
  P  P22  1  0.500000  0.500000  0.883367  1
  P  P23  1  0.000000  0.000000  0.116839  1
  P  P24  1  0.500000  0.500000  0.349869  1
  P  P25  1  0.000000  0.000000  0.650434  1
  P  P26  1  0.500000  0.310501  0.615859  1
  P  P27  1  0.500000  0.689499  0.615859  1
  P  P28  1  0.000000  0.191304  0.383315  1
  P  P29  1  0.000000  0.808696  0.383315  1
  P  P30  1  0.500000  0.844045  0.895658  1
  P  P31  1  0.500000  0.155955  0.895658  1
  P  P32  1  0.000000  0.655358  0.104608  1
  P  P33  1  0.000000  0.344642  0.104608  1
  Ru  Ru34  1  0.500000  0.500000  0.156827  1
  Ru  Ru35  1  0.000000  0.000000  0.842530  1
