# generated using pymatgen
data_YbEr4Sc(Si3Ru)8
_symmetry_space_group_name_H-M   'P 1'
_cell_length_a   10.09722227
_cell_length_b   10.09690442
_cell_length_c   8.10042074
_cell_angle_alpha   89.95660792
_cell_angle_beta   90.04577789
_cell_angle_gamma   132.69202776
_symmetry_Int_Tables_number   1
_chemical_formula_structural   YbEr4Sc(Si3Ru)8
_chemical_formula_sum   'Yb1 Er4 Sc1 Si24 Ru8'
_cell_volume   607.00211971
_cell_formula_units_Z   1
loop_
 _symmetry_equiv_pos_site_id
 _symmetry_equiv_pos_as_xyz
  1  'x, y, z'
loop_
 _atom_site_type_symbol
 _atom_site_label
 _atom_site_symmetry_multiplicity
 _atom_site_fract_x
 _atom_site_fract_y
 _atom_site_fract_z
 _atom_site_occupancy
  Yb  Yb0  1  0.498548  0.998460  0.250178  1
  Er  Er1  1  0.000677  0.500825  0.749891  1
  Er  Er2  1  0.502591  0.002598  0.749836  1
  Er  Er3  1  0.997754  0.497833  0.249948  1
  Er  Er4  1  0.999424  0.999705  0.000653  1
  Sc  Sc5  1  0.499593  0.499223  0.499429  1
  Si  Si6  1  0.388910  0.155087  0.001754  1
  Si  Si7  1  0.654231  0.886365  0.497873  1
  Si  Si8  1  0.114480  0.345880  0.504362  1
  Si  Si9  1  0.844529  0.611415  0.995839  1
  Si  Si10  1  0.611661  0.845654  0.993472  1
  Si  Si11  1  0.346404  0.114391  0.506334  1
  Si  Si12  1  0.885233  0.654981  0.494996  1
  Si  Si13  1  0.156162  0.388507  0.005309  1
  Si  Si14  1  0.613676  0.381159  0.229933  1
  Si  Si15  1  0.881025  0.115294  0.271851  1
  Si  Si16  1  0.887471  0.120578  0.727504  1
  Si  Si17  1  0.620046  0.388740  0.770550  1
  Si  Si18  1  0.389430  0.619988  0.769981  1
  Si  Si19  1  0.120537  0.887917  0.728015  1
  Si  Si20  1  0.704700  0.294630  0.001066  1
  Si  Si21  1  0.794680  0.205176  0.498906  1
  Si  Si22  1  0.296101  0.705554  0.000045  1
  Si  Si23  1  0.205590  0.795615  0.499982  1
  Si  Si24  1  0.168577  0.170037  0.334410  1
  Si  Si25  1  0.666235  0.664823  0.169446  1
  Si  Si26  1  0.334414  0.332144  0.830873  1
  Si  Si27  1  0.828261  0.830582  0.665419  1
  Si  Si28  1  0.377397  0.608875  0.230529  1
  Si  Si29  1  0.110072  0.876471  0.271581  1
  Ru  Ru30  1  0.627176  0.627065  0.873573  1
  Ru  Ru31  1  0.125861  0.125985  0.627755  1
  Ru  Ru32  1  0.872957  0.874075  0.371820  1
  Ru  Ru33  1  0.372942  0.371746  0.127046  1
  Ru  Ru34  1  0.329924  0.668966  0.501283  1
  Ru  Ru35  1  0.169237  0.828954  0.998725  1
  Ru  Ru36  1  0.670949  0.332802  0.501620  1
  Ru  Ru37  1  0.832548  0.171903  0.998211  1
