# generated using pymatgen
data_Tm3HfSn2Ir3
_symmetry_space_group_name_H-M   'P 1'
_cell_length_a   7.30401410
_cell_length_b   7.22168021
_cell_length_c   4.16793200
_cell_angle_alpha   90.00000000
_cell_angle_beta   90.00000000
_cell_angle_gamma   119.62781908
_symmetry_Int_Tables_number   1
_chemical_formula_structural   Tm3HfSn2Ir3
_chemical_formula_sum   'Tm3 Hf1 Sn2 Ir3'
_cell_volume   191.10307661
_cell_formula_units_Z   1
loop_
 _symmetry_equiv_pos_site_id
 _symmetry_equiv_pos_as_xyz
  1  'x, y, z'
loop_
 _atom_site_type_symbol
 _atom_site_label
 _atom_site_symmetry_multiplicity
 _atom_site_fract_x
 _atom_site_fract_y
 _atom_site_fract_z
 _atom_site_occupancy
  Tm  Tm0  1  0.000000  0.396547  0.500000  1
  Tm  Tm1  1  0.587281  0.589225  0.500000  1
  Tm  Tm2  1  0.412719  0.001945  0.500000  1
  Hf  Hf3  1  0.000000  0.750814  0.000000  1
  Sn  Sn4  1  0.257155  0.255465  0.000000  1
  Sn  Sn5  1  0.742845  0.998310  0.000000  1
  Ir  Ir6  1  0.320905  0.671998  0.000000  1
  Ir  Ir7  1  0.679095  0.351092  0.000000  1
  Ir  Ir8  1  0.000000  0.984605  0.500000  1
