# generated using pymatgen
data_Lu8Sc2InSn5
_symmetry_space_group_name_H-M   'P 1'
_cell_length_a   8.73241489
_cell_length_b   8.73241513
_cell_length_c   6.32984802
_cell_angle_alpha   90.00440209
_cell_angle_beta   90.00439916
_cell_angle_gamma   120.13090799
_symmetry_Int_Tables_number   1
_chemical_formula_structural   Lu8Sc2InSn5
_chemical_formula_sum   'Lu8 Sc2 In1 Sn5'
_cell_volume   417.46324691
_cell_formula_units_Z   1
loop_
 _symmetry_equiv_pos_site_id
 _symmetry_equiv_pos_as_xyz
  1  'x, y, z'
loop_
 _atom_site_type_symbol
 _atom_site_label
 _atom_site_symmetry_multiplicity
 _atom_site_fract_x
 _atom_site_fract_y
 _atom_site_fract_z
 _atom_site_occupancy
  Lu  Lu0  1  0.333537  0.665239  0.501231  1
  Lu  Lu1  1  0.665239  0.333537  0.501231  1
  Lu  Lu2  1  0.764795  0.764795  0.750502  1
  Lu  Lu3  1  0.237959  0.003309  0.750586  1
  Lu  Lu4  1  0.003309  0.237959  0.750586  1
  Lu  Lu5  1  0.234649  0.234649  0.249101  1
  Lu  Lu6  1  0.762694  0.998730  0.249366  1
  Lu  Lu7  1  0.998730  0.762694  0.249366  1
  Sc  Sc8  1  0.665995  0.333424  0.999002  1
  Sc  Sc9  1  0.333424  0.665995  0.999002  1
  In  In10  1  0.400349  0.400349  0.758913  1
  Sn  Sn11  1  0.602959  0.000488  0.757641  1
  Sn  Sn12  1  0.000488  0.602959  0.757641  1
  Sn  Sn13  1  0.600505  0.600505  0.241134  1
  Sn  Sn14  1  0.396876  0.998495  0.242350  1
  Sn  Sn15  1  0.998495  0.396876  0.242350  1
