# generated using pymatgen
data_Dy5Ho3InAgIr2
_symmetry_space_group_name_H-M   'P 1'
_cell_length_a   9.57696094
_cell_length_b   9.57931439
_cell_length_c   9.59257629
_cell_angle_alpha   59.93796019
_cell_angle_beta   59.96227766
_cell_angle_gamma   60.25659296
_symmetry_Int_Tables_number   1
_chemical_formula_structural   Dy5Ho3InAgIr2
_chemical_formula_sum   'Dy10 Ho6 In2 Ag2 Ir4'
_cell_volume   623.00043873
_cell_formula_units_Z   2
loop_
 _symmetry_equiv_pos_site_id
 _symmetry_equiv_pos_as_xyz
  1  'x, y, z'
loop_
 _atom_site_type_symbol
 _atom_site_label
 _atom_site_symmetry_multiplicity
 _atom_site_fract_x
 _atom_site_fract_y
 _atom_site_fract_z
 _atom_site_occupancy
  Dy  Dy0  1  0.439833  0.059388  0.441628  1
  Dy  Dy1  1  0.059388  0.439833  0.059152  1
  Dy  Dy2  1  0.442559  0.442559  0.057441  1
  Dy  Dy3  1  0.060527  0.060527  0.439473  1
  Dy  Dy4  1  0.185458  0.809681  0.812853  1
  Dy  Dy5  1  0.809681  0.185458  0.192007  1
  Dy  Dy6  1  0.809584  0.185467  0.812846  1
  Dy  Dy7  1  0.185467  0.809584  0.192102  1
  Dy  Dy8  1  0.808758  0.808758  0.191242  1
  Dy  Dy9  1  0.188127  0.188127  0.811873  1
  Ho  Ho10  1  0.599440  0.599008  0.600537  1
  Ho  Ho11  1  0.599008  0.599440  0.201014  1
  Ho  Ho12  1  0.601721  0.199586  0.599648  1
  Ho  Ho13  1  0.199586  0.601721  0.599046  1
  Ho  Ho14  1  0.058892  0.440079  0.442083  1
  Ho  Ho15  1  0.440079  0.058892  0.058948  1
  In  In16  1  0.833619  0.509110  0.828553  1
  In  In17  1  0.509110  0.833619  0.828718  1
  Ag  Ag18  1  0.833381  0.833554  0.832005  1
  Ag  Ag19  1  0.833554  0.833381  0.501059  1
  Ir  Ir20  1  0.391984  0.392603  0.390927  1
  Ir  Ir21  1  0.392603  0.391984  0.824488  1
  Ir  Ir22  1  0.393006  0.824638  0.390875  1
  Ir  Ir23  1  0.824638  0.393006  0.391482  1
