# generated using pymatgen
data_NdFeCo(Sb6Os)2
_symmetry_space_group_name_H-M   'P 1'
_cell_length_a   8.04116137
_cell_length_b   8.04119602
_cell_length_c   8.09735759
_cell_angle_alpha   109.49375610
_cell_angle_beta   109.58612901
_cell_angle_gamma   109.16789420
_symmetry_Int_Tables_number   1
_chemical_formula_structural   NdFeCo(Sb6Os)2
_chemical_formula_sum   'Nd1 Fe1 Co1 Sb12 Os2'
_cell_volume   403.87036227
_cell_formula_units_Z   1
loop_
 _symmetry_equiv_pos_site_id
 _symmetry_equiv_pos_as_xyz
  1  'x, y, z'
loop_
 _atom_site_type_symbol
 _atom_site_label
 _atom_site_symmetry_multiplicity
 _atom_site_fract_x
 _atom_site_fract_y
 _atom_site_fract_z
 _atom_site_occupancy
  Nd  Nd0  1  0.000000  0.000000  0.000000  1
  Fe  Fe1  1  0.500000  0.500000  0.500000  1
  Co  Co2  1  0.000000  0.000000  0.500000  1
  Sb  Sb3  1  0.153561  0.821903  0.658282  1
  Sb  Sb4  1  0.846439  0.178097  0.341718  1
  Sb  Sb5  1  0.834597  0.504624  0.658368  1
  Sb  Sb6  1  0.165403  0.495376  0.341632  1
  Sb  Sb7  1  0.821875  0.668380  0.164115  1
  Sb  Sb8  1  0.178125  0.331620  0.835885  1
  Sb  Sb9  1  0.504136  0.657443  0.833807  1
  Sb  Sb10  1  0.495864  0.342557  0.166193  1
  Sb  Sb11  1  0.659042  0.156471  0.815886  1
  Sb  Sb12  1  0.340958  0.843529  0.184114  1
  Sb  Sb13  1  0.666052  0.837699  0.506064  1
  Sb  Sb14  1  0.333948  0.162301  0.493936  1
  Os  Os15  1  0.500000  0.000000  0.000000  1
  Os  Os16  1  0.000000  0.500000  0.000000  1
