# generated using pymatgen
data_Rb2SrTaNb5Br18
_symmetry_space_group_name_H-M   'P 1'
_cell_length_a   11.01447933
_cell_length_b   11.01605411
_cell_length_c   11.01371880
_cell_angle_alpha   54.84149419
_cell_angle_beta   54.83726812
_cell_angle_gamma   54.83836237
_symmetry_Int_Tables_number   1
_chemical_formula_structural   Rb2SrTaNb5Br18
_chemical_formula_sum   'Rb2 Sr1 Ta1 Nb5 Br18'
_cell_volume   831.40663065
_cell_formula_units_Z   1
loop_
 _symmetry_equiv_pos_site_id
 _symmetry_equiv_pos_as_xyz
  1  'x, y, z'
loop_
 _atom_site_type_symbol
 _atom_site_label
 _atom_site_symmetry_multiplicity
 _atom_site_fract_x
 _atom_site_fract_y
 _atom_site_fract_z
 _atom_site_occupancy
  Rb  Rb0  1  0.221345  0.220589  0.221463  1
  Rb  Rb1  1  0.778606  0.778825  0.778587  1
  Sr  Sr2  1  0.499525  0.499815  0.500222  1
  Ta  Ta3  1  0.928918  0.804770  0.137569  1
  Nb  Nb4  1  0.071821  0.197073  0.861140  1
  Nb  Nb5  1  0.138582  0.928462  0.803303  1
  Nb  Nb6  1  0.861433  0.071706  0.196623  1
  Nb  Nb7  1  0.803414  0.138548  0.928323  1
  Nb  Nb8  1  0.196677  0.861577  0.071583  1
  Br  Br9  1  0.166474  0.470618  0.674137  1
  Br  Br10  1  0.927902  0.081517  0.670515  1
  Br  Br11  1  0.329229  0.072075  0.918486  1
  Br  Br12  1  0.672308  0.925974  0.082747  1
  Br  Br13  1  0.589590  0.258909  0.152539  1
  Br  Br14  1  0.080165  0.670806  0.930062  1
  Br  Br15  1  0.674119  0.166264  0.470513  1
  Br  Br16  1  0.742072  0.846265  0.408779  1
  Br  Br17  1  0.410463  0.741204  0.847405  1
  Br  Br18  1  0.325896  0.832884  0.529891  1
  Br  Br19  1  0.258817  0.152432  0.589810  1
  Br  Br20  1  0.847497  0.410119  0.741329  1
  Br  Br21  1  0.072118  0.918562  0.329367  1
  Br  Br22  1  0.529476  0.325326  0.833742  1
  Br  Br23  1  0.150391  0.590466  0.258678  1
  Br  Br24  1  0.918418  0.329190  0.072168  1
  Br  Br25  1  0.834461  0.532152  0.324128  1
  Br  Br26  1  0.470282  0.673871  0.166891  1
