# generated using pymatgen
data_Nd4Sm2CoBr10
_symmetry_space_group_name_H-M   'P 1'
_cell_length_a   7.56697307
_cell_length_b   9.38138710
_cell_length_c   9.55263719
_cell_angle_alpha   108.51092806
_cell_angle_beta   96.43702324
_cell_angle_gamma   105.43905018
_symmetry_Int_Tables_number   1
_chemical_formula_structural   Nd4Sm2CoBr10
_chemical_formula_sum   'Nd4 Sm2 Co1 Br10'
_cell_volume   605.32819765
_cell_formula_units_Z   1
loop_
 _symmetry_equiv_pos_site_id
 _symmetry_equiv_pos_as_xyz
  1  'x, y, z'
loop_
 _atom_site_type_symbol
 _atom_site_label
 _atom_site_symmetry_multiplicity
 _atom_site_fract_x
 _atom_site_fract_y
 _atom_site_fract_z
 _atom_site_occupancy
  Nd  Nd0  1  0.030240  0.712189  0.409334  1
  Nd  Nd1  1  0.969760  0.287811  0.590666  1
  Nd  Nd2  1  0.872062  0.951823  0.746532  1
  Nd  Nd3  1  0.127938  0.048177  0.253468  1
  Sm  Sm4  1  0.358572  0.132469  0.676605  1
  Sm  Sm5  1  0.641428  0.867531  0.323395  1
  Co  Co6  1  0.000000  0.000000  0.500000  1
  Br  Br7  1  0.451023  0.822054  0.580993  1
  Br  Br8  1  0.548977  0.177946  0.419007  1
  Br  Br9  1  0.914397  0.631172  0.671635  1
  Br  Br10  1  0.085603  0.368828  0.328365  1
  Br  Br11  1  0.251817  0.084000  0.950368  1
  Br  Br12  1  0.748183  0.916000  0.049632  1
  Br  Br13  1  0.354144  0.450465  0.770013  1
  Br  Br14  1  0.645856  0.549535  0.229987  1
  Br  Br15  1  0.779432  0.253685  0.844828  1
  Br  Br16  1  0.220568  0.746315  0.155172  1
