# generated using pymatgen
data_Tb2Co12AsP6
_symmetry_space_group_name_H-M   'P 1'
_cell_length_a   9.08933800
_cell_length_b   9.08933797
_cell_length_c   3.58221900
_cell_angle_alpha   90.00000000
_cell_angle_beta   90.00000000
_cell_angle_gamma   120.00000739
_symmetry_Int_Tables_number   1
_chemical_formula_structural   Tb2Co12AsP6
_chemical_formula_sum   'Tb2 Co12 As1 P6'
_cell_volume   256.29919266
_cell_formula_units_Z   1
loop_
 _symmetry_equiv_pos_site_id
 _symmetry_equiv_pos_as_xyz
  1  'x, y, z'
loop_
 _atom_site_type_symbol
 _atom_site_label
 _atom_site_symmetry_multiplicity
 _atom_site_fract_x
 _atom_site_fract_y
 _atom_site_fract_z
 _atom_site_occupancy
  Tb  Tb0  1  0.000000  0.000000  0.000000  1
  Tb  Tb1  1  0.333333  0.666667  0.500000  1
  Co  Co2  1  0.102194  0.393763  0.000000  1
  Co  Co3  1  0.606237  0.708431  0.000000  1
  Co  Co4  1  0.291569  0.897806  0.000000  1
  Co  Co5  1  0.051704  0.770774  0.500000  1
  Co  Co6  1  0.229226  0.280930  0.500000  1
  Co  Co7  1  0.719070  0.948296  0.500000  1
  Co  Co8  1  0.825440  0.616034  0.000000  1
  Co  Co9  1  0.383966  0.209406  0.000000  1
  Co  Co10  1  0.790594  0.174560  0.000000  1
  Co  Co11  1  0.915382  0.443361  0.500000  1
  Co  Co12  1  0.556639  0.472021  0.500000  1
  Co  Co13  1  0.527979  0.084618  0.500000  1
  As  As14  1  0.666667  0.333333  0.000000  1
  P  P15  1  0.777587  0.736505  0.500000  1
  P  P16  1  0.263495  0.041083  0.500000  1
  P  P17  1  0.958917  0.222413  0.500000  1
  P  P18  1  0.073120  0.627744  0.000000  1
  P  P19  1  0.372256  0.445375  0.000000  1
  P  P20  1  0.554625  0.926880  0.000000  1
