# generated using pymatgen
data_DyY6CoI12
_symmetry_space_group_name_H-M   'P 1'
_cell_length_a   9.74811135
_cell_length_b   9.75267223
_cell_length_c   9.75270606
_cell_angle_alpha   106.86828412
_cell_angle_beta   106.89413490
_cell_angle_gamma   106.87282152
_symmetry_Int_Tables_number   1
_chemical_formula_structural   DyY6CoI12
_chemical_formula_sum   'Dy1 Y6 Co1 I12'
_cell_volume   774.72040293
_cell_formula_units_Z   1
loop_
 _symmetry_equiv_pos_site_id
 _symmetry_equiv_pos_as_xyz
  1  'x, y, z'
loop_
 _atom_site_type_symbol
 _atom_site_label
 _atom_site_symmetry_multiplicity
 _atom_site_fract_x
 _atom_site_fract_y
 _atom_site_fract_z
 _atom_site_occupancy
  Dy  Dy0  1  0.712345  0.977844  0.908026  1
  Y  Y1  1  0.500024  0.500047  0.500049  1
  Y  Y2  1  0.022227  0.092142  0.288362  1
  Y  Y3  1  0.092172  0.288349  0.022213  1
  Y  Y4  1  0.288284  0.022241  0.092106  1
  Y  Y5  1  0.977825  0.907851  0.711611  1
  Y  Y6  1  0.907804  0.711636  0.977786  1
  Co  Co7  1  0.999372  0.999990  0.999823  1
  I  I8  1  0.160844  0.463585  0.386528  1
  I  I9  1  0.463615  0.386528  0.160850  1
  I  I10  1  0.386553  0.160820  0.463583  1
  I  I11  1  0.839211  0.536401  0.613480  1
  I  I12  1  0.536398  0.613395  0.839048  1
  I  I13  1  0.613434  0.839003  0.536307  1
  I  I14  1  0.677895  0.071848  0.225039  1
  I  I15  1  0.071800  0.224919  0.677871  1
  I  I16  1  0.224938  0.677861  0.071804  1
  I  I17  1  0.321872  0.928188  0.775094  1
  I  I18  1  0.928237  0.775107  0.322152  1
  I  I19  1  0.775152  0.322245  0.928268  1
