# generated using pymatgen
data_Er10Be3Si15Au2
_symmetry_space_group_name_H-M   'P 1'
_cell_length_a   4.06083952
_cell_length_b   3.99794248
_cell_length_c   34.27438365
_cell_angle_alpha   86.65317816
_cell_angle_beta   86.60190376
_cell_angle_gamma   89.99887391
_symmetry_Int_Tables_number   1
_chemical_formula_structural   Er10Be3Si15Au2
_chemical_formula_sum   'Er10 Be3 Si15 Au2'
_cell_volume   554.51568776
_cell_formula_units_Z   1
loop_
 _symmetry_equiv_pos_site_id
 _symmetry_equiv_pos_as_xyz
  1  'x, y, z'
loop_
 _atom_site_type_symbol
 _atom_site_label
 _atom_site_symmetry_multiplicity
 _atom_site_fract_x
 _atom_site_fract_y
 _atom_site_fract_z
 _atom_site_occupancy
  Er  Er0  1  0.947960  0.447595  0.104431  1
  Er  Er1  1  0.350779  0.850914  0.298427  1
  Er  Er2  1  0.753632  0.253600  0.492313  1
  Er  Er3  1  0.149525  0.649322  0.700716  1
  Er  Er4  1  0.545331  0.045379  0.909925  1
  Er  Er5  1  0.996897  0.996625  0.006761  1
  Er  Er6  1  0.399519  0.399391  0.201049  1
  Er  Er7  1  0.802456  0.802501  0.395107  1
  Er  Er8  1  0.205385  0.205530  0.588240  1
  Er  Er9  1  0.601905  0.601882  0.796270  1
  Be  Be10  1  0.464868  0.964369  0.070778  1
  Be  Be11  1  0.867599  0.367524  0.264957  1
  Be  Be12  1  0.270391  0.770798  0.458791  1
  Si  Si13  1  0.667405  0.167272  0.665241  1
  Si  Si14  1  0.063034  0.563396  0.874544  1
  Si  Si15  1  0.916079  0.915683  0.168144  1
  Si  Si16  1  0.319087  0.319129  0.362036  1
  Si  Si17  1  0.721209  0.721394  0.556571  1
  Si  Si18  1  0.116861  0.116777  0.766148  1
  Si  Si19  1  0.513218  0.513012  0.974270  1
  Si  Si20  1  0.433036  0.932764  0.134342  1
  Si  Si21  1  0.835904  0.335918  0.328344  1
  Si  Si22  1  0.238221  0.738380  0.522611  1
  Si  Si23  1  0.633730  0.133609  0.732337  1
  Si  Si24  1  0.029784  0.529490  0.941222  1
  Si  Si25  1  0.479130  0.478739  0.042212  1
  Si  Si26  1  0.881960  0.882039  0.235878  1
  Si  Si27  1  0.285012  0.285242  0.429815  1
  Au  Au28  1  0.685286  0.686432  0.627416  1
  Au  Au29  1  0.081998  0.082494  0.836704  1
