# generated using pymatgen
data_Ho5Tc3(Ni4P3)4
_symmetry_space_group_name_H-M   'P 1'
_cell_length_a   12.13350100
_cell_length_b   12.13350116
_cell_length_c   3.71837900
_cell_angle_alpha   90.00000000
_cell_angle_beta   90.00000000
_cell_angle_gamma   120.00000229
_symmetry_Int_Tables_number   1
_chemical_formula_structural   Ho5Tc3(Ni4P3)4
_chemical_formula_sum   'Ho5 Tc3 Ni16 P12'
_cell_volume   474.08535709
_cell_formula_units_Z   1
loop_
 _symmetry_equiv_pos_site_id
 _symmetry_equiv_pos_as_xyz
  1  'x, y, z'
loop_
 _atom_site_type_symbol
 _atom_site_label
 _atom_site_symmetry_multiplicity
 _atom_site_fract_x
 _atom_site_fract_y
 _atom_site_fract_z
 _atom_site_occupancy
  Ho  Ho0  1  0.666667  0.333333  0.000000  1
  Ho  Ho1  1  0.333333  0.666667  0.000000  1
  Ho  Ho2  1  0.816065  0.816065  0.500000  1
  Ho  Ho3  1  0.183935  0.000000  0.500000  1
  Ho  Ho4  1  0.000000  0.183935  0.500000  1
  Tc  Tc5  1  0.444345  0.444345  0.000000  1
  Tc  Tc6  1  0.555655  0.000000  0.000000  1
  Tc  Tc7  1  0.000000  0.555655  0.000000  1
  Ni  Ni8  1  0.873227  0.356638  0.500000  1
  Ni  Ni9  1  0.643362  0.516591  0.500000  1
  Ni  Ni10  1  0.483409  0.126773  0.500000  1
  Ni  Ni11  1  0.356638  0.873227  0.500000  1
  Ni  Ni12  1  0.516591  0.643362  0.500000  1
  Ni  Ni13  1  0.126773  0.483409  0.500000  1
  Ni  Ni14  1  0.806695  0.183233  0.000000  1
  Ni  Ni15  1  0.816767  0.623461  0.000000  1
  Ni  Ni16  1  0.376539  0.193305  0.000000  1
  Ni  Ni17  1  0.183233  0.806695  0.000000  1
  Ni  Ni18  1  0.623461  0.816767  0.000000  1
  Ni  Ni19  1  0.193305  0.376539  0.000000  1
  Ni  Ni20  1  0.281601  0.281601  0.500000  1
  Ni  Ni21  1  0.718399  0.000000  0.500000  1
  Ni  Ni22  1  0.000000  0.718399  0.500000  1
  Ni  Ni23  1  0.000000  0.000000  0.000000  1
  P  P24  1  0.683607  0.163321  0.500000  1
  P  P25  1  0.836679  0.520287  0.500000  1
  P  P26  1  0.479713  0.316393  0.500000  1
  P  P27  1  0.163321  0.683607  0.500000  1
  P  P28  1  0.520287  0.836679  0.500000  1
  P  P29  1  0.316393  0.479713  0.500000  1
  P  P30  1  0.178569  0.178569  0.000000  1
  P  P31  1  0.821431  0.000000  0.000000  1
  P  P32  1  0.000000  0.821431  0.000000  1
  P  P33  1  0.636318  0.636318  0.000000  1
  P  P34  1  0.363682  0.000000  0.000000  1
  P  P35  1  0.000000  0.363682  0.000000  1
