# generated using pymatgen
data_Sm5Y5(In3Br)2
_symmetry_space_group_name_H-M   'P 1'
_cell_length_a   9.31264200
_cell_length_b   9.30363978
_cell_length_c   6.81151100
_cell_angle_alpha   90.00000000
_cell_angle_beta   90.00000000
_cell_angle_gamma   120.03201319
_symmetry_Int_Tables_number   1
_chemical_formula_structural   Sm5Y5(In3Br)2
_chemical_formula_sum   'Sm5 Y5 In6 Br2'
_cell_volume   510.92799690
_cell_formula_units_Z   1
loop_
 _symmetry_equiv_pos_site_id
 _symmetry_equiv_pos_as_xyz
  1  'x, y, z'
loop_
 _atom_site_type_symbol
 _atom_site_label
 _atom_site_symmetry_multiplicity
 _atom_site_fract_x
 _atom_site_fract_y
 _atom_site_fract_z
 _atom_site_occupancy
  Sm  Sm0  1  0.734035  0.734101  0.250000  1
  Sm  Sm1  1  0.000358  0.734178  0.750000  1
  Sm  Sm2  1  0.734678  0.000000  0.750000  1
  Sm  Sm3  1  0.266180  0.265822  0.750000  1
  Sm  Sm4  1  0.999933  0.265899  0.250000  1
  Y  Y5  1  0.333043  0.667122  0.499775  1
  Y  Y6  1  0.665922  0.332878  0.499775  1
  Y  Y7  1  0.265569  0.000000  0.250000  1
  Y  Y8  1  0.333043  0.667122  0.000225  1
  Y  Y9  1  0.665922  0.332878  0.000225  1
  In  In10  1  0.394493  0.000000  0.750000  1
  In  In11  1  0.001434  0.606922  0.250000  1
  In  In12  1  0.604039  0.000000  0.250000  1
  In  In13  1  0.999774  0.394578  0.750000  1
  In  In14  1  0.394512  0.393078  0.250000  1
  In  In15  1  0.605196  0.605422  0.750000  1
  Br  Br16  1  0.000936  0.000000  0.498847  1
  Br  Br17  1  0.000936  0.000000  0.001153  1
