# generated using pymatgen
data_DyY4Re2C7
_symmetry_space_group_name_H-M   'P 1'
_cell_length_a   8.34732615
_cell_length_b   8.34754987
_cell_length_c   3.43607300
_cell_angle_alpha   90.00000000
_cell_angle_beta   90.00000000
_cell_angle_gamma   122.63317958
_symmetry_Int_Tables_number   1
_chemical_formula_structural   DyY4Re2C7
_chemical_formula_sum   'Dy1 Y4 Re2 C7'
_cell_volume   201.62910195
_cell_formula_units_Z   1
loop_
 _symmetry_equiv_pos_site_id
 _symmetry_equiv_pos_as_xyz
  1  'x, y, z'
loop_
 _atom_site_type_symbol
 _atom_site_label
 _atom_site_symmetry_multiplicity
 _atom_site_fract_x
 _atom_site_fract_y
 _atom_site_fract_z
 _atom_site_occupancy
  Dy  Dy0  1  0.075902  0.335261  0.500000  1
  Y  Y1  1  0.500049  0.500117  0.000000  1
  Y  Y2  1  0.924377  0.665224  0.500000  1
  Y  Y3  1  0.665345  0.924676  0.500000  1
  Y  Y4  1  0.334840  0.075602  0.500000  1
  Re  Re5  1  0.714429  0.285688  0.000000  1
  Re  Re6  1  0.285538  0.714211  0.000000  1
  C  C7  1  0.627669  0.372372  0.500000  1
  C  C8  1  0.371313  0.626475  0.500000  1
  C  C9  1  0.000121  0.000124  0.000000  1
  C  C10  1  0.169105  0.169550  0.000000  1
  C  C11  1  0.830796  0.830868  0.000000  1
  C  C12  1  0.000408  0.499639  0.000000  1
  C  C13  1  0.500109  0.000192  0.000000  1
