# generated using pymatgen
data_Tm8Lu4InCo4Ru
_symmetry_space_group_name_H-M   'P 1'
_cell_length_a   8.14727348
_cell_length_b   8.14727406
_cell_length_c   8.14727469
_cell_angle_alpha   111.24385621
_cell_angle_beta   111.07683968
_cell_angle_gamma   106.14339412
_symmetry_Int_Tables_number   1
_chemical_formula_structural   Tm8Lu4InCo4Ru
_chemical_formula_sum   'Tm8 Lu4 In1 Co4 Ru1'
_cell_volume   415.26191544
_cell_formula_units_Z   1
loop_
 _symmetry_equiv_pos_site_id
 _symmetry_equiv_pos_as_xyz
  1  'x, y, z'
loop_
 _atom_site_type_symbol
 _atom_site_label
 _atom_site_symmetry_multiplicity
 _atom_site_fract_x
 _atom_site_fract_y
 _atom_site_fract_z
 _atom_site_occupancy
  Tm  Tm0  1  0.183964  0.281784  0.465748  1
  Tm  Tm1  1  0.816036  0.718216  0.534252  1
  Tm  Tm2  1  0.183964  0.718216  0.902179  1
  Tm  Tm3  1  0.816036  0.281784  0.097821  1
  Tm  Tm4  1  0.314076  0.619923  0.305847  1
  Tm  Tm5  1  0.685924  0.380077  0.694153  1
  Tm  Tm6  1  0.314076  0.008229  0.694153  1
  Tm  Tm7  1  0.685924  0.991771  0.305847  1
  Lu  Lu8  1  0.414258  0.220641  0.193616  1
  Lu  Lu9  1  0.585742  0.779359  0.806384  1
  Lu  Lu10  1  0.027026  0.220641  0.806384  1
  Lu  Lu11  1  0.972974  0.779359  0.193616  1
  In  In12  1  0.500000  0.500000  0.000000  1
  Co  Co13  1  0.374726  0.000000  0.374726  1
  Co  Co14  1  0.625274  0.000000  0.625274  1
  Co  Co15  1  0.112120  0.612120  0.500000  1
  Co  Co16  1  0.887880  0.387880  0.500000  1
  Ru  Ru17  1  0.000000  0.000000  0.000000  1
