# generated using pymatgen
data_Ta16VB3Te16
_symmetry_space_group_name_H-M   'P 1'
_cell_length_a   4.77514400
_cell_length_b   11.11789398
_cell_length_c   19.36435255
_cell_angle_alpha   90.19377696
_cell_angle_beta   90.00000000
_cell_angle_gamma   90.00000000
_symmetry_Int_Tables_number   1
_chemical_formula_structural   Ta16VB3Te16
_chemical_formula_sum   'Ta16 V1 B3 Te16'
_cell_volume   1028.03878092
_cell_formula_units_Z   1
loop_
 _symmetry_equiv_pos_site_id
 _symmetry_equiv_pos_as_xyz
  1  'x, y, z'
loop_
 _atom_site_type_symbol
 _atom_site_label
 _atom_site_symmetry_multiplicity
 _atom_site_fract_x
 _atom_site_fract_y
 _atom_site_fract_z
 _atom_site_occupancy
  Ta  Ta0  1  0.507413  0.560297  0.386744  1
  Ta  Ta1  1  0.507413  0.439703  0.613256  1
  Ta  Ta2  1  0.499742  0.057207  0.102946  1
  Ta  Ta3  1  0.499742  0.942793  0.897054  1
  Ta  Ta4  1  0.507091  0.697594  0.534977  1
  Ta  Ta5  1  0.507091  0.302406  0.465023  1
  Ta  Ta6  1  0.499810  0.183441  0.969383  1
  Ta  Ta7  1  0.499810  0.816559  0.030617  1
  Ta  Ta8  1  0.993613  0.682400  0.444497  1
  Ta  Ta9  1  0.993613  0.317600  0.555503  1
  Ta  Ta10  1  0.999621  0.175571  0.052982  1
  Ta  Ta11  1  0.999621  0.824429  0.947018  1
  Ta  Ta12  1  0.993517  0.403100  0.395111  1
  Ta  Ta13  1  0.993517  0.596900  0.604889  1
  Ta  Ta14  1  0.999927  0.906857  0.098900  1
  Ta  Ta15  1  0.999927  0.093143  0.901100  1
  V  V16  1  0.250752  0.500000  0.500000  1
  B  B17  1  0.780129  0.000000  0.000000  1
  B  B18  1  0.751200  0.500000  0.500000  1
  B  B19  1  0.219438  0.000000  0.000000  1
  Te  Te20  1  0.003435  0.842801  0.560636  1
  Te  Te21  1  0.003435  0.157199  0.439364  1
  Te  Te22  1  0.999774  0.339492  0.940352  1
  Te  Te23  1  0.999774  0.660508  0.059648  1
  Te  Te24  1  0.496307  0.331714  0.317989  1
  Te  Te25  1  0.496307  0.668286  0.682011  1
  Te  Te26  1  0.499887  0.836630  0.177869  1
  Te  Te27  1  0.499887  0.163370  0.822131  1
  Te  Te28  1  0.496272  0.816514  0.403672  1
  Te  Te29  1  0.496272  0.183486  0.596328  1
  Te  Te30  1  0.499745  0.313848  0.096996  1
  Te  Te31  1  0.499745  0.686152  0.903004  1
  Te  Te32  1  0.003498  0.604695  0.303283  1
  Te  Te33  1  0.003498  0.395305  0.696717  1
  Te  Te34  1  0.999589  0.102046  0.193379  1
  Te  Te35  1  0.999589  0.897954  0.806621  1
