# generated using pymatgen
data_Y3Zr3Pa2(As3Rh4)4
_symmetry_space_group_name_H-M   'P 1'
_cell_length_a   13.28792848
_cell_length_b   13.33548946
_cell_length_c   4.03090200
_cell_angle_alpha   90.00000000
_cell_angle_beta   90.00000000
_cell_angle_gamma   120.11846811
_symmetry_Int_Tables_number   1
_chemical_formula_structural   Y3Zr3Pa2(As3Rh4)4
_chemical_formula_sum   'Y3 Zr3 Pa2 As12 Rh16'
_cell_volume   617.84484898
_cell_formula_units_Z   1
loop_
 _symmetry_equiv_pos_site_id
 _symmetry_equiv_pos_as_xyz
  1  'x, y, z'
loop_
 _atom_site_type_symbol
 _atom_site_label
 _atom_site_symmetry_multiplicity
 _atom_site_fract_x
 _atom_site_fract_y
 _atom_site_fract_z
 _atom_site_occupancy
  Y  Y0  1  0.000000  0.813340  0.500000  1
  Y  Y1  1  0.333587  0.666958  0.000000  1
  Y  Y2  1  0.666413  0.333370  0.000000  1
  Zr  Zr3  1  0.555623  0.557392  0.000000  1
  Zr  Zr4  1  0.444377  0.001771  0.000000  1
  Zr  Zr5  1  0.000000  0.445238  0.000000  1
  Pa  Pa6  1  0.182992  0.181860  0.500000  1
  Pa  Pa7  1  0.817008  0.998868  0.500000  1
  As  As8  1  0.827961  0.822719  0.000000  1
  As  As9  1  0.172039  0.994759  0.000000  1
  As  As10  1  0.000000  0.178330  0.000000  1
  As  As11  1  0.169942  0.487068  0.500000  1
  As  As12  1  0.513739  0.683288  0.500000  1
  As  As13  1  0.317307  0.831588  0.500000  1
  As  As14  1  0.682693  0.514280  0.500000  1
  As  As15  1  0.830058  0.317126  0.500000  1
  As  As16  1  0.486261  0.169550  0.500000  1
  As  As17  1  0.356005  0.355983  0.000000  1
  As  As18  1  0.643995  0.999978  0.000000  1
  As  As19  1  0.000000  0.646838  0.000000  1
  Rh  Rh20  1  0.718866  0.721080  0.500000  1
  Rh  Rh21  1  0.281134  0.002214  0.500000  1
  Rh  Rh22  1  0.000000  0.281858  0.500000  1
  Rh  Rh23  1  0.175207  0.369168  0.000000  1
  Rh  Rh24  1  0.634336  0.808642  0.000000  1
  Rh  Rh25  1  0.197832  0.824043  0.000000  1
  Rh  Rh26  1  0.802168  0.626210  0.000000  1
  Rh  Rh27  1  0.824793  0.193962  0.000000  1
  Rh  Rh28  1  0.365664  0.174305  0.000000  1
  Rh  Rh29  1  0.351755  0.479284  0.500000  1
  Rh  Rh30  1  0.520334  0.871476  0.500000  1
  Rh  Rh31  1  0.129257  0.646915  0.500000  1
  Rh  Rh32  1  0.870743  0.517657  0.500000  1
  Rh  Rh33  1  0.648245  0.127529  0.500000  1
  Rh  Rh34  1  0.479666  0.351141  0.500000  1
  Rh  Rh35  1  0.000000  0.004210  0.000000  1
