# generated using pymatgen
data_YbTm5(CoSn6)2
_symmetry_space_group_name_H-M   'P 1'
_cell_length_a   8.40468294
_cell_length_b   8.40468330
_cell_length_c   13.08232213
_cell_angle_alpha   90.04458834
_cell_angle_beta   89.95541276
_cell_angle_gamma   148.42611585
_symmetry_Int_Tables_number   1
_chemical_formula_structural   YbTm5(CoSn6)2
_chemical_formula_sum   'Yb1 Tm5 Co2 Sn12'
_cell_volume   483.86594279
_cell_formula_units_Z   1
loop_
 _symmetry_equiv_pos_site_id
 _symmetry_equiv_pos_as_xyz
  1  'x, y, z'
loop_
 _atom_site_type_symbol
 _atom_site_label
 _atom_site_symmetry_multiplicity
 _atom_site_fract_x
 _atom_site_fract_y
 _atom_site_fract_z
 _atom_site_occupancy
  Yb  Yb0  1  0.900084  0.099916  0.403382  1
  Tm  Tm1  1  0.898817  0.101183  0.094611  1
  Tm  Tm2  1  0.101084  0.898916  0.595908  1
  Tm  Tm3  1  0.901510  0.098490  0.751900  1
  Tm  Tm4  1  0.100761  0.899239  0.905229  1
  Tm  Tm5  1  0.099040  0.900960  0.248957  1
  Co  Co6  1  0.298263  0.701737  0.249729  1
  Co  Co7  1  0.700501  0.299499  0.750245  1
  Sn  Sn8  1  0.757123  0.242877  0.572082  1
  Sn  Sn9  1  0.427806  0.572194  0.577065  1
  Sn  Sn10  1  0.573751  0.426249  0.424567  1
  Sn  Sn11  1  0.732517  0.267483  0.248887  1
  Sn  Sn12  1  0.266825  0.733175  0.750272  1
  Sn  Sn13  1  0.242953  0.757047  0.071003  1
  Sn  Sn14  1  0.243109  0.756891  0.429079  1
  Sn  Sn15  1  0.573001  0.426999  0.074158  1
  Sn  Sn16  1  0.454591  0.545409  0.247394  1
  Sn  Sn17  1  0.545499  0.454501  0.750953  1
  Sn  Sn18  1  0.756790  0.243210  0.928557  1
  Sn  Sn19  1  0.425974  0.574026  0.926023  1
