# generated using pymatgen
data_Be3Co4As
_symmetry_space_group_name_H-M   'P 1'
_cell_length_a   6.59133114
_cell_length_b   6.59133134
_cell_length_c   6.59133055
_cell_angle_alpha   33.29835319
_cell_angle_beta   33.29833200
_cell_angle_gamma   33.29836783
_symmetry_Int_Tables_number   1
_chemical_formula_structural   Be3Co4As
_chemical_formula_sum   'Be3 Co4 As1'
_cell_volume   76.84590594
_cell_formula_units_Z   1
loop_
 _symmetry_equiv_pos_site_id
 _symmetry_equiv_pos_as_xyz
  1  'x, y, z'
loop_
 _atom_site_type_symbol
 _atom_site_label
 _atom_site_symmetry_multiplicity
 _atom_site_fract_x
 _atom_site_fract_y
 _atom_site_fract_z
 _atom_site_occupancy
  Be  Be0  1  0.258201  0.258201  0.258201  1
  Be  Be1  1  0.741799  0.741799  0.741799  1
  Be  Be2  1  0.000000  0.000000  0.000000  1
  Co  Co3  1  0.374655  0.374655  0.374655  1
  Co  Co4  1  0.876595  0.876595  0.876595  1
  Co  Co5  1  0.625345  0.625345  0.625345  1
  Co  Co6  1  0.123405  0.123405  0.123405  1
  As  As7  1  0.500000  0.500000  0.500000  1
