# generated using pymatgen
data_Nd2ErGa2
_symmetry_space_group_name_H-M   'P 1'
_cell_length_a   7.69509800
_cell_length_b   7.69509800
_cell_length_c   4.56763900
_cell_angle_alpha   90.00000000
_cell_angle_beta   90.00000000
_cell_angle_gamma   90.00000000
_symmetry_Int_Tables_number   1
_chemical_formula_structural   Nd2ErGa2
_chemical_formula_sum   'Nd4 Er2 Ga4'
_cell_volume   270.47061135
_cell_formula_units_Z   2
loop_
 _symmetry_equiv_pos_site_id
 _symmetry_equiv_pos_as_xyz
  1  'x, y, z'
loop_
 _atom_site_type_symbol
 _atom_site_label
 _atom_site_symmetry_multiplicity
 _atom_site_fract_x
 _atom_site_fract_y
 _atom_site_fract_z
 _atom_site_occupancy
  Nd  Nd0  1  0.326300  0.173699  0.500000  1
  Nd  Nd1  1  0.826300  0.326300  0.500000  1
  Nd  Nd2  1  0.173699  0.673699  0.500000  1
  Nd  Nd3  1  0.673699  0.826300  0.500000  1
  Er  Er4  1  0.000000  0.000000  0.000000  1
  Er  Er5  1  0.500000  0.500000  0.000000  1
  Ga  Ga6  1  0.620680  0.120680  0.000000  1
  Ga  Ga7  1  0.120680  0.379319  0.000000  1
  Ga  Ga8  1  0.879320  0.620680  0.000000  1
  Ga  Ga9  1  0.379319  0.879320  0.000000  1
