# generated using pymatgen
data_Ce4Pr9Nd3(CdIr)4
_symmetry_space_group_name_H-M   'P 1'
_cell_length_a   9.94352878
_cell_length_b   9.93046905
_cell_length_c   9.94555595
_cell_angle_alpha   60.03666972
_cell_angle_beta   60.00743961
_cell_angle_gamma   60.05693864
_symmetry_Int_Tables_number   1
_chemical_formula_structural   Ce4Pr9Nd3(CdIr)4
_chemical_formula_sum   'Ce4 Pr9 Nd3 Cd4 Ir4'
_cell_volume   694.95336390
_cell_formula_units_Z   1
loop_
 _symmetry_equiv_pos_site_id
 _symmetry_equiv_pos_as_xyz
  1  'x, y, z'
loop_
 _atom_site_type_symbol
 _atom_site_label
 _atom_site_symmetry_multiplicity
 _atom_site_fract_x
 _atom_site_fract_y
 _atom_site_fract_z
 _atom_site_occupancy
  Ce  Ce0  1  0.345992  0.345794  0.345437  1
  Ce  Ce1  1  0.345880  0.346149  0.962368  1
  Ce  Ce2  1  0.345437  0.962775  0.345992  1
  Ce  Ce3  1  0.962368  0.345600  0.345880  1
  Pr  Pr4  1  0.808154  0.191846  0.808154  1
  Pr  Pr5  1  0.191463  0.191283  0.808723  1
  Pr  Pr6  1  0.808723  0.808531  0.191463  1
  Pr  Pr7  1  0.940842  0.560169  0.559369  1
  Pr  Pr8  1  0.559369  0.939620  0.940842  1
  Pr  Pr9  1  0.559715  0.940285  0.559715  1
  Pr  Pr10  1  0.940254  0.559746  0.940254  1
  Pr  Pr11  1  0.559296  0.560107  0.940901  1
  Pr  Pr12  1  0.940901  0.939697  0.559296  1
  Nd  Nd13  1  0.808457  0.191505  0.191715  1
  Nd  Nd14  1  0.191715  0.808323  0.808457  1
  Nd  Nd15  1  0.191098  0.808902  0.191098  1
  Cd  Cd16  1  0.579056  0.579175  0.579442  1
  Cd  Cd17  1  0.579317  0.579039  0.262232  1
  Cd  Cd18  1  0.579442  0.262326  0.579056  1
  Cd  Cd19  1  0.262232  0.579411  0.579317  1
  Ir  Ir20  1  0.145042  0.145207  0.146065  1
  Ir  Ir21  1  0.145744  0.144884  0.563435  1
  Ir  Ir22  1  0.146065  0.563687  0.145042  1
  Ir  Ir23  1  0.563435  0.145938  0.145744  1
