# generated using pymatgen
data_Hf8ScTaCoRe3
_symmetry_space_group_name_H-M   'P 1'
_cell_length_a   8.67354507
_cell_length_b   8.64371854
_cell_length_c   8.43327100
_cell_angle_alpha   90.00000000
_cell_angle_beta   90.00000000
_cell_angle_gamma   119.88631848
_symmetry_Int_Tables_number   1
_chemical_formula_structural   Hf8ScTaCoRe3
_chemical_formula_sum   'Hf16 Sc2 Ta2 Co2 Re6'
_cell_volume   548.17636081
_cell_formula_units_Z   2
loop_
 _symmetry_equiv_pos_site_id
 _symmetry_equiv_pos_as_xyz
  1  'x, y, z'
loop_
 _atom_site_type_symbol
 _atom_site_label
 _atom_site_symmetry_multiplicity
 _atom_site_fract_x
 _atom_site_fract_y
 _atom_site_fract_z
 _atom_site_occupancy
  Hf  Hf0  1  0.201500  0.799164  0.440400  1
  Hf  Hf1  1  0.201500  0.402337  0.440400  1
  Hf  Hf2  1  0.597787  0.798894  0.440103  1
  Hf  Hf3  1  0.798977  0.201408  0.559294  1
  Hf  Hf4  1  0.798977  0.597568  0.559294  1
  Hf  Hf5  1  0.401567  0.200783  0.559546  1
  Hf  Hf6  1  0.798977  0.201408  0.940706  1
  Hf  Hf7  1  0.798977  0.597568  0.940706  1
  Hf  Hf8  1  0.401567  0.200783  0.940454  1
  Hf  Hf9  1  0.201500  0.799164  0.059600  1
  Hf  Hf10  1  0.201500  0.402337  0.059600  1
  Hf  Hf11  1  0.597787  0.798894  0.059897  1
  Hf  Hf12  1  0.916672  0.458336  0.250000  1
  Hf  Hf13  1  0.457591  0.542844  0.750000  1
  Hf  Hf14  1  0.457591  0.914749  0.750000  1
  Hf  Hf15  1  0.085014  0.542507  0.750000  1
  Sc  Sc16  1  0.542694  0.457929  0.250000  1
  Sc  Sc17  1  0.542694  0.084764  0.250000  1
  Ta  Ta18  1  0.000084  0.000042  0.498814  1
  Ta  Ta19  1  0.000084  0.000042  0.001186  1
  Co  Co20  1  0.330370  0.665185  0.250000  1
  Co  Co21  1  0.665736  0.332867  0.750000  1
  Re  Re22  1  0.887638  0.116008  0.250000  1
  Re  Re23  1  0.887638  0.771632  0.250000  1
  Re  Re24  1  0.226665  0.113333  0.250000  1
  Re  Re25  1  0.113739  0.885485  0.750000  1
  Re  Re26  1  0.113739  0.228251  0.750000  1
  Re  Re27  1  0.771434  0.885716  0.750000  1
