# generated using pymatgen
data_Nd16Y4(IrRh3)3
_symmetry_space_group_name_H-M   'P 1'
_cell_length_a   11.20426142
_cell_length_b   11.20426142
_cell_length_c   6.55073559
_cell_angle_alpha   90.03421608
_cell_angle_beta   90.03421608
_cell_angle_gamma   89.95350071
_symmetry_Int_Tables_number   1
_chemical_formula_structural   Nd16Y4(IrRh3)3
_chemical_formula_sum   'Nd16 Y4 Ir3 Rh9'
_cell_volume   822.34913272
_cell_formula_units_Z   1
loop_
 _symmetry_equiv_pos_site_id
 _symmetry_equiv_pos_as_xyz
  1  'x, y, z'
loop_
 _atom_site_type_symbol
 _atom_site_label
 _atom_site_symmetry_multiplicity
 _atom_site_fract_x
 _atom_site_fract_y
 _atom_site_fract_z
 _atom_site_occupancy
  Nd  Nd0  1  0.289977  0.089276  0.382750  1
  Nd  Nd1  1  0.290389  0.910230  0.882611  1
  Nd  Nd2  1  0.709975  0.087899  0.882473  1
  Nd  Nd3  1  0.709721  0.910472  0.382603  1
  Nd  Nd4  1  0.587099  0.787900  0.884032  1
  Nd  Nd5  1  0.586539  0.211213  0.383109  1
  Nd  Nd6  1  0.412846  0.788629  0.383550  1
  Nd  Nd7  1  0.411272  0.211232  0.884292  1
  Nd  Nd8  1  0.212100  0.412901  0.615968  1
  Nd  Nd9  1  0.211371  0.587154  0.116450  1
  Nd  Nd10  1  0.788787  0.413461  0.116891  1
  Nd  Nd11  1  0.788768  0.588728  0.615708  1
  Nd  Nd12  1  0.910724  0.710023  0.117250  1
  Nd  Nd13  1  0.912101  0.290025  0.617527  1
  Nd  Nd14  1  0.089770  0.709611  0.617389  1
  Nd  Nd15  1  0.089528  0.290279  0.117397  1
  Y  Y16  1  0.999848  0.999830  0.499595  1
  Y  Y17  1  0.000170  0.000152  0.000405  1
  Y  Y18  1  0.499579  0.499965  0.999654  1
  Y  Y19  1  0.500035  0.500421  0.500346  1
  Ir  Ir20  1  0.651126  0.650651  0.249872  1
  Ir  Ir21  1  0.349349  0.348874  0.250128  1
  Ir  Ir22  1  0.348789  0.651211  0.750000  1
  Rh  Rh23  1  0.849402  0.150598  0.250000  1
  Rh  Rh24  1  0.849860  0.850184  0.750169  1
  Rh  Rh25  1  0.149816  0.150140  0.749831  1
  Rh  Rh26  1  0.149865  0.850135  0.250000  1
  Rh  Rh27  1  0.651856  0.348144  0.750000  1
  Rh  Rh28  1  0.500280  0.000430  0.120277  1
  Rh  Rh29  1  0.500460  0.000973  0.621138  1
  Rh  Rh30  1  0.999027  0.499540  0.878862  1
  Rh  Rh31  1  0.999570  0.499720  0.379723  1
