# generated using pymatgen
data_Li2Cr3Co6Ni3As7
_symmetry_space_group_name_H-M   'P 1'
_cell_length_a   9.41016000
_cell_length_b   9.41015860
_cell_length_c   3.64056800
_cell_angle_alpha   90.00000000
_cell_angle_beta   90.00000000
_cell_angle_gamma   120.00000491
_symmetry_Int_Tables_number   1
_chemical_formula_structural   Li2Cr3Co6Ni3As7
_chemical_formula_sum   'Li2 Cr3 Co6 Ni3 As7'
_cell_volume   279.18604638
_cell_formula_units_Z   1
loop_
 _symmetry_equiv_pos_site_id
 _symmetry_equiv_pos_as_xyz
  1  'x, y, z'
loop_
 _atom_site_type_symbol
 _atom_site_label
 _atom_site_symmetry_multiplicity
 _atom_site_fract_x
 _atom_site_fract_y
 _atom_site_fract_z
 _atom_site_occupancy
  Li  Li0  1  0.333333  0.666667  0.000000  1
  Li  Li1  1  0.000000  0.000000  0.500000  1
  Cr  Cr2  1  0.766402  0.562725  0.500000  1
  Cr  Cr3  1  0.437275  0.203678  0.500000  1
  Cr  Cr4  1  0.796322  0.233598  0.500000  1
  Co  Co5  1  0.277728  0.380086  0.500000  1
  Co  Co6  1  0.619914  0.897641  0.500000  1
  Co  Co7  1  0.102359  0.722272  0.500000  1
  Co  Co8  1  0.505890  0.451553  0.000000  1
  Co  Co9  1  0.548447  0.054338  0.000000  1
  Co  Co10  1  0.945662  0.494110  0.000000  1
  Ni  Ni11  1  0.723171  0.761936  0.000000  1
  Ni  Ni12  1  0.238064  0.961234  0.000000  1
  Ni  Ni13  1  0.038766  0.276829  0.000000  1
  As  As14  1  0.965374  0.753024  0.000000  1
  As  As15  1  0.246976  0.212350  0.000000  1
  As  As16  1  0.787650  0.034626  0.000000  1
  As  As17  1  0.666667  0.333333  0.000000  1
  As  As18  1  0.529234  0.620949  0.500000  1
  As  As19  1  0.379051  0.908284  0.500000  1
  As  As20  1  0.091716  0.470766  0.500000  1
