# generated using pymatgen
data_K3ReO4
_symmetry_space_group_name_H-M   'P 1'
_cell_length_a   5.99068615
_cell_length_b   5.99068536
_cell_length_c   6.30961241
_cell_angle_alpha   122.76221662
_cell_angle_beta   122.76221234
_cell_angle_gamma   63.68441403
_symmetry_Int_Tables_number   1
_chemical_formula_structural   K3ReO4
_chemical_formula_sum   'K3 Re1 O4'
_cell_volume   156.46169184
_cell_formula_units_Z   1
loop_
 _symmetry_equiv_pos_site_id
 _symmetry_equiv_pos_as_xyz
  1  'x, y, z'
loop_
 _atom_site_type_symbol
 _atom_site_label
 _atom_site_symmetry_multiplicity
 _atom_site_fract_x
 _atom_site_fract_y
 _atom_site_fract_z
 _atom_site_occupancy
  K  K0  1  0.982385  0.017614  0.000000  1
  K  K1  1  0.725247  0.773552  0.248206  1
  K  K2  1  0.226448  0.274753  0.751794  1
  Re  Re3  1  0.482522  0.517479  0.500001  1
  O  O4  1  0.634970  0.269060  0.247203  1
  O  O5  1  0.216981  0.650487  0.628548  1
  O  O6  1  0.349513  0.783019  0.371452  1
  O  O7  1  0.730940  0.365030  0.752797  1
