# generated using pymatgen
data_TbHo7(Er3Pb4)4
_symmetry_space_group_name_H-M   'P 1'
_cell_length_a   8.16595806
_cell_length_b   8.23928302
_cell_length_c   15.55886600
_cell_angle_alpha   90.00385250
_cell_angle_beta   89.99289938
_cell_angle_gamma   89.99917295
_symmetry_Int_Tables_number   1
_chemical_formula_structural   TbHo7(Er3Pb4)4
_chemical_formula_sum   'Tb1 Ho7 Er12 Pb16'
_cell_volume   1046.82600434
_cell_formula_units_Z   1
loop_
 _symmetry_equiv_pos_site_id
 _symmetry_equiv_pos_as_xyz
  1  'x, y, z'
loop_
 _atom_site_type_symbol
 _atom_site_label
 _atom_site_symmetry_multiplicity
 _atom_site_fract_x
 _atom_site_fract_y
 _atom_site_fract_z
 _atom_site_occupancy
  Tb  Tb0  1  0.036480  0.176721  0.900032  1
  Ho  Ho1  1  0.536743  0.323617  0.900002  1
  Ho  Ho2  1  0.036809  0.176524  0.600112  1
  Ho  Ho3  1  0.463212  0.676491  0.400082  1
  Ho  Ho4  1  0.963207  0.823440  0.100000  1
  Ho  Ho5  1  0.463293  0.676483  0.099924  1
  Ho  Ho6  1  0.963198  0.823496  0.400039  1
  Ho  Ho7  1  0.536729  0.323563  0.599944  1
  Er  Er8  1  0.376625  0.841334  0.878995  1
  Er  Er9  1  0.876605  0.658659  0.620983  1
  Er  Er10  1  0.623416  0.158529  0.379002  1
  Er  Er11  1  0.123464  0.341468  0.121118  1
  Er  Er12  1  0.623506  0.158487  0.120998  1
  Er  Er13  1  0.123380  0.341373  0.378953  1
  Er  Er14  1  0.376599  0.841404  0.620981  1
  Er  Er15  1  0.876592  0.658676  0.878978  1
  Er  Er16  1  0.208355  0.504443  0.749927  1
  Er  Er17  1  0.708182  0.995416  0.749905  1
  Er  Er18  1  0.791617  0.495563  0.250017  1
  Er  Er19  1  0.291716  0.004463  0.250025  1
  Pb  Pb20  1  0.281974  0.032959  0.043201  1
  Pb  Pb21  1  0.781693  0.466463  0.457110  1
  Pb  Pb22  1  0.718588  0.966358  0.543021  1
  Pb  Pb23  1  0.218779  0.533996  0.957048  1
  Pb  Pb24  1  0.717797  0.966034  0.957098  1
  Pb  Pb25  1  0.218358  0.533542  0.543020  1
  Pb  Pb26  1  0.281474  0.033706  0.457238  1
  Pb  Pb27  1  0.781761  0.466483  0.042825  1
  Pb  Pb28  1  0.571018  0.626531  0.749966  1
  Pb  Pb29  1  0.071327  0.873267  0.749979  1
  Pb  Pb30  1  0.428913  0.373719  0.249932  1
  Pb  Pb31  1  0.928682  0.126421  0.249977  1
  Pb  Pb32  1  0.348231  0.154089  0.749923  1
  Pb  Pb33  1  0.847718  0.346220  0.749606  1
  Pb  Pb34  1  0.652003  0.845894  0.250007  1
  Pb  Pb35  1  0.151957  0.654170  0.250032  1
