# generated using pymatgen
data_Cr2ReO8
_symmetry_space_group_name_H-M   'P 1'
_cell_length_a   5.66924200
_cell_length_b   7.17504233
_cell_length_c   8.37998934
_cell_angle_alpha   93.51437251
_cell_angle_beta   90.00000000
_cell_angle_gamma   90.00000000
_symmetry_Int_Tables_number   1
_chemical_formula_structural   Cr2ReO8
_chemical_formula_sum   'Cr4 Re2 O16'
_cell_volume   340.23222862
_cell_formula_units_Z   2
loop_
 _symmetry_equiv_pos_site_id
 _symmetry_equiv_pos_as_xyz
  1  'x, y, z'
loop_
 _atom_site_type_symbol
 _atom_site_label
 _atom_site_symmetry_multiplicity
 _atom_site_fract_x
 _atom_site_fract_y
 _atom_site_fract_z
 _atom_site_occupancy
  Cr  Cr0  1  0.000000  0.500000  0.000000  1
  Cr  Cr1  1  0.500000  0.293367  0.838546  1
  Cr  Cr2  1  0.500000  0.706633  0.161454  1
  Cr  Cr3  1  0.500000  0.000000  0.500000  1
  Re  Re4  1  0.000000  0.209452  0.328786  1
  Re  Re5  1  0.000000  0.790548  0.671214  1
  O  O6  1  0.000000  0.976805  0.807122  1
  O  O7  1  0.000000  0.421905  0.232313  1
  O  O8  1  0.000000  0.578095  0.767687  1
  O  O9  1  0.000000  0.023195  0.192878  1
  O  O10  1  0.746204  0.311125  0.953275  1
  O  O11  1  0.746204  0.688875  0.046725  1
  O  O12  1  0.748550  0.807348  0.546995  1
  O  O13  1  0.748550  0.192652  0.453005  1
  O  O14  1  0.500000  0.085537  0.726338  1
  O  O15  1  0.500000  0.461085  0.722147  1
  O  O16  1  0.500000  0.914463  0.273662  1
  O  O17  1  0.500000  0.538915  0.277853  1
  O  O18  1  0.251450  0.807348  0.546995  1
  O  O19  1  0.251450  0.192652  0.453005  1
  O  O20  1  0.253796  0.311125  0.953275  1
  O  O21  1  0.253796  0.688875  0.046725  1
