# generated using pymatgen
data_Ho5Tm5(FeBi2)2
_symmetry_space_group_name_H-M   'P 1'
_cell_length_a   7.86865219
_cell_length_b   8.89658100
_cell_length_c   12.34792360
_cell_angle_alpha   90.00000000
_cell_angle_beta   89.80444725
_cell_angle_gamma   90.00000000
_symmetry_Int_Tables_number   1
_chemical_formula_structural   Ho5Tm5(FeBi2)2
_chemical_formula_sum   'Ho10 Tm10 Fe4 Bi8'
_cell_volume   864.40026343
_cell_formula_units_Z   2
loop_
 _symmetry_equiv_pos_site_id
 _symmetry_equiv_pos_as_xyz
  1  'x, y, z'
loop_
 _atom_site_type_symbol
 _atom_site_label
 _atom_site_symmetry_multiplicity
 _atom_site_fract_x
 _atom_site_fract_y
 _atom_site_fract_z
 _atom_site_occupancy
  Ho  Ho0  1  0.347265  0.250000  0.700379  1
  Ho  Ho1  1  0.652735  0.750000  0.299621  1
  Ho  Ho2  1  0.382032  0.750000  0.684806  1
  Ho  Ho3  1  0.617968  0.250000  0.315194  1
  Ho  Ho4  1  0.881894  0.250000  0.814898  1
  Ho  Ho5  1  0.118106  0.750000  0.185102  1
  Ho  Ho6  1  0.945373  0.750000  0.504793  1
  Ho  Ho7  1  0.054627  0.250000  0.495207  1
  Ho  Ho8  1  0.443862  0.250000  0.994070  1
  Ho  Ho9  1  0.556138  0.750000  0.005930  1
  Tm  Tm10  1  0.848891  0.750000  0.801133  1
  Tm  Tm11  1  0.151109  0.250000  0.198867  1
  Tm  Tm12  1  0.672408  0.034906  0.563648  1
  Tm  Tm13  1  0.327592  0.965094  0.436352  1
  Tm  Tm14  1  0.172212  0.964196  0.936587  1
  Tm  Tm15  1  0.327592  0.534906  0.436352  1
  Tm  Tm16  1  0.827788  0.035804  0.063413  1
  Tm  Tm17  1  0.672408  0.465094  0.563648  1
  Tm  Tm18  1  0.827788  0.464196  0.063413  1
  Tm  Tm19  1  0.172212  0.535804  0.936587  1
  Fe  Fe20  1  0.565518  0.750000  0.506194  1
  Fe  Fe21  1  0.434482  0.250000  0.493806  1
  Fe  Fe22  1  0.067185  0.250000  0.991995  1
  Fe  Fe23  1  0.932815  0.750000  0.008005  1
  Bi  Bi24  1  0.568627  0.495219  0.826085  1
  Bi  Bi25  1  0.431373  0.504781  0.173915  1
  Bi  Bi26  1  0.066817  0.506457  0.673495  1
  Bi  Bi27  1  0.431373  0.995219  0.173915  1
  Bi  Bi28  1  0.933183  0.493543  0.326505  1
  Bi  Bi29  1  0.568627  0.004781  0.826085  1
  Bi  Bi30  1  0.933183  0.006457  0.326505  1
  Bi  Bi31  1  0.066817  0.993543  0.673495  1
