# generated using pymatgen
data_Nd4Er2Al24Os5Au3
_symmetry_space_group_name_H-M   'P 1'
_cell_length_a   8.98403553
_cell_length_b   8.93662331
_cell_length_c   9.61651392
_cell_angle_alpha   89.90799272
_cell_angle_beta   90.08009653
_cell_angle_gamma   119.57292845
_symmetry_Int_Tables_number   1
_chemical_formula_structural   Nd4Er2Al24Os5Au3
_chemical_formula_sum   'Nd4 Er2 Al24 Os5 Au3'
_cell_volume   671.49915577
_cell_formula_units_Z   1
loop_
 _symmetry_equiv_pos_site_id
 _symmetry_equiv_pos_as_xyz
  1  'x, y, z'
loop_
 _atom_site_type_symbol
 _atom_site_label
 _atom_site_symmetry_multiplicity
 _atom_site_fract_x
 _atom_site_fract_y
 _atom_site_fract_z
 _atom_site_occupancy
  Nd  Nd0  1  0.188553  0.378863  0.254480  1
  Nd  Nd1  1  0.811447  0.621137  0.745520  1
  Nd  Nd2  1  0.622468  0.811258  0.247861  1
  Nd  Nd3  1  0.377532  0.188742  0.752139  1
  Er  Er4  1  0.193148  0.801817  0.250754  1
  Er  Er5  1  0.806852  0.198183  0.749246  1
  Al  Al6  1  0.321681  0.661131  0.030623  1
  Al  Al7  1  0.678319  0.338869  0.969377  1
  Al  Al8  1  0.672185  0.327481  0.526975  1
  Al  Al9  1  0.327815  0.672519  0.473025  1
  Al  Al10  1  0.149530  0.322471  0.578428  1
  Al  Al11  1  0.850470  0.677529  0.421572  1
  Al  Al12  1  0.678688  0.852138  0.575249  1
  Al  Al13  1  0.850963  0.677326  0.078561  1
  Al  Al14  1  0.321312  0.147862  0.424751  1
  Al  Al15  1  0.149037  0.322674  0.921439  1
  Al  Al16  1  0.164774  0.835401  0.573770  1
  Al  Al17  1  0.317085  0.157119  0.082729  1
  Al  Al18  1  0.835226  0.164599  0.426230  1
  Al  Al19  1  0.682915  0.842881  0.917271  1
  Al  Al20  1  0.846784  0.171971  0.079111  1
  Al  Al21  1  0.153216  0.828029  0.920889  1
  Al  Al22  1  0.565224  0.127405  0.257198  1
  Al  Al23  1  0.434776  0.872595  0.742802  1
  Al  Al24  1  0.878532  0.438366  0.250045  1
  Al  Al25  1  0.121468  0.561634  0.749955  1
  Al  Al26  1  0.567942  0.433725  0.250164  1
  Al  Al27  1  0.432058  0.566275  0.749836  1
  Al  Al28  1  0.001089  0.996057  0.250514  1
  Al  Al29  1  0.998911  0.003943  0.749486  1
  Os  Os30  1  0.000000  0.500000  0.000000  1
  Os  Os31  1  0.500000  0.000000  0.500000  1
  Os  Os32  1  0.000000  0.500000  0.500000  1
  Os  Os33  1  0.000000  0.000000  0.000000  1
  Os  Os34  1  0.000000  0.000000  0.500000  1
  Au  Au35  1  0.500000  0.000000  0.000000  1
  Au  Au36  1  0.500000  0.500000  0.000000  1
  Au  Au37  1  0.500000  0.500000  0.500000  1
