# generated using pymatgen
data_Y2Hf3Co9As7
_symmetry_space_group_name_H-M   'P 1'
_cell_length_a   3.80394300
_cell_length_b   9.67370724
_cell_length_c   9.67370700
_cell_angle_alpha   119.99999667
_cell_angle_beta   90.00000000
_cell_angle_gamma   90.00000000
_symmetry_Int_Tables_number   1
_chemical_formula_structural   Y2Hf3Co9As7
_chemical_formula_sum   'Y2 Hf3 Co9 As7'
_cell_volume   308.28366694
_cell_formula_units_Z   1
loop_
 _symmetry_equiv_pos_site_id
 _symmetry_equiv_pos_as_xyz
  1  'x, y, z'
loop_
 _atom_site_type_symbol
 _atom_site_label
 _atom_site_symmetry_multiplicity
 _atom_site_fract_x
 _atom_site_fract_y
 _atom_site_fract_z
 _atom_site_occupancy
  Y  Y0  1  0.000000  0.666667  0.333333  1
  Y  Y1  1  0.500000  0.333333  0.666667  1
  Hf  Hf2  1  0.500000  0.768746  0.888090  1
  Hf  Hf3  1  0.500000  0.119343  0.231254  1
  Hf  Hf4  1  0.500000  0.111910  0.880657  1
  Co  Co5  1  0.000000  0.577310  0.935962  1
  Co  Co6  1  0.000000  0.358652  0.422690  1
  Co  Co7  1  0.000000  0.064038  0.641348  1
  Co  Co8  1  0.000000  0.878418  0.162928  1
  Co  Co9  1  0.000000  0.284510  0.121582  1
  Co  Co10  1  0.000000  0.837072  0.715490  1
  Co  Co11  1  0.500000  0.948277  0.390612  1
  Co  Co12  1  0.500000  0.442334  0.051723  1
  Co  Co13  1  0.500000  0.609388  0.557666  1
  As  As14  1  0.000000  0.000000  0.000000  1
  As  As15  1  0.500000  0.713081  0.132748  1
  As  As16  1  0.500000  0.419667  0.286919  1
  As  As17  1  0.500000  0.867252  0.580333  1
  As  As18  1  0.000000  0.572736  0.681338  1
  As  As19  1  0.000000  0.108602  0.427264  1
  As  As20  1  0.000000  0.318662  0.891398  1
