# generated using pymatgen
data_Ca(B6C)2
_symmetry_space_group_name_H-M   'P 1'
_cell_length_a   5.61020661
_cell_length_b   7.01871185
_cell_length_c   7.01871166
_cell_angle_alpha   91.28924628
_cell_angle_beta   113.55696648
_cell_angle_gamma   113.55696938
_symmetry_Int_Tables_number   1
_chemical_formula_structural   Ca(B6C)2
_chemical_formula_sum   'Ca2 B24 C4'
_cell_volume   226.70045588
_cell_formula_units_Z   2
loop_
 _symmetry_equiv_pos_site_id
 _symmetry_equiv_pos_as_xyz
  1  'x, y, z'
loop_
 _atom_site_type_symbol
 _atom_site_label
 _atom_site_symmetry_multiplicity
 _atom_site_fract_x
 _atom_site_fract_y
 _atom_site_fract_z
 _atom_site_occupancy
  Ca  Ca0  1  0.358239  0.608239  0.108239  1
  Ca  Ca1  1  0.641762  0.391762  0.891762  1
  B  B2  1  0.322095  0.217910  0.101027  1
  B  B3  1  0.996841  0.217910  0.101027  1
  B  B4  1  0.313981  0.967958  0.137583  1
  B  B5  1  0.791560  0.967958  0.137583  1
  B  B6  1  0.974888  0.808290  0.141486  1
  B  B7  1  0.178116  0.082902  0.273328  1
  B  B8  1  0.003158  0.398973  0.282090  1
  B  B9  1  0.677905  0.398973  0.282090  1
  B  B10  1  0.974888  0.641486  0.308290  1
  B  B11  1  0.821883  0.226672  0.417097  1
  B  B12  1  0.313981  0.637583  0.467958  1
  B  B13  1  0.791560  0.637583  0.467958  1
  B  B14  1  0.208440  0.362417  0.532041  1
  B  B15  1  0.686018  0.362417  0.532041  1
  B  B16  1  0.178117  0.773328  0.582903  1
  B  B17  1  0.025113  0.358515  0.691711  1
  B  B18  1  0.322095  0.601027  0.717909  1
  B  B19  1  0.996841  0.601027  0.717909  1
  B  B20  1  0.821884  0.917097  0.726672  1
  B  B21  1  0.025113  0.191711  0.858515  1
  B  B22  1  0.208440  0.032041  0.862417  1
  B  B23  1  0.686018  0.032041  0.862417  1
  B  B24  1  0.003160  0.782091  0.898974  1
  B  B25  1  0.677906  0.782091  0.898974  1
  C  C26  1  0.634729  0.973117  0.296342  1
  C  C27  1  0.634729  0.796342  0.473117  1
  C  C28  1  0.365270  0.203658  0.526883  1
  C  C29  1  0.365270  0.026883  0.703658  1
