# generated using pymatgen
data_Yb12Dy3Y5Si16
_symmetry_space_group_name_H-M   'P 1'
_cell_length_a   7.41901705
_cell_length_b   7.80040804
_cell_length_c   15.11990701
_cell_angle_alpha   89.99962359
_cell_angle_beta   90.00483488
_cell_angle_gamma   89.98820965
_symmetry_Int_Tables_number   1
_chemical_formula_structural   Yb12Dy3Y5Si16
_chemical_formula_sum   'Yb12 Dy3 Y5 Si16'
_cell_volume   875.00956366
_cell_formula_units_Z   1
loop_
 _symmetry_equiv_pos_site_id
 _symmetry_equiv_pos_as_xyz
  1  'x, y, z'
loop_
 _atom_site_type_symbol
 _atom_site_label
 _atom_site_symmetry_multiplicity
 _atom_site_fract_x
 _atom_site_fract_y
 _atom_site_fract_z
 _atom_site_occupancy
  Yb  Yb0  1  0.971123  0.815301  0.403404  1
  Yb  Yb1  1  0.471231  0.684570  0.096558  1
  Yb  Yb2  1  0.528862  0.315389  0.596641  1
  Yb  Yb3  1  0.028763  0.184568  0.903432  1
  Yb  Yb4  1  0.028937  0.184664  0.596710  1
  Yb  Yb5  1  0.528970  0.315308  0.903349  1
  Yb  Yb6  1  0.470924  0.684727  0.403366  1
  Yb  Yb7  1  0.971057  0.815306  0.096632  1
  Yb  Yb8  1  0.354062  0.020061  0.750038  1
  Yb  Yb9  1  0.854056  0.479955  0.749992  1
  Yb  Yb10  1  0.145893  0.520142  0.249933  1
  Yb  Yb11  1  0.646012  0.979795  0.249962  1
  Dy  Dy12  1  0.813872  0.322790  0.121198  1
  Dy  Dy13  1  0.186063  0.677265  0.621380  1
  Dy  Dy14  1  0.686115  0.822761  0.878718  1
  Y  Y15  1  0.313656  0.177041  0.121094  1
  Y  Y16  1  0.813613  0.322993  0.378906  1
  Y  Y17  1  0.186444  0.676960  0.878973  1
  Y  Y18  1  0.686492  0.822903  0.621082  1
  Y  Y19  1  0.313674  0.177235  0.378814  1
  Si  Si20  1  0.858565  0.532733  0.538664  1
  Si  Si21  1  0.358703  0.967253  0.961389  1
  Si  Si22  1  0.641521  0.032665  0.461488  1
  Si  Si23  1  0.141308  0.467244  0.038628  1
  Si  Si24  1  0.141712  0.467559  0.461570  1
  Si  Si25  1  0.641873  0.033018  0.038438  1
  Si  Si26  1  0.358324  0.966823  0.538593  1
  Si  Si27  1  0.858144  0.533021  0.961551  1
  Si  Si28  1  0.978522  0.884675  0.749764  1
  Si  Si29  1  0.478538  0.615342  0.750246  1
  Si  Si30  1  0.521529  0.384816  0.249934  1
  Si  Si31  1  0.021397  0.115114  0.249680  1
  Si  Si32  1  0.249753  0.393874  0.749785  1
  Si  Si33  1  0.749785  0.106120  0.750205  1
  Si  Si34  1  0.250105  0.893729  0.250048  1
  Si  Si35  1  0.750400  0.606279  0.249832  1
