# generated using pymatgen
data_DyY7Re3B24Rh
_symmetry_space_group_name_H-M   'P 1'
_cell_length_a   3.68534000
_cell_length_b   9.18403226
_cell_length_c   11.56639703
_cell_angle_alpha   90.16139863
_cell_angle_beta   90.00000000
_cell_angle_gamma   90.00000000
_symmetry_Int_Tables_number   1
_chemical_formula_structural   DyY7Re3B24Rh
_chemical_formula_sum   'Dy1 Y7 Re3 B24 Rh1'
_cell_volume   391.47797599
_cell_formula_units_Z   1
loop_
 _symmetry_equiv_pos_site_id
 _symmetry_equiv_pos_as_xyz
  1  'x, y, z'
loop_
 _atom_site_type_symbol
 _atom_site_label
 _atom_site_symmetry_multiplicity
 _atom_site_fract_x
 _atom_site_fract_y
 _atom_site_fract_z
 _atom_site_occupancy
  Dy  Dy0  1  0.000000  0.556718  0.871601  1
  Y  Y1  1  0.000000  0.318620  0.415537  1
  Y  Y2  1  0.000000  0.677909  0.591259  1
  Y  Y3  1  0.000000  0.827285  0.081339  1
  Y  Y4  1  0.000000  0.177258  0.912742  1
  Y  Y5  1  0.000000  0.943346  0.370163  1
  Y  Y6  1  0.000000  0.055774  0.628722  1
  Y  Y7  1  0.000000  0.441370  0.128839  1
  Re  Re8  1  0.000000  0.362572  0.677693  1
  Re  Re9  1  0.000000  0.138316  0.179795  1
  Re  Re10  1  0.000000  0.861534  0.821002  1
  B  B11  1  0.500000  0.554025  0.433490  1
  B  B12  1  0.500000  0.446597  0.566876  1
  B  B13  1  0.500000  0.053619  0.066666  1
  B  B14  1  0.500000  0.947095  0.932455  1
  B  B15  1  0.500000  0.748591  0.420094  1
  B  B16  1  0.500000  0.251037  0.581116  1
  B  B17  1  0.500000  0.248946  0.081438  1
  B  B18  1  0.500000  0.752063  0.918672  1
  B  B19  1  0.500000  0.790762  0.265284  1
  B  B20  1  0.500000  0.208674  0.733870  1
  B  B21  1  0.500000  0.291484  0.234999  1
  B  B22  1  0.500000  0.708297  0.766200  1
  B  B23  1  0.500000  0.632177  0.184445  1
  B  B24  1  0.500000  0.369227  0.813817  1
  B  B25  1  0.500000  0.131082  0.314500  1
  B  B26  1  0.500000  0.868055  0.685803  1
  B  B27  1  0.500000  0.983504  0.211834  1
  B  B28  1  0.500000  0.016854  0.787060  1
  B  B29  1  0.500000  0.483798  0.288121  1
  B  B30  1  0.500000  0.517644  0.712514  1
  B  B31  1  0.500000  0.604727  0.029660  1
  B  B32  1  0.500000  0.396651  0.971824  1
  B  B33  1  0.500000  0.102745  0.470709  1
  B  B34  1  0.500000  0.893824  0.528531  1
  Rh  Rh35  1  0.000000  0.637821  0.321332  1
