# generated using pymatgen
data_Hf7Zr(ScSn3)2
_symmetry_space_group_name_H-M   'P 1'
_cell_length_a   8.46917798
_cell_length_b   8.46935102
_cell_length_c   5.78599500
_cell_angle_alpha   90.00000000
_cell_angle_beta   90.00000000
_cell_angle_gamma   120.10778984
_symmetry_Int_Tables_number   1
_chemical_formula_structural   Hf7Zr(ScSn3)2
_chemical_formula_sum   'Hf7 Zr1 Sc2 Sn6'
_cell_volume   359.02718898
_cell_formula_units_Z   1
loop_
 _symmetry_equiv_pos_site_id
 _symmetry_equiv_pos_as_xyz
  1  'x, y, z'
loop_
 _atom_site_type_symbol
 _atom_site_label
 _atom_site_symmetry_multiplicity
 _atom_site_fract_x
 _atom_site_fract_y
 _atom_site_fract_z
 _atom_site_occupancy
  Hf  Hf0  1  0.999360  0.247044  0.750000  1
  Hf  Hf1  1  0.759937  0.001451  0.250000  1
  Hf  Hf2  1  0.999899  0.757046  0.250000  1
  Hf  Hf3  1  0.667907  0.332497  0.000227  1
  Hf  Hf4  1  0.331996  0.664420  0.000195  1
  Hf  Hf5  1  0.331996  0.664420  0.499805  1
  Hf  Hf6  1  0.667907  0.332497  0.499773  1
  Zr  Zr7  1  0.239790  0.241153  0.250000  1
  Sc  Sc8  1  0.756573  0.757715  0.750000  1
  Sc  Sc9  1  0.244063  0.000638  0.750000  1
  Sn  Sn10  1  0.393049  0.391477  0.750000  1
  Sn  Sn11  1  0.607056  0.998327  0.750000  1
  Sn  Sn12  1  0.000052  0.609944  0.750000  1
  Sn  Sn13  1  0.608351  0.608377  0.250000  1
  Sn  Sn14  1  0.392521  0.999452  0.250000  1
  Sn  Sn15  1  0.999541  0.393543  0.250000  1
