# generated using pymatgen
data_NdTh5(SnIr)6
_symmetry_space_group_name_H-M   'P 1'
_cell_length_a   7.56085498
_cell_length_b   7.58655333
_cell_length_c   8.28910600
_cell_angle_alpha   90.00000000
_cell_angle_beta   90.00000000
_cell_angle_gamma   119.89493330
_symmetry_Int_Tables_number   1
_chemical_formula_structural   NdTh5(SnIr)6
_chemical_formula_sum   'Nd1 Th5 Sn6 Ir6'
_cell_volume   412.20435136
_cell_formula_units_Z   1
loop_
 _symmetry_equiv_pos_site_id
 _symmetry_equiv_pos_as_xyz
  1  'x, y, z'
loop_
 _atom_site_type_symbol
 _atom_site_label
 _atom_site_symmetry_multiplicity
 _atom_site_fract_x
 _atom_site_fract_y
 _atom_site_fract_z
 _atom_site_occupancy
  Nd  Nd0  1  0.408912  0.999714  0.750000  1
  Th  Th1  1  0.412994  0.000703  0.250000  1
  Th  Th2  1  0.585825  0.586984  0.750000  1
  Th  Th3  1  0.588689  0.587667  0.250000  1
  Th  Th4  1  0.999799  0.411876  0.250000  1
  Th  Th5  1  0.000373  0.413718  0.750000  1
  Sn  Sn6  1  0.250760  0.247264  0.500726  1
  Sn  Sn7  1  0.250760  0.247264  0.999274  1
  Sn  Sn8  1  0.745022  0.999996  0.998468  1
  Sn  Sn9  1  0.003468  0.752681  0.501014  1
  Sn  Sn10  1  0.745022  0.999996  0.501532  1
  Sn  Sn11  1  0.003468  0.752681  0.998986  1
  Ir  Ir12  1  0.674701  0.341838  0.497081  1
  Ir  Ir13  1  0.674701  0.341838  0.002919  1
  Ir  Ir14  1  0.332717  0.657859  0.004722  1
  Ir  Ir15  1  0.332717  0.657859  0.495278  1
  Ir  Ir16  1  0.991712  0.000312  0.750000  1
  Ir  Ir17  1  0.998361  0.999747  0.250000  1
