# generated using pymatgen
data_Dy2Tm3Co19(Si2P)4
_symmetry_space_group_name_H-M   'P 1'
_cell_length_a   12.09275739
_cell_length_b   12.08971167
_cell_length_c   3.68188900
_cell_angle_alpha   90.00000000
_cell_angle_beta   90.00000000
_cell_angle_gamma   120.04667079
_symmetry_Int_Tables_number   1
_chemical_formula_structural   Dy2Tm3Co19(Si2P)4
_chemical_formula_sum   'Dy2 Tm3 Co19 Si8 P4'
_cell_volume   465.94877211
_cell_formula_units_Z   1
loop_
 _symmetry_equiv_pos_site_id
 _symmetry_equiv_pos_as_xyz
  1  'x, y, z'
loop_
 _atom_site_type_symbol
 _atom_site_label
 _atom_site_symmetry_multiplicity
 _atom_site_fract_x
 _atom_site_fract_y
 _atom_site_fract_z
 _atom_site_occupancy
  Dy  Dy0  1  0.666424  0.333310  0.000000  1
  Dy  Dy1  1  0.331526  0.664815  0.000000  1
  Tm  Tm2  1  0.183108  0.182031  0.500000  1
  Tm  Tm3  1  0.817143  0.000558  0.500000  1
  Tm  Tm4  1  0.000032  0.816028  0.500000  1
  Co  Co5  1  0.556163  0.557058  0.000000  1
  Co  Co6  1  0.442851  0.000431  0.000000  1
  Co  Co7  1  0.997648  0.442809  0.000000  1
  Co  Co8  1  0.825975  0.196983  0.000000  1
  Co  Co9  1  0.803501  0.628006  0.000000  1
  Co  Co10  1  0.371065  0.175162  0.000000  1
  Co  Co11  1  0.196534  0.823196  0.000000  1
  Co  Co12  1  0.627980  0.803380  0.000000  1
  Co  Co13  1  0.174878  0.376452  0.000000  1
  Co  Co14  1  0.645871  0.123940  0.500000  1
  Co  Co15  1  0.876319  0.521936  0.500000  1
  Co  Co16  1  0.477173  0.354608  0.500000  1
  Co  Co17  1  0.124376  0.639554  0.500000  1
  Co  Co18  1  0.521601  0.876154  0.500000  1
  Co  Co19  1  0.352085  0.477956  0.500000  1
  Co  Co20  1  0.723304  0.723456  0.500000  1
  Co  Co21  1  0.276264  0.999205  0.500000  1
  Co  Co22  1  0.004526  0.282208  0.500000  1
  Co  Co23  1  0.000083  0.000667  0.000000  1
  Si  Si24  1  0.367650  0.368297  0.000000  1
  Si  Si25  1  0.631677  0.000035  0.000000  1
  Si  Si26  1  0.000592  0.631947  0.000000  1
  Si  Si27  1  0.841096  0.318647  0.500000  1
  Si  Si28  1  0.680680  0.522391  0.500000  1
  Si  Si29  1  0.477282  0.158779  0.500000  1
  Si  Si30  1  0.318503  0.840415  0.500000  1
  Si  Si31  1  0.522172  0.681259  0.500000  1
  P  P32  1  0.163549  0.478526  0.500000  1
  P  P33  1  0.820122  0.820166  0.000000  1
  P  P34  1  0.179345  0.998808  0.000000  1
  P  P35  1  0.000901  0.180826  0.000000  1
