# generated using pymatgen
data_Pr3Nd3Zn4Pt13
_symmetry_space_group_name_H-M   'P 1'
_cell_length_a   8.40942349
_cell_length_b   8.40942354
_cell_length_c   8.41093900
_cell_angle_alpha   109.47486879
_cell_angle_beta   109.47486891
_cell_angle_gamma   109.46757200
_symmetry_Int_Tables_number   1
_chemical_formula_structural   Pr3Nd3Zn4Pt13
_chemical_formula_sum   'Pr3 Nd3 Zn4 Pt13'
_cell_volume   457.86293520
_cell_formula_units_Z   1
loop_
 _symmetry_equiv_pos_site_id
 _symmetry_equiv_pos_as_xyz
  1  'x, y, z'
loop_
 _atom_site_type_symbol
 _atom_site_label
 _atom_site_symmetry_multiplicity
 _atom_site_fract_x
 _atom_site_fract_y
 _atom_site_fract_z
 _atom_site_occupancy
  Pr  Pr0  1  0.699575  0.699575  0.999821  1
  Pr  Pr1  1  0.300425  0.000000  0.300246  1
  Pr  Pr2  1  0.000000  0.300425  0.300246  1
  Nd  Nd3  1  0.301890  0.301890  0.999855  1
  Nd  Nd4  1  0.698110  0.000000  0.697965  1
  Nd  Nd5  1  0.000000  0.698110  0.697965  1
  Zn  Zn6  1  0.000000  0.000000  0.501918  1
  Zn  Zn7  1  0.000000  0.499599  0.000646  1
  Zn  Zn8  1  0.499599  0.000000  0.000646  1
  Zn  Zn9  1  0.500401  0.500401  0.501047  1
  Pt  Pt10  1  0.329030  0.329030  0.658347  1
  Pt  Pt11  1  0.670970  0.000000  0.329317  1
  Pt  Pt12  1  0.000000  0.670970  0.329317  1
  Pt  Pt13  1  0.670995  0.328358  0.999665  1
  Pt  Pt14  1  0.329005  0.657363  0.328670  1
  Pt  Pt15  1  0.000000  0.328250  0.672006  1
  Pt  Pt16  1  0.328358  0.670995  0.999665  1
  Pt  Pt17  1  0.328250  0.000000  0.672006  1
  Pt  Pt18  1  0.657363  0.329005  0.328670  1
  Pt  Pt19  1  0.671750  0.671750  0.343757  1
  Pt  Pt20  1  0.671642  0.342637  0.671307  1
  Pt  Pt21  1  0.342637  0.671642  0.671307  1
  Pt  Pt22  1  0.000000  0.000000  0.995611  1
