# generated using pymatgen
data_GaSi3Pd8
_symmetry_space_group_name_H-M   'P 1'
_cell_length_a   3.85495500
_cell_length_b   6.14654023
_cell_length_c   7.47539491
_cell_angle_alpha   89.84210688
_cell_angle_beta   90.00000000
_cell_angle_gamma   90.00000000
_symmetry_Int_Tables_number   1
_chemical_formula_structural   GaSi3Pd8
_chemical_formula_sum   'Ga1 Si3 Pd8'
_cell_volume   177.12608876
_cell_formula_units_Z   1
loop_
 _symmetry_equiv_pos_site_id
 _symmetry_equiv_pos_as_xyz
  1  'x, y, z'
loop_
 _atom_site_type_symbol
 _atom_site_label
 _atom_site_symmetry_multiplicity
 _atom_site_fract_x
 _atom_site_fract_y
 _atom_site_fract_z
 _atom_site_occupancy
  Ga  Ga0  1  0.250000  0.253652  0.877883  1
  Si  Si1  1  0.750000  0.247251  0.382651  1
  Si  Si2  1  0.250000  0.754090  0.622025  1
  Si  Si3  1  0.750000  0.736987  0.115849  1
  Pd  Pd4  1  0.750000  0.134837  0.080298  1
  Pd  Pd5  1  0.250000  0.846057  0.935063  1
  Pd  Pd6  1  0.750000  0.648767  0.427672  1
  Pd  Pd7  1  0.250000  0.361619  0.558967  1
  Pd  Pd8  1  0.750000  0.026973  0.663847  1
  Pd  Pd9  1  0.250000  0.975121  0.341158  1
  Pd  Pd10  1  0.750000  0.541981  0.822981  1
  Pd  Pd11  1  0.250000  0.472665  0.171606  1
