# generated using pymatgen
data_Be6SiP5Ru12
_symmetry_space_group_name_H-M   'P 1'
_cell_length_a   4.02556400
_cell_length_b   5.68834300
_cell_length_c   12.07178000
_cell_angle_alpha   89.99998043
_cell_angle_beta   90.00270482
_cell_angle_gamma   90.00011737
_symmetry_Int_Tables_number   1
_chemical_formula_structural   Be6SiP5Ru12
_chemical_formula_sum   'Be6 Si1 P5 Ru12'
_cell_volume   276.42914051
_cell_formula_units_Z   1
loop_
 _symmetry_equiv_pos_site_id
 _symmetry_equiv_pos_as_xyz
  1  'x, y, z'
loop_
 _atom_site_type_symbol
 _atom_site_label
 _atom_site_symmetry_multiplicity
 _atom_site_fract_x
 _atom_site_fract_y
 _atom_site_fract_z
 _atom_site_occupancy
  Be  Be0  1  0.000014  0.000006  0.994843  1
  Be  Be1  1  0.499451  0.500001  0.167331  1
  Be  Be2  1  0.999437  0.999994  0.333374  1
  Be  Be3  1  0.500035  0.500005  0.499392  1
  Be  Be4  1  0.000739  0.000006  0.671810  1
  Be  Be5  1  0.500541  0.499993  0.833302  1
  Si  Si6  1  0.500455  0.000002  0.833298  1
  P  P7  1  0.999998  0.500001  0.999457  1
  P  P8  1  0.499547  0.000002  0.166416  1
  P  P9  1  0.999522  0.499998  0.333338  1
  P  P10  1  0.500037  0.000001  0.500270  1
  P  P11  1  0.000468  0.500000  0.667223  1
  Ru  Ru12  1  0.499951  0.252135  0.003824  1
  Ru  Ru13  1  0.499953  0.747875  0.003824  1
  Ru  Ru14  1  0.999681  0.249789  0.167979  1
  Ru  Ru15  1  0.999682  0.750209  0.167982  1
  Ru  Ru16  1  0.499633  0.249548  0.333322  1
  Ru  Ru17  1  0.499633  0.750458  0.333323  1
  Ru  Ru18  1  0.000018  0.249800  0.498671  1
  Ru  Ru19  1  0.000014  0.750187  0.498665  1
  Ru  Ru20  1  0.500272  0.252123  0.662839  1
  Ru  Ru21  1  0.500281  0.747873  0.662841  1
  Ru  Ru22  1  0.000318  0.255194  0.833339  1
  Ru  Ru23  1  0.000319  0.744811  0.833338  1
