# generated using pymatgen
data_YMnAl10Rh
_symmetry_space_group_name_H-M   'P 1'
_cell_length_a   6.82579054
_cell_length_b   6.82579120
_cell_length_c   9.09273794
_cell_angle_alpha   90.54882321
_cell_angle_beta   90.54881522
_cell_angle_gamma   96.82991535
_symmetry_Int_Tables_number   1
_chemical_formula_structural   YMnAl10Rh
_chemical_formula_sum   'Y2 Mn2 Al20 Rh2'
_cell_volume   420.59341237
_cell_formula_units_Z   2
loop_
 _symmetry_equiv_pos_site_id
 _symmetry_equiv_pos_as_xyz
  1  'x, y, z'
loop_
 _atom_site_type_symbol
 _atom_site_label
 _atom_site_symmetry_multiplicity
 _atom_site_fract_x
 _atom_site_fract_y
 _atom_site_fract_z
 _atom_site_occupancy
  Y  Y0  1  0.873267  0.126733  0.750000  1
  Y  Y1  1  0.126733  0.873267  0.250000  1
  Mn  Mn2  1  0.000000  0.500000  0.000000  1
  Mn  Mn3  1  0.500000  0.000000  0.500000  1
  Al  Al4  1  0.619490  0.372429  0.548550  1
  Al  Al5  1  0.380510  0.627571  0.451450  1
  Al  Al6  1  0.372429  0.619490  0.048550  1
  Al  Al7  1  0.627571  0.380510  0.951450  1
  Al  Al8  1  0.229755  0.222271  0.496529  1
  Al  Al9  1  0.770245  0.777729  0.503471  1
  Al  Al10  1  0.777729  0.770245  0.003471  1
  Al  Al11  1  0.222271  0.229755  0.996529  1
  Al  Al12  1  0.848305  0.161591  0.098896  1
  Al  Al13  1  0.151695  0.838409  0.901104  1
  Al  Al14  1  0.161591  0.848305  0.598896  1
  Al  Al15  1  0.838409  0.151695  0.401104  1
  Al  Al16  1  0.861738  0.587431  0.753721  1
  Al  Al17  1  0.138262  0.412569  0.246279  1
  Al  Al18  1  0.412569  0.138262  0.746279  1
  Al  Al19  1  0.587431  0.861738  0.253721  1
  Al  Al20  1  0.221511  0.478948  0.756008  1
  Al  Al21  1  0.778489  0.521052  0.243992  1
  Al  Al22  1  0.521052  0.778489  0.743992  1
  Al  Al23  1  0.478948  0.221511  0.256008  1
  Rh  Rh24  1  0.000000  0.500000  0.500000  1
  Rh  Rh25  1  0.500000  0.000000  0.000000  1
