# generated using pymatgen
data_Mg3TaRh4
_symmetry_space_group_name_H-M   'P 1'
_cell_length_a   7.65017043
_cell_length_b   7.65017072
_cell_length_c   7.65017265
_cell_angle_alpha   33.91046096
_cell_angle_beta   33.91045808
_cell_angle_gamma   33.91044473
_symmetry_Int_Tables_number   1
_chemical_formula_structural   Mg3TaRh4
_chemical_formula_sum   'Mg3 Ta1 Rh4'
_cell_volume   124.19873731
_cell_formula_units_Z   1
loop_
 _symmetry_equiv_pos_site_id
 _symmetry_equiv_pos_as_xyz
  1  'x, y, z'
loop_
 _atom_site_type_symbol
 _atom_site_label
 _atom_site_symmetry_multiplicity
 _atom_site_fract_x
 _atom_site_fract_y
 _atom_site_fract_z
 _atom_site_occupancy
  Mg  Mg0  1  0.246945  0.246945  0.246945  1
  Mg  Mg1  1  0.753055  0.753055  0.753055  1
  Mg  Mg2  1  0.500000  0.500000  0.500000  1
  Ta  Ta3  1  0.000000  0.000000  0.000000  1
  Rh  Rh4  1  0.879058  0.879058  0.879058  1
  Rh  Rh5  1  0.372530  0.372530  0.372530  1
  Rh  Rh6  1  0.120942  0.120942  0.120942  1
  Rh  Rh7  1  0.627470  0.627470  0.627470  1
