# generated using pymatgen
data_Ho2Co3Si6Rh7
_symmetry_space_group_name_H-M   'P 1'
_cell_length_a   3.81375300
_cell_length_b   10.89761900
_cell_length_c   12.46617600
_cell_angle_alpha   90.00000000
_cell_angle_beta   90.00000000
_cell_angle_gamma   90.00000000
_symmetry_Int_Tables_number   1
_chemical_formula_structural   Ho2Co3Si6Rh7
_chemical_formula_sum   'Ho4 Co6 Si12 Rh14'
_cell_volume   518.10458601
_cell_formula_units_Z   2
loop_
 _symmetry_equiv_pos_site_id
 _symmetry_equiv_pos_as_xyz
  1  'x, y, z'
loop_
 _atom_site_type_symbol
 _atom_site_label
 _atom_site_symmetry_multiplicity
 _atom_site_fract_x
 _atom_site_fract_y
 _atom_site_fract_z
 _atom_site_occupancy
  Ho  Ho0  1  0.250000  0.585026  0.708738  1
  Ho  Ho1  1  0.250000  0.914974  0.208738  1
  Ho  Ho2  1  0.750000  0.414045  0.293291  1
  Ho  Ho3  1  0.750000  0.085955  0.793291  1
  Co  Co4  1  0.750000  0.113205  0.302916  1
  Co  Co5  1  0.750000  0.386795  0.802916  1
  Co  Co6  1  0.250000  0.467345  0.929391  1
  Co  Co7  1  0.250000  0.032655  0.429391  1
  Co  Co8  1  0.750000  0.527855  0.065071  1
  Co  Co9  1  0.750000  0.972145  0.565071  1
  Si  Si10  1  0.250000  0.416477  0.103113  1
  Si  Si11  1  0.250000  0.083523  0.603113  1
  Si  Si12  1  0.750000  0.573843  0.890835  1
  Si  Si13  1  0.750000  0.926157  0.390835  1
  Si  Si14  1  0.250000  0.275749  0.872962  1
  Si  Si15  1  0.250000  0.224251  0.372962  1
  Si  Si16  1  0.750000  0.722106  0.125664  1
  Si  Si17  1  0.750000  0.777894  0.625664  1
  Si  Si18  1  0.250000  0.603414  0.392375  1
  Si  Si19  1  0.250000  0.896586  0.892375  1
  Si  Si20  1  0.750000  0.398443  0.613883  1
  Si  Si21  1  0.750000  0.101557  0.113883  1
  Rh  Rh22  1  0.250000  0.704386  0.988452  1
  Rh  Rh23  1  0.250000  0.795614  0.488452  1
  Rh  Rh24  1  0.750000  0.290504  0.008219  1
  Rh  Rh25  1  0.750000  0.209496  0.508219  1
  Rh  Rh26  1  0.250000  0.406886  0.486740  1
  Rh  Rh27  1  0.250000  0.093114  0.986740  1
  Rh  Rh28  1  0.750000  0.594796  0.515721  1
  Rh  Rh29  1  0.750000  0.905204  0.015721  1
  Rh  Rh30  1  0.250000  0.220498  0.181772  1
  Rh  Rh31  1  0.250000  0.279502  0.681772  1
  Rh  Rh32  1  0.750000  0.774284  0.821890  1
  Rh  Rh33  1  0.750000  0.725716  0.321890  1
  Rh  Rh34  1  0.250000  0.893141  0.698969  1
  Rh  Rh35  1  0.250000  0.606859  0.198969  1
