# generated using pymatgen
data_Tb12InCoTcNi3
_symmetry_space_group_name_H-M   'P 1'
_cell_length_a   8.37215983
_cell_length_b   8.37216008
_cell_length_c   8.37215937
_cell_angle_alpha   106.68918858
_cell_angle_beta   110.20169454
_cell_angle_gamma   111.56117116
_symmetry_Int_Tables_number   1
_chemical_formula_structural   Tb12InCoTcNi3
_chemical_formula_sum   'Tb12 In1 Co1 Tc1 Ni3'
_cell_volume   450.88136356
_cell_formula_units_Z   1
loop_
 _symmetry_equiv_pos_site_id
 _symmetry_equiv_pos_as_xyz
  1  'x, y, z'
loop_
 _atom_site_type_symbol
 _atom_site_label
 _atom_site_symmetry_multiplicity
 _atom_site_fract_x
 _atom_site_fract_y
 _atom_site_fract_z
 _atom_site_occupancy
  Tb  Tb0  1  0.690370  0.281045  0.971414  1
  Tb  Tb1  1  0.309983  0.719878  0.029861  1
  Tb  Tb2  1  0.690370  0.718955  0.409324  1
  Tb  Tb3  1  0.309983  0.280122  0.590105  1
  Tb  Tb4  1  0.804391  0.129809  0.321449  1
  Tb  Tb5  1  0.804391  0.482942  0.674583  1
  Tb  Tb6  1  0.191640  0.870191  0.674583  1
  Tb  Tb7  1  0.191640  0.517058  0.321449  1
  Tb  Tb8  1  0.605129  0.784518  0.820611  1
  Tb  Tb9  1  0.963798  0.781947  0.181849  1
  Tb  Tb10  1  0.036092  0.215482  0.820611  1
  Tb  Tb11  1  0.399901  0.218053  0.181849  1
  In  In12  1  0.500506  0.000000  0.500506  1
  Co  Co13  1  0.858336  0.500000  0.358336  1
  Tc  Tc14  1  0.500261  0.500000  0.000261  1
  Ni  Ni15  1  0.141425  0.500000  0.641425  1
  Ni  Ni16  1  0.000893  0.117872  0.118765  1
  Ni  Ni17  1  0.000893  0.882128  0.883021  1
