# generated using pymatgen
data_Yb3ScPt3RhO14
_symmetry_space_group_name_H-M   'P 1'
_cell_length_a   7.17568659
_cell_length_b   7.22563102
_cell_length_c   7.22563000
_cell_angle_alpha   60.00000467
_cell_angle_beta   59.76949382
_cell_angle_gamma   59.76950443
_symmetry_Int_Tables_number   1
_chemical_formula_structural   Yb3ScPt3RhO14
_chemical_formula_sum   'Yb3 Sc1 Pt3 Rh1 O14'
_cell_volume   263.98428215
_cell_formula_units_Z   1
loop_
 _symmetry_equiv_pos_site_id
 _symmetry_equiv_pos_as_xyz
  1  'x, y, z'
loop_
 _atom_site_type_symbol
 _atom_site_label
 _atom_site_symmetry_multiplicity
 _atom_site_fract_x
 _atom_site_fract_y
 _atom_site_fract_z
 _atom_site_occupancy
  Yb  Yb0  1  0.625000  0.625000  0.125000  1
  Yb  Yb1  1  0.625000  0.625000  0.625000  1
  Yb  Yb2  1  0.625000  0.125000  0.625000  1
  Sc  Sc3  1  0.125000  0.625000  0.625000  1
  Pt  Pt4  1  0.125000  0.125000  0.125000  1
  Pt  Pt5  1  0.125000  0.625000  0.125000  1
  Pt  Pt6  1  0.125000  0.125000  0.625000  1
  Rh  Rh7  1  0.625000  0.125000  0.125000  1
  O  O8  1  0.053027  0.460379  0.460379  1
  O  O9  1  0.792304  0.792392  0.207652  1
  O  O10  1  0.792304  0.207652  0.207652  1
  O  O11  1  0.053027  0.460379  0.026215  1
  O  O12  1  0.457696  0.042348  0.457608  1
  O  O13  1  0.777282  0.740906  0.740906  1
  O  O14  1  0.053027  0.026215  0.460379  1
  O  O15  1  0.792304  0.207652  0.792392  1
  O  O16  1  0.472718  0.509094  0.509094  1
  O  O17  1  0.196973  0.223785  0.789621  1
  O  O18  1  0.196973  0.789621  0.223785  1
  O  O19  1  0.457696  0.042348  0.042348  1
  O  O20  1  0.457696  0.457608  0.042348  1
  O  O21  1  0.196973  0.789621  0.789621  1
