# generated using pymatgen
data_ErTm11Co4BiIr
_symmetry_space_group_name_H-M   'P 1'
_cell_length_a   8.22875760
_cell_length_b   8.22875732
_cell_length_c   8.22834701
_cell_angle_alpha   110.80373006
_cell_angle_beta   111.32602223
_cell_angle_gamma   106.33145911
_symmetry_Int_Tables_number   1
_chemical_formula_structural   ErTm11Co4BiIr
_chemical_formula_sum   'Er1 Tm11 Co4 Bi1 Ir1'
_cell_volume   427.92251420
_cell_formula_units_Z   1
loop_
 _symmetry_equiv_pos_site_id
 _symmetry_equiv_pos_as_xyz
  1  'x, y, z'
loop_
 _atom_site_type_symbol
 _atom_site_label
 _atom_site_symmetry_multiplicity
 _atom_site_fract_x
 _atom_site_fract_y
 _atom_site_fract_z
 _atom_site_occupancy
  Er  Er0  1  0.284048  0.182274  0.466321  1
  Tm  Tm1  1  0.715979  0.817791  0.533771  1
  Tm  Tm2  1  0.284017  0.817744  0.101760  1
  Tm  Tm3  1  0.715990  0.182224  0.898215  1
  Tm  Tm4  1  0.620868  0.311503  0.309340  1
  Tm  Tm5  1  0.379153  0.688531  0.690651  1
  Tm  Tm6  1  0.002120  0.311498  0.690651  1
  Tm  Tm7  1  0.997836  0.688472  0.309340  1
  Tm  Tm8  1  0.213135  0.411457  0.198262  1
  Tm  Tm9  1  0.786879  0.588576  0.801723  1
  Tm  Tm10  1  0.213148  0.014844  0.801723  1
  Tm  Tm11  1  0.786804  0.985127  0.198262  1
  Co  Co12  1  0.999993  0.376583  0.376576  1
  Co  Co13  1  0.999994  0.623429  0.623423  1
  Co  Co14  1  0.388870  0.888820  0.500011  1
  Co  Co15  1  0.611191  0.111141  0.500011  1
  Bi  Bi16  1  0.499999  0.499999  0.999998  1
  Ir  Ir17  1  0.999974  0.999987  0.999961  1
