# generated using pymatgen
data_Sc4CuRu3
_symmetry_space_group_name_H-M   'P 1'
_cell_length_a   6.42518700
_cell_length_b   9.14249200
_cell_length_c   4.55586300
_cell_angle_alpha   90.00000000
_cell_angle_beta   90.00000000
_cell_angle_gamma   90.00000000
_symmetry_Int_Tables_number   1
_chemical_formula_structural   Sc4CuRu3
_chemical_formula_sum   'Sc8 Cu2 Ru6'
_cell_volume   267.62151003
_cell_formula_units_Z   2
loop_
 _symmetry_equiv_pos_site_id
 _symmetry_equiv_pos_as_xyz
  1  'x, y, z'
loop_
 _atom_site_type_symbol
 _atom_site_label
 _atom_site_symmetry_multiplicity
 _atom_site_fract_x
 _atom_site_fract_y
 _atom_site_fract_z
 _atom_site_occupancy
  Sc  Sc0  1  0.240950  0.372577  0.252791  1
  Sc  Sc1  1  0.759050  0.372577  0.252791  1
  Sc  Sc2  1  0.246523  0.879873  0.253780  1
  Sc  Sc3  1  0.753477  0.879873  0.253780  1
  Sc  Sc4  1  0.240950  0.627424  0.752791  1
  Sc  Sc5  1  0.759050  0.627424  0.752791  1
  Sc  Sc6  1  0.246523  0.120128  0.753779  1
  Sc  Sc7  1  0.753477  0.120128  0.753779  1
  Cu  Cu8  1  0.500001  0.634947  0.252367  1
  Cu  Cu9  1  0.500001  0.365054  0.752367  1
  Ru  Ru10  1  0.000000  0.623979  0.252864  1
  Ru  Ru11  1  0.000000  0.126866  0.253700  1
  Ru  Ru12  1  0.500001  0.130386  0.253927  1
  Ru  Ru13  1  0.000000  0.376022  0.752864  1
  Ru  Ru14  1  0.000000  0.873135  0.753700  1
  Ru  Ru15  1  0.500001  0.869615  0.753926  1
