# generated using pymatgen
data_CeNd15(CdOs)4
_symmetry_space_group_name_H-M   'P 1'
_cell_length_a   9.97739083
_cell_length_b   9.97647753
_cell_length_c   9.97720146
_cell_angle_alpha   59.43247662
_cell_angle_beta   59.42648363
_cell_angle_gamma   59.42878771
_symmetry_Int_Tables_number   1
_chemical_formula_structural   CeNd15(CdOs)4
_chemical_formula_sum   'Ce1 Nd15 Cd4 Os4'
_cell_volume   693.12455650
_cell_formula_units_Z   1
loop_
 _symmetry_equiv_pos_site_id
 _symmetry_equiv_pos_as_xyz
  1  'x, y, z'
loop_
 _atom_site_type_symbol
 _atom_site_label
 _atom_site_symmetry_multiplicity
 _atom_site_fract_x
 _atom_site_fract_y
 _atom_site_fract_z
 _atom_site_occupancy
  Ce  Ce0  1  0.339404  0.339415  0.339418  1
  Nd  Nd1  1  0.345675  0.345622  0.959724  1
  Nd  Nd2  1  0.345593  0.959655  0.345627  1
  Nd  Nd3  1  0.959685  0.345593  0.345708  1
  Nd  Nd4  1  0.808998  0.192222  0.192126  1
  Nd  Nd5  1  0.192038  0.810188  0.810187  1
  Nd  Nd6  1  0.192157  0.809020  0.192101  1
  Nd  Nd7  1  0.810235  0.191970  0.810233  1
  Nd  Nd8  1  0.192152  0.192208  0.809012  1
  Nd  Nd9  1  0.810181  0.810174  0.192059  1
  Nd  Nd10  1  0.943339  0.558584  0.558538  1
  Nd  Nd11  1  0.558675  0.940392  0.940332  1
  Nd  Nd12  1  0.558511  0.943396  0.558504  1
  Nd  Nd13  1  0.940395  0.558703  0.940376  1
  Nd  Nd14  1  0.558609  0.558622  0.943256  1
  Nd  Nd15  1  0.940336  0.940359  0.558643  1
  Cd  Cd16  1  0.579877  0.579865  0.579894  1
  Cd  Cd17  1  0.578033  0.578106  0.261017  1
  Cd  Cd18  1  0.578076  0.261034  0.578082  1
  Cd  Cd19  1  0.261028  0.578098  0.578036  1
  Os  Os20  1  0.138413  0.138442  0.138435  1
  Os  Os21  1  0.145444  0.145308  0.577812  1
  Os  Os22  1  0.145348  0.577736  0.145421  1
  Os  Os23  1  0.577791  0.145284  0.145456  1
