# generated using pymatgen
data_SrIrO4
_symmetry_space_group_name_H-M   'P 1'
_cell_length_a   5.20264900
_cell_length_b   5.51002200
_cell_length_c   12.99108900
_cell_angle_alpha   90.00000000
_cell_angle_beta   90.00000000
_cell_angle_gamma   90.00000000
_symmetry_Int_Tables_number   1
_chemical_formula_structural   SrIrO4
_chemical_formula_sum   'Sr4 Ir4 O16'
_cell_volume   372.41178677
_cell_formula_units_Z   4
loop_
 _symmetry_equiv_pos_site_id
 _symmetry_equiv_pos_as_xyz
  1  'x, y, z'
loop_
 _atom_site_type_symbol
 _atom_site_label
 _atom_site_symmetry_multiplicity
 _atom_site_fract_x
 _atom_site_fract_y
 _atom_site_fract_z
 _atom_site_occupancy
  Sr  Sr0  1  0.750000  0.000000  0.665319  1
  Sr  Sr1  1  0.250000  0.500000  0.834681  1
  Sr  Sr2  1  0.250000  0.000000  0.334681  1
  Sr  Sr3  1  0.750000  0.500000  0.165319  1
  Ir  Ir4  1  0.750000  0.500000  0.431818  1
  Ir  Ir5  1  0.250000  0.000000  0.068182  1
  Ir  Ir6  1  0.250000  0.500000  0.568182  1
  Ir  Ir7  1  0.750000  0.000000  0.931818  1
  O  O8  1  0.132819  0.282881  0.669791  1
  O  O9  1  0.632819  0.217119  0.830209  1
  O  O10  1  0.867181  0.782881  0.830209  1
  O  O11  1  0.367181  0.717119  0.669791  1
  O  O12  1  0.867181  0.717119  0.330209  1
  O  O13  1  0.367181  0.782881  0.169791  1
  O  O14  1  0.132819  0.217119  0.169791  1
  O  O15  1  0.632819  0.282881  0.330209  1
  O  O16  1  0.562861  0.316299  0.543361  1
  O  O17  1  0.062861  0.183701  0.956639  1
  O  O18  1  0.437139  0.816299  0.956639  1
  O  O19  1  0.937139  0.683701  0.543361  1
  O  O20  1  0.437139  0.683701  0.456639  1
  O  O21  1  0.937139  0.816299  0.043361  1
  O  O22  1  0.562861  0.183701  0.043361  1
  O  O23  1  0.062861  0.316299  0.456639  1
