# generated using pymatgen
data_U4P5Se3
_symmetry_space_group_name_H-M   'P 1'
_cell_length_a   8.79340146
_cell_length_b   8.79340187
_cell_length_c   8.79340136
_cell_angle_alpha   143.34832767
_cell_angle_beta   143.34833069
_cell_angle_gamma   52.80289325
_symmetry_Int_Tables_number   1
_chemical_formula_structural   U4P5Se3
_chemical_formula_sum   'U4 P5 Se3'
_cell_volume   240.83263654
_cell_formula_units_Z   1
loop_
 _symmetry_equiv_pos_site_id
 _symmetry_equiv_pos_as_xyz
  1  'x, y, z'
loop_
 _atom_site_type_symbol
 _atom_site_label
 _atom_site_symmetry_multiplicity
 _atom_site_fract_x
 _atom_site_fract_y
 _atom_site_fract_z
 _atom_site_occupancy
  U  U0  1  0.964826  0.964826  0.000000  1
  U  U1  1  0.510270  0.510270  0.000000  1
  U  U2  1  0.231935  0.731935  0.500000  1
  U  U3  1  0.731935  0.231935  0.500000  1
  P  P4  1  0.690483  0.690483  0.000000  1
  P  P5  1  0.573304  0.573304  0.423220  1
  P  P6  1  0.573304  0.150083  0.000000  1
  P  P7  1  0.150083  0.573304  0.000000  1
  P  P8  1  0.150083  0.150083  0.576780  1
  Se  Se9  1  0.041187  0.541187  0.500000  1
  Se  Se10  1  0.541187  0.041187  0.500000  1
  Se  Se11  1  0.166308  0.166308  0.000000  1
