# generated using pymatgen
data_LaTb2Sm3OsI10
_symmetry_space_group_name_H-M   'P 1'
_cell_length_a   7.93450895
_cell_length_b   9.92948709
_cell_length_c   9.91554688
_cell_angle_alpha   106.84413035
_cell_angle_beta   96.67828394
_cell_angle_gamma   105.48079923
_symmetry_Int_Tables_number   1
_chemical_formula_structural   LaTb2Sm3OsI10
_chemical_formula_sum   'La1 Tb2 Sm3 Os1 I10'
_cell_volume   704.50263760
_cell_formula_units_Z   1
loop_
 _symmetry_equiv_pos_site_id
 _symmetry_equiv_pos_as_xyz
  1  'x, y, z'
loop_
 _atom_site_type_symbol
 _atom_site_label
 _atom_site_symmetry_multiplicity
 _atom_site_fract_x
 _atom_site_fract_y
 _atom_site_fract_z
 _atom_site_occupancy
  La  La0  1  0.614368  0.044017  0.272582  1
  Tb  Tb1  1  0.468732  0.289308  0.586741  1
  Tb  Tb2  1  0.530924  0.711148  0.415409  1
  Sm  Sm3  1  0.856028  0.133060  0.674797  1
  Sm  Sm4  1  0.143215  0.866124  0.325485  1
  Sm  Sm5  1  0.386403  0.956221  0.725918  1
  Os  Os6  1  0.503297  0.001811  0.494767  1
  I  I7  1  0.415553  0.629027  0.676724  1
  I  I8  1  0.581919  0.379421  0.327769  1
  I  I9  1  0.293880  0.258870  0.844690  1
  I  I10  1  0.707924  0.731844  0.155464  1
  I  I11  1  0.846582  0.456118  0.771702  1
  I  I12  1  0.153612  0.543619  0.228571  1
  I  I13  1  0.052248  0.183780  0.414811  1
  I  I14  1  0.234663  0.911495  0.039639  1
  I  I15  1  0.753178  0.084273  0.954624  1
  I  I16  1  0.957474  0.819864  0.590307  1
