# generated using pymatgen
data_TmCu7O12
_symmetry_space_group_name_H-M   'P 1'
_cell_length_a   6.32510061
_cell_length_b   6.32510191
_cell_length_c   6.32510000
_cell_angle_alpha   109.47121771
_cell_angle_beta   109.47122188
_cell_angle_gamma   109.47122428
_symmetry_Int_Tables_number   1
_chemical_formula_structural   TmCu7O12
_chemical_formula_sum   'Tm1 Cu7 O12'
_cell_volume   194.79619093
_cell_formula_units_Z   1
loop_
 _symmetry_equiv_pos_site_id
 _symmetry_equiv_pos_as_xyz
  1  'x, y, z'
loop_
 _atom_site_type_symbol
 _atom_site_label
 _atom_site_symmetry_multiplicity
 _atom_site_fract_x
 _atom_site_fract_y
 _atom_site_fract_z
 _atom_site_occupancy
  Tm  Tm0  1  0.000000  0.000000  0.000000  1
  Cu  Cu1  1  0.000000  0.000000  0.500000  1
  Cu  Cu2  1  0.000000  0.500000  0.000000  1
  Cu  Cu3  1  0.500000  0.000000  0.000000  1
  Cu  Cu4  1  0.500000  0.500000  0.500000  1
  Cu  Cu5  1  0.000000  0.500000  0.500000  1
  Cu  Cu6  1  0.500000  0.000000  0.500000  1
  Cu  Cu7  1  0.500000  0.500000  0.000000  1
  O  O8  1  0.304231  0.136303  0.832072  1
  O  O9  1  0.695769  0.863697  0.167928  1
  O  O10  1  0.695769  0.527840  0.832072  1
  O  O11  1  0.472160  0.167928  0.304231  1
  O  O12  1  0.167928  0.304231  0.472160  1
  O  O13  1  0.832072  0.304231  0.136303  1
  O  O14  1  0.863697  0.167928  0.695769  1
  O  O15  1  0.832072  0.695769  0.527840  1
  O  O16  1  0.304231  0.472160  0.167928  1
  O  O17  1  0.527840  0.832072  0.695769  1
  O  O18  1  0.167928  0.695769  0.863697  1
  O  O19  1  0.136303  0.832072  0.304231  1
