# generated using pymatgen
data_DyHoAl9PtRh2
_symmetry_space_group_name_H-M   'P 1'
_cell_length_a   7.57309135
_cell_length_b   7.57142763
_cell_length_c   9.45898500
_cell_angle_alpha   90.00000000
_cell_angle_beta   90.00000000
_cell_angle_gamma   119.61093205
_symmetry_Int_Tables_number   1
_chemical_formula_structural   DyHoAl9PtRh2
_chemical_formula_sum   'Dy2 Ho2 Al18 Pt2 Rh4'
_cell_volume   471.53667657
_cell_formula_units_Z   2
loop_
 _symmetry_equiv_pos_site_id
 _symmetry_equiv_pos_as_xyz
  1  'x, y, z'
loop_
 _atom_site_type_symbol
 _atom_site_label
 _atom_site_symmetry_multiplicity
 _atom_site_fract_x
 _atom_site_fract_y
 _atom_site_fract_z
 _atom_site_occupancy
  Dy  Dy0  1  0.672801  0.994711  0.750000  1
  Dy  Dy1  1  0.327199  0.005289  0.250000  1
  Ho  Ho2  1  0.994697  0.672859  0.750000  1
  Ho  Ho3  1  0.005303  0.327141  0.250000  1
  Al  Al4  1  0.134699  0.134642  0.750000  1
  Al  Al5  1  0.865301  0.865358  0.250000  1
  Al  Al6  1  0.000211  0.339018  0.575282  1
  Al  Al7  1  0.999789  0.660982  0.424718  1
  Al  Al8  1  0.999789  0.660982  0.075282  1
  Al  Al9  1  0.338592  0.000090  0.924445  1
  Al  Al10  1  0.000211  0.339018  0.924718  1
  Al  Al11  1  0.661408  0.999910  0.075555  1
  Al  Al12  1  0.661408  0.999910  0.424445  1
  Al  Al13  1  0.338592  0.000090  0.575555  1
  Al  Al14  1  0.336784  0.336910  0.053824  1
  Al  Al15  1  0.663216  0.663090  0.946176  1
  Al  Al16  1  0.663216  0.663090  0.553824  1
  Al  Al17  1  0.336784  0.336910  0.446176  1
  Al  Al18  1  0.339655  0.550536  0.750000  1
  Al  Al19  1  0.660345  0.449464  0.250000  1
  Al  Al20  1  0.550788  0.340175  0.750000  1
  Al  Al21  1  0.449212  0.659825  0.250000  1
  Pt  Pt22  1  0.000000  0.000000  0.500000  1
  Pt  Pt23  1  0.000000  0.000000  0.000000  1
  Rh  Rh24  1  0.671582  0.328046  0.499986  1
  Rh  Rh25  1  0.328418  0.671954  0.500014  1
  Rh  Rh26  1  0.328418  0.671954  0.999986  1
  Rh  Rh27  1  0.671582  0.328046  0.000014  1
