# generated using pymatgen
data_Ho2Er8(InSb)3
_symmetry_space_group_name_H-M   'P 1'
_cell_length_a   8.89471376
_cell_length_b   8.88414095
_cell_length_c   6.50596800
_cell_angle_alpha   90.00000000
_cell_angle_beta   90.00000000
_cell_angle_gamma   120.11134947
_symmetry_Int_Tables_number   1
_chemical_formula_structural   Ho2Er8(InSb)3
_chemical_formula_sum   'Ho2 Er8 In3 Sb3'
_cell_volume   444.73528270
_cell_formula_units_Z   1
loop_
 _symmetry_equiv_pos_site_id
 _symmetry_equiv_pos_as_xyz
  1  'x, y, z'
loop_
 _atom_site_type_symbol
 _atom_site_label
 _atom_site_symmetry_multiplicity
 _atom_site_fract_x
 _atom_site_fract_y
 _atom_site_fract_z
 _atom_site_occupancy
  Ho  Ho0  1  0.002383  0.763742  0.750000  1
  Ho  Ho1  1  0.762148  0.999840  0.750000  1
  Er  Er2  1  0.003703  0.238678  0.250000  1
  Er  Er3  1  0.764371  0.761029  0.250000  1
  Er  Er4  1  0.239254  0.235713  0.750000  1
  Er  Er5  1  0.237450  0.000617  0.250000  1
  Er  Er6  1  0.330166  0.665938  0.498616  1
  Er  Er7  1  0.664524  0.333661  0.000727  1
  Er  Er8  1  0.664524  0.333661  0.499273  1
  Er  Er9  1  0.330166  0.665938  0.001384  1
  In  In10  1  0.398026  0.000446  0.750000  1
  In  In11  1  0.395649  0.398153  0.250000  1
  In  In12  1  0.997831  0.602059  0.250000  1
  Sb  Sb13  1  0.997071  0.391938  0.750000  1
  Sb  Sb14  1  0.605421  0.608261  0.750000  1
  Sb  Sb15  1  0.607313  0.000326  0.250000  1
