# generated using pymatgen
data_SmErB6Ru
_symmetry_space_group_name_H-M   'P 1'
_cell_length_a   3.68123000
_cell_length_b   9.16346200
_cell_length_c   11.56958600
_cell_angle_alpha   90.00000000
_cell_angle_beta   90.00000000
_cell_angle_gamma   90.00000000
_symmetry_Int_Tables_number   1
_chemical_formula_structural   SmErB6Ru
_chemical_formula_sum   'Sm4 Er4 B24 Ru4'
_cell_volume   390.27466041
_cell_formula_units_Z   4
loop_
 _symmetry_equiv_pos_site_id
 _symmetry_equiv_pos_as_xyz
  1  'x, y, z'
loop_
 _atom_site_type_symbol
 _atom_site_label
 _atom_site_symmetry_multiplicity
 _atom_site_fract_x
 _atom_site_fract_y
 _atom_site_fract_z
 _atom_site_occupancy
  Sm  Sm0  1  0.000000  0.322683  0.414360  1
  Sm  Sm1  1  0.000000  0.677317  0.585640  1
  Sm  Sm2  1  0.000000  0.822683  0.085640  1
  Sm  Sm3  1  0.000000  0.177317  0.914360  1
  Er  Er4  1  0.000000  0.944102  0.372049  1
  Er  Er5  1  0.000000  0.055898  0.627951  1
  Er  Er6  1  0.000000  0.444102  0.127951  1
  Er  Er7  1  0.000000  0.555898  0.872049  1
  B  B8  1  0.500000  0.555647  0.431306  1
  B  B9  1  0.500000  0.444353  0.568694  1
  B  B10  1  0.500000  0.055647  0.068694  1
  B  B11  1  0.500000  0.944353  0.931306  1
  B  B12  1  0.500000  0.749660  0.418118  1
  B  B13  1  0.500000  0.250340  0.581882  1
  B  B14  1  0.500000  0.249660  0.081882  1
  B  B15  1  0.500000  0.750340  0.918118  1
  B  B16  1  0.500000  0.791198  0.266426  1
  B  B17  1  0.500000  0.208802  0.733574  1
  B  B18  1  0.500000  0.291198  0.233574  1
  B  B19  1  0.500000  0.708802  0.766426  1
  B  B20  1  0.500000  0.631104  0.184813  1
  B  B21  1  0.500000  0.368896  0.815187  1
  B  B22  1  0.500000  0.131104  0.315187  1
  B  B23  1  0.500000  0.868896  0.684813  1
  B  B24  1  0.500000  0.985057  0.213785  1
  B  B25  1  0.500000  0.014943  0.786215  1
  B  B26  1  0.500000  0.485057  0.286215  1
  B  B27  1  0.500000  0.514943  0.713785  1
  B  B28  1  0.500000  0.603569  0.028315  1
  B  B29  1  0.500000  0.396431  0.971685  1
  B  B30  1  0.500000  0.103569  0.471685  1
  B  B31  1  0.500000  0.896431  0.528315  1
  Ru  Ru32  1  0.000000  0.639248  0.319655  1
  Ru  Ru33  1  0.000000  0.360752  0.680345  1
  Ru  Ru34  1  0.000000  0.139248  0.180345  1
  Ru  Ru35  1  0.000000  0.860752  0.819655  1
