# generated using pymatgen
data_Tb3SmTh4(AlRh)8
_symmetry_space_group_name_H-M   'P 1'
_cell_length_a   4.23087900
_cell_length_b   7.11187279
_cell_length_c   16.11162197
_cell_angle_alpha   89.96772133
_cell_angle_beta   90.00000000
_cell_angle_gamma   90.00000000
_symmetry_Int_Tables_number   1
_chemical_formula_structural   Tb3SmTh4(AlRh)8
_chemical_formula_sum   'Tb3 Sm1 Th4 Al8 Rh8'
_cell_volume   484.79014092
_cell_formula_units_Z   1
loop_
 _symmetry_equiv_pos_site_id
 _symmetry_equiv_pos_as_xyz
  1  'x, y, z'
loop_
 _atom_site_type_symbol
 _atom_site_label
 _atom_site_symmetry_multiplicity
 _atom_site_fract_x
 _atom_site_fract_y
 _atom_site_fract_z
 _atom_site_occupancy
  Tb  Tb0  1  0.250000  0.656903  0.558098  1
  Tb  Tb1  1  0.750000  0.341339  0.441253  1
  Tb  Tb2  1  0.750000  0.842363  0.060142  1
  Sm  Sm3  1  0.250000  0.157509  0.941299  1
  Th  Th4  1  0.250000  0.529907  0.778326  1
  Th  Th5  1  0.750000  0.470386  0.221650  1
  Th  Th6  1  0.750000  0.969019  0.280537  1
  Th  Th7  1  0.250000  0.030729  0.719001  1
  Al  Al8  1  0.250000  0.638875  0.356277  1
  Al  Al9  1  0.750000  0.359520  0.643129  1
  Al  Al10  1  0.750000  0.857399  0.854236  1
  Al  Al11  1  0.250000  0.141235  0.146145  1
  Al  Al12  1  0.250000  0.508307  0.061143  1
  Al  Al13  1  0.750000  0.495410  0.940049  1
  Al  Al14  1  0.750000  0.992546  0.559326  1
  Al  Al15  1  0.250000  0.005264  0.440175  1
  Rh  Rh16  1  0.250000  0.757557  0.186216  1
  Rh  Rh17  1  0.750000  0.246031  0.811594  1
  Rh  Rh18  1  0.750000  0.743740  0.684760  1
  Rh  Rh19  1  0.250000  0.255619  0.315699  1
  Rh  Rh20  1  0.250000  0.721851  0.928515  1
  Rh  Rh21  1  0.750000  0.279587  0.073316  1
  Rh  Rh22  1  0.750000  0.773919  0.429477  1
  Rh  Rh23  1  0.250000  0.224983  0.569641  1
