# generated using pymatgen
data_Y3Th(MgRh)4
_symmetry_space_group_name_H-M   'P 1'
_cell_length_a   4.09289900
_cell_length_b   7.15264050
_cell_length_c   8.67187750
_cell_angle_alpha   90.89311991
_cell_angle_beta   90.00000000
_cell_angle_gamma   90.00000000
_symmetry_Int_Tables_number   1
_chemical_formula_structural   Y3Th(MgRh)4
_chemical_formula_sum   'Y3 Th1 Mg4 Rh4'
_cell_volume   253.83867641
_cell_formula_units_Z   1
loop_
 _symmetry_equiv_pos_site_id
 _symmetry_equiv_pos_as_xyz
  1  'x, y, z'
loop_
 _atom_site_type_symbol
 _atom_site_label
 _atom_site_symmetry_multiplicity
 _atom_site_fract_x
 _atom_site_fract_y
 _atom_site_fract_z
 _atom_site_occupancy
  Y  Y0  1  0.750000  0.463670  0.816976  1
  Y  Y1  1  0.750000  0.961254  0.678498  1
  Y  Y2  1  0.250000  0.035030  0.327236  1
  Th  Th3  1  0.250000  0.536498  0.179031  1
  Mg  Mg4  1  0.250000  0.635279  0.561735  1
  Mg  Mg5  1  0.750000  0.357055  0.446369  1
  Mg  Mg6  1  0.750000  0.875707  0.058180  1
  Mg  Mg7  1  0.250000  0.137514  0.937259  1
  Rh  Rh8  1  0.250000  0.749315  0.878489  1
  Rh  Rh9  1  0.750000  0.264521  0.126355  1
  Rh  Rh10  1  0.750000  0.739271  0.361596  1
  Rh  Rh11  1  0.250000  0.244885  0.628276  1
