# generated using pymatgen
data_HoNpB6W
_symmetry_space_group_name_H-M   'P 1'
_cell_length_a   3.59444900
_cell_length_b   9.35769100
_cell_length_c   11.42721000
_cell_angle_alpha   90.00000000
_cell_angle_beta   90.00000000
_cell_angle_gamma   90.00000000
_symmetry_Int_Tables_number   1
_chemical_formula_structural   HoNpB6W
_chemical_formula_sum   'Ho4 Np4 B24 W4'
_cell_volume   384.36269942
_cell_formula_units_Z   4
loop_
 _symmetry_equiv_pos_site_id
 _symmetry_equiv_pos_as_xyz
  1  'x, y, z'
loop_
 _atom_site_type_symbol
 _atom_site_label
 _atom_site_symmetry_multiplicity
 _atom_site_fract_x
 _atom_site_fract_y
 _atom_site_fract_z
 _atom_site_occupancy
  Ho  Ho0  1  0.000000  0.337650  0.407875  1
  Ho  Ho1  1  0.000000  0.662350  0.592125  1
  Ho  Ho2  1  0.000000  0.837650  0.092125  1
  Ho  Ho3  1  0.000000  0.162350  0.907875  1
  Np  Np4  1  0.000000  0.959138  0.400942  1
  Np  Np5  1  0.000000  0.040862  0.599058  1
  Np  Np6  1  0.000000  0.459138  0.099058  1
  Np  Np7  1  0.000000  0.540862  0.900942  1
  B  B8  1  0.500000  0.551590  0.432422  1
  B  B9  1  0.500000  0.448410  0.567578  1
  B  B10  1  0.500000  0.051590  0.067578  1
  B  B11  1  0.500000  0.948410  0.932422  1
  B  B12  1  0.500000  0.746563  0.424357  1
  B  B13  1  0.500000  0.253437  0.575643  1
  B  B14  1  0.500000  0.246563  0.075643  1
  B  B15  1  0.500000  0.753437  0.924357  1
  B  B16  1  0.500000  0.806771  0.275266  1
  B  B17  1  0.500000  0.193229  0.724734  1
  B  B18  1  0.500000  0.306771  0.224734  1
  B  B19  1  0.500000  0.693229  0.775266  1
  B  B20  1  0.500000  0.644399  0.186352  1
  B  B21  1  0.500000  0.355601  0.813648  1
  B  B22  1  0.500000  0.144399  0.313648  1
  B  B23  1  0.500000  0.855601  0.686352  1
  B  B24  1  0.500000  0.987528  0.221663  1
  B  B25  1  0.500000  0.012472  0.778337  1
  B  B26  1  0.500000  0.487528  0.278337  1
  B  B27  1  0.500000  0.512472  0.721663  1
  B  B28  1  0.500000  0.638632  0.038495  1
  B  B29  1  0.500000  0.361368  0.961505  1
  B  B30  1  0.500000  0.138632  0.461505  1
  B  B31  1  0.500000  0.861368  0.538495  1
  W  W32  1  0.000000  0.647376  0.317912  1
  W  W33  1  0.000000  0.352624  0.682088  1
  W  W34  1  0.000000  0.147376  0.182088  1
  W  W35  1  0.000000  0.852624  0.817912  1
