# generated using pymatgen
data_Ba3HoPd2O9
_symmetry_space_group_name_H-M   'P 1'
_cell_length_a   5.93955201
_cell_length_b   5.93902383
_cell_length_c   14.91100300
_cell_angle_alpha   90.00000000
_cell_angle_beta   90.00000000
_cell_angle_gamma   119.99517687
_symmetry_Int_Tables_number   1
_chemical_formula_structural   Ba3HoPd2O9
_chemical_formula_sum   'Ba6 Ho2 Pd4 O18'
_cell_volume   455.54087554
_cell_formula_units_Z   2
loop_
 _symmetry_equiv_pos_site_id
 _symmetry_equiv_pos_as_xyz
  1  'x, y, z'
loop_
 _atom_site_type_symbol
 _atom_site_label
 _atom_site_symmetry_multiplicity
 _atom_site_fract_x
 _atom_site_fract_y
 _atom_site_fract_z
 _atom_site_occupancy
  Ba  Ba0  1  0.333335  0.666662  0.591301  1
  Ba  Ba1  1  0.666665  0.333338  0.091301  1
  Ba  Ba2  1  0.666665  0.333338  0.408699  1
  Ba  Ba3  1  0.333335  0.666662  0.908699  1
  Ba  Ba4  1  0.999955  0.000003  0.750000  1
  Ba  Ba5  1  0.000045  0.999997  0.250000  1
  Ho  Ho6  1  0.000000  0.000000  0.000000  1
  Ho  Ho7  1  0.000000  0.000000  0.500000  1
  Pd  Pd8  1  0.666647  0.333269  0.659226  1
  Pd  Pd9  1  0.333353  0.666731  0.159226  1
  Pd  Pd10  1  0.666647  0.333269  0.840774  1
  Pd  Pd11  1  0.333353  0.666731  0.340774  1
  O  O12  1  0.173005  0.827015  0.085212  1
  O  O13  1  0.172984  0.346056  0.085213  1
  O  O14  1  0.653974  0.827041  0.085214  1
  O  O15  1  0.346026  0.172959  0.585214  1
  O  O16  1  0.827016  0.653944  0.914787  1
  O  O17  1  0.826995  0.172985  0.585212  1
  O  O18  1  0.827016  0.653944  0.585213  1
  O  O19  1  0.173005  0.827015  0.414788  1
  O  O20  1  0.653974  0.827041  0.414786  1
  O  O21  1  0.346026  0.172959  0.914786  1
  O  O22  1  0.826995  0.172985  0.914788  1
  O  O23  1  0.172984  0.346056  0.414787  1
  O  O24  1  0.483985  0.968011  0.250000  1
  O  O25  1  0.516013  0.484003  0.750000  1
  O  O26  1  0.967877  0.483918  0.750000  1
  O  O27  1  0.032123  0.516082  0.250000  1
  O  O28  1  0.483987  0.515997  0.250000  1
  O  O29  1  0.516015  0.031989  0.750000  1
