# generated using pymatgen
data_Tb3AuO6
_symmetry_space_group_name_H-M   'P 1'
_cell_length_a   3.64096837
_cell_length_b   5.59521564
_cell_length_c   7.09356030
_cell_angle_alpha   90.15963239
_cell_angle_beta   102.58946875
_cell_angle_gamma   91.13173139
_symmetry_Int_Tables_number   1
_chemical_formula_structural   Tb3AuO6
_chemical_formula_sum   'Tb3 Au1 O6'
_cell_volume   141.00431933
_cell_formula_units_Z   1
loop_
 _symmetry_equiv_pos_site_id
 _symmetry_equiv_pos_as_xyz
  1  'x, y, z'
loop_
 _atom_site_type_symbol
 _atom_site_label
 _atom_site_symmetry_multiplicity
 _atom_site_fract_x
 _atom_site_fract_y
 _atom_site_fract_z
 _atom_site_occupancy
  Tb  Tb0  1  0.610502  0.529748  0.763428  1
  Tb  Tb1  1  0.389498  0.470252  0.236572  1
  Tb  Tb2  1  0.000000  0.000000  0.500000  1
  Au  Au3  1  0.000000  0.000000  0.000000  1
  O  O4  1  0.839917  0.686837  0.111364  1
  O  O5  1  0.160083  0.313163  0.888636  1
  O  O6  1  0.519866  0.256121  0.526163  1
  O  O7  1  0.480134  0.743879  0.473837  1
  O  O8  1  0.125334  0.795190  0.787158  1
  O  O9  1  0.874666  0.204810  0.212842  1
