# generated using pymatgen
data_Ca10TaTcN10
_symmetry_space_group_name_H-M   'P 1'
_cell_length_a   6.93268991
_cell_length_b   6.93268836
_cell_length_c   8.94970314
_cell_angle_alpha   80.17244830
_cell_angle_beta   80.17244105
_cell_angle_gamma   59.69716559
_symmetry_Int_Tables_number   1
_chemical_formula_structural   Ca10TaTcN10
_chemical_formula_sum   'Ca10 Ta1 Tc1 N10'
_cell_volume   364.11031731
_cell_formula_units_Z   1
loop_
 _symmetry_equiv_pos_site_id
 _symmetry_equiv_pos_as_xyz
  1  'x, y, z'
loop_
 _atom_site_type_symbol
 _atom_site_label
 _atom_site_symmetry_multiplicity
 _atom_site_fract_x
 _atom_site_fract_y
 _atom_site_fract_z
 _atom_site_occupancy
  Ca  Ca0  1  0.876205  0.350294  0.830796  1
  Ca  Ca1  1  0.874549  0.874549  0.822445  1
  Ca  Ca2  1  0.739880  0.739880  0.524525  1
  Ca  Ca3  1  0.754170  0.248524  0.505894  1
  Ca  Ca4  1  0.631522  0.134435  0.150893  1
  Ca  Ca5  1  0.350294  0.876205  0.830796  1
  Ca  Ca6  1  0.248524  0.754170  0.505894  1
  Ca  Ca7  1  0.243264  0.243264  0.494756  1
  Ca  Ca8  1  0.139766  0.139766  0.159153  1
  Ca  Ca9  1  0.134435  0.631522  0.150893  1
  Ta  Ta10  1  0.369146  0.369146  0.776604  1
  Tc  Tc11  1  0.630733  0.630733  0.225029  1
  N  N12  1  0.906943  0.474818  0.319004  1
  N  N13  1  0.996528  0.996528  0.014376  1
  N  N14  1  0.677302  0.677302  0.019862  1
  N  N15  1  0.535567  0.535567  0.694041  1
  N  N16  1  0.474818  0.906943  0.319004  1
  N  N17  1  0.537356  0.084598  0.679671  1
  N  N18  1  0.473644  0.473644  0.298272  1
  N  N19  1  0.320858  0.320858  0.998194  1
  N  N20  1  0.062187  0.062187  0.646032  1
  N  N21  1  0.084598  0.537356  0.679671  1
