# generated using pymatgen
data_Tb3Al12TcIr3
_symmetry_space_group_name_H-M   'P 1'
_cell_length_a   8.83973600
_cell_length_b   8.83973605
_cell_length_c   9.54922500
_cell_angle_alpha   90.00000000
_cell_angle_beta   90.00000000
_cell_angle_gamma   119.99999980
_symmetry_Int_Tables_number   1
_chemical_formula_structural   Tb3Al12TcIr3
_chemical_formula_sum   'Tb6 Al24 Tc2 Ir6'
_cell_volume   646.21547128
_cell_formula_units_Z   2
loop_
 _symmetry_equiv_pos_site_id
 _symmetry_equiv_pos_as_xyz
  1  'x, y, z'
loop_
 _atom_site_type_symbol
 _atom_site_label
 _atom_site_symmetry_multiplicity
 _atom_site_fract_x
 _atom_site_fract_y
 _atom_site_fract_z
 _atom_site_occupancy
  Tb  Tb0  1  0.383900  0.191949  0.250000  1
  Tb  Tb1  1  0.808051  0.191949  0.250000  1
  Tb  Tb2  1  0.808051  0.616100  0.250000  1
  Tb  Tb3  1  0.616100  0.808051  0.750000  1
  Tb  Tb4  1  0.191949  0.808051  0.750000  1
  Tb  Tb5  1  0.191949  0.383900  0.750000  1
  Al  Al6  1  0.436747  0.873494  0.250000  1
  Al  Al7  1  0.126506  0.563253  0.250000  1
  Al  Al8  1  0.436747  0.563253  0.250000  1
  Al  Al9  1  0.563253  0.126506  0.750000  1
  Al  Al10  1  0.873494  0.436747  0.750000  1
  Al  Al11  1  0.563253  0.436747  0.750000  1
  Al  Al12  1  0.163146  0.836854  0.424832  1
  Al  Al13  1  0.163146  0.326292  0.424832  1
  Al  Al14  1  0.673708  0.836854  0.424832  1
  Al  Al15  1  0.836854  0.163146  0.575168  1
  Al  Al16  1  0.836854  0.673708  0.575168  1
  Al  Al17  1  0.326292  0.163146  0.575168  1
  Al  Al18  1  0.836854  0.163146  0.924832  1
  Al  Al19  1  0.836854  0.673708  0.924832  1
  Al  Al20  1  0.326292  0.163146  0.924832  1
  Al  Al21  1  0.163146  0.836854  0.075168  1
  Al  Al22  1  0.163146  0.326292  0.075168  1
  Al  Al23  1  0.673708  0.836854  0.075168  1
  Al  Al24  1  0.333333  0.666667  0.528325  1
  Al  Al25  1  0.666667  0.333333  0.471675  1
  Al  Al26  1  0.666667  0.333333  0.028325  1
  Al  Al27  1  0.333333  0.666667  0.971675  1
  Al  Al28  1  0.000000  0.000000  0.250000  1
  Al  Al29  1  0.000000  0.000000  0.750000  1
  Tc  Tc30  1  0.000000  0.000000  0.500000  1
  Tc  Tc31  1  0.000000  0.000000  0.000000  1
  Ir  Ir32  1  0.500000  0.000000  0.500000  1
  Ir  Ir33  1  0.000000  0.500000  0.500000  1
  Ir  Ir34  1  0.500000  0.500000  0.500000  1
  Ir  Ir35  1  0.500000  0.000000  0.000000  1
  Ir  Ir36  1  0.000000  0.500000  0.000000  1
  Ir  Ir37  1  0.500000  0.500000  0.000000  1
