# generated using pymatgen
data_Pr6TeO12
_symmetry_space_group_name_H-M   'P 1'
_cell_length_a   6.80849706
_cell_length_b   6.80849687
_cell_length_c   6.80849797
_cell_angle_alpha   98.63854588
_cell_angle_beta   98.63855068
_cell_angle_gamma   98.63854454
_symmetry_Int_Tables_number   1
_chemical_formula_structural   Pr6TeO12
_chemical_formula_sum   'Pr6 Te1 O12'
_cell_volume   303.63508064
_cell_formula_units_Z   1
loop_
 _symmetry_equiv_pos_site_id
 _symmetry_equiv_pos_as_xyz
  1  'x, y, z'
loop_
 _atom_site_type_symbol
 _atom_site_label
 _atom_site_symmetry_multiplicity
 _atom_site_fract_x
 _atom_site_fract_y
 _atom_site_fract_z
 _atom_site_occupancy
  Pr  Pr0  1  0.855214  0.391260  0.690196  1
  Pr  Pr1  1  0.608740  0.309804  0.144786  1
  Pr  Pr2  1  0.309804  0.144786  0.608740  1
  Pr  Pr3  1  0.690196  0.855214  0.391260  1
  Pr  Pr4  1  0.391260  0.690196  0.855214  1
  Pr  Pr5  1  0.144786  0.608740  0.309804  1
  Te  Te6  1  0.000000  0.000000  0.000000  1
  O  O7  1  0.931395  0.031289  0.713146  1
  O  O8  1  0.968711  0.286854  0.068605  1
  O  O9  1  0.593831  0.177670  0.439539  1
  O  O10  1  0.822330  0.560461  0.406169  1
  O  O11  1  0.286854  0.068605  0.968711  1
  O  O12  1  0.560461  0.406169  0.822330  1
  O  O13  1  0.439539  0.593831  0.177670  1
  O  O14  1  0.713146  0.931395  0.031289  1
  O  O15  1  0.177670  0.439539  0.593831  1
  O  O16  1  0.406169  0.822330  0.560461  1
  O  O17  1  0.031289  0.713146  0.931395  1
  O  O18  1  0.068605  0.968711  0.286854  1
