# generated using pymatgen
data_YbCo4TcP3
_symmetry_space_group_name_H-M   'P 1'
_cell_length_a   3.69295600
_cell_length_b   10.31780100
_cell_length_c   11.77412700
_cell_angle_alpha   90.00000000
_cell_angle_beta   90.00000000
_cell_angle_gamma   90.00000000
_symmetry_Int_Tables_number   1
_chemical_formula_structural   YbCo4TcP3
_chemical_formula_sum   'Yb4 Co16 Tc4 P12'
_cell_volume   448.63174059
_cell_formula_units_Z   4
loop_
 _symmetry_equiv_pos_site_id
 _symmetry_equiv_pos_as_xyz
  1  'x, y, z'
loop_
 _atom_site_type_symbol
 _atom_site_label
 _atom_site_symmetry_multiplicity
 _atom_site_fract_x
 _atom_site_fract_y
 _atom_site_fract_z
 _atom_site_occupancy
  Yb  Yb0  1  0.250000  0.583187  0.704583  1
  Yb  Yb1  1  0.250000  0.916813  0.204583  1
  Yb  Yb2  1  0.750000  0.416813  0.295417  1
  Yb  Yb3  1  0.750000  0.083187  0.795417  1
  Co  Co4  1  0.250000  0.406549  0.489189  1
  Co  Co5  1  0.250000  0.093451  0.989189  1
  Co  Co6  1  0.750000  0.593451  0.510811  1
  Co  Co7  1  0.750000  0.906549  0.010811  1
  Co  Co8  1  0.250000  0.220107  0.176400  1
  Co  Co9  1  0.250000  0.279893  0.676400  1
  Co  Co10  1  0.750000  0.779893  0.823600  1
  Co  Co11  1  0.750000  0.720107  0.323600  1
  Co  Co12  1  0.250000  0.886046  0.700981  1
  Co  Co13  1  0.250000  0.613954  0.200981  1
  Co  Co14  1  0.750000  0.113954  0.299019  1
  Co  Co15  1  0.750000  0.386046  0.799019  1
  Co  Co16  1  0.250000  0.465194  0.933345  1
  Co  Co17  1  0.250000  0.034806  0.433345  1
  Co  Co18  1  0.750000  0.534806  0.066655  1
  Co  Co19  1  0.750000  0.965194  0.566655  1
  Tc  Tc20  1  0.250000  0.708849  0.988206  1
  Tc  Tc21  1  0.250000  0.791151  0.488206  1
  Tc  Tc22  1  0.750000  0.291151  0.011794  1
  Tc  Tc23  1  0.750000  0.208849  0.511794  1
  P  P24  1  0.250000  0.419575  0.115444  1
  P  P25  1  0.250000  0.080425  0.615444  1
  P  P26  1  0.750000  0.580425  0.884556  1
  P  P27  1  0.750000  0.919575  0.384556  1
  P  P28  1  0.250000  0.268417  0.865041  1
  P  P29  1  0.250000  0.231583  0.365041  1
  P  P30  1  0.750000  0.731583  0.134959  1
  P  P31  1  0.750000  0.768417  0.634959  1
  P  P32  1  0.250000  0.595975  0.391247  1
  P  P33  1  0.250000  0.904025  0.891247  1
  P  P34  1  0.750000  0.404025  0.608753  1
  P  P35  1  0.750000  0.095975  0.108753  1
