# generated using pymatgen
data_Gd8Sc12GePb15
_symmetry_space_group_name_H-M   'P 1'
_cell_length_a   8.02321300
_cell_length_b   8.08959197
_cell_length_c   15.08557300
_cell_angle_alpha   90.00000000
_cell_angle_beta   90.00000000
_cell_angle_gamma   90.19730896
_symmetry_Int_Tables_number   1
_chemical_formula_structural   Gd8Sc12GePb15
_chemical_formula_sum   'Gd8 Sc12 Ge1 Pb15'
_cell_volume   979.11606028
_cell_formula_units_Z   1
loop_
 _symmetry_equiv_pos_site_id
 _symmetry_equiv_pos_as_xyz
  1  'x, y, z'
loop_
 _atom_site_type_symbol
 _atom_site_label
 _atom_site_symmetry_multiplicity
 _atom_site_fract_x
 _atom_site_fract_y
 _atom_site_fract_z
 _atom_site_occupancy
  Gd  Gd0  1  0.985774  0.175759  0.093038  1
  Gd  Gd1  1  0.005305  0.814370  0.899013  1
  Gd  Gd2  1  0.523851  0.674508  0.903367  1
  Gd  Gd3  1  0.005305  0.814370  0.600987  1
  Gd  Gd4  1  0.482479  0.324874  0.094548  1
  Gd  Gd5  1  0.985774  0.175759  0.406962  1
  Gd  Gd6  1  0.482479  0.324874  0.405452  1
  Gd  Gd7  1  0.523851  0.674508  0.596633  1
  Sc  Sc8  1  0.168356  0.498511  0.750000  1
  Sc  Sc9  1  0.824922  0.505453  0.250000  1
  Sc  Sc10  1  0.323533  0.993378  0.250000  1
  Sc  Sc11  1  0.683199  0.994000  0.750000  1
  Sc  Sc12  1  0.346326  0.153900  0.627299  1
  Sc  Sc13  1  0.654396  0.846232  0.372176  1
  Sc  Sc14  1  0.156543  0.652938  0.372739  1
  Sc  Sc15  1  0.654396  0.846232  0.127824  1
  Sc  Sc16  1  0.842261  0.359037  0.629166  1
  Sc  Sc17  1  0.346326  0.153900  0.872701  1
  Sc  Sc18  1  0.842261  0.359037  0.870834  1
  Sc  Sc19  1  0.156543  0.652938  0.127261  1
  Ge  Ge20  1  0.827231  0.651154  0.750000  1
  Pb  Pb21  1  0.191788  0.455998  0.544593  1
  Pb  Pb22  1  0.809193  0.545062  0.453987  1
  Pb  Pb23  1  0.309842  0.954149  0.456444  1
  Pb  Pb24  1  0.809193  0.545062  0.046013  1
  Pb  Pb25  1  0.690514  0.048352  0.544666  1
  Pb  Pb26  1  0.191788  0.455998  0.955407  1
  Pb  Pb27  1  0.690514  0.048352  0.955334  1
  Pb  Pb28  1  0.309842  0.954149  0.043556  1
  Pb  Pb29  1  0.032562  0.134194  0.750000  1
  Pb  Pb30  1  0.966643  0.869282  0.250000  1
  Pb  Pb31  1  0.465130  0.630355  0.250000  1
  Pb  Pb32  1  0.534836  0.371067  0.750000  1
  Pb  Pb33  1  0.322591  0.843230  0.750000  1
  Pb  Pb34  1  0.677944  0.156485  0.250000  1
  Pb  Pb35  1  0.176513  0.342539  0.250000  1
