# generated using pymatgen
data_Lu4Al13Ga4SiIr6
_symmetry_space_group_name_H-M   'P 1'
_cell_length_a   7.50651166
_cell_length_b   7.51126358
_cell_length_c   9.40919300
_cell_angle_alpha   90.00000000
_cell_angle_beta   90.00000000
_cell_angle_gamma   119.79220303
_symmetry_Int_Tables_number   1
_chemical_formula_structural   Lu4Al13Ga4SiIr6
_chemical_formula_sum   'Lu4 Al13 Ga4 Si1 Ir6'
_cell_volume   460.40469168
_cell_formula_units_Z   1
loop_
 _symmetry_equiv_pos_site_id
 _symmetry_equiv_pos_as_xyz
  1  'x, y, z'
loop_
 _atom_site_type_symbol
 _atom_site_label
 _atom_site_symmetry_multiplicity
 _atom_site_fract_x
 _atom_site_fract_y
 _atom_site_fract_z
 _atom_site_occupancy
  Lu  Lu0  1  0.998690  0.676520  0.250000  1
  Lu  Lu1  1  0.003492  0.332802  0.750000  1
  Lu  Lu2  1  0.673415  0.994865  0.250000  1
  Lu  Lu3  1  0.332506  0.002395  0.750000  1
  Al  Al4  1  0.999453  0.336142  0.077690  1
  Al  Al5  1  0.997684  0.666434  0.925670  1
  Al  Al6  1  0.997684  0.666434  0.574330  1
  Al  Al7  1  0.336857  0.000294  0.422532  1
  Al  Al8  1  0.999453  0.336142  0.422310  1
  Al  Al9  1  0.666581  0.998233  0.574103  1
  Al  Al10  1  0.666581  0.998233  0.925897  1
  Al  Al11  1  0.336857  0.000294  0.077468  1
  Al  Al12  1  0.332087  0.331957  0.557435  1
  Al  Al13  1  0.663659  0.663214  0.438671  1
  Al  Al14  1  0.663659  0.663214  0.061329  1
  Al  Al15  1  0.332087  0.331957  0.942565  1
  Al  Al16  1  0.549730  0.335452  0.250000  1
  Ga  Ga17  1  0.879531  0.879597  0.750000  1
  Ga  Ga18  1  0.335909  0.549110  0.250000  1
  Ga  Ga19  1  0.661220  0.452859  0.750000  1
  Ga  Ga20  1  0.453113  0.660510  0.750000  1
  Si  Si21  1  0.128649  0.128878  0.250000  1
  Ir  Ir22  1  0.669951  0.326316  0.001908  1
  Ir  Ir23  1  0.325711  0.671023  0.999442  1
  Ir  Ir24  1  0.325711  0.671023  0.500558  1
  Ir  Ir25  1  0.669951  0.326316  0.498092  1
  Ir  Ir26  1  0.999891  0.999895  0.010690  1
  Ir  Ir27  1  0.999891  0.999895  0.489310  1
