# generated using pymatgen
data_LaZnCuPd3
_symmetry_space_group_name_H-M   'P 1'
_cell_length_a   5.33620325
_cell_length_b   5.39010885
_cell_length_c   4.42931400
_cell_angle_alpha   90.00000000
_cell_angle_beta   90.00000000
_cell_angle_gamma   122.25430793
_symmetry_Int_Tables_number   1
_chemical_formula_structural   LaZnCuPd3
_chemical_formula_sum   'La1 Zn1 Cu1 Pd3'
_cell_volume   107.73985357
_cell_formula_units_Z   1
loop_
 _symmetry_equiv_pos_site_id
 _symmetry_equiv_pos_as_xyz
  1  'x, y, z'
loop_
 _atom_site_type_symbol
 _atom_site_label
 _atom_site_symmetry_multiplicity
 _atom_site_fract_x
 _atom_site_fract_y
 _atom_site_fract_z
 _atom_site_occupancy
  La  La0  1  0.000000  0.000000  0.000000  1
  Zn  Zn1  1  0.000000  0.500000  0.500000  1
  Cu  Cu2  1  0.500000  0.000000  0.500000  1
  Pd  Pd3  1  0.324476  0.678936  0.000000  1
  Pd  Pd4  1  0.675524  0.321064  0.000000  1
  Pd  Pd5  1  0.500000  0.500000  0.500000  1
