# generated using pymatgen
data_CeDy2(GaNi)3
_symmetry_space_group_name_H-M   'P 1'
_cell_length_a   7.10011900
_cell_length_b   7.03304256
_cell_length_c   3.75987200
_cell_angle_alpha   90.00000000
_cell_angle_beta   90.00000000
_cell_angle_gamma   120.31599230
_symmetry_Int_Tables_number   1
_chemical_formula_structural   CeDy2(GaNi)3
_chemical_formula_sum   'Ce1 Dy2 Ga3 Ni3'
_cell_volume   162.07681052
_cell_formula_units_Z   1
loop_
 _symmetry_equiv_pos_site_id
 _symmetry_equiv_pos_as_xyz
  1  'x, y, z'
loop_
 _atom_site_type_symbol
 _atom_site_label
 _atom_site_symmetry_multiplicity
 _atom_site_fract_x
 _atom_site_fract_y
 _atom_site_fract_z
 _atom_site_occupancy
  Ce  Ce0  1  0.581331  0.000000  0.500000  1
  Dy  Dy1  1  0.002050  0.588374  0.500000  1
  Dy  Dy2  1  0.413676  0.411626  0.500000  1
  Ga  Ga3  1  0.236251  0.000000  0.000000  1
  Ga  Ga4  1  0.755786  0.750065  0.000000  1
  Ga  Ga5  1  0.005721  0.249935  0.000000  1
  Ni  Ni6  1  0.664988  0.318750  0.000000  1
  Ni  Ni7  1  0.346237  0.681250  0.000000  1
  Ni  Ni8  1  0.993960  0.000000  0.500000  1
