# generated using pymatgen
data_HoEr5Tm2Re2(B12Ir)2
_symmetry_space_group_name_H-M   'P 1'
_cell_length_a   3.64403900
_cell_length_b   9.10744483
_cell_length_c   11.49484309
_cell_angle_alpha   90.32219138
_cell_angle_beta   90.00000000
_cell_angle_gamma   90.00000000
_symmetry_Int_Tables_number   1
_chemical_formula_structural   HoEr5Tm2Re2(B12Ir)2
_chemical_formula_sum   'Ho1 Er5 Tm2 Re2 B24 Ir2'
_cell_volume   381.48348918
_cell_formula_units_Z   1
loop_
 _symmetry_equiv_pos_site_id
 _symmetry_equiv_pos_as_xyz
  1  'x, y, z'
loop_
 _atom_site_type_symbol
 _atom_site_label
 _atom_site_symmetry_multiplicity
 _atom_site_fract_x
 _atom_site_fract_y
 _atom_site_fract_z
 _atom_site_occupancy
  Ho  Ho0  1  0.000000  0.316912  0.409839  1
  Er  Er1  1  0.000000  0.683500  0.590366  1
  Er  Er2  1  0.000000  0.826224  0.082104  1
  Er  Er3  1  0.000000  0.173744  0.917843  1
  Er  Er4  1  0.000000  0.946002  0.372272  1
  Er  Er5  1  0.000000  0.053868  0.627771  1
  Tm  Tm6  1  0.000000  0.441666  0.125558  1
  Tm  Tm7  1  0.000000  0.558354  0.874408  1
  Re  Re8  1  0.000000  0.138316  0.179724  1
  Re  Re9  1  0.000000  0.861478  0.820101  1
  B  B10  1  0.500000  0.554197  0.434201  1
  B  B11  1  0.500000  0.446139  0.566011  1
  B  B12  1  0.500000  0.053067  0.066875  1
  B  B13  1  0.500000  0.946834  0.933018  1
  B  B14  1  0.500000  0.749582  0.421454  1
  B  B15  1  0.500000  0.250380  0.578839  1
  B  B16  1  0.500000  0.248436  0.080287  1
  B  B17  1  0.500000  0.751526  0.919589  1
  B  B18  1  0.500000  0.791114  0.265684  1
  B  B19  1  0.500000  0.208885  0.734398  1
  B  B20  1  0.500000  0.292721  0.234175  1
  B  B21  1  0.500000  0.707158  0.765635  1
  B  B22  1  0.500000  0.631386  0.183489  1
  B  B23  1  0.500000  0.368716  0.816483  1
  B  B24  1  0.500000  0.131348  0.314780  1
  B  B25  1  0.500000  0.868451  0.685102  1
  B  B26  1  0.500000  0.982072  0.212942  1
  B  B27  1  0.500000  0.017791  0.787010  1
  B  B28  1  0.500000  0.482010  0.286895  1
  B  B29  1  0.500000  0.518261  0.713016  1
  B  B30  1  0.500000  0.605779  0.029648  1
  B  B31  1  0.500000  0.394276  0.970303  1
  B  B32  1  0.500000  0.106579  0.471094  1
  B  B33  1  0.500000  0.893071  0.529027  1
  Ir  Ir34  1  0.000000  0.636788  0.321850  1
  Ir  Ir35  1  0.000000  0.363368  0.678209  1
