# generated using pymatgen
data_LiCa2Nd2Al17Pd6
_symmetry_space_group_name_H-M   'P 1'
_cell_length_a   7.67070495
_cell_length_b   7.67070374
_cell_length_c   9.60880000
_cell_angle_alpha   90.00000000
_cell_angle_beta   90.00000000
_cell_angle_gamma   119.30437263
_symmetry_Int_Tables_number   1
_chemical_formula_structural   LiCa2Nd2Al17Pd6
_chemical_formula_sum   'Li1 Ca2 Nd2 Al17 Pd6'
_cell_volume   493.02850012
_cell_formula_units_Z   1
loop_
 _symmetry_equiv_pos_site_id
 _symmetry_equiv_pos_as_xyz
  1  'x, y, z'
loop_
 _atom_site_type_symbol
 _atom_site_label
 _atom_site_symmetry_multiplicity
 _atom_site_fract_x
 _atom_site_fract_y
 _atom_site_fract_z
 _atom_site_occupancy
  Li  Li0  1  0.126994  0.126994  0.250000  1
  Ca  Ca1  1  0.995433  0.667271  0.250000  1
  Ca  Ca2  1  0.667271  0.995433  0.250000  1
  Nd  Nd3  1  0.004922  0.330149  0.750000  1
  Nd  Nd4  1  0.330153  0.004925  0.750000  1
  Al  Al5  1  0.864975  0.864976  0.750000  1
  Al  Al6  1  0.001897  0.329691  0.081989  1
  Al  Al7  1  0.998311  0.665475  0.929161  1
  Al  Al8  1  0.998311  0.665475  0.570839  1
  Al  Al9  1  0.329691  0.001897  0.418011  1
  Al  Al10  1  0.001897  0.329691  0.418011  1
  Al  Al11  1  0.665475  0.998311  0.570840  1
  Al  Al12  1  0.665475  0.998311  0.929160  1
  Al  Al13  1  0.329691  0.001897  0.081989  1
  Al  Al14  1  0.335300  0.335300  0.538163  1
  Al  Al15  1  0.671409  0.671409  0.442113  1
  Al  Al16  1  0.671409  0.671409  0.057887  1
  Al  Al17  1  0.335300  0.335300  0.961837  1
  Al  Al18  1  0.339863  0.540358  0.250000  1
  Al  Al19  1  0.658336  0.455740  0.750000  1
  Al  Al20  1  0.540359  0.339863  0.250000  1
  Al  Al21  1  0.455740  0.658337  0.750000  1
  Pd  Pd22  1  0.674558  0.330752  0.000224  1
  Pd  Pd23  1  0.330752  0.674558  0.000225  1
  Pd  Pd24  1  0.330752  0.674558  0.499775  1
  Pd  Pd25  1  0.674558  0.330752  0.499776  1
  Pd  Pd26  1  0.000585  0.000585  0.992215  1
  Pd  Pd27  1  0.000585  0.000585  0.507785  1
