# generated using pymatgen
data_Zr10Ge6S
_symmetry_space_group_name_H-M   'P 1'
_cell_length_a   5.59790900
_cell_length_b   8.19813155
_cell_length_c   8.19817500
_cell_angle_alpha   119.99969514
_cell_angle_beta   90.00020470
_cell_angle_gamma   89.99964605
_symmetry_Int_Tables_number   1
_chemical_formula_structural   Zr10Ge6S
_chemical_formula_sum   'Zr10 Ge6 S1'
_cell_volume   325.82909926
_cell_formula_units_Z   1
loop_
 _symmetry_equiv_pos_site_id
 _symmetry_equiv_pos_as_xyz
  1  'x, y, z'
loop_
 _atom_site_type_symbol
 _atom_site_label
 _atom_site_symmetry_multiplicity
 _atom_site_fract_x
 _atom_site_fract_y
 _atom_site_fract_z
 _atom_site_occupancy
  Zr  Zr0  1  0.500015  0.333342  0.666668  1
  Zr  Zr1  1  0.499990  0.666660  0.333332  1
  Zr  Zr2  1  0.000014  0.666659  0.333327  1
  Zr  Zr3  1  0.999986  0.333346  0.666680  1
  Zr  Zr4  1  0.759479  0.257026  0.999986  1
  Zr  Zr5  1  0.759485  0.742953  0.742970  1
  Zr  Zr6  1  0.759488  0.000007  0.257038  1
  Zr  Zr7  1  0.240519  0.742960  0.999986  1
  Zr  Zr8  1  0.240519  0.257032  0.257035  1
  Zr  Zr9  1  0.240505  0.000008  0.742968  1
  Ge  Ge10  1  0.749761  0.608662  0.999983  1
  Ge  Ge11  1  0.749767  0.391334  0.391360  1
  Ge  Ge12  1  0.749766  0.000010  0.608660  1
  Ge  Ge13  1  0.250236  0.391323  0.999977  1
  Ge  Ge14  1  0.250233  0.608657  0.608665  1
  Ge  Ge15  1  0.250236  0.000022  0.391361  1
  S  S16  1  0.500000  0.000002  0.000004  1
