# generated using pymatgen
data_Th4CoPd3Au2
_symmetry_space_group_name_H-M   'P 1'
_cell_length_a   7.70171067
_cell_length_b   7.70171067
_cell_length_c   3.81098100
_cell_angle_alpha   90.00000000
_cell_angle_beta   90.00000000
_cell_angle_gamma   90.33378957
_symmetry_Int_Tables_number   1
_chemical_formula_structural   Th4CoPd3Au2
_chemical_formula_sum   'Th4 Co1 Pd3 Au2'
_cell_volume   226.04963654
_cell_formula_units_Z   1
loop_
 _symmetry_equiv_pos_site_id
 _symmetry_equiv_pos_as_xyz
  1  'x, y, z'
loop_
 _atom_site_type_symbol
 _atom_site_label
 _atom_site_symmetry_multiplicity
 _atom_site_fract_x
 _atom_site_fract_y
 _atom_site_fract_z
 _atom_site_occupancy
  Th  Th0  1  0.340161  0.181141  0.500001  1
  Th  Th1  1  0.807643  0.307643  0.500001  1
  Th  Th2  1  0.175454  0.675455  0.500001  1
  Th  Th3  1  0.681142  0.840161  0.500001  1
  Co  Co4  1  0.628536  0.128537  0.000000  1
  Pd  Pd5  1  0.125626  0.369685  0.000000  1
  Pd  Pd6  1  0.869687  0.625625  0.000000  1
  Pd  Pd7  1  0.374827  0.874829  0.000000  1
  Au  Au8  1  0.996642  0.000286  0.000000  1
  Au  Au9  1  0.500286  0.496642  0.000000  1
