# generated using pymatgen
data_Yb7Y4Pd4Pb9
_symmetry_space_group_name_H-M   'P 1'
_cell_length_a   13.37146800
_cell_length_b   13.37146702
_cell_length_c   3.68334700
_cell_angle_alpha   90.00000000
_cell_angle_beta   90.00000000
_cell_angle_gamma   112.12432657
_symmetry_Int_Tables_number   1
_chemical_formula_structural   Yb7Y4Pd4Pb9
_chemical_formula_sum   'Yb7 Y4 Pd4 Pb9'
_cell_volume   610.07707564
_cell_formula_units_Z   1
loop_
 _symmetry_equiv_pos_site_id
 _symmetry_equiv_pos_as_xyz
  1  'x, y, z'
loop_
 _atom_site_type_symbol
 _atom_site_label
 _atom_site_symmetry_multiplicity
 _atom_site_fract_x
 _atom_site_fract_y
 _atom_site_fract_z
 _atom_site_occupancy
  Yb  Yb0  1  0.413135  0.069869  0.000000  1
  Yb  Yb1  1  0.586865  0.930131  0.000000  1
  Yb  Yb2  1  0.069869  0.413135  0.000000  1
  Yb  Yb3  1  0.930131  0.586865  0.000000  1
  Yb  Yb4  1  0.160862  0.839138  0.000000  1
  Yb  Yb5  1  0.839138  0.160862  0.000000  1
  Yb  Yb6  1  0.000000  0.000000  0.000000  1
  Y  Y7  1  0.369622  0.630378  0.000000  1
  Y  Y8  1  0.630378  0.369622  0.000000  1
  Y  Y9  1  0.308137  0.308137  0.000000  1
  Y  Y10  1  0.691863  0.691863  0.000000  1
  Pd  Pd11  1  0.450223  0.247116  0.500000  1
  Pd  Pd12  1  0.549777  0.752884  0.500000  1
  Pd  Pd13  1  0.247116  0.450223  0.500000  1
  Pd  Pd14  1  0.752884  0.549777  0.500000  1
  Pb  Pb15  1  0.371295  0.843399  0.500000  1
  Pb  Pb16  1  0.628705  0.156601  0.500000  1
  Pb  Pb17  1  0.843399  0.371295  0.500000  1
  Pb  Pb18  1  0.156601  0.628705  0.500000  1
  Pb  Pb19  1  0.218497  0.075480  0.500000  1
  Pb  Pb20  1  0.781503  0.924520  0.500000  1
  Pb  Pb21  1  0.075480  0.218497  0.500000  1
  Pb  Pb22  1  0.924520  0.781503  0.500000  1
  Pb  Pb23  1  0.500000  0.500000  0.500000  1
