# generated using pymatgen
data_Be6V4SiP
_symmetry_space_group_name_H-M   'P 1'
_cell_length_a   4.34703100
_cell_length_b   4.34703051
_cell_length_c   7.39701100
_cell_angle_alpha   90.00000000
_cell_angle_beta   90.00000000
_cell_angle_gamma   119.99999612
_symmetry_Int_Tables_number   1
_chemical_formula_structural   Be6V4SiP
_chemical_formula_sum   'Be6 V4 Si1 P1'
_cell_volume   121.05210304
_cell_formula_units_Z   1
loop_
 _symmetry_equiv_pos_site_id
 _symmetry_equiv_pos_as_xyz
  1  'x, y, z'
loop_
 _atom_site_type_symbol
 _atom_site_label
 _atom_site_symmetry_multiplicity
 _atom_site_fract_x
 _atom_site_fract_y
 _atom_site_fract_z
 _atom_site_occupancy
  Be  Be0  1  0.826614  0.653228  0.248587  1
  Be  Be1  1  0.173386  0.826614  0.751413  1
  Be  Be2  1  0.653228  0.826614  0.751413  1
  Be  Be3  1  0.346772  0.173386  0.248587  1
  Be  Be4  1  0.826614  0.173386  0.248587  1
  Be  Be5  1  0.173386  0.346772  0.751413  1
  V  V6  1  0.333333  0.666667  0.060892  1
  V  V7  1  0.666667  0.333333  0.563964  1
  V  V8  1  0.666667  0.333333  0.939108  1
  V  V9  1  0.333333  0.666667  0.436036  1
  Si  Si10  1  0.000000  0.000000  0.500000  1
  P  P11  1  0.000000  0.000000  0.000000  1
