# generated using pymatgen
data_TiIn7IrO8
_symmetry_space_group_name_H-M   'P 1'
_cell_length_a   7.30488527
_cell_length_b   7.30488484
_cell_length_c   7.30488500
_cell_angle_alpha   59.99999473
_cell_angle_beta   59.99999668
_cell_angle_gamma   59.99999322
_symmetry_Int_Tables_number   1
_chemical_formula_structural   TiIn7IrO8
_chemical_formula_sum   'Ti1 In7 Ir1 O8'
_cell_volume   275.62912577
_cell_formula_units_Z   1
loop_
 _symmetry_equiv_pos_site_id
 _symmetry_equiv_pos_as_xyz
  1  'x, y, z'
loop_
 _atom_site_type_symbol
 _atom_site_label
 _atom_site_symmetry_multiplicity
 _atom_site_fract_x
 _atom_site_fract_y
 _atom_site_fract_z
 _atom_site_occupancy
  Ti  Ti0  1  0.250000  0.250000  0.250000  1
  In  In1  1  0.250591  0.749409  0.749409  1
  In  In2  1  0.749409  0.250591  0.250591  1
  In  In3  1  0.250591  0.250591  0.749409  1
  In  In4  1  0.250591  0.749409  0.250591  1
  In  In5  1  0.749409  0.749409  0.250591  1
  In  In6  1  0.749409  0.250591  0.749409  1
  In  In7  1  0.750000  0.750000  0.750000  1
  Ir  Ir8  1  0.000000  0.000000  0.000000  1
  O  O9  1  0.353410  0.939770  0.353410  1
  O  O10  1  0.630460  0.630460  0.630460  1
  O  O11  1  0.939770  0.353410  0.353410  1
  O  O12  1  0.630460  0.108620  0.630460  1
  O  O13  1  0.353410  0.353410  0.353410  1
  O  O14  1  0.108620  0.630460  0.630460  1
  O  O15  1  0.353410  0.353410  0.939770  1
  O  O16  1  0.630460  0.630460  0.108620  1
