# generated using pymatgen
data_Na3(PPt)2
_symmetry_space_group_name_H-M   'P 1'
_cell_length_a   5.82532500
_cell_length_b   7.61977600
_cell_length_c   12.61019600
_cell_angle_alpha   90.00000000
_cell_angle_beta   90.00000000
_cell_angle_gamma   90.00000000
_symmetry_Int_Tables_number   1
_chemical_formula_structural   Na3(PPt)2
_chemical_formula_sum   'Na12 P8 Pt8'
_cell_volume   559.73723920
_cell_formula_units_Z   4
loop_
 _symmetry_equiv_pos_site_id
 _symmetry_equiv_pos_as_xyz
  1  'x, y, z'
loop_
 _atom_site_type_symbol
 _atom_site_label
 _atom_site_symmetry_multiplicity
 _atom_site_fract_x
 _atom_site_fract_y
 _atom_site_fract_z
 _atom_site_occupancy
  Na  Na0  1  0.656267  0.216765  0.250000  1
  Na  Na1  1  0.343733  0.783235  0.750000  1
  Na  Na2  1  0.343733  0.716765  0.250000  1
  Na  Na3  1  0.656267  0.283235  0.750000  1
  Na  Na4  1  0.120053  0.378312  0.108475  1
  Na  Na5  1  0.879947  0.621688  0.891525  1
  Na  Na6  1  0.879947  0.621688  0.608475  1
  Na  Na7  1  0.879947  0.878312  0.391525  1
  Na  Na8  1  0.120053  0.378312  0.391525  1
  Na  Na9  1  0.120053  0.121688  0.608475  1
  Na  Na10  1  0.120053  0.121688  0.891525  1
  Na  Na11  1  0.879947  0.878312  0.108475  1
  P  P12  1  0.173049  0.067566  0.250000  1
  P  P13  1  0.826951  0.932434  0.750000  1
  P  P14  1  0.826951  0.567566  0.250000  1
  P  P15  1  0.173049  0.432434  0.750000  1
  P  P16  1  0.581471  0.250000  0.000000  1
  P  P17  1  0.418529  0.750000  0.000000  1
  P  P18  1  0.418529  0.750000  0.500000  1
  P  P19  1  0.581471  0.250000  0.500000  1
  Pt  Pt20  1  0.372996  0.027449  0.091322  1
  Pt  Pt21  1  0.627004  0.972551  0.908678  1
  Pt  Pt22  1  0.627004  0.972551  0.591322  1
  Pt  Pt23  1  0.627004  0.527449  0.408678  1
  Pt  Pt24  1  0.372996  0.027449  0.408678  1
  Pt  Pt25  1  0.372996  0.472551  0.591322  1
  Pt  Pt26  1  0.372996  0.472551  0.908678  1
  Pt  Pt27  1  0.627004  0.527449  0.091322  1
