# generated using pymatgen
data_Tb9Dy(Bi2Rh)2
_symmetry_space_group_name_H-M   'P 1'
_cell_length_a   8.06362709
_cell_length_b   9.03830405
_cell_length_c   12.51397011
_cell_angle_alpha   90.00671064
_cell_angle_beta   89.98623357
_cell_angle_gamma   89.98939381
_symmetry_Int_Tables_number   1
_chemical_formula_structural   Tb9Dy(Bi2Rh)2
_chemical_formula_sum   'Tb18 Dy2 Bi8 Rh4'
_cell_volume   912.03703273
_cell_formula_units_Z   2
loop_
 _symmetry_equiv_pos_site_id
 _symmetry_equiv_pos_as_xyz
  1  'x, y, z'
loop_
 _atom_site_type_symbol
 _atom_site_label
 _atom_site_symmetry_multiplicity
 _atom_site_fract_x
 _atom_site_fract_y
 _atom_site_fract_z
 _atom_site_occupancy
  Tb  Tb0  1  0.841322  0.749981  0.793836  1
  Tb  Tb1  1  0.158678  0.250019  0.206164  1
  Tb  Tb2  1  0.341257  0.250011  0.706216  1
  Tb  Tb3  1  0.658743  0.749989  0.293784  1
  Tb  Tb4  1  0.374912  0.750000  0.694056  1
  Tb  Tb5  1  0.625088  0.250000  0.305944  1
  Tb  Tb6  1  0.874952  0.250035  0.806010  1
  Tb  Tb7  1  0.125048  0.749965  0.193990  1
  Tb  Tb8  1  0.954038  0.750003  0.501250  1
  Tb  Tb9  1  0.045962  0.249997  0.498750  1
  Tb  Tb10  1  0.454013  0.250040  0.998749  1
  Tb  Tb11  1  0.545987  0.749960  0.001251  1
  Tb  Tb12  1  0.678117  0.040747  0.566033  1
  Tb  Tb13  1  0.321883  0.959253  0.433967  1
  Tb  Tb14  1  0.178094  0.959251  0.933969  1
  Tb  Tb15  1  0.321877  0.540747  0.433963  1
  Tb  Tb16  1  0.821906  0.040749  0.066031  1
  Tb  Tb17  1  0.678123  0.459253  0.566037  1
  Dy  Dy18  1  0.822161  0.459255  0.065976  1
  Dy  Dy19  1  0.177839  0.540745  0.934024  1
  Bi  Bi20  1  0.569313  0.491648  0.826344  1
  Bi  Bi21  1  0.430687  0.508352  0.173656  1
  Bi  Bi22  1  0.069408  0.508364  0.673710  1
  Bi  Bi23  1  0.430609  0.991642  0.173684  1
  Bi  Bi24  1  0.930592  0.491636  0.326290  1
  Bi  Bi25  1  0.569391  0.008358  0.826316  1
  Bi  Bi26  1  0.930615  0.008362  0.326312  1
  Bi  Bi27  1  0.069385  0.991638  0.673688  1
  Rh  Rh28  1  0.570307  0.750015  0.510233  1
  Rh  Rh29  1  0.429693  0.249985  0.489767  1
  Rh  Rh30  1  0.070253  0.250143  0.989787  1
  Rh  Rh31  1  0.929747  0.749857  0.010213  1
