# generated using pymatgen
data_NaYPt3Rh
_symmetry_space_group_name_H-M   'P 1'
_cell_length_a   5.37400725
_cell_length_b   5.37400765
_cell_length_c   5.37400806
_cell_angle_alpha   60.11503486
_cell_angle_beta   60.11503793
_cell_angle_gamma   60.11503684
_symmetry_Int_Tables_number   1
_chemical_formula_structural   NaYPt3Rh
_chemical_formula_sum   'Na1 Y1 Pt3 Rh1'
_cell_volume   110.02978366
_cell_formula_units_Z   1
loop_
 _symmetry_equiv_pos_site_id
 _symmetry_equiv_pos_as_xyz
  1  'x, y, z'
loop_
 _atom_site_type_symbol
 _atom_site_label
 _atom_site_symmetry_multiplicity
 _atom_site_fract_x
 _atom_site_fract_y
 _atom_site_fract_z
 _atom_site_occupancy
  Na  Na0  1  0.750033  0.750033  0.750033  1
  Y  Y1  1  0.499914  0.499914  0.499914  1
  Pt  Pt2  1  0.625724  0.124753  0.124753  1
  Pt  Pt3  1  0.124753  0.625724  0.124753  1
  Pt  Pt4  1  0.124753  0.124753  0.625724  1
  Rh  Rh5  1  0.124823  0.124823  0.124823  1
