# generated using pymatgen
data_LiTi2Rh3
_symmetry_space_group_name_H-M   'P 1'
_cell_length_a   5.30544556
_cell_length_b   7.51630865
_cell_length_c   4.29476700
_cell_angle_alpha   90.00001525
_cell_angle_beta   90.00000000
_cell_angle_gamma   88.53210427
_symmetry_Int_Tables_number   1
_chemical_formula_structural   LiTi2Rh3
_chemical_formula_sum   'Li2 Ti4 Rh6'
_cell_volume   171.20779441
_cell_formula_units_Z   2
loop_
 _symmetry_equiv_pos_site_id
 _symmetry_equiv_pos_as_xyz
  1  'x, y, z'
loop_
 _atom_site_type_symbol
 _atom_site_label
 _atom_site_symmetry_multiplicity
 _atom_site_fract_x
 _atom_site_fract_y
 _atom_site_fract_z
 _atom_site_occupancy
  Li  Li0  1  0.109905  0.280883  0.000000  1
  Li  Li1  1  0.446283  0.607441  0.000000  1
  Ti  Ti2  1  0.777942  0.944641  0.000000  1
  Ti  Ti3  1  0.426512  0.121718  0.500000  1
  Ti  Ti4  1  0.776899  0.444751  0.500000  1
  Ti  Ti5  1  0.128962  0.766825  0.500000  1
  Rh  Rh6  1  0.612347  0.275350  0.000000  1
  Rh  Rh7  1  0.943543  0.613829  0.000000  1
  Rh  Rh8  1  0.278065  0.944213  0.000000  1
  Rh  Rh9  1  0.939517  0.107408  0.500000  1
  Rh  Rh10  1  0.277215  0.444262  0.500000  1
  Rh  Rh11  1  0.616022  0.781990  0.500000  1
