# generated using pymatgen
data_Er2Co2B4Ir3
_symmetry_space_group_name_H-M   'P 1'
_cell_length_a   7.39286733
_cell_length_b   6.20714724
_cell_length_c   5.42205820
_cell_angle_alpha   78.63476688
_cell_angle_beta   55.40197890
_cell_angle_gamma   46.85245261
_symmetry_Int_Tables_number   1
_chemical_formula_structural   Er2Co2B4Ir3
_chemical_formula_sum   'Er2 Co2 B4 Ir3'
_cell_volume   141.64884166
_cell_formula_units_Z   1
loop_
 _symmetry_equiv_pos_site_id
 _symmetry_equiv_pos_as_xyz
  1  'x, y, z'
loop_
 _atom_site_type_symbol
 _atom_site_label
 _atom_site_symmetry_multiplicity
 _atom_site_fract_x
 _atom_site_fract_y
 _atom_site_fract_z
 _atom_site_occupancy
  Er  Er0  1  0.641596  0.641659  0.358260  1
  Er  Er1  1  0.356806  0.356850  0.643154  1
  Co  Co2  1  0.252183  0.252088  0.247808  1
  Co  Co3  1  0.998134  0.998158  0.501860  1
  B  B4  1  0.272500  0.996648  0.046787  1
  B  B5  1  0.029647  0.701098  0.281790  1
  B  B6  1  0.996739  0.272442  0.684100  1
  B  B7  1  0.701009  0.029632  0.987604  1
  Ir  Ir8  1  0.001995  0.002000  0.997981  1
  Ir  Ir9  1  0.499287  0.499220  0.000765  1
  Ir  Ir10  1  0.750108  0.750203  0.749887  1
