# generated using pymatgen
data_Tm12Ni4BiOs
_symmetry_space_group_name_H-M   'P 1'
_cell_length_a   8.22110134
_cell_length_b   8.22262183
_cell_length_c   8.22110010
_cell_angle_alpha   110.30403966
_cell_angle_beta   111.48449521
_cell_angle_gamma   106.65640530
_symmetry_Int_Tables_number   1
_chemical_formula_structural   Tm12Ni4BiOs
_chemical_formula_sum   'Tm12 Ni4 Bi1 Os1'
_cell_volume   427.02897479
_cell_formula_units_Z   1
loop_
 _symmetry_equiv_pos_site_id
 _symmetry_equiv_pos_as_xyz
  1  'x, y, z'
loop_
 _atom_site_type_symbol
 _atom_site_label
 _atom_site_symmetry_multiplicity
 _atom_site_fract_x
 _atom_site_fract_y
 _atom_site_fract_z
 _atom_site_occupancy
  Tm  Tm0  1  0.279460  0.177501  0.456982  1
  Tm  Tm1  1  0.720540  0.822499  0.543018  1
  Tm  Tm2  1  0.279482  0.822499  0.101959  1
  Tm  Tm3  1  0.720518  0.177501  0.898041  1
  Tm  Tm4  1  0.626152  0.317880  0.308280  1
  Tm  Tm5  1  0.373848  0.682120  0.691720  1
  Tm  Tm6  1  0.009600  0.317880  0.691728  1
  Tm  Tm7  1  0.990400  0.682120  0.308272  1
  Tm  Tm8  1  0.218064  0.411820  0.193758  1
  Tm  Tm9  1  0.781936  0.588180  0.806242  1
  Tm  Tm10  1  0.218158  0.024474  0.806317  1
  Tm  Tm11  1  0.781842  0.975526  0.193683  1
  Ni  Ni12  1  0.999588  0.360896  0.361308  1
  Ni  Ni13  1  0.000412  0.639104  0.638692  1
  Ni  Ni14  1  0.379675  0.879476  0.499801  1
  Ni  Ni15  1  0.620325  0.120524  0.500199  1
  Bi  Bi16  1  0.500000  0.500000  0.000000  1
  Os  Os17  1  0.000000  0.000000  0.000000  1
