# generated using pymatgen
data_K(Ni2As)4
_symmetry_space_group_name_H-M   'P 1'
_cell_length_a   7.56937386
_cell_length_b   7.56446638
_cell_length_c   7.52569730
_cell_angle_alpha   93.17036772
_cell_angle_beta   93.53703101
_cell_angle_gamma   152.03265646
_symmetry_Int_Tables_number   1
_chemical_formula_structural   K(Ni2As)4
_chemical_formula_sum   'K1 Ni8 As4'
_cell_volume   196.07017459
_cell_formula_units_Z   1
loop_
 _symmetry_equiv_pos_site_id
 _symmetry_equiv_pos_as_xyz
  1  'x, y, z'
loop_
 _atom_site_type_symbol
 _atom_site_label
 _atom_site_symmetry_multiplicity
 _atom_site_fract_x
 _atom_site_fract_y
 _atom_site_fract_z
 _atom_site_occupancy
  K  K0  1  0.000119  0.999925  0.000059  1
  Ni  Ni1  1  0.015468  0.624926  0.640498  1
  Ni  Ni2  1  0.658047  0.226734  0.885081  1
  Ni  Ni3  1  0.225911  0.340708  0.568773  1
  Ni  Ni4  1  0.774192  0.659537  0.431219  1
  Ni  Ni5  1  0.341890  0.773226  0.114915  1
  Ni  Ni6  1  0.984547  0.375051  0.359487  1
  Ni  Ni7  1  0.376268  0.016034  0.391525  1
  Ni  Ni8  1  0.623659  0.983913  0.608468  1
  As  As9  1  0.764636  0.423231  0.186447  1
  As  As10  1  0.422776  0.237331  0.659182  1
  As  As11  1  0.577274  0.762771  0.340850  1
  As  As12  1  0.235213  0.576612  0.813495  1
