# generated using pymatgen
data_Dy6Ho2Re(TcB8)3
_symmetry_space_group_name_H-M   'P 1'
_cell_length_a   3.68548100
_cell_length_b   9.16050035
_cell_length_c   11.54261500
_cell_angle_alpha   90.03258989
_cell_angle_beta   90.00000000
_cell_angle_gamma   90.00000000
_symmetry_Int_Tables_number   1
_chemical_formula_structural   Dy6Ho2Re(TcB8)3
_chemical_formula_sum   'Dy6 Ho2 Re1 Tc3 B24'
_cell_volume   389.68843062
_cell_formula_units_Z   1
loop_
 _symmetry_equiv_pos_site_id
 _symmetry_equiv_pos_as_xyz
  1  'x, y, z'
loop_
 _atom_site_type_symbol
 _atom_site_label
 _atom_site_symmetry_multiplicity
 _atom_site_fract_x
 _atom_site_fract_y
 _atom_site_fract_z
 _atom_site_occupancy
  Dy  Dy0  1  0.000000  0.324259  0.414059  1
  Dy  Dy1  1  0.000000  0.676026  0.585932  1
  Dy  Dy2  1  0.000000  0.823794  0.085920  1
  Dy  Dy3  1  0.000000  0.176455  0.914314  1
  Dy  Dy4  1  0.000000  0.942593  0.368913  1
  Dy  Dy5  1  0.000000  0.057991  0.630122  1
  Ho  Ho6  1  0.000000  0.442597  0.130895  1
  Ho  Ho7  1  0.000000  0.556289  0.869652  1
  Re  Re8  1  0.000000  0.861052  0.820809  1
  Tc  Tc9  1  0.000000  0.638413  0.320256  1
  Tc  Tc10  1  0.000000  0.361656  0.679682  1
  Tc  Tc11  1  0.000000  0.139159  0.179355  1
  B  B12  1  0.500000  0.553382  0.432763  1
  B  B13  1  0.500000  0.446823  0.567297  1
  B  B14  1  0.500000  0.053572  0.067226  1
  B  B15  1  0.500000  0.946619  0.933061  1
  B  B16  1  0.500000  0.748513  0.418292  1
  B  B17  1  0.500000  0.251778  0.581639  1
  B  B18  1  0.500000  0.249135  0.081621  1
  B  B19  1  0.500000  0.750445  0.918567  1
  B  B20  1  0.500000  0.791358  0.265091  1
  B  B21  1  0.500000  0.208601  0.734739  1
  B  B22  1  0.500000  0.292024  0.234719  1
  B  B23  1  0.500000  0.707615  0.765462  1
  B  B24  1  0.500000  0.630403  0.185446  1
  B  B25  1  0.500000  0.369362  0.814548  1
  B  B26  1  0.500000  0.131071  0.314200  1
  B  B27  1  0.500000  0.869163  0.685671  1
  B  B28  1  0.500000  0.982635  0.211427  1
  B  B29  1  0.500000  0.017677  0.788331  1
  B  B30  1  0.500000  0.482199  0.288179  1
  B  B31  1  0.500000  0.517701  0.711995  1
  B  B32  1  0.500000  0.599262  0.027908  1
  B  B33  1  0.500000  0.400148  0.972347  1
  B  B34  1  0.500000  0.100565  0.471650  1
  B  B35  1  0.500000  0.899662  0.527913  1
