# generated using pymatgen
data_CaPr2ErIn4
_symmetry_space_group_name_H-M   'P 1'
_cell_length_a   6.71118815
_cell_length_b   6.71118904
_cell_length_c   10.22814800
_cell_angle_alpha   90.00000000
_cell_angle_beta   90.00000000
_cell_angle_gamma   98.99007716
_symmetry_Int_Tables_number   1
_chemical_formula_structural   CaPr2ErIn4
_chemical_formula_sum   'Ca2 Pr4 Er2 In8'
_cell_volume   455.01710563
_cell_formula_units_Z   2
loop_
 _symmetry_equiv_pos_site_id
 _symmetry_equiv_pos_as_xyz
  1  'x, y, z'
loop_
 _atom_site_type_symbol
 _atom_site_label
 _atom_site_symmetry_multiplicity
 _atom_site_fract_x
 _atom_site_fract_y
 _atom_site_fract_z
 _atom_site_occupancy
  Ca  Ca0  1  0.540034  0.540034  0.250000  1
  Ca  Ca1  1  0.459966  0.459966  0.750000  1
  Pr  Pr2  1  0.249547  0.750453  0.500000  1
  Pr  Pr3  1  0.249547  0.750453  0.000000  1
  Pr  Pr4  1  0.750453  0.249547  0.500000  1
  Pr  Pr5  1  0.750453  0.249547  0.000000  1
  Er  Er6  1  0.965780  0.965780  0.250000  1
  Er  Er7  1  0.034220  0.034220  0.750000  1
  In  In8  1  0.250087  0.250087  0.026251  1
  In  In9  1  0.749913  0.749913  0.973749  1
  In  In10  1  0.250087  0.250087  0.473749  1
  In  In11  1  0.749913  0.749913  0.526251  1
  In  In12  1  0.476162  0.029762  0.250000  1
  In  In13  1  0.970238  0.523838  0.750000  1
  In  In14  1  0.523838  0.970238  0.750000  1
  In  In15  1  0.029762  0.476162  0.250000  1
