# generated using pymatgen
data_SmY2Lu(WN3)4
_symmetry_space_group_name_H-M   'P 1'
_cell_length_a   7.33483321
_cell_length_b   7.33483319
_cell_length_c   6.26907638
_cell_angle_alpha   74.10428073
_cell_angle_beta   74.10428709
_cell_angle_gamma   82.10252926
_symmetry_Int_Tables_number   1
_chemical_formula_structural   SmY2Lu(WN3)4
_chemical_formula_sum   'Sm1 Y2 Lu1 W4 N12'
_cell_volume   311.26410208
_cell_formula_units_Z   1
loop_
 _symmetry_equiv_pos_site_id
 _symmetry_equiv_pos_as_xyz
  1  'x, y, z'
loop_
 _atom_site_type_symbol
 _atom_site_label
 _atom_site_symmetry_multiplicity
 _atom_site_fract_x
 _atom_site_fract_y
 _atom_site_fract_z
 _atom_site_occupancy
  Sm  Sm0  1  0.707076  0.292924  0.750000  1
  Y  Y1  1  0.290875  0.709125  0.250000  1
  Y  Y2  1  0.913654  0.086346  0.250000  1
  Lu  Lu3  1  0.090582  0.909418  0.750000  1
  W  W4  1  0.378746  0.200209  0.237301  1
  W  W5  1  0.618390  0.800187  0.766862  1
  W  W6  1  0.799791  0.621254  0.262699  1
  W  W7  1  0.199813  0.381610  0.733138  1
  N  N8  1  0.622854  0.110583  0.166348  1
  N  N9  1  0.350889  0.366318  0.439557  1
  N  N10  1  0.006506  0.212853  0.845314  1
  N  N11  1  0.373646  0.891353  0.834217  1
  N  N12  1  0.787147  0.993494  0.654686  1
  N  N13  1  0.108647  0.626354  0.665783  1
  N  N14  1  0.889417  0.377146  0.333652  1
  N  N15  1  0.651242  0.641654  0.555364  1
  N  N16  1  0.633682  0.649111  0.060443  1
  N  N17  1  0.358346  0.348758  0.944636  1
  N  N18  1  0.000711  0.782019  0.144725  1
  N  N19  1  0.217981  0.999289  0.355275  1
