# generated using pymatgen
data_NdDyZn5Sn
_symmetry_space_group_name_H-M   'P 1'
_cell_length_a   8.48462931
_cell_length_b   8.48462946
_cell_length_c   9.04536600
_cell_angle_alpha   90.00000000
_cell_angle_beta   90.00000000
_cell_angle_gamma   149.74905601
_symmetry_Int_Tables_number   1
_chemical_formula_structural   NdDyZn5Sn
_chemical_formula_sum   'Nd2 Dy2 Zn10 Sn2'
_cell_volume   328.04989032
_cell_formula_units_Z   2
loop_
 _symmetry_equiv_pos_site_id
 _symmetry_equiv_pos_as_xyz
  1  'x, y, z'
loop_
 _atom_site_type_symbol
 _atom_site_label
 _atom_site_symmetry_multiplicity
 _atom_site_fract_x
 _atom_site_fract_y
 _atom_site_fract_z
 _atom_site_occupancy
  Nd  Nd0  1  0.000000  0.000000  0.500000  1
  Nd  Nd1  1  0.000000  0.000000  0.000000  1
  Dy  Dy2  1  0.204899  0.795101  0.250000  1
  Dy  Dy3  1  0.795101  0.204899  0.750000  1
  Zn  Zn4  1  0.812649  0.187351  0.390999  1
  Zn  Zn5  1  0.187351  0.812649  0.609001  1
  Zn  Zn6  1  0.812649  0.187351  0.109001  1
  Zn  Zn7  1  0.187351  0.812649  0.890999  1
  Zn  Zn8  1  0.657186  0.342814  0.481977  1
  Zn  Zn9  1  0.342814  0.657186  0.518023  1
  Zn  Zn10  1  0.657186  0.342814  0.018023  1
  Zn  Zn11  1  0.342814  0.657186  0.981977  1
  Zn  Zn12  1  0.393622  0.606378  0.250000  1
  Zn  Zn13  1  0.606378  0.393622  0.750000  1
  Sn  Sn14  1  0.556110  0.443890  0.250000  1
  Sn  Sn15  1  0.443890  0.556110  0.750000  1
