# generated using pymatgen
data_YSnSbRh4
_symmetry_space_group_name_H-M   'P 1'
_cell_length_a   4.38500000
_cell_length_b   9.58281700
_cell_length_c   12.06662900
_cell_angle_alpha   90.00000000
_cell_angle_beta   90.00000000
_cell_angle_gamma   90.00000000
_symmetry_Int_Tables_number   1
_chemical_formula_structural   YSnSbRh4
_chemical_formula_sum   'Y4 Sn4 Sb4 Rh16'
_cell_volume   507.04762460
_cell_formula_units_Z   4
loop_
 _symmetry_equiv_pos_site_id
 _symmetry_equiv_pos_as_xyz
  1  'x, y, z'
loop_
 _atom_site_type_symbol
 _atom_site_label
 _atom_site_symmetry_multiplicity
 _atom_site_fract_x
 _atom_site_fract_y
 _atom_site_fract_z
 _atom_site_occupancy
  Y  Y0  1  0.250000  0.153272  0.823352  1
  Y  Y1  1  0.250000  0.346728  0.323352  1
  Y  Y2  1  0.750000  0.846728  0.176648  1
  Y  Y3  1  0.750000  0.653272  0.676648  1
  Sn  Sn4  1  0.250000  0.617418  0.059014  1
  Sn  Sn5  1  0.250000  0.882582  0.559014  1
  Sn  Sn6  1  0.750000  0.382582  0.940986  1
  Sn  Sn7  1  0.750000  0.117418  0.440986  1
  Sb  Sb8  1  0.250000  0.417166  0.639689  1
  Sb  Sb9  1  0.250000  0.082834  0.139689  1
  Sb  Sb10  1  0.750000  0.582834  0.360311  1
  Sb  Sb11  1  0.750000  0.917166  0.860311  1
  Rh  Rh12  1  0.250000  0.612404  0.493071  1
  Rh  Rh13  1  0.250000  0.887596  0.993071  1
  Rh  Rh14  1  0.750000  0.387596  0.506929  1
  Rh  Rh15  1  0.750000  0.112404  0.006929  1
  Rh  Rh16  1  0.250000  0.697031  0.269082  1
  Rh  Rh17  1  0.250000  0.802969  0.769082  1
  Rh  Rh18  1  0.750000  0.302969  0.730918  1
  Rh  Rh19  1  0.750000  0.197031  0.230918  1
  Rh  Rh20  1  0.250000  0.172142  0.562984  1
  Rh  Rh21  1  0.250000  0.327858  0.062984  1
  Rh  Rh22  1  0.750000  0.827858  0.437016  1
  Rh  Rh23  1  0.750000  0.672142  0.937016  1
  Rh  Rh24  1  0.250000  0.996618  0.343174  1
  Rh  Rh25  1  0.250000  0.503382  0.843174  1
  Rh  Rh26  1  0.750000  0.003382  0.656826  1
  Rh  Rh27  1  0.750000  0.496618  0.156826  1
