# generated using pymatgen
data_Y4ZrGa3Ir4
_symmetry_space_group_name_H-M   'P 1'
_cell_length_a   4.36964000
_cell_length_b   6.95663124
_cell_length_c   7.96061287
_cell_angle_alpha   88.61312275
_cell_angle_beta   90.00000000
_cell_angle_gamma   90.00000000
_symmetry_Int_Tables_number   1
_chemical_formula_structural   Y4ZrGa3Ir4
_chemical_formula_sum   'Y4 Zr1 Ga3 Ir4'
_cell_volume   241.91561667
_cell_formula_units_Z   1
loop_
 _symmetry_equiv_pos_site_id
 _symmetry_equiv_pos_as_xyz
  1  'x, y, z'
loop_
 _atom_site_type_symbol
 _atom_site_label
 _atom_site_symmetry_multiplicity
 _atom_site_fract_x
 _atom_site_fract_y
 _atom_site_fract_z
 _atom_site_occupancy
  Y  Y0  1  0.250000  0.961665  0.309632  1
  Y  Y1  1  0.250000  0.481329  0.174835  1
  Y  Y2  1  0.750000  0.013979  0.689367  1
  Y  Y3  1  0.750000  0.536214  0.830098  1
  Zr  Zr4  1  0.250000  0.364643  0.567331  1
  Ga  Ga5  1  0.250000  0.848247  0.930765  1
  Ga  Ga6  1  0.750000  0.643972  0.434229  1
  Ga  Ga7  1  0.750000  0.151095  0.063235  1
  Ir  Ir8  1  0.250000  0.229542  0.886365  1
  Ir  Ir9  1  0.250000  0.735330  0.618058  1
  Ir  Ir10  1  0.750000  0.774844  0.114746  1
  Ir  Ir11  1  0.750000  0.259139  0.381339  1
