# generated using pymatgen
data_Np3Ga3Ge2Ru
_symmetry_space_group_name_H-M   'P 1'
_cell_length_a   6.81128000
_cell_length_b   6.81128042
_cell_length_c   4.41735900
_cell_angle_alpha   90.00000000
_cell_angle_beta   90.00000000
_cell_angle_gamma   119.99999795
_symmetry_Int_Tables_number   1
_chemical_formula_structural   Np3Ga3Ge2Ru
_chemical_formula_sum   'Np3 Ga3 Ge2 Ru1'
_cell_volume   177.48057662
_cell_formula_units_Z   1
loop_
 _symmetry_equiv_pos_site_id
 _symmetry_equiv_pos_as_xyz
  1  'x, y, z'
loop_
 _atom_site_type_symbol
 _atom_site_label
 _atom_site_symmetry_multiplicity
 _atom_site_fract_x
 _atom_site_fract_y
 _atom_site_fract_z
 _atom_site_occupancy
  Np  Np0  1  0.416448  0.000000  0.000000  1
  Np  Np1  1  0.000000  0.416447  0.000000  1
  Np  Np2  1  0.583553  0.583552  0.000000  1
  Ga  Ga3  1  0.768499  0.000000  0.500000  1
  Ga  Ga4  1  0.231501  0.231502  0.500000  1
  Ga  Ga5  1  0.000000  0.768499  0.500000  1
  Ge  Ge6  1  0.666666  0.333333  0.500000  1
  Ge  Ge7  1  0.333333  0.666667  0.500000  1
  Ru  Ru8  1  0.000000  0.000000  0.000000  1
