# generated using pymatgen
data_DyY2Ag(Pt2O7)2
_symmetry_space_group_name_H-M   'P 1'
_cell_length_a   7.33033569
_cell_length_b   7.33270125
_cell_length_c   7.19662754
_cell_angle_alpha   59.38754474
_cell_angle_beta   59.38347559
_cell_angle_gamma   60.01067285
_symmetry_Int_Tables_number   1
_chemical_formula_structural   DyY2Ag(Pt2O7)2
_chemical_formula_sum   'Dy1 Y2 Ag1 Pt4 O14'
_cell_volume   270.98136763
_cell_formula_units_Z   1
loop_
 _symmetry_equiv_pos_site_id
 _symmetry_equiv_pos_as_xyz
  1  'x, y, z'
loop_
 _atom_site_type_symbol
 _atom_site_label
 _atom_site_symmetry_multiplicity
 _atom_site_fract_x
 _atom_site_fract_y
 _atom_site_fract_z
 _atom_site_occupancy
  Dy  Dy0  1  0.125000  0.625000  0.125000  1
  Y  Y1  1  0.625000  0.125000  0.125000  1
  Y  Y2  1  0.125000  0.125000  0.125000  1
  Ag  Ag3  1  0.125000  0.125000  0.625000  1
  Pt  Pt4  1  0.625000  0.625000  0.625000  1
  Pt  Pt5  1  0.125000  0.625000  0.625000  1
  Pt  Pt6  1  0.625000  0.125000  0.625000  1
  Pt  Pt7  1  0.625000  0.625000  0.125000  1
  O  O8  1  0.293181  0.694735  0.718905  1
  O  O9  1  0.532302  0.964841  0.970555  1
  O  O10  1  0.694848  0.293347  0.718478  1
  O  O11  1  0.293329  0.293347  0.718478  1
  O  O12  1  0.718150  0.717567  0.279311  1
  O  O13  1  0.004964  0.004352  0.985720  1
  O  O14  1  0.284971  0.717567  0.279311  1
  O  O15  1  0.965029  0.532433  0.970689  1
  O  O16  1  0.956671  0.956653  0.531522  1
  O  O17  1  0.531850  0.532433  0.970689  1
  O  O18  1  0.245036  0.245648  0.264280  1
  O  O19  1  0.555152  0.956653  0.531522  1
  O  O20  1  0.717698  0.285159  0.279445  1
  O  O21  1  0.956819  0.555265  0.531095  1
