# generated using pymatgen
data_La6Tb2AlPd24
_symmetry_space_group_name_H-M   'P 1'
_cell_length_a   8.52618500
_cell_length_b   8.52618500
_cell_length_c   8.52618500
_cell_angle_alpha   90.00083328
_cell_angle_beta   89.99916672
_cell_angle_gamma   89.99916673
_symmetry_Int_Tables_number   1
_chemical_formula_structural   La6Tb2AlPd24
_chemical_formula_sum   'La6 Tb2 Al1 Pd24'
_cell_volume   619.81810089
_cell_formula_units_Z   1
loop_
 _symmetry_equiv_pos_site_id
 _symmetry_equiv_pos_as_xyz
  1  'x, y, z'
loop_
 _atom_site_type_symbol
 _atom_site_label
 _atom_site_symmetry_multiplicity
 _atom_site_fract_x
 _atom_site_fract_y
 _atom_site_fract_z
 _atom_site_occupancy
  La  La0  1  0.252176  0.252244  0.252244  1
  La  La1  1  0.747824  0.747756  0.747756  1
  La  La2  1  0.747756  0.747824  0.252244  1
  La  La3  1  0.747756  0.252244  0.747824  1
  La  La4  1  0.252244  0.252176  0.747756  1
  La  La5  1  0.252244  0.747756  0.252176  1
  Tb  Tb6  1  0.251789  0.748211  0.748211  1
  Tb  Tb7  1  0.748211  0.251789  0.251789  1
  Al  Al8  1  0.000000  0.000000  0.000000  1
  Pd  Pd9  1  0.260657  0.501636  0.997812  1
  Pd  Pd10  1  0.739343  0.498364  0.002188  1
  Pd  Pd11  1  0.997812  0.260657  0.498364  1
  Pd  Pd12  1  0.501636  0.260657  0.002188  1
  Pd  Pd13  1  0.002188  0.739343  0.501636  1
  Pd  Pd14  1  0.498364  0.739343  0.997812  1
  Pd  Pd15  1  0.501636  0.002188  0.260657  1
  Pd  Pd16  1  0.260657  0.997812  0.501636  1
  Pd  Pd17  1  0.498364  0.997812  0.739343  1
  Pd  Pd18  1  0.739343  0.002188  0.498364  1
  Pd  Pd19  1  0.997812  0.498364  0.260657  1
  Pd  Pd20  1  0.002188  0.501636  0.739343  1
  Pd  Pd21  1  0.253408  0.502157  0.502157  1
  Pd  Pd22  1  0.746592  0.497843  0.497843  1
  Pd  Pd23  1  0.502157  0.253408  0.497843  1
  Pd  Pd24  1  0.497843  0.746592  0.502157  1
  Pd  Pd25  1  0.502157  0.497843  0.253408  1
  Pd  Pd26  1  0.497843  0.502157  0.746592  1
  Pd  Pd27  1  0.291947  0.997953  0.997953  1
  Pd  Pd28  1  0.708053  0.002047  0.002047  1
  Pd  Pd29  1  0.997953  0.291947  0.002047  1
  Pd  Pd30  1  0.002047  0.708053  0.997953  1
  Pd  Pd31  1  0.997953  0.002047  0.291947  1
  Pd  Pd32  1  0.002047  0.997953  0.708053  1
