# generated using pymatgen
data_Li2Cd5Sn
_symmetry_space_group_name_H-M   'P 1'
_cell_length_a   6.33528971
_cell_length_b   6.33528864
_cell_length_c   4.96722600
_cell_angle_alpha   90.00000000
_cell_angle_beta   90.00000000
_cell_angle_gamma   120.48487771
_symmetry_Int_Tables_number   1
_chemical_formula_structural   Li2Cd5Sn
_chemical_formula_sum   'Li2 Cd5 Sn1'
_cell_volume   171.80456291
_cell_formula_units_Z   1
loop_
 _symmetry_equiv_pos_site_id
 _symmetry_equiv_pos_as_xyz
  1  'x, y, z'
loop_
 _atom_site_type_symbol
 _atom_site_label
 _atom_site_symmetry_multiplicity
 _atom_site_fract_x
 _atom_site_fract_y
 _atom_site_fract_z
 _atom_site_occupancy
  Li  Li0  1  0.665671  0.334329  0.250000  1
  Li  Li1  1  0.333304  0.666696  0.750000  1
  Cd  Cd2  1  0.337204  0.168150  0.750000  1
  Cd  Cd3  1  0.831850  0.662796  0.750000  1
  Cd  Cd4  1  0.167934  0.832066  0.250000  1
  Cd  Cd5  1  0.658884  0.826347  0.250000  1
  Cd  Cd6  1  0.173653  0.341116  0.250000  1
  Sn  Sn7  1  0.831500  0.168500  0.750000  1
