# generated using pymatgen
data_Y5Ho11(ZnCo)4
_symmetry_space_group_name_H-M   'P 1'
_cell_length_a   9.32656954
_cell_length_b   9.32453305
_cell_length_c   9.32505045
_cell_angle_alpha   60.02067724
_cell_angle_beta   59.98724419
_cell_angle_gamma   59.98483945
_symmetry_Int_Tables_number   1
_chemical_formula_structural   Y5Ho11(ZnCo)4
_chemical_formula_sum   'Y5 Ho11 Zn4 Co4'
_cell_volume   573.40483503
_cell_formula_units_Z   1
loop_
 _symmetry_equiv_pos_site_id
 _symmetry_equiv_pos_as_xyz
  1  'x, y, z'
loop_
 _atom_site_type_symbol
 _atom_site_label
 _atom_site_symmetry_multiplicity
 _atom_site_fract_x
 _atom_site_fract_y
 _atom_site_fract_z
 _atom_site_occupancy
  Y  Y0  1  0.811584  0.188391  0.188441  1
  Y  Y1  1  0.812194  0.187830  0.811694  1
  Y  Y2  1  0.188337  0.811650  0.187955  1
  Y  Y3  1  0.812076  0.811673  0.187924  1
  Y  Y4  1  0.188293  0.187853  0.811677  1
  Ho  Ho5  1  0.599651  0.599950  0.600048  1
  Ho  Ho6  1  0.599879  0.599917  0.200328  1
  Ho  Ho7  1  0.599794  0.200488  0.599932  1
  Ho  Ho8  1  0.200348  0.599953  0.600057  1
  Ho  Ho9  1  0.059918  0.440109  0.440080  1
  Ho  Ho10  1  0.440035  0.060005  0.059936  1
  Ho  Ho11  1  0.439785  0.059807  0.440399  1
  Ho  Ho12  1  0.060058  0.440416  0.059764  1
  Ho  Ho13  1  0.439764  0.440409  0.059775  1
  Ho  Ho14  1  0.060027  0.059793  0.440402  1
  Ho  Ho15  1  0.188634  0.811402  0.811315  1
  Zn  Zn16  1  0.826823  0.826704  0.826666  1
  Zn  Zn17  1  0.826631  0.826625  0.520100  1
  Zn  Zn18  1  0.826650  0.520070  0.826611  1
  Zn  Zn19  1  0.519841  0.826689  0.826651  1
  Co  Co20  1  0.391787  0.391771  0.391771  1
  Co  Co21  1  0.391617  0.392095  0.824624  1
  Co  Co22  1  0.391606  0.824647  0.392089  1
  Co  Co23  1  0.824665  0.391756  0.391760  1
