# generated using pymatgen
data_Pr7Lu2Pu(Sc5Si8)2
_symmetry_space_group_name_H-M   'P 1'
_cell_length_a   7.24345058
_cell_length_b   7.54673697
_cell_length_c   14.29366591
_cell_angle_alpha   89.91138183
_cell_angle_beta   90.04523297
_cell_angle_gamma   90.13967870
_symmetry_Int_Tables_number   1
_chemical_formula_structural   Pr7Lu2Pu(Sc5Si8)2
_chemical_formula_sum   'Pr7 Lu2 Pu1 Sc10 Si16'
_cell_volume   781.35140558
_cell_formula_units_Z   1
loop_
 _symmetry_equiv_pos_site_id
 _symmetry_equiv_pos_as_xyz
  1  'x, y, z'
loop_
 _atom_site_type_symbol
 _atom_site_label
 _atom_site_symmetry_multiplicity
 _atom_site_fract_x
 _atom_site_fract_y
 _atom_site_fract_z
 _atom_site_occupancy
  Pr  Pr0  1  0.513116  0.323514  0.401541  1
  Pr  Pr1  1  0.486173  0.673558  0.902965  1
  Pr  Pr2  1  0.483871  0.675219  0.598850  1
  Pr  Pr3  1  0.986500  0.827232  0.596065  1
  Pr  Pr4  1  0.985138  0.827054  0.903116  1
  Pr  Pr5  1  0.514435  0.326865  0.097688  1
  Pr  Pr6  1  0.015414  0.173290  0.096850  1
  Lu  Lu7  1  0.324531  0.176822  0.623728  1
  Lu  Lu8  1  0.676614  0.825879  0.377097  1
  Pu  Pu9  1  0.016024  0.173233  0.398703  1
  Sc  Sc10  1  0.657824  0.002133  0.750248  1
  Sc  Sc11  1  0.171693  0.676022  0.373035  1
  Sc  Sc12  1  0.826856  0.325218  0.876029  1
  Sc  Sc13  1  0.829233  0.324156  0.624593  1
  Sc  Sc14  1  0.845158  0.493731  0.251507  1
  Sc  Sc15  1  0.338612  0.001646  0.251657  1
  Sc  Sc16  1  0.326737  0.176151  0.875546  1
  Sc  Sc17  1  0.172776  0.675503  0.125359  1
  Sc  Sc18  1  0.674050  0.824159  0.125461  1
  Sc  Sc19  1  0.156167  0.500597  0.751458  1
  Si  Si20  1  0.284030  0.880302  0.751682  1
  Si  Si21  1  0.467577  0.621010  0.248753  1
  Si  Si22  1  0.027626  0.126120  0.752623  1
  Si  Si23  1  0.533131  0.378800  0.751645  1
  Si  Si24  1  0.148404  0.463101  0.535378  1
  Si  Si25  1  0.971678  0.879720  0.248369  1
  Si  Si26  1  0.719048  0.119725  0.249509  1
  Si  Si27  1  0.850519  0.537800  0.040235  1
  Si  Si28  1  0.351123  0.962916  0.040197  1
  Si  Si29  1  0.150240  0.463630  0.960760  1
  Si  Si30  1  0.653987  0.038348  0.541729  1
  Si  Si31  1  0.338800  0.963166  0.457978  1
  Si  Si32  1  0.854149  0.528072  0.458784  1
  Si  Si33  1  0.785251  0.617879  0.750198  1
  Si  Si34  1  0.214196  0.380385  0.249992  1
  Si  Si35  1  0.649320  0.037043  0.960674  1
