# generated using pymatgen
data_Nd4In2Cu3Ir
_symmetry_space_group_name_H-M   'P 1'
_cell_length_a   7.79331011
_cell_length_b   7.79331046
_cell_length_c   3.84838900
_cell_angle_alpha   90.00000000
_cell_angle_beta   90.00000000
_cell_angle_gamma   89.86743562
_symmetry_Int_Tables_number   1
_chemical_formula_structural   Nd4In2Cu3Ir
_chemical_formula_sum   'Nd4 In2 Cu3 Ir1'
_cell_volume   233.73391729
_cell_formula_units_Z   1
loop_
 _symmetry_equiv_pos_site_id
 _symmetry_equiv_pos_as_xyz
  1  'x, y, z'
loop_
 _atom_site_type_symbol
 _atom_site_label
 _atom_site_symmetry_multiplicity
 _atom_site_fract_x
 _atom_site_fract_y
 _atom_site_fract_z
 _atom_site_occupancy
  Nd  Nd0  1  0.686274  0.186274  0.000000  1
  Nd  Nd1  1  0.324514  0.824514  0.000000  1
  Nd  Nd2  1  0.165281  0.317923  0.000000  1
  Nd  Nd3  1  0.817923  0.665281  0.000000  1
  In  In4  1  0.494633  0.500109  0.500000  1
  In  In5  1  0.000109  0.994633  0.500000  1
  Cu  Cu6  1  0.123093  0.623093  0.500000  1
  Cu  Cu7  1  0.385676  0.118133  0.500000  1
  Cu  Cu8  1  0.618133  0.885676  0.500000  1
  Ir  Ir9  1  0.884364  0.384364  0.500000  1
