# generated using pymatgen
data_Hf2TaRe3SiGe2
_symmetry_space_group_name_H-M   'P 1'
_cell_length_a   7.00245570
_cell_length_b   7.04527756
_cell_length_c   3.37455100
_cell_angle_alpha   90.00000000
_cell_angle_beta   90.00000000
_cell_angle_gamma   120.20250814
_symmetry_Int_Tables_number   1
_chemical_formula_structural   Hf2TaRe3SiGe2
_chemical_formula_sum   'Hf2 Ta1 Re3 Si1 Ge2'
_cell_volume   143.88160015
_cell_formula_units_Z   1
loop_
 _symmetry_equiv_pos_site_id
 _symmetry_equiv_pos_as_xyz
  1  'x, y, z'
loop_
 _atom_site_type_symbol
 _atom_site_label
 _atom_site_symmetry_multiplicity
 _atom_site_fract_x
 _atom_site_fract_y
 _atom_site_fract_z
 _atom_site_occupancy
  Hf  Hf0  1  0.398139  0.398921  0.500000  1
  Hf  Hf1  1  0.601861  0.000782  0.500000  1
  Ta  Ta2  1  0.000000  0.603244  0.500000  1
  Re  Re3  1  0.750354  0.746563  0.000000  1
  Re  Re4  1  0.249646  0.996210  0.000000  1
  Re  Re5  1  0.000000  0.253318  0.000000  1
  Si  Si6  1  0.000000  0.999378  0.500000  1
  Ge  Ge7  1  0.670389  0.335986  0.000000  1
  Ge  Ge8  1  0.329611  0.665599  0.000000  1
