# generated using pymatgen
data_Cs14VCr(In3P5)2
_symmetry_space_group_name_H-M   'P 1'
_cell_length_a   8.82763254
_cell_length_b   9.60301953
_cell_length_c   14.81328579
_cell_angle_alpha   85.09511111
_cell_angle_beta   84.36078232
_cell_angle_gamma   84.18047715
_symmetry_Int_Tables_number   1
_chemical_formula_structural   Cs14VCr(In3P5)2
_chemical_formula_sum   'Cs14 V1 Cr1 In6 P10'
_cell_volume   1239.60883679
_cell_formula_units_Z   1
loop_
 _symmetry_equiv_pos_site_id
 _symmetry_equiv_pos_as_xyz
  1  'x, y, z'
loop_
 _atom_site_type_symbol
 _atom_site_label
 _atom_site_symmetry_multiplicity
 _atom_site_fract_x
 _atom_site_fract_y
 _atom_site_fract_z
 _atom_site_occupancy
  Cs  Cs0  1  0.847592  0.362659  0.651138  1
  Cs  Cs1  1  0.818037  0.805258  0.132613  1
  Cs  Cs2  1  0.242162  0.008236  0.467849  1
  Cs  Cs3  1  0.274690  0.259899  0.250056  1
  Cs  Cs4  1  0.738324  0.498706  0.977470  1
  Cs  Cs5  1  0.256457  0.501902  0.023256  1
  Cs  Cs6  1  0.676306  0.084633  0.887950  1
  Cs  Cs7  1  0.760891  0.991255  0.532441  1
  Cs  Cs8  1  0.726190  0.740293  0.749834  1
  Cs  Cs9  1  0.338437  0.347687  0.598264  1
  Cs  Cs10  1  0.150339  0.638264  0.348794  1
  Cs  Cs11  1  0.181011  0.193250  0.866769  1
  Cs  Cs12  1  0.326012  0.912878  0.111051  1
  Cs  Cs13  1  0.660937  0.650804  0.401968  1
  V  V14  1  0.352264  0.608009  0.773109  1
  Cr  Cr15  1  0.647991  0.392267  0.226943  1
  In  In16  1  0.062184  0.811610  0.864406  1
  In  In17  1  0.937291  0.188744  0.136505  1
  In  In18  1  0.357029  0.943419  0.706087  1
  In  In19  1  0.102605  0.721928  0.628718  1
  In  In20  1  0.897552  0.279079  0.371234  1
  In  In21  1  0.646421  0.057504  0.293306  1
  P  P22  1  0.896794  0.444560  0.212576  1
  P  P23  1  0.630284  0.214731  0.132155  1
  P  P24  1  0.100106  0.554911  0.787217  1
  P  P25  1  0.589120  0.301734  0.374404  1
  P  P26  1  0.411696  0.698516  0.623050  1
  P  P27  1  0.038179  0.988177  0.703127  1
  P  P28  1  0.504242  0.416599  0.806717  1
  P  P29  1  0.497355  0.581358  0.194796  1
  P  P30  1  0.370298  0.788075  0.869208  1
  P  P31  1  0.961207  0.013058  0.296990  1
