# generated using pymatgen
data_SmBi3Os2O11
_symmetry_space_group_name_H-M   'P 1'
_cell_length_a   6.61843936
_cell_length_b   7.55478760
_cell_length_c   9.93772533
_cell_angle_alpha   101.01372297
_cell_angle_beta   91.96757709
_cell_angle_gamma   90.11424207
_symmetry_Int_Tables_number   1
_chemical_formula_structural   SmBi3Os2O11
_chemical_formula_sum   'Sm2 Bi6 Os4 O22'
_cell_volume   487.43706478
_cell_formula_units_Z   2
loop_
 _symmetry_equiv_pos_site_id
 _symmetry_equiv_pos_as_xyz
  1  'x, y, z'
loop_
 _atom_site_type_symbol
 _atom_site_label
 _atom_site_symmetry_multiplicity
 _atom_site_fract_x
 _atom_site_fract_y
 _atom_site_fract_z
 _atom_site_occupancy
  Sm  Sm0  1  0.750203  0.368754  0.478159  1
  Sm  Sm1  1  0.249797  0.631246  0.521841  1
  Bi  Bi2  1  0.753624  0.871453  0.485790  1
  Bi  Bi3  1  0.246376  0.128547  0.514210  1
  Bi  Bi4  1  0.476617  0.954556  0.820502  1
  Bi  Bi5  1  0.523383  0.045444  0.179498  1
  Bi  Bi6  1  0.412349  0.453670  0.824471  1
  Bi  Bi7  1  0.587651  0.546330  0.175529  1
  Os  Os8  1  0.938922  0.702763  0.810346  1
  Os  Os9  1  0.061078  0.297237  0.189654  1
  Os  Os10  1  0.937968  0.204261  0.812692  1
  Os  Os11  1  0.062032  0.795739  0.187308  1
  O  O12  1  0.232089  0.722320  0.764350  1
  O  O13  1  0.767911  0.277680  0.235650  1
  O  O14  1  0.642631  0.675729  0.828008  1
  O  O15  1  0.357369  0.324271  0.171992  1
  O  O16  1  0.642781  0.241280  0.842047  1
  O  O17  1  0.357219  0.758720  0.157953  1
  O  O18  1  0.890801  0.177105  0.609649  1
  O  O19  1  0.109199  0.822895  0.390351  1
  O  O20  1  0.229108  0.159206  0.763822  1
  O  O21  1  0.770892  0.840794  0.236178  1
  O  O22  1  0.904841  0.632785  0.603929  1
  O  O23  1  0.095159  0.367215  0.396071  1
  O  O24  1  0.008685  0.543657  0.177109  1
  O  O25  1  0.991315  0.456343  0.822891  1
  O  O26  1  0.996805  0.775221  0.999062  1
  O  O27  1  0.003195  0.224779  0.000938  1
  O  O28  1  0.568660  0.604483  0.396136  1
  O  O29  1  0.431340  0.395517  0.603864  1
  O  O30  1  0.142726  0.053098  0.214356  1
  O  O31  1  0.857274  0.946902  0.785644  1
  O  O32  1  0.543955  0.097325  0.399226  1
  O  O33  1  0.456045  0.902675  0.600774  1
