# generated using pymatgen
data_Rb4PrPaSe6
_symmetry_space_group_name_H-M   'P 1'
_cell_length_a   7.79782040
_cell_length_b   7.79782069
_cell_length_c   8.39640700
_cell_angle_alpha   80.94229584
_cell_angle_beta   80.94230295
_cell_angle_gamma   119.93540351
_symmetry_Int_Tables_number   1
_chemical_formula_structural   Rb4PrPaSe6
_chemical_formula_sum   'Rb4 Pr1 Pa1 Se6'
_cell_volume   419.98056828
_cell_formula_units_Z   1
loop_
 _symmetry_equiv_pos_site_id
 _symmetry_equiv_pos_as_xyz
  1  'x, y, z'
loop_
 _atom_site_type_symbol
 _atom_site_label
 _atom_site_symmetry_multiplicity
 _atom_site_fract_x
 _atom_site_fract_y
 _atom_site_fract_z
 _atom_site_occupancy
  Rb  Rb0  1  0.500023  0.499977  0.000000  1
  Rb  Rb1  1  0.655682  0.344318  0.500000  1
  Rb  Rb2  1  0.345032  0.654968  0.500000  1
  Rb  Rb3  1  0.999367  0.000633  0.500000  1
  Pr  Pr4  1  0.832209  0.167791  0.000000  1
  Pa  Pa5  1  0.167638  0.832362  0.000000  1
  Se  Se6  1  0.819213  0.800217  0.200367  1
  Se  Se7  1  0.199783  0.180787  0.799633  1
  Se  Se8  1  0.410996  0.041776  0.202758  1
  Se  Se9  1  0.549421  0.937586  0.796320  1
  Se  Se10  1  0.958224  0.589004  0.797242  1
  Se  Se11  1  0.062414  0.450579  0.203680  1
