# generated using pymatgen
data_Li2Nd3ZnIrPd2
_symmetry_space_group_name_H-M   'P 1'
_cell_length_a   7.36556801
_cell_length_b   7.37116087
_cell_length_c   4.08505000
_cell_angle_alpha   90.00000000
_cell_angle_beta   90.00000000
_cell_angle_gamma   119.63708319
_symmetry_Int_Tables_number   1
_chemical_formula_structural   Li2Nd3ZnIrPd2
_chemical_formula_sum   'Li2 Nd3 Zn1 Ir1 Pd2'
_cell_volume   192.77324776
_cell_formula_units_Z   1
loop_
 _symmetry_equiv_pos_site_id
 _symmetry_equiv_pos_as_xyz
  1  'x, y, z'
loop_
 _atom_site_type_symbol
 _atom_site_label
 _atom_site_symmetry_multiplicity
 _atom_site_fract_x
 _atom_site_fract_y
 _atom_site_fract_z
 _atom_site_occupancy
  Li  Li0  1  0.769384  0.767627  0.500000  1
  Li  Li1  1  0.231242  0.000012  0.500000  1
  Nd  Nd2  1  0.412388  0.405753  0.000000  1
  Nd  Nd3  1  0.594515  0.012952  0.000000  1
  Nd  Nd4  1  0.991389  0.574932  0.000000  1
  Zn  Zn5  1  0.996628  0.234113  0.500000  1
  Ir  Ir6  1  0.670139  0.333002  0.500000  1
  Pd  Pd7  1  0.001146  0.007548  0.000000  1
  Pd  Pd8  1  0.333169  0.664061  0.500000  1
