# generated using pymatgen
data_Zr6Al16Cu4Os3
_symmetry_space_group_name_H-M   'P 1'
_cell_length_a   8.73429380
_cell_length_b   8.73429479
_cell_length_c   8.63876200
_cell_angle_alpha   60.36116025
_cell_angle_beta   60.36115655
_cell_angle_gamma   59.27768118
_symmetry_Int_Tables_number   1
_chemical_formula_structural   Zr6Al16Cu4Os3
_chemical_formula_sum   'Zr6 Al16 Cu4 Os3'
_cell_volume   465.89638957
_cell_formula_units_Z   1
loop_
 _symmetry_equiv_pos_site_id
 _symmetry_equiv_pos_as_xyz
  1  'x, y, z'
loop_
 _atom_site_type_symbol
 _atom_site_label
 _atom_site_symmetry_multiplicity
 _atom_site_fract_x
 _atom_site_fract_y
 _atom_site_fract_z
 _atom_site_occupancy
  Zr  Zr0  1  0.192107  0.807893  0.807893  1
  Zr  Zr1  1  0.807893  0.192107  0.192107  1
  Zr  Zr2  1  0.807893  0.192107  0.807893  1
  Zr  Zr3  1  0.795264  0.795264  0.204736  1
  Zr  Zr4  1  0.192107  0.807893  0.192107  1
  Zr  Zr5  1  0.204736  0.204736  0.795264  1
  Al  Al6  1  0.833551  0.833551  0.837571  1
  Al  Al7  1  0.833551  0.833551  0.495327  1
  Al  Al8  1  0.495327  0.837571  0.833551  1
  Al  Al9  1  0.837571  0.495327  0.833551  1
  Al  Al10  1  0.166449  0.166449  0.162429  1
  Al  Al11  1  0.166449  0.166449  0.504673  1
  Al  Al12  1  0.162429  0.504673  0.166449  1
  Al  Al13  1  0.504673  0.162429  0.166449  1
  Al  Al14  1  0.614590  0.614590  0.627695  1
  Al  Al15  1  0.614590  0.614590  0.143125  1
  Al  Al16  1  0.143125  0.627695  0.614590  1
  Al  Al17  1  0.627695  0.143125  0.614590  1
  Al  Al18  1  0.385410  0.385410  0.372305  1
  Al  Al19  1  0.385410  0.385410  0.856875  1
  Al  Al20  1  0.372305  0.856875  0.385410  1
  Al  Al21  1  0.856875  0.372305  0.385410  1
  Cu  Cu22  1  0.000000  0.500000  0.500000  1
  Cu  Cu23  1  0.500000  0.000000  0.000000  1
  Cu  Cu24  1  0.500000  0.000000  0.500000  1
  Cu  Cu25  1  0.000000  0.500000  0.000000  1
  Os  Os26  1  0.500000  0.500000  0.500000  1
  Os  Os27  1  0.500000  0.500000  0.000000  1
  Os  Os28  1  0.000000  0.000000  0.500000  1
