# generated using pymatgen
data_Tb15ErCd4(CoPd)2
_symmetry_space_group_name_H-M   'P 1'
_cell_length_a   9.63663483
_cell_length_b   9.62957572
_cell_length_c   9.63270508
_cell_angle_alpha   60.07899193
_cell_angle_beta   60.07864602
_cell_angle_gamma   59.97929967
_symmetry_Int_Tables_number   1
_chemical_formula_structural   Tb15ErCd4(CoPd)2
_chemical_formula_sum   'Tb15 Er1 Cd4 Co2 Pd2'
_cell_volume   632.72361102
_cell_formula_units_Z   1
loop_
 _symmetry_equiv_pos_site_id
 _symmetry_equiv_pos_as_xyz
  1  'x, y, z'
loop_
 _atom_site_type_symbol
 _atom_site_label
 _atom_site_symmetry_multiplicity
 _atom_site_fract_x
 _atom_site_fract_y
 _atom_site_fract_z
 _atom_site_occupancy
  Tb  Tb0  1  0.586513  0.600098  0.601440  1
  Tb  Tb1  1  0.185061  0.815305  0.816102  1
  Tb  Tb2  1  0.070728  0.051151  0.438474  1
  Tb  Tb3  1  0.437140  0.062765  0.062444  1
  Tb  Tb4  1  0.812070  0.188454  0.816541  1
  Tb  Tb5  1  0.439392  0.051396  0.439100  1
  Tb  Tb6  1  0.597431  0.193639  0.615015  1
  Tb  Tb7  1  0.812901  0.815984  0.188530  1
  Tb  Tb8  1  0.204800  0.602786  0.603930  1
  Tb  Tb9  1  0.809098  0.189670  0.188877  1
  Tb  Tb10  1  0.060686  0.440275  0.439943  1
  Tb  Tb11  1  0.185445  0.814295  0.187102  1
  Tb  Tb12  1  0.598492  0.615172  0.192185  1
  Tb  Tb13  1  0.184727  0.187314  0.814557  1
  Tb  Tb14  1  0.071776  0.438230  0.051445  1
  Er  Er15  1  0.440055  0.439695  0.050829  1
  Cd  Cd16  1  0.831199  0.828716  0.507190  1
  Cd  Cd17  1  0.833107  0.830632  0.830451  1
  Cd  Cd18  1  0.504182  0.829895  0.830514  1
  Cd  Cd19  1  0.830785  0.507143  0.828868  1
  Co  Co20  1  0.392459  0.823692  0.390509  1
  Co  Co21  1  0.392714  0.390782  0.825025  1
  Pd  Pd22  1  0.398214  0.392408  0.390534  1
  Pd  Pd23  1  0.821031  0.390503  0.390392  1
