# generated using pymatgen
data_Ca3Dy(Ga5Ir3)2
_symmetry_space_group_name_H-M   'P 1'
_cell_length_a   8.66445165
_cell_length_b   8.59341603
_cell_length_c   8.59341491
_cell_angle_alpha   140.60745819
_cell_angle_beta   110.46673353
_cell_angle_gamma   82.85722570
_symmetry_Int_Tables_number   1
_chemical_formula_structural   Ca3Dy(Ga5Ir3)2
_chemical_formula_sum   'Ca3 Dy1 Ga10 Ir6'
_cell_volume   368.80131553
_cell_formula_units_Z   1
loop_
 _symmetry_equiv_pos_site_id
 _symmetry_equiv_pos_as_xyz
  1  'x, y, z'
loop_
 _atom_site_type_symbol
 _atom_site_label
 _atom_site_symmetry_multiplicity
 _atom_site_fract_x
 _atom_site_fract_y
 _atom_site_fract_z
 _atom_site_occupancy
  Ca  Ca0  1  0.873776  0.646218  0.227557  1
  Ca  Ca1  1  0.126137  0.353436  0.772700  1
  Ca  Ca2  1  0.416802  0.144697  0.272105  1
  Dy  Dy3  1  0.583009  0.856432  0.726577  1
  Ga  Ga4  1  0.499899  0.747418  0.245316  1
  Ga  Ga5  1  0.499899  0.254583  0.752480  1
  Ga  Ga6  1  0.202151  0.952901  0.751855  1
  Ga  Ga7  1  0.797260  0.546549  0.748791  1
  Ga  Ga8  1  0.797260  0.048469  0.250711  1
  Ga  Ga9  1  0.202151  0.450296  0.249251  1
  Ga  Ga10  1  0.100055  0.916854  0.183200  1
  Ga  Ga11  1  0.900721  0.082647  0.818075  1
  Ga  Ga12  1  0.734703  0.416784  0.317919  1
  Ga  Ga13  1  0.263699  0.582254  0.681445  1
  Ir  Ir14  1  0.998787  0.747847  0.747971  1
  Ir  Ir15  1  0.998787  0.250816  0.250940  1
  Ir  Ir16  1  0.271055  0.850259  0.420796  1
  Ir  Ir17  1  0.732733  0.149082  0.583650  1
  Ir  Ir18  1  0.435706  0.348843  0.086864  1
  Ir  Ir19  1  0.565411  0.653615  0.911795  1
