# generated using pymatgen
data_Tb19Dy(Bi2P)4
_symmetry_space_group_name_H-M   'P 1'
_cell_length_a   8.05419603
_cell_length_b   8.99175100
_cell_length_c   12.26425304
_cell_angle_alpha   90.00162861
_cell_angle_beta   90.00944673
_cell_angle_gamma   89.99746564
_symmetry_Int_Tables_number   1
_chemical_formula_structural   Tb19Dy(Bi2P)4
_chemical_formula_sum   'Tb19 Dy1 Bi8 P4'
_cell_volume   888.19344498
_cell_formula_units_Z   1
loop_
 _symmetry_equiv_pos_site_id
 _symmetry_equiv_pos_as_xyz
  1  'x, y, z'
loop_
 _atom_site_type_symbol
 _atom_site_label
 _atom_site_symmetry_multiplicity
 _atom_site_fract_x
 _atom_site_fract_y
 _atom_site_fract_z
 _atom_site_occupancy
  Tb  Tb0  1  0.852112  0.750016  0.794858  1
  Tb  Tb1  1  0.147729  0.249997  0.204920  1
  Tb  Tb2  1  0.352070  0.249989  0.704988  1
  Tb  Tb3  1  0.647919  0.749863  0.295055  1
  Tb  Tb4  1  0.376175  0.749895  0.698688  1
  Tb  Tb5  1  0.623920  0.250048  0.301279  1
  Tb  Tb6  1  0.876019  0.249901  0.801059  1
  Tb  Tb7  1  0.123825  0.749953  0.198815  1
  Tb  Tb8  1  0.959780  0.750024  0.502528  1
  Tb  Tb9  1  0.040014  0.250003  0.497624  1
  Tb  Tb10  1  0.460076  0.249957  0.997582  1
  Tb  Tb11  1  0.540113  0.750047  0.002458  1
  Tb  Tb12  1  0.315903  0.953332  0.435836  1
  Tb  Tb13  1  0.183895  0.953500  0.935851  1
  Tb  Tb14  1  0.316144  0.546758  0.435721  1
  Tb  Tb15  1  0.815877  0.046679  0.064183  1
  Tb  Tb16  1  0.683907  0.453077  0.564133  1
  Tb  Tb17  1  0.815937  0.453271  0.064147  1
  Tb  Tb18  1  0.183914  0.546459  0.935845  1
  Dy  Dy19  1  0.683350  0.047082  0.564094  1
  Bi  Bi20  1  0.577265  0.491349  0.826119  1
  Bi  Bi21  1  0.422615  0.508643  0.173939  1
  Bi  Bi22  1  0.077291  0.508622  0.673902  1
  Bi  Bi23  1  0.422640  0.991311  0.173928  1
  Bi  Bi24  1  0.922718  0.491315  0.326083  1
  Bi  Bi25  1  0.577373  0.008678  0.825956  1
  Bi  Bi26  1  0.922670  0.008599  0.326205  1
  Bi  Bi27  1  0.077220  0.991340  0.673789  1
  P  P28  1  0.569608  0.750985  0.511281  1
  P  P29  1  0.431563  0.249304  0.489129  1
  P  P30  1  0.069254  0.249981  0.988909  1
  P  P31  1  0.931105  0.750021  0.011094  1
