# generated using pymatgen
data_Ce4Cd2Pd2PtAu
_symmetry_space_group_name_H-M   'P 1'
_cell_length_a   7.96232681
_cell_length_b   7.96177416
_cell_length_c   3.78416900
_cell_angle_alpha   90.00000000
_cell_angle_beta   90.00000000
_cell_angle_gamma   90.45650268
_symmetry_Int_Tables_number   1
_chemical_formula_structural   Ce4Cd2Pd2PtAu
_chemical_formula_sum   'Ce4 Cd2 Pd2 Pt1 Au1'
_cell_volume   239.88693334
_cell_formula_units_Z   1
loop_
 _symmetry_equiv_pos_site_id
 _symmetry_equiv_pos_as_xyz
  1  'x, y, z'
loop_
 _atom_site_type_symbol
 _atom_site_label
 _atom_site_symmetry_multiplicity
 _atom_site_fract_x
 _atom_site_fract_y
 _atom_site_fract_z
 _atom_site_occupancy
  Ce  Ce0  1  0.169973  0.325185  0.500000  1
  Ce  Ce1  1  0.320192  0.831559  0.500000  1
  Ce  Ce2  1  0.835362  0.659925  0.500000  1
  Ce  Ce3  1  0.672342  0.182848  0.500000  1
  Cd  Cd4  1  0.496114  0.500267  0.000000  1
  Cd  Cd5  1  0.999725  0.999731  0.000000  1
  Pd  Pd6  1  0.133871  0.629702  0.000000  1
  Pd  Pd7  1  0.370080  0.129571  0.000000  1
  Pt  Pt8  1  0.873819  0.369424  0.000000  1
  Au  Au9  1  0.628522  0.871788  0.000000  1
