# generated using pymatgen
data_Ho2Ga2RuPt
_symmetry_space_group_name_H-M   'P 1'
_cell_length_a   4.39180700
_cell_length_b   6.84340900
_cell_length_c   7.69613700
_cell_angle_alpha   90.00000000
_cell_angle_beta   90.00000000
_cell_angle_gamma   90.00000000
_symmetry_Int_Tables_number   1
_chemical_formula_structural   Ho2Ga2RuPt
_chemical_formula_sum   'Ho4 Ga4 Ru2 Pt2'
_cell_volume   231.30687073
_cell_formula_units_Z   2
loop_
 _symmetry_equiv_pos_site_id
 _symmetry_equiv_pos_as_xyz
  1  'x, y, z'
loop_
 _atom_site_type_symbol
 _atom_site_label
 _atom_site_symmetry_multiplicity
 _atom_site_fract_x
 _atom_site_fract_y
 _atom_site_fract_z
 _atom_site_occupancy
  Ho  Ho0  1  0.250000  0.016718  0.809531  1
  Ho  Ho1  1  0.250000  0.516718  0.690469  1
  Ho  Ho2  1  0.750000  0.989732  0.202637  1
  Ho  Ho3  1  0.750000  0.489732  0.297363  1
  Ga  Ga4  1  0.250000  0.171480  0.417059  1
  Ga  Ga5  1  0.250000  0.671480  0.082941  1
  Ga  Ga6  1  0.750000  0.820498  0.574753  1
  Ga  Ga7  1  0.750000  0.320498  0.925247  1
  Ru  Ru8  1  0.250000  0.781037  0.404465  1
  Ru  Ru9  1  0.250000  0.281037  0.095535  1
  Pt  Pt10  1  0.750000  0.220534  0.595890  1
  Pt  Pt11  1  0.750000  0.720534  0.904110  1
