# generated using pymatgen
data_La7Nd9Cd4FePd3
_symmetry_space_group_name_H-M   'P 1'
_cell_length_a   10.05761107
_cell_length_b   10.06399994
_cell_length_c   10.11041217
_cell_angle_alpha   59.65518484
_cell_angle_beta   59.73813688
_cell_angle_gamma   59.86731291
_symmetry_Int_Tables_number   1
_chemical_formula_structural   La7Nd9Cd4FePd3
_chemical_formula_sum   'La7 Nd9 Cd4 Fe1 Pd3'
_cell_volume   719.57983876
_cell_formula_units_Z   1
loop_
 _symmetry_equiv_pos_site_id
 _symmetry_equiv_pos_as_xyz
  1  'x, y, z'
loop_
 _atom_site_type_symbol
 _atom_site_label
 _atom_site_symmetry_multiplicity
 _atom_site_fract_x
 _atom_site_fract_y
 _atom_site_fract_z
 _atom_site_occupancy
  La  La0  1  0.353287  0.352746  0.352157  1
  La  La1  1  0.342782  0.340974  0.954681  1
  La  La2  1  0.345183  0.954043  0.344105  1
  La  La3  1  0.955207  0.344060  0.344504  1
  La  La4  1  0.827738  0.187136  0.184821  1
  La  La5  1  0.187713  0.808168  0.808759  1
  La  La6  1  0.187048  0.827315  0.187393  1
  Nd  Nd7  1  0.806102  0.190070  0.808332  1
  Nd  Nd8  1  0.189818  0.192651  0.815650  1
  Nd  Nd9  1  0.804466  0.806489  0.191602  1
  Nd  Nd10  1  0.933552  0.566010  0.565637  1
  Nd  Nd11  1  0.564838  0.933328  0.932366  1
  Nd  Nd12  1  0.566574  0.935392  0.564026  1
  Nd  Nd13  1  0.933100  0.562956  0.934440  1
  Nd  Nd14  1  0.565325  0.563289  0.935683  1
  Nd  Nd15  1  0.934639  0.936716  0.561295  1
  Cd  Cd16  1  0.581069  0.578650  0.579666  1
  Cd  Cd17  1  0.582271  0.582365  0.256530  1
  Cd  Cd18  1  0.580485  0.256656  0.583094  1
  Cd  Cd19  1  0.256954  0.579661  0.582140  1
  Fe  Fe20  1  0.136069  0.137677  0.151677  1
  Pd  Pd21  1  0.145445  0.143677  0.573183  1
  Pd  Pd22  1  0.146692  0.573773  0.143349  1
  Pd  Pd23  1  0.573648  0.146200  0.144914  1
