# generated using pymatgen
data_Rb2Nb(WO4)3
_symmetry_space_group_name_H-M   'P 1'
_cell_length_a   7.45965752
_cell_length_b   7.45965795
_cell_length_c   7.41690919
_cell_angle_alpha   59.99751568
_cell_angle_beta   59.99751261
_cell_angle_gamma   59.81569506
_symmetry_Int_Tables_number   1
_chemical_formula_structural   Rb2Nb(WO4)3
_chemical_formula_sum   'Rb2 Nb1 W3 O12'
_cell_volume   291.42104962
_cell_formula_units_Z   1
loop_
 _symmetry_equiv_pos_site_id
 _symmetry_equiv_pos_as_xyz
  1  'x, y, z'
loop_
 _atom_site_type_symbol
 _atom_site_label
 _atom_site_symmetry_multiplicity
 _atom_site_fract_x
 _atom_site_fract_y
 _atom_site_fract_z
 _atom_site_occupancy
  Rb  Rb0  1  0.835606  0.900280  0.386987  1
  Rb  Rb1  1  0.099720  0.164394  0.613013  1
  Nb  Nb2  1  0.485401  0.514599  0.000000  1
  W  W3  1  0.989993  0.506035  0.995394  1
  W  W4  1  0.493965  0.010007  0.004606  1
  W  W5  1  0.501298  0.498702  0.500000  1
  O  O6  1  0.189599  0.190466  0.061134  1
  O  O7  1  0.566258  0.559935  0.681781  1
  O  O8  1  0.183858  0.561228  0.060783  1
  O  O9  1  0.567569  0.176932  0.694031  1
  O  O10  1  0.563166  0.183419  0.063050  1
  O  O11  1  0.181825  0.562276  0.693934  1
  O  O12  1  0.809534  0.810401  0.938866  1
  O  O13  1  0.440065  0.433742  0.318219  1
  O  O14  1  0.816581  0.436834  0.936950  1
  O  O15  1  0.437724  0.818175  0.306066  1
  O  O16  1  0.438772  0.816142  0.939217  1
  O  O17  1  0.823068  0.432431  0.305969  1
