# generated using pymatgen
data_CsLaSm2CBr6
_symmetry_space_group_name_H-M   'P 1'
_cell_length_a   9.01422465
_cell_length_b   9.04801009
_cell_length_c   9.80522763
_cell_angle_alpha   69.55435142
_cell_angle_beta   85.61804361
_cell_angle_gamma   89.08160179
_symmetry_Int_Tables_number   1
_chemical_formula_structural   CsLaSm2CBr6
_chemical_formula_sum   'Cs2 La2 Sm4 C2 Br12'
_cell_volume   747.10377082
_cell_formula_units_Z   2
loop_
 _symmetry_equiv_pos_site_id
 _symmetry_equiv_pos_as_xyz
  1  'x, y, z'
loop_
 _atom_site_type_symbol
 _atom_site_label
 _atom_site_symmetry_multiplicity
 _atom_site_fract_x
 _atom_site_fract_y
 _atom_site_fract_z
 _atom_site_occupancy
  Cs  Cs0  1  0.470463  0.363522  0.328259  1
  Cs  Cs1  1  0.529538  0.636478  0.671741  1
  La  La2  1  0.976717  0.877459  0.330558  1
  La  La3  1  0.023282  0.122541  0.669443  1
  Sm  Sm4  1  0.915524  0.740903  0.006160  1
  Sm  Sm5  1  0.084476  0.259097  0.993839  1
  Sm  Sm6  1  0.739787  0.086683  0.001437  1
  Sm  Sm7  1  0.260212  0.913317  0.998564  1
  C  C8  1  0.005151  0.028005  0.922333  1
  C  C9  1  0.994848  0.971995  0.077667  1
  Br  Br10  1  0.082621  0.202439  0.317498  1
  Br  Br11  1  0.917379  0.797561  0.682502  1
  Br  Br12  1  0.205772  0.592527  0.001661  1
  Br  Br13  1  0.794229  0.407473  0.998339  1
  Br  Br14  1  0.402986  0.201239  0.002029  1
  Br  Br15  1  0.597013  0.798762  0.997970  1
  Br  Br16  1  0.664162  0.003197  0.321208  1
  Br  Br17  1  0.335838  0.996803  0.678792  1
  Br  Br18  1  0.292861  0.768387  0.316873  1
  Br  Br19  1  0.707139  0.231613  0.683127  1
  Br  Br20  1  0.845674  0.579433  0.323012  1
  Br  Br21  1  0.154325  0.420567  0.676988  1
