# generated using pymatgen
data_ZrZn11(PtRh)6
_symmetry_space_group_name_H-M   'P 1'
_cell_length_a   4.35628300
_cell_length_b   6.15444200
_cell_length_c   13.07041300
_cell_angle_alpha   89.99995946
_cell_angle_beta   90.00004384
_cell_angle_gamma   89.99997754
_symmetry_Int_Tables_number   1
_chemical_formula_structural   ZrZn11(PtRh)6
_chemical_formula_sum   'Zr1 Zn11 Pt6 Rh6'
_cell_volume   350.42419088
_cell_formula_units_Z   1
loop_
 _symmetry_equiv_pos_site_id
 _symmetry_equiv_pos_as_xyz
  1  'x, y, z'
loop_
 _atom_site_type_symbol
 _atom_site_label
 _atom_site_symmetry_multiplicity
 _atom_site_fract_x
 _atom_site_fract_y
 _atom_site_fract_z
 _atom_site_occupancy
  Zr  Zr0  1  0.499998  0.249527  0.999999  1
  Zn  Zn1  1  0.499999  0.747697  0.000000  1
  Zn  Zn2  1  0.000003  0.250200  0.168024  1
  Zn  Zn3  1  0.000004  0.749705  0.171580  1
  Zn  Zn4  1  0.500009  0.249622  0.334737  1
  Zn  Zn5  1  0.500007  0.751393  0.339334  1
  Zn  Zn6  1  0.999999  0.250053  0.500006  1
  Zn  Zn7  1  0.000000  0.750331  0.499996  1
  Zn  Zn8  1  0.499994  0.249643  0.665264  1
  Zn  Zn9  1  0.499995  0.751410  0.660667  1
  Zn  Zn10  1  0.999996  0.250209  0.831971  1
  Zn  Zn11  1  0.999995  0.749720  0.828426  1
  Pt  Pt12  1  0.999996  0.984089  0.999999  1
  Pt  Pt13  1  0.500005  0.506362  0.171469  1
  Pt  Pt14  1  0.000008  0.001528  0.333456  1
  Pt  Pt15  1  0.500000  0.497465  0.500000  1
  Pt  Pt16  1  0.999992  0.001543  0.666543  1
  Pt  Pt17  1  0.499996  0.506368  0.828531  1
  Rh  Rh18  1  0.999999  0.511106  0.999998  1
  Rh  Rh19  1  0.500004  0.994961  0.169002  1
  Rh  Rh20  1  0.000012  0.499196  0.333940  1
  Rh  Rh21  1  0.500000  0.003659  0.500001  1
  Rh  Rh22  1  0.999997  0.499246  0.666060  1
  Rh  Rh23  1  0.499993  0.994966  0.830997  1
