# generated using pymatgen
data_Ho16Cd3Ni3HgRu
_symmetry_space_group_name_H-M   'P 1'
_cell_length_a   9.52884769
_cell_length_b   9.52551517
_cell_length_c   9.52891072
_cell_angle_alpha   59.70359512
_cell_angle_beta   59.66547624
_cell_angle_gamma   59.69993038
_symmetry_Int_Tables_number   1
_chemical_formula_structural   Ho16Cd3Ni3HgRu
_chemical_formula_sum   'Ho16 Cd3 Ni3 Hg1 Ru1'
_cell_volume   607.27380047
_cell_formula_units_Z   1
loop_
 _symmetry_equiv_pos_site_id
 _symmetry_equiv_pos_as_xyz
  1  'x, y, z'
loop_
 _atom_site_type_symbol
 _atom_site_label
 _atom_site_symmetry_multiplicity
 _atom_site_fract_x
 _atom_site_fract_y
 _atom_site_fract_z
 _atom_site_occupancy
  Ho  Ho0  1  0.347447  0.346351  0.346877  1
  Ho  Ho1  1  0.352086  0.351989  0.951284  1
  Ho  Ho2  1  0.351280  0.952540  0.352259  1
  Ho  Ho3  1  0.951952  0.352291  0.351728  1
  Ho  Ho4  1  0.810369  0.187639  0.187837  1
  Ho  Ho5  1  0.187240  0.810956  0.810825  1
  Ho  Ho6  1  0.187824  0.810394  0.188023  1
  Ho  Ho7  1  0.810478  0.187449  0.810868  1
  Ho  Ho8  1  0.187674  0.187842  0.810913  1
  Ho  Ho9  1  0.811505  0.810375  0.187277  1
  Ho  Ho10  1  0.935632  0.565097  0.565786  1
  Ho  Ho11  1  0.559019  0.937659  0.937837  1
  Ho  Ho12  1  0.565556  0.935188  0.565976  1
  Ho  Ho13  1  0.937496  0.558934  0.937674  1
  Ho  Ho14  1  0.565206  0.565373  0.935762  1
  Ho  Ho15  1  0.937306  0.937608  0.559103  1
  Cd  Cd16  1  0.579910  0.579743  0.255664  1
  Cd  Cd17  1  0.579838  0.255524  0.579869  1
  Cd  Cd18  1  0.255552  0.579921  0.579989  1
  Ni  Ni19  1  0.140264  0.144409  0.575242  1
  Ni  Ni20  1  0.144727  0.573375  0.141913  1
  Ni  Ni21  1  0.574720  0.142015  0.139831  1
  Hg  Hg22  1  0.583557  0.583952  0.583742  1
  Ru  Ru23  1  0.143363  0.143375  0.143720  1
