# generated using pymatgen
data_Y2Th2Pd3PtPb2
_symmetry_space_group_name_H-M   'P 1'
_cell_length_a   8.07209570
_cell_length_b   8.05457668
_cell_length_c   3.69682700
_cell_angle_alpha   90.00000000
_cell_angle_beta   90.00000000
_cell_angle_gamma   90.09363905
_symmetry_Int_Tables_number   1
_chemical_formula_structural   Y2Th2Pd3PtPb2
_chemical_formula_sum   'Y2 Th2 Pd3 Pt1 Pb2'
_cell_volume   240.35744020
_cell_formula_units_Z   1
loop_
 _symmetry_equiv_pos_site_id
 _symmetry_equiv_pos_as_xyz
  1  'x, y, z'
loop_
 _atom_site_type_symbol
 _atom_site_label
 _atom_site_symmetry_multiplicity
 _atom_site_fract_x
 _atom_site_fract_y
 _atom_site_fract_z
 _atom_site_occupancy
  Y  Y0  1  0.825631  0.668034  0.500000  1
  Y  Y1  1  0.329018  0.829032  0.500000  1
  Th  Th2  1  0.672940  0.171638  0.500000  1
  Th  Th3  1  0.165535  0.329355  0.500000  1
  Pd  Pd4  1  0.373365  0.130720  0.000000  1
  Pd  Pd5  1  0.627758  0.880996  0.000000  1
  Pd  Pd6  1  0.129185  0.624233  0.000000  1
  Pt  Pt7  1  0.876066  0.371583  0.000000  1
  Pb  Pb8  1  0.002764  0.981786  0.000000  1
  Pb  Pb9  1  0.497736  0.512624  0.000000  1
