# generated using pymatgen
data_Li4TbSm3(Si2Sn)2
_symmetry_space_group_name_H-M   'P 1'
_cell_length_a   9.68004905
_cell_length_b   9.68004886
_cell_length_c   6.78829300
_cell_angle_alpha   90.00000000
_cell_angle_beta   90.00000000
_cell_angle_gamma   153.27831686
_symmetry_Int_Tables_number   1
_chemical_formula_structural   Li4TbSm3(Si2Sn)2
_chemical_formula_sum   'Li4 Tb1 Sm3 Si4 Sn2'
_cell_volume   286.02045880
_cell_formula_units_Z   1
loop_
 _symmetry_equiv_pos_site_id
 _symmetry_equiv_pos_as_xyz
  1  'x, y, z'
loop_
 _atom_site_type_symbol
 _atom_site_label
 _atom_site_symmetry_multiplicity
 _atom_site_fract_x
 _atom_site_fract_y
 _atom_site_fract_z
 _atom_site_occupancy
  Li  Li0  1  0.815585  0.184415  0.554083  1
  Li  Li1  1  0.184339  0.815661  0.445799  1
  Li  Li2  1  0.184339  0.815661  0.054201  1
  Li  Li3  1  0.815585  0.184415  0.945917  1
  Tb  Tb4  1  0.548096  0.451904  0.250000  1
  Sm  Sm5  1  0.451901  0.548099  0.750000  1
  Sm  Sm6  1  0.350774  0.649226  0.250000  1
  Sm  Sm7  1  0.649244  0.350756  0.750000  1
  Si  Si8  1  0.942719  0.057281  0.073938  1
  Si  Si9  1  0.057562  0.942438  0.927452  1
  Si  Si10  1  0.057562  0.942438  0.572548  1
  Si  Si11  1  0.942719  0.057281  0.426062  1
  Sn  Sn12  1  0.718505  0.281495  0.250000  1
  Sn  Sn13  1  0.281071  0.718929  0.750000  1
