# generated using pymatgen
data_Y2Tm18Zn3Cd3Ru2
_symmetry_space_group_name_H-M   'P 1'
_cell_length_a   9.40546215
_cell_length_b   9.40546298
_cell_length_c   9.56256600
_cell_angle_alpha   90.00000000
_cell_angle_beta   90.00000000
_cell_angle_gamma   119.97925448
_symmetry_Int_Tables_number   1
_chemical_formula_structural   Y2Tm18Zn3Cd3Ru2
_chemical_formula_sum   'Y2 Tm18 Zn3 Cd3 Ru2'
_cell_volume   732.75053737
_cell_formula_units_Z   1
loop_
 _symmetry_equiv_pos_site_id
 _symmetry_equiv_pos_as_xyz
  1  'x, y, z'
loop_
 _atom_site_type_symbol
 _atom_site_label
 _atom_site_symmetry_multiplicity
 _atom_site_fract_x
 _atom_site_fract_y
 _atom_site_fract_z
 _atom_site_occupancy
  Y  Y0  1  0.459472  0.918362  0.750000  1
  Y  Y1  1  0.081638  0.540528  0.750000  1
  Tm  Tm2  1  0.999950  0.000050  0.474868  1
  Tm  Tm3  1  0.999950  0.000050  0.025132  1
  Tm  Tm4  1  0.208038  0.791962  0.438080  1
  Tm  Tm5  1  0.208551  0.416321  0.438522  1
  Tm  Tm6  1  0.583679  0.791449  0.438522  1
  Tm  Tm7  1  0.790900  0.209100  0.555992  1
  Tm  Tm8  1  0.790295  0.581765  0.556260  1
  Tm  Tm9  1  0.418235  0.209705  0.556260  1
  Tm  Tm10  1  0.790900  0.209100  0.944008  1
  Tm  Tm11  1  0.790295  0.581765  0.943740  1
  Tm  Tm12  1  0.418235  0.209705  0.943740  1
  Tm  Tm13  1  0.208038  0.791962  0.061920  1
  Tm  Tm14  1  0.208551  0.416321  0.061478  1
  Tm  Tm15  1  0.583679  0.791449  0.061478  1
  Tm  Tm16  1  0.541413  0.458587  0.250000  1
  Tm  Tm17  1  0.541393  0.082745  0.250000  1
  Tm  Tm18  1  0.917255  0.458607  0.250000  1
  Tm  Tm19  1  0.459769  0.540231  0.750000  1
  Zn  Zn20  1  0.878097  0.121903  0.250000  1
  Zn  Zn21  1  0.878016  0.756161  0.250000  1
  Zn  Zn22  1  0.243839  0.121984  0.250000  1
  Cd  Cd23  1  0.110078  0.889922  0.750000  1
  Cd  Cd24  1  0.110800  0.220819  0.750000  1
  Cd  Cd25  1  0.779181  0.889200  0.750000  1
  Ru  Ru26  1  0.333278  0.666722  0.250000  1
  Ru  Ru27  1  0.666474  0.333526  0.750000  1
