# generated using pymatgen
data_Ce9PaO20
_symmetry_space_group_name_H-M   'P 1'
_cell_length_a   6.69791487
_cell_length_b   7.73104963
_cell_length_c   8.64509038
_cell_angle_alpha   102.91414068
_cell_angle_beta   97.42349733
_cell_angle_gamma   106.77094465
_symmetry_Int_Tables_number   1
_chemical_formula_structural   Ce9PaO20
_chemical_formula_sum   'Ce9 Pa1 O20'
_cell_volume   408.68031607
_cell_formula_units_Z   1
loop_
 _symmetry_equiv_pos_site_id
 _symmetry_equiv_pos_as_xyz
  1  'x, y, z'
loop_
 _atom_site_type_symbol
 _atom_site_label
 _atom_site_symmetry_multiplicity
 _atom_site_fract_x
 _atom_site_fract_y
 _atom_site_fract_z
 _atom_site_occupancy
  Ce  Ce0  1  0.799585  0.599003  0.598793  1
  Ce  Ce1  1  0.600225  0.200949  0.201003  1
  Ce  Ce2  1  0.000000  0.500000  0.000000  1
  Ce  Ce3  1  0.799893  0.100267  0.598595  1
  Ce  Ce4  1  0.200415  0.400997  0.401207  1
  Ce  Ce5  1  0.597925  0.698918  0.200482  1
  Ce  Ce6  1  0.402075  0.301082  0.799518  1
  Ce  Ce7  1  0.200107  0.899733  0.401405  1
  Ce  Ce8  1  0.399775  0.799051  0.798997  1
  Pa  Pa9  1  0.000000  0.000000  0.000000  1
  O  O10  1  0.850004  0.324940  0.447842  1
  O  O11  1  0.658382  0.927586  0.048000  1
  O  O12  1  0.950511  0.781210  0.145630  1
  O  O13  1  0.452052  0.526938  0.650506  1
  O  O14  1  0.848590  0.823974  0.449182  1
  O  O15  1  0.242707  0.121519  0.243146  1
  O  O16  1  0.753699  0.376006  0.750157  1
  O  O17  1  0.651854  0.424695  0.050944  1
  O  O18  1  0.548172  0.975432  0.348365  1
  O  O19  1  0.451828  0.024568  0.651635  1
  O  O20  1  0.048834  0.732920  0.854426  1
  O  O21  1  0.951166  0.267080  0.145574  1
  O  O22  1  0.348146  0.575305  0.949056  1
  O  O23  1  0.246301  0.623994  0.249843  1
  O  O24  1  0.757293  0.878481  0.756854  1
  O  O25  1  0.547948  0.473062  0.349494  1
  O  O26  1  0.151410  0.176026  0.550818  1
  O  O27  1  0.049489  0.218790  0.854370  1
  O  O28  1  0.341618  0.072414  0.952000  1
  O  O29  1  0.149996  0.675060  0.552158  1
