# generated using pymatgen
data_Tb2HoTm(Mo2O7)2
_symmetry_space_group_name_H-M   'P 1'
_cell_length_a   7.36600868
_cell_length_b   7.36600998
_cell_length_c   7.32900302
_cell_angle_alpha   60.25131041
_cell_angle_beta   60.25130282
_cell_angle_gamma   59.72967814
_symmetry_Int_Tables_number   1
_chemical_formula_structural   Tb2HoTm(Mo2O7)2
_chemical_formula_sum   'Tb2 Ho1 Tm1 Mo4 O14'
_cell_volume   281.66439711
_cell_formula_units_Z   1
loop_
 _symmetry_equiv_pos_site_id
 _symmetry_equiv_pos_as_xyz
  1  'x, y, z'
loop_
 _atom_site_type_symbol
 _atom_site_label
 _atom_site_symmetry_multiplicity
 _atom_site_fract_x
 _atom_site_fract_y
 _atom_site_fract_z
 _atom_site_occupancy
  Tb  Tb0  1  0.625000  0.125000  0.125000  1
  Tb  Tb1  1  0.125000  0.625000  0.125000  1
  Ho  Ho2  1  0.125000  0.125000  0.625000  1
  Tm  Tm3  1  0.125000  0.125000  0.125000  1
  Mo  Mo4  1  0.625000  0.625000  0.625000  1
  Mo  Mo5  1  0.125000  0.625000  0.625000  1
  Mo  Mo6  1  0.625000  0.625000  0.125000  1
  Mo  Mo7  1  0.625000  0.125000  0.625000  1
  O  O8  1  0.003029  0.003029  0.998626  1
  O  O9  1  0.246971  0.246971  0.251374  1
  O  O10  1  0.278953  0.278953  0.722056  1
  O  O11  1  0.529240  0.529240  0.970683  1
  O  O12  1  0.713370  0.287641  0.711154  1
  O  O13  1  0.714392  0.287312  0.287446  1
  O  O14  1  0.287641  0.713370  0.711154  1
  O  O15  1  0.287312  0.714392  0.287446  1
  O  O16  1  0.720760  0.720760  0.279317  1
  O  O17  1  0.962359  0.536630  0.538846  1
  O  O18  1  0.535608  0.962688  0.962554  1
  O  O19  1  0.971047  0.971047  0.527944  1
  O  O20  1  0.962688  0.535608  0.962554  1
  O  O21  1  0.536630  0.962359  0.538846  1
