# generated using pymatgen
data_La3NCl6
_symmetry_space_group_name_H-M   'P 1'
_cell_length_a   7.51987684
_cell_length_b   8.52990459
_cell_length_c   10.12000745
_cell_angle_alpha   74.72087584
_cell_angle_beta   71.00395786
_cell_angle_gamma   64.79693039
_symmetry_Int_Tables_number   1
_chemical_formula_structural   La3NCl6
_chemical_formula_sum   'La6 N2 Cl12'
_cell_volume   549.40364244
_cell_formula_units_Z   2
loop_
 _symmetry_equiv_pos_site_id
 _symmetry_equiv_pos_as_xyz
  1  'x, y, z'
loop_
 _atom_site_type_symbol
 _atom_site_label
 _atom_site_symmetry_multiplicity
 _atom_site_fract_x
 _atom_site_fract_y
 _atom_site_fract_z
 _atom_site_occupancy
  La  La0  1  0.586907  0.084006  0.688718  1
  La  La1  1  0.719585  0.430348  0.778531  1
  La  La2  1  0.256025  0.585572  0.626416  1
  La  La3  1  0.280415  0.569652  0.221469  1
  La  La4  1  0.413093  0.915994  0.311282  1
  La  La5  1  0.743975  0.414428  0.373584  1
  N  N6  1  0.409971  0.633311  0.375587  1
  N  N7  1  0.590029  0.366689  0.624413  1
  Cl  Cl8  1  0.304424  0.581745  0.909442  1
  Cl  Cl9  1  0.288325  0.897183  0.086744  1
  Cl  Cl10  1  0.000000  0.000000  0.500000  1
  Cl  Cl11  1  0.825028  0.718610  0.796351  1
  Cl  Cl12  1  0.166172  0.263974  0.787796  1
  Cl  Cl13  1  0.711675  0.102817  0.913256  1
  Cl  Cl14  1  0.529054  0.182980  0.396036  1
  Cl  Cl15  1  0.174972  0.281390  0.203649  1
  Cl  Cl16  1  0.470946  0.817020  0.603964  1
  Cl  Cl17  1  0.695576  0.418255  0.090558  1
  Cl  Cl18  1  0.833828  0.736026  0.212204  1
  Cl  Cl19  1  0.000000  0.500000  0.500000  1
