# generated using pymatgen
data_CaHoU(SnIr)3
_symmetry_space_group_name_H-M   'P 1'
_cell_length_a   7.43877268
_cell_length_b   7.49323832
_cell_length_c   3.92974300
_cell_angle_alpha   90.00000000
_cell_angle_beta   90.00000000
_cell_angle_gamma   118.46683653
_symmetry_Int_Tables_number   1
_chemical_formula_structural   CaHoU(SnIr)3
_chemical_formula_sum   'Ca1 Ho1 U1 Sn3 Ir3'
_cell_volume   192.56168517
_cell_formula_units_Z   1
loop_
 _symmetry_equiv_pos_site_id
 _symmetry_equiv_pos_as_xyz
  1  'x, y, z'
loop_
 _atom_site_type_symbol
 _atom_site_label
 _atom_site_symmetry_multiplicity
 _atom_site_fract_x
 _atom_site_fract_y
 _atom_site_fract_z
 _atom_site_occupancy
  Ca  Ca0  1  0.594501  0.999482  0.500000  1
  Ho  Ho1  1  0.999659  0.593985  0.500000  1
  U  U2  1  0.413453  0.414064  0.500000  1
  Sn  Sn3  1  0.755806  0.758477  0.000000  1
  Sn  Sn4  1  0.261548  0.986412  0.000000  1
  Sn  Sn5  1  0.983794  0.255701  0.000000  1
  Ir  Ir6  1  0.637980  0.346300  0.000000  1
  Ir  Ir7  1  0.330532  0.628731  0.000000  1
  Ir  Ir8  1  0.022728  0.016847  0.500000  1
