# generated using pymatgen
data_U4Fe3Co3Si2
_symmetry_space_group_name_H-M   'P 1'
_cell_length_a   5.01659142
_cell_length_b   5.07079238
_cell_length_c   7.51525400
_cell_angle_alpha   90.00000000
_cell_angle_beta   90.00000000
_cell_angle_gamma   118.62830912
_symmetry_Int_Tables_number   1
_chemical_formula_structural   U4Fe3Co3Si2
_chemical_formula_sum   'U4 Fe3 Co3 Si2'
_cell_volume   167.80204799
_cell_formula_units_Z   1
loop_
 _symmetry_equiv_pos_site_id
 _symmetry_equiv_pos_as_xyz
  1  'x, y, z'
loop_
 _atom_site_type_symbol
 _atom_site_label
 _atom_site_symmetry_multiplicity
 _atom_site_fract_x
 _atom_site_fract_y
 _atom_site_fract_z
 _atom_site_occupancy
  U  U0  1  0.665076  0.342658  0.431895  1
  U  U1  1  0.336822  0.658575  0.564769  1
  U  U2  1  0.336822  0.658575  0.935231  1
  U  U3  1  0.665076  0.342658  0.068105  1
  Fe  Fe4  1  0.665067  0.837064  0.250000  1
  Fe  Fe5  1  0.835263  0.664047  0.750000  1
  Fe  Fe6  1  0.162128  0.334947  0.250000  1
  Co  Co7  1  0.833604  0.165104  0.750000  1
  Co  Co8  1  0.168312  0.837592  0.250000  1
  Co  Co9  1  0.333896  0.159781  0.750000  1
  Si  Si10  1  0.998967  0.999499  0.000104  1
  Si  Si11  1  0.998967  0.999499  0.499896  1
