# generated using pymatgen
data_PrBi11S18
_symmetry_space_group_name_H-M   'P 1'
_cell_length_a   4.10344000
_cell_length_b   10.90463558
_cell_length_c   18.57886539
_cell_angle_alpha   81.05983417
_cell_angle_beta   90.00000000
_cell_angle_gamma   90.00000000
_symmetry_Int_Tables_number   1
_chemical_formula_structural   PrBi11S18
_chemical_formula_sum   'Pr1 Bi11 S18'
_cell_volume   821.23972615
_cell_formula_units_Z   1
loop_
 _symmetry_equiv_pos_site_id
 _symmetry_equiv_pos_as_xyz
  1  'x, y, z'
loop_
 _atom_site_type_symbol
 _atom_site_label
 _atom_site_symmetry_multiplicity
 _atom_site_fract_x
 _atom_site_fract_y
 _atom_site_fract_z
 _atom_site_occupancy
  Pr  Pr0  1  0.750000  0.550542  0.883597  1
  Bi  Bi1  1  0.250000  0.805800  0.036322  1
  Bi  Bi2  1  0.750000  0.180162  0.967576  1
  Bi  Bi3  1  0.250000  0.904000  0.415359  1
  Bi  Bi4  1  0.750000  0.095357  0.584707  1
  Bi  Bi5  1  0.250000  0.174869  0.775742  1
  Bi  Bi6  1  0.750000  0.830842  0.223115  1
  Bi  Bi7  1  0.250000  0.799617  0.732343  1
  Bi  Bi8  1  0.750000  0.204165  0.274486  1
  Bi  Bi9  1  0.250000  0.525770  0.406149  1
  Bi  Bi10  1  0.750000  0.475372  0.592387  1
  Bi  Bi11  1  0.250000  0.441884  0.100903  1
  S  S12  1  0.250000  0.934875  0.577756  1
  S  S13  1  0.750000  0.065327  0.425046  1
  S  S14  1  0.250000  0.728358  0.875206  1
  S  S15  1  0.750000  0.268911  0.124336  1
  S  S16  1  0.250000  0.385723  0.965219  1
  S  S17  1  0.750000  0.614405  0.030843  1
  S  S18  1  0.250000  0.363297  0.283894  1
  S  S19  1  0.750000  0.636190  0.723471  1
  S  S20  1  0.250000  0.995952  0.270216  1
  S  S21  1  0.750000  0.009541  0.733277  1
  S  S22  1  0.250000  0.284350  0.631194  1
  S  S23  1  0.750000  0.717864  0.367539  1
  S  S24  1  0.250000  0.047564  0.920728  1
  S  S25  1  0.750000  0.952185  0.076318  1
  S  S26  1  0.250000  0.690131  0.177913  1
  S  S27  1  0.750000  0.314909  0.823769  1
  S  S28  1  0.250000  0.626510  0.530167  1
  S  S29  1  0.750000  0.375530  0.470424  1
