# generated using pymatgen
data_Ca6Pr2Cu(Si4Pd)3
_symmetry_space_group_name_H-M   'P 1'
_cell_length_a   8.24262300
_cell_length_b   8.24262469
_cell_length_c   8.49747900
_cell_angle_alpha   90.00000000
_cell_angle_beta   90.00000000
_cell_angle_gamma   120.00000525
_symmetry_Int_Tables_number   1
_chemical_formula_structural   Ca6Pr2Cu(Si4Pd)3
_chemical_formula_sum   'Ca6 Pr2 Cu1 Si12 Pd3'
_cell_volume   499.97889349
_cell_formula_units_Z   1
loop_
 _symmetry_equiv_pos_site_id
 _symmetry_equiv_pos_as_xyz
  1  'x, y, z'
loop_
 _atom_site_type_symbol
 _atom_site_label
 _atom_site_symmetry_multiplicity
 _atom_site_fract_x
 _atom_site_fract_y
 _atom_site_fract_z
 _atom_site_occupancy
  Ca  Ca0  1  0.498777  0.501223  0.747508  1
  Ca  Ca1  1  0.499901  0.500099  0.252619  1
  Ca  Ca2  1  0.002446  0.501223  0.747508  1
  Ca  Ca3  1  0.000198  0.500099  0.252619  1
  Ca  Ca4  1  0.498777  0.997554  0.747508  1
  Ca  Ca5  1  0.499901  0.999802  0.252619  1
  Pr  Pr6  1  0.000000  0.000000  0.749857  1
  Pr  Pr7  1  0.000000  0.000000  0.250225  1
  Cu  Cu8  1  0.666667  0.333333  0.997285  1
  Si  Si9  1  0.833304  0.166696  0.999972  1
  Si  Si10  1  0.166414  0.833586  0.000002  1
  Si  Si11  1  0.333390  0.166696  0.999972  1
  Si  Si12  1  0.165483  0.834517  0.499992  1
  Si  Si13  1  0.667172  0.833586  0.000002  1
  Si  Si14  1  0.834361  0.165639  0.500148  1
  Si  Si15  1  0.833304  0.666610  0.999972  1
  Si  Si16  1  0.669033  0.834517  0.499992  1
  Si  Si17  1  0.166414  0.332828  0.000002  1
  Si  Si18  1  0.331276  0.165639  0.500148  1
  Si  Si19  1  0.165483  0.330967  0.499992  1
  Si  Si20  1  0.834361  0.668724  0.500148  1
  Pd  Pd21  1  0.333333  0.666667  0.001760  1
  Pd  Pd22  1  0.333333  0.666667  0.498347  1
  Pd  Pd23  1  0.666667  0.333333  0.501803  1
