# generated using pymatgen
data_Lu3(SnRu)2
_symmetry_space_group_name_H-M   'P 1'
_cell_length_a   5.62928700
_cell_length_b   8.08624700
_cell_length_c   13.74747000
_cell_angle_alpha   90.00000000
_cell_angle_beta   90.00000000
_cell_angle_gamma   90.00000000
_symmetry_Int_Tables_number   1
_chemical_formula_structural   Lu3(SnRu)2
_chemical_formula_sum   'Lu12 Sn8 Ru8'
_cell_volume   625.78215524
_cell_formula_units_Z   4
loop_
 _symmetry_equiv_pos_site_id
 _symmetry_equiv_pos_as_xyz
  1  'x, y, z'
loop_
 _atom_site_type_symbol
 _atom_site_label
 _atom_site_symmetry_multiplicity
 _atom_site_fract_x
 _atom_site_fract_y
 _atom_site_fract_z
 _atom_site_occupancy
  Lu  Lu0  1  0.160892  0.405825  0.592176  1
  Lu  Lu1  1  0.839108  0.594175  0.092176  1
  Lu  Lu2  1  0.160892  0.094175  0.407824  1
  Lu  Lu3  1  0.839108  0.905825  0.907824  1
  Lu  Lu4  1  0.839108  0.594175  0.407824  1
  Lu  Lu5  1  0.160892  0.405825  0.907824  1
  Lu  Lu6  1  0.839108  0.905825  0.592176  1
  Lu  Lu7  1  0.160892  0.094175  0.092176  1
  Lu  Lu8  1  0.616801  0.287293  0.750000  1
  Lu  Lu9  1  0.383199  0.712707  0.250000  1
  Lu  Lu10  1  0.616801  0.212707  0.250000  1
  Lu  Lu11  1  0.383199  0.787293  0.750000  1
  Sn  Sn12  1  0.102828  0.124019  0.750000  1
  Sn  Sn13  1  0.897172  0.875981  0.250000  1
  Sn  Sn14  1  0.102828  0.375981  0.250000  1
  Sn  Sn15  1  0.897172  0.624019  0.750000  1
  Sn  Sn16  1  0.647914  0.250000  0.500000  1
  Sn  Sn17  1  0.352086  0.750000  0.000000  1
  Sn  Sn18  1  0.352086  0.750000  0.500000  1
  Sn  Sn19  1  0.647914  0.250000  0.000000  1
  Ru  Ru20  1  0.347573  0.037289  0.592025  1
  Ru  Ru21  1  0.652427  0.962711  0.092025  1
  Ru  Ru22  1  0.347573  0.462711  0.407975  1
  Ru  Ru23  1  0.652427  0.537289  0.907975  1
  Ru  Ru24  1  0.652427  0.962711  0.407975  1
  Ru  Ru25  1  0.347573  0.037289  0.907975  1
  Ru  Ru26  1  0.652427  0.537289  0.592025  1
  Ru  Ru27  1  0.347573  0.462711  0.092025  1
