# generated using pymatgen
data_Ce3Dy(CuSi3)2
_symmetry_space_group_name_H-M   'P 1'
_cell_length_a   8.08831605
_cell_length_b   8.03502868
_cell_length_c   5.75490072
_cell_angle_alpha   69.58466525
_cell_angle_beta   68.59345747
_cell_angle_gamma   41.82188450
_symmetry_Int_Tables_number   1
_chemical_formula_structural   Ce3Dy(CuSi3)2
_chemical_formula_sum   'Ce3 Dy1 Cu2 Si6'
_cell_volume   230.40662970
_cell_formula_units_Z   1
loop_
 _symmetry_equiv_pos_site_id
 _symmetry_equiv_pos_as_xyz
  1  'x, y, z'
loop_
 _atom_site_type_symbol
 _atom_site_label
 _atom_site_symmetry_multiplicity
 _atom_site_fract_x
 _atom_site_fract_y
 _atom_site_fract_z
 _atom_site_occupancy
  Ce  Ce0  1  0.249999  0.250001  0.250000  1
  Ce  Ce1  1  0.255896  0.744104  0.255897  1
  Ce  Ce2  1  0.744103  0.255897  0.744104  1
  Dy  Dy3  1  0.749999  0.750001  0.750000  1
  Cu  Cu4  1  0.832913  0.832913  0.167087  1
  Cu  Cu5  1  0.167087  0.167087  0.832913  1
  Si  Si6  1  0.838057  0.330238  0.160857  1
  Si  Si7  1  0.670849  0.160857  0.330238  1
  Si  Si8  1  0.668752  0.668753  0.331248  1
  Si  Si9  1  0.331247  0.331248  0.668753  1
  Si  Si10  1  0.330238  0.838056  0.670849  1
  Si  Si11  1  0.160857  0.670849  0.838056  1
