# generated using pymatgen
data_Ba2SrLu2F12
_symmetry_space_group_name_H-M   'P 1'
_cell_length_a   9.54442400
_cell_length_b   9.54442400
_cell_length_c   5.74349400
_cell_angle_alpha   90.00000000
_cell_angle_beta   90.00000000
_cell_angle_gamma   90.00000000
_symmetry_Int_Tables_number   1
_chemical_formula_structural   Ba2SrLu2F12
_chemical_formula_sum   'Ba4 Sr2 Lu4 F24'
_cell_volume   523.20949881
_cell_formula_units_Z   2
loop_
 _symmetry_equiv_pos_site_id
 _symmetry_equiv_pos_as_xyz
  1  'x, y, z'
loop_
 _atom_site_type_symbol
 _atom_site_label
 _atom_site_symmetry_multiplicity
 _atom_site_fract_x
 _atom_site_fract_y
 _atom_site_fract_z
 _atom_site_occupancy
  Ba  Ba0  1  0.319405  0.819405  0.500000  1
  Ba  Ba1  1  0.819405  0.680595  0.500000  1
  Ba  Ba2  1  0.180595  0.319405  0.500000  1
  Ba  Ba3  1  0.680595  0.180595  0.500000  1
  Sr  Sr4  1  0.500000  0.500000  0.000000  1
  Sr  Sr5  1  0.000000  0.000000  0.000000  1
  Lu  Lu6  1  0.134770  0.634770  0.000000  1
  Lu  Lu7  1  0.634770  0.865230  0.000000  1
  Lu  Lu8  1  0.365230  0.134770  0.000000  1
  Lu  Lu9  1  0.865230  0.365230  0.000000  1
  F  F10  1  0.296321  0.796321  0.000000  1
  F  F11  1  0.796321  0.703679  0.000000  1
  F  F12  1  0.203679  0.296321  0.000000  1
  F  F13  1  0.703679  0.203679  0.000000  1
  F  F14  1  0.555974  0.716607  0.250252  1
  F  F15  1  0.444026  0.283393  0.250252  1
  F  F16  1  0.283393  0.555974  0.250252  1
  F  F17  1  0.716607  0.444026  0.250252  1
  F  F18  1  0.216607  0.055974  0.749748  1
  F  F19  1  0.055974  0.783393  0.749748  1
  F  F20  1  0.500000  0.000000  0.772557  1
  F  F21  1  0.000000  0.500000  0.772557  1
  F  F22  1  0.000000  0.500000  0.227443  1
  F  F23  1  0.500000  0.000000  0.227443  1
  F  F24  1  0.216607  0.055974  0.250252  1
  F  F25  1  0.055974  0.783393  0.250252  1
  F  F26  1  0.944026  0.216607  0.250252  1
  F  F27  1  0.783393  0.944026  0.250252  1
  F  F28  1  0.283393  0.555974  0.749748  1
  F  F29  1  0.716607  0.444026  0.749748  1
  F  F30  1  0.555974  0.716607  0.749748  1
  F  F31  1  0.444026  0.283393  0.749748  1
  F  F32  1  0.783393  0.944026  0.749748  1
  F  F33  1  0.944026  0.216607  0.749748  1
