# generated using pymatgen
data_NaCa(LaSn)8
_symmetry_space_group_name_H-M   'P 1'
_cell_length_a   8.17897900
_cell_length_b   8.66544400
_cell_length_c   16.43909100
_cell_angle_alpha   90.00000000
_cell_angle_beta   90.00000000
_cell_angle_gamma   90.00000000
_symmetry_Int_Tables_number   1
_chemical_formula_structural   NaCa(LaSn)8
_chemical_formula_sum   'Na2 Ca2 La16 Sn16'
_cell_volume   1165.11210030
_cell_formula_units_Z   2
loop_
 _symmetry_equiv_pos_site_id
 _symmetry_equiv_pos_as_xyz
  1  'x, y, z'
loop_
 _atom_site_type_symbol
 _atom_site_label
 _atom_site_symmetry_multiplicity
 _atom_site_fract_x
 _atom_site_fract_y
 _atom_site_fract_z
 _atom_site_occupancy
  Na  Na0  1  0.834122  0.509541  0.750000  1
  Na  Na1  1  0.334122  0.990459  0.750000  1
  Ca  Ca2  1  0.167134  0.493001  0.250000  1
  Ca  Ca3  1  0.667134  0.006999  0.250000  1
  La  La4  1  0.660800  0.173152  0.627395  1
  La  La5  1  0.160800  0.326848  0.872605  1
  La  La6  1  0.336293  0.826091  0.124354  1
  La  La7  1  0.836293  0.673909  0.375646  1
  La  La8  1  0.336293  0.826091  0.375646  1
  La  La9  1  0.836293  0.673909  0.124354  1
  La  La10  1  0.660800  0.173152  0.872605  1
  La  La11  1  0.160800  0.326848  0.627395  1
  La  La12  1  0.508620  0.687559  0.598353  1
  La  La13  1  0.008620  0.812441  0.901647  1
  La  La14  1  0.493901  0.316248  0.096727  1
  La  La15  1  0.993901  0.183752  0.403273  1
  La  La16  1  0.493901  0.316248  0.403273  1
  La  La17  1  0.993901  0.183752  0.096727  1
  La  La18  1  0.508620  0.687559  0.901647  1
  La  La19  1  0.008620  0.812441  0.598353  1
  Sn  Sn20  1  0.673414  0.966516  0.463230  1
  Sn  Sn21  1  0.173414  0.533484  0.036770  1
  Sn  Sn22  1  0.323248  0.038934  0.964119  1
  Sn  Sn23  1  0.823248  0.461066  0.535881  1
  Sn  Sn24  1  0.323248  0.038934  0.535881  1
  Sn  Sn25  1  0.823248  0.461066  0.964119  1
  Sn  Sn26  1  0.673414  0.966516  0.036770  1
  Sn  Sn27  1  0.173414  0.533484  0.463230  1
  Sn  Sn28  1  0.468058  0.408352  0.750000  1
  Sn  Sn29  1  0.968058  0.091648  0.750000  1
  Sn  Sn30  1  0.534098  0.600025  0.250000  1
  Sn  Sn31  1  0.034098  0.899975  0.250000  1
  Sn  Sn32  1  0.710143  0.860356  0.750000  1
  Sn  Sn33  1  0.210143  0.639644  0.750000  1
  Sn  Sn34  1  0.293896  0.140630  0.250000  1
  Sn  Sn35  1  0.793896  0.359370  0.250000  1
