# generated using pymatgen
data_Cs2Dy(SbSe2)5
_symmetry_space_group_name_H-M   'P 1'
_cell_length_a   4.11313000
_cell_length_b   12.37559400
_cell_length_c   22.86108100
_cell_angle_alpha   90.00000000
_cell_angle_beta   90.00000000
_cell_angle_gamma   90.00000000
_symmetry_Int_Tables_number   1
_chemical_formula_structural   Cs2Dy(SbSe2)5
_chemical_formula_sum   'Cs4 Dy2 Sb10 Se20'
_cell_volume   1163.68450558
_cell_formula_units_Z   2
loop_
 _symmetry_equiv_pos_site_id
 _symmetry_equiv_pos_as_xyz
  1  'x, y, z'
loop_
 _atom_site_type_symbol
 _atom_site_label
 _atom_site_symmetry_multiplicity
 _atom_site_fract_x
 _atom_site_fract_y
 _atom_site_fract_z
 _atom_site_occupancy
  Cs  Cs0  1  0.250000  0.990298  0.287701  1
  Cs  Cs1  1  0.750000  0.490241  0.212563  1
  Cs  Cs2  1  0.750000  0.009759  0.712563  1
  Cs  Cs3  1  0.250000  0.509702  0.787701  1
  Dy  Dy4  1  0.750000  0.362536  0.023087  1
  Dy  Dy5  1  0.750000  0.137464  0.523087  1
  Sb  Sb6  1  0.750000  0.808754  0.119843  1
  Sb  Sb7  1  0.250000  0.406278  0.571160  1
  Sb  Sb8  1  0.250000  0.191057  0.879826  1
  Sb  Sb9  1  0.750000  0.595507  0.429325  1
  Sb  Sb10  1  0.250000  0.093722  0.071160  1
  Sb  Sb11  1  0.250000  0.633784  0.977103  1
  Sb  Sb12  1  0.250000  0.308943  0.379826  1
  Sb  Sb13  1  0.250000  0.866216  0.477103  1
  Sb  Sb14  1  0.750000  0.904493  0.929325  1
  Sb  Sb15  1  0.750000  0.691246  0.619843  1
  Se  Se16  1  0.250000  0.747377  0.693609  1
  Se  Se17  1  0.750000  0.143168  0.982395  1
  Se  Se18  1  0.250000  0.302672  0.106748  1
  Se  Se19  1  0.750000  0.582913  0.059863  1
  Se  Se20  1  0.250000  0.082829  0.440575  1
  Se  Se21  1  0.750000  0.917087  0.559863  1
  Se  Se22  1  0.250000  0.417171  0.940575  1
  Se  Se23  1  0.250000  0.860088  0.018608  1
  Se  Se24  1  0.750000  0.356832  0.482395  1
  Se  Se25  1  0.750000  0.246154  0.806382  1
  Se  Se26  1  0.250000  0.523999  0.348354  1
  Se  Se27  1  0.250000  0.976001  0.848354  1
  Se  Se28  1  0.750000  0.800394  0.391290  1
  Se  Se29  1  0.750000  0.474620  0.651568  1
  Se  Se30  1  0.250000  0.197328  0.606748  1
  Se  Se31  1  0.250000  0.752623  0.193609  1
  Se  Se32  1  0.750000  0.025380  0.151568  1
  Se  Se33  1  0.750000  0.253846  0.306382  1
  Se  Se34  1  0.750000  0.699606  0.891290  1
  Se  Se35  1  0.250000  0.639912  0.518608  1
