# generated using pymatgen
data_DyTm7Ga3Rh
_symmetry_space_group_name_H-M   'P 1'
_cell_length_a   9.95034100
_cell_length_b   9.95034118
_cell_length_c   6.94597900
_cell_angle_alpha   90.00000000
_cell_angle_beta   90.00000000
_cell_angle_gamma   120.00000273
_symmetry_Int_Tables_number   1
_chemical_formula_structural   DyTm7Ga3Rh
_chemical_formula_sum   'Dy2 Tm14 Ga6 Rh2'
_cell_volume   595.57988591
_cell_formula_units_Z   2
loop_
 _symmetry_equiv_pos_site_id
 _symmetry_equiv_pos_as_xyz
  1  'x, y, z'
loop_
 _atom_site_type_symbol
 _atom_site_label
 _atom_site_symmetry_multiplicity
 _atom_site_fract_x
 _atom_site_fract_y
 _atom_site_fract_z
 _atom_site_occupancy
  Dy  Dy0  1  0.000000  0.000000  0.767319  1
  Dy  Dy1  1  0.000000  0.000000  0.267319  1
  Tm  Tm2  1  0.828213  0.656426  0.488333  1
  Tm  Tm3  1  0.343574  0.171787  0.488333  1
  Tm  Tm4  1  0.828213  0.171787  0.488333  1
  Tm  Tm5  1  0.171787  0.343574  0.988333  1
  Tm  Tm6  1  0.656426  0.828213  0.988333  1
  Tm  Tm7  1  0.171787  0.828213  0.988333  1
  Tm  Tm8  1  0.666667  0.333333  0.164465  1
  Tm  Tm9  1  0.333333  0.666667  0.664465  1
  Tm  Tm10  1  0.534740  0.069480  0.795542  1
  Tm  Tm11  1  0.930520  0.465260  0.795542  1
  Tm  Tm12  1  0.534740  0.465260  0.795542  1
  Tm  Tm13  1  0.465260  0.930520  0.295542  1
  Tm  Tm14  1  0.069480  0.534740  0.295542  1
  Tm  Tm15  1  0.465260  0.534740  0.295542  1
  Ga  Ga16  1  0.836161  0.672322  0.041519  1
  Ga  Ga17  1  0.327678  0.163839  0.041519  1
  Ga  Ga18  1  0.836161  0.163839  0.041519  1
  Ga  Ga19  1  0.163839  0.327678  0.541519  1
  Ga  Ga20  1  0.672322  0.836161  0.541519  1
  Ga  Ga21  1  0.163839  0.836161  0.541519  1
  Rh  Rh22  1  0.666667  0.333333  0.555074  1
  Rh  Rh23  1  0.333333  0.666667  0.055074  1
