# generated using pymatgen
data_Mg4Cu2B4Pt3Rh7
_symmetry_space_group_name_H-M   'P 1'
_cell_length_a   9.46776438
_cell_length_b   2.94278800
_cell_length_c   9.41729837
_cell_angle_alpha   90.00000000
_cell_angle_beta   90.09686102
_cell_angle_gamma   90.00000000
_symmetry_Int_Tables_number   1
_chemical_formula_structural   Mg4Cu2B4Pt3Rh7
_chemical_formula_sum   'Mg4 Cu2 B4 Pt3 Rh7'
_cell_volume   262.38084564
_cell_formula_units_Z   1
loop_
 _symmetry_equiv_pos_site_id
 _symmetry_equiv_pos_as_xyz
  1  'x, y, z'
loop_
 _atom_site_type_symbol
 _atom_site_label
 _atom_site_symmetry_multiplicity
 _atom_site_fract_x
 _atom_site_fract_y
 _atom_site_fract_z
 _atom_site_occupancy
  Mg  Mg0  1  0.322853  0.000000  0.173201  1
  Mg  Mg1  1  0.824076  0.000000  0.330639  1
  Mg  Mg2  1  0.174327  0.000000  0.678358  1
  Mg  Mg3  1  0.672460  0.000000  0.815573  1
  Cu  Cu4  1  0.002876  0.000000  0.996775  1
  Cu  Cu5  1  0.501181  0.000000  0.504126  1
  B  B6  1  0.622727  0.000000  0.122288  1
  B  B7  1  0.130942  0.000000  0.382276  1
  B  B8  1  0.871241  0.000000  0.627883  1
  B  B9  1  0.368948  0.000000  0.869490  1
  Pt  Pt10  1  0.787283  0.500001  0.070077  1
  Pt  Pt11  1  0.071227  0.500001  0.214996  1
  Pt  Pt12  1  0.570394  0.500001  0.286928  1
  Rh  Rh13  1  0.502567  0.500001  0.999144  1
  Rh  Rh14  1  0.285855  0.500001  0.427647  1
  Rh  Rh15  1  0.001887  0.500001  0.500680  1
  Rh  Rh16  1  0.717698  0.500001  0.568391  1
  Rh  Rh17  1  0.427118  0.500001  0.716346  1
  Rh  Rh18  1  0.926268  0.500001  0.783871  1
  Rh  Rh19  1  0.218070  0.500001  0.931310  1
