# generated using pymatgen
data_Li22Pd3Rh
_symmetry_space_group_name_H-M   'P 1'
_cell_length_a   8.24575937
_cell_length_b   8.24576001
_cell_length_c   8.24575932
_cell_angle_alpha   109.40603379
_cell_angle_beta   109.40603743
_cell_angle_gamma   109.40602127
_symmetry_Int_Tables_number   1
_chemical_formula_structural   Li22Pd3Rh
_chemical_formula_sum   'Li22 Pd3 Rh1'
_cell_volume   432.62728807
_cell_formula_units_Z   1
loop_
 _symmetry_equiv_pos_site_id
 _symmetry_equiv_pos_as_xyz
  1  'x, y, z'
loop_
 _atom_site_type_symbol
 _atom_site_label
 _atom_site_symmetry_multiplicity
 _atom_site_fract_x
 _atom_site_fract_y
 _atom_site_fract_z
 _atom_site_occupancy
  Li  Li0  1  0.997120  0.798334  0.997120  1
  Li  Li1  1  0.798334  0.997120  0.997120  1
  Li  Li2  1  0.997120  0.997120  0.798334  1
  Li  Li3  1  0.201455  0.201455  0.201455  1
  Li  Li4  1  0.355937  0.606105  0.355937  1
  Li  Li5  1  0.253565  0.999994  0.647870  1
  Li  Li6  1  0.647870  0.999994  0.253565  1
  Li  Li7  1  0.253565  0.647870  0.999994  1
  Li  Li8  1  0.744364  0.744364  0.396726  1
  Li  Li9  1  0.396726  0.744364  0.744364  1
  Li  Li10  1  0.999994  0.647870  0.253565  1
  Li  Li11  1  0.999994  0.253565  0.647870  1
  Li  Li12  1  0.647870  0.253565  0.999994  1
  Li  Li13  1  0.355937  0.355937  0.606105  1
  Li  Li14  1  0.606105  0.355937  0.355937  1
  Li  Li15  1  0.744364  0.396726  0.744364  1
  Li  Li16  1  0.345900  0.345900  0.001710  1
  Li  Li17  1  0.994994  0.654692  0.654692  1
  Li  Li18  1  0.001710  0.345900  0.345900  1
  Li  Li19  1  0.345900  0.001710  0.345900  1
  Li  Li20  1  0.654692  0.994994  0.654692  1
  Li  Li21  1  0.654692  0.654692  0.994994  1
  Pd  Pd22  1  0.000132  0.339524  0.000132  1
  Pd  Pd23  1  0.339524  0.000132  0.000132  1
  Pd  Pd24  1  0.000132  0.000132  0.339524  1
  Rh  Rh25  1  0.662000  0.662000  0.662000  1
