# generated using pymatgen
data_Ba4CeNd7Se16
_symmetry_space_group_name_H-M   'P 1'
_cell_length_a   4.36182100
_cell_length_b   13.09270542
_cell_length_c   15.65536669
_cell_angle_alpha   89.88219960
_cell_angle_beta   90.00000000
_cell_angle_gamma   90.00000000
_symmetry_Int_Tables_number   1
_chemical_formula_structural   Ba4CeNd7Se16
_chemical_formula_sum   'Ba4 Ce1 Nd7 Se16'
_cell_volume   894.04537774
_cell_formula_units_Z   1
loop_
 _symmetry_equiv_pos_site_id
 _symmetry_equiv_pos_as_xyz
  1  'x, y, z'
loop_
 _atom_site_type_symbol
 _atom_site_label
 _atom_site_symmetry_multiplicity
 _atom_site_fract_x
 _atom_site_fract_y
 _atom_site_fract_z
 _atom_site_occupancy
  Ba  Ba0  1  0.250000  0.756660  0.337735  1
  Ba  Ba1  1  0.250000  0.257620  0.161745  1
  Ba  Ba2  1  0.750000  0.243241  0.662647  1
  Ba  Ba3  1  0.750000  0.742734  0.838022  1
  Ce  Ce4  1  0.750000  0.079953  0.399194  1
  Nd  Nd5  1  0.250000  0.430930  0.390993  1
  Nd  Nd6  1  0.250000  0.930902  0.108784  1
  Nd  Nd7  1  0.750000  0.568796  0.609028  1
  Nd  Nd8  1  0.750000  0.069196  0.891068  1
  Nd  Nd9  1  0.250000  0.420546  0.898860  1
  Nd  Nd10  1  0.250000  0.919603  0.601770  1
  Nd  Nd11  1  0.750000  0.579535  0.101095  1
  Se  Se12  1  0.250000  0.207422  0.827250  1
  Se  Se13  1  0.250000  0.707105  0.672514  1
  Se  Se14  1  0.750000  0.792661  0.172792  1
  Se  Se15  1  0.750000  0.292507  0.327229  1
  Se  Se16  1  0.250000  0.128395  0.524630  1
  Se  Se17  1  0.250000  0.628971  0.974420  1
  Se  Se18  1  0.750000  0.871805  0.474281  1
  Se  Se19  1  0.750000  0.371063  0.025520  1
  Se  Se20  1  0.250000  0.523539  0.216947  1
  Se  Se21  1  0.250000  0.024129  0.283383  1
  Se  Se22  1  0.750000  0.476360  0.783054  1
  Se  Se23  1  0.750000  0.976695  0.716874  1
  Se  Se24  1  0.250000  0.416378  0.579131  1
  Se  Se25  1  0.250000  0.916789  0.921039  1
  Se  Se26  1  0.750000  0.583092  0.420972  1
  Se  Se27  1  0.750000  0.083370  0.079024  1
