# generated using pymatgen
data_Dy5Ho11(CdPt)4
_symmetry_space_group_name_H-M   'P 1'
_cell_length_a   9.66233940
_cell_length_b   9.66542184
_cell_length_c   9.66542220
_cell_angle_alpha   60.04880415
_cell_angle_beta   60.01054386
_cell_angle_gamma   60.01054905
_symmetry_Int_Tables_number   1
_chemical_formula_structural   Dy5Ho11(CdPt)4
_chemical_formula_sum   'Dy5 Ho11 Cd4 Pt4'
_cell_volume   638.61354327
_cell_formula_units_Z   1
loop_
 _symmetry_equiv_pos_site_id
 _symmetry_equiv_pos_as_xyz
  1  'x, y, z'
loop_
 _atom_site_type_symbol
 _atom_site_label
 _atom_site_symmetry_multiplicity
 _atom_site_fract_x
 _atom_site_fract_y
 _atom_site_fract_z
 _atom_site_occupancy
  Dy  Dy0  1  0.563071  0.936929  0.936929  1
  Dy  Dy1  1  0.564958  0.935408  0.564029  1
  Dy  Dy2  1  0.935604  0.564028  0.935408  1
  Dy  Dy3  1  0.564958  0.564029  0.935408  1
  Dy  Dy4  1  0.935604  0.935408  0.564028  1
  Ho  Ho5  1  0.350514  0.352175  0.352175  1
  Ho  Ho6  1  0.352265  0.354209  0.941261  1
  Ho  Ho7  1  0.352265  0.941261  0.354209  1
  Ho  Ho8  1  0.945139  0.352175  0.352175  1
  Ho  Ho9  1  0.809849  0.190151  0.190151  1
  Ho  Ho10  1  0.188785  0.811215  0.811215  1
  Ho  Ho11  1  0.189454  0.810915  0.189408  1
  Ho  Ho12  1  0.810223  0.189408  0.810915  1
  Ho  Ho13  1  0.189454  0.189408  0.810915  1
  Ho  Ho14  1  0.810223  0.810915  0.189408  1
  Ho  Ho15  1  0.935295  0.564705  0.564705  1
  Cd  Cd16  1  0.582656  0.581194  0.581194  1
  Cd  Cd17  1  0.582029  0.581192  0.254750  1
  Cd  Cd18  1  0.582029  0.254750  0.581192  1
  Cd  Cd19  1  0.254954  0.581194  0.581194  1
  Pt  Pt20  1  0.144704  0.143124  0.143124  1
  Pt  Pt21  1  0.143459  0.142535  0.570548  1
  Pt  Pt22  1  0.143459  0.570548  0.142535  1
  Pt  Pt23  1  0.569048  0.143124  0.143124  1
