# generated using pymatgen
data_Li2Er2TmMgIn3
_symmetry_space_group_name_H-M   'P 1'
_cell_length_a   7.11701037
_cell_length_b   7.48756675
_cell_length_c   4.76351500
_cell_angle_alpha   90.00000000
_cell_angle_beta   90.00000000
_cell_angle_gamma   121.89672502
_symmetry_Int_Tables_number   1
_chemical_formula_structural   Li2Er2TmMgIn3
_chemical_formula_sum   'Li2 Er2 Tm1 Mg1 In3'
_cell_volume   215.51351012
_cell_formula_units_Z   1
loop_
 _symmetry_equiv_pos_site_id
 _symmetry_equiv_pos_as_xyz
  1  'x, y, z'
loop_
 _atom_site_type_symbol
 _atom_site_label
 _atom_site_symmetry_multiplicity
 _atom_site_fract_x
 _atom_site_fract_y
 _atom_site_fract_z
 _atom_site_occupancy
  Li  Li0  1  0.772760  0.763084  0.500000  1
  Li  Li1  1  0.227148  0.990265  0.500000  1
  Er  Er2  1  0.000165  0.561569  0.000000  1
  Er  Er3  1  0.437259  0.447223  0.000000  1
  Tm  Tm4  1  0.562983  0.010061  0.000000  1
  Mg  Mg5  1  0.999992  0.223703  0.500000  1
  In  In6  1  0.664537  0.343181  0.500000  1
  In  In7  1  0.999519  0.981217  0.000000  1
  In  In8  1  0.335637  0.679699  0.500000  1
