# generated using pymatgen
data_Rb4Mn3CrN8
_symmetry_space_group_name_H-M   'P 1'
_cell_length_a   5.72172200
_cell_length_b   8.07287122
_cell_length_c   11.44070936
_cell_angle_alpha   90.02762258
_cell_angle_beta   90.00111664
_cell_angle_gamma   90.00005205
_symmetry_Int_Tables_number   1
_chemical_formula_structural   Rb4Mn3CrN8
_chemical_formula_sum   'Rb8 Mn6 Cr2 N16'
_cell_volume   528.45459655
_cell_formula_units_Z   2
loop_
 _symmetry_equiv_pos_site_id
 _symmetry_equiv_pos_as_xyz
  1  'x, y, z'
loop_
 _atom_site_type_symbol
 _atom_site_label
 _atom_site_symmetry_multiplicity
 _atom_site_fract_x
 _atom_site_fract_y
 _atom_site_fract_z
 _atom_site_occupancy
  Rb  Rb0  1  0.749801  0.125517  0.000097  1
  Rb  Rb1  1  0.250204  0.874516  0.499913  1
  Rb  Rb2  1  0.249854  0.875756  0.999921  1
  Rb  Rb3  1  0.750125  0.124000  0.500066  1
  Rb  Rb4  1  0.741810  0.374894  0.252963  1
  Rb  Rb5  1  0.241843  0.625023  0.246881  1
  Rb  Rb6  1  0.258189  0.625146  0.752912  1
  Rb  Rb7  1  0.758107  0.374875  0.747236  1
  Mn  Mn8  1  0.250027  0.370605  0.999948  1
  Mn  Mn9  1  0.749797  0.629471  0.499973  1
  Mn  Mn10  1  0.244931  0.122771  0.249014  1
  Mn  Mn11  1  0.744763  0.877257  0.250974  1
  Mn  Mn12  1  0.755215  0.877053  0.749271  1
  Mn  Mn13  1  0.255320  0.123017  0.750672  1
  Cr  Cr14  1  0.749961  0.624337  0.000124  1
  Cr  Cr15  1  0.250092  0.375717  0.499865  1
  N  N16  1  0.991343  0.003300  0.249863  1
  N  N17  1  0.491410  0.996423  0.250185  1
  N  N18  1  0.008677  0.996679  0.749849  1
  N  N19  1  0.508518  0.003502  0.750164  1
  N  N20  1  0.248791  0.249440  0.374646  1
  N  N21  1  0.748626  0.750394  0.125414  1
  N  N22  1  0.751262  0.750709  0.874996  1
  N  N23  1  0.251332  0.249389  0.625033  1
  N  N24  1  0.750627  0.752662  0.624282  1
  N  N25  1  0.250698  0.247462  0.875722  1
  N  N26  1  0.249392  0.247230  0.124022  1
  N  N27  1  0.749233  0.752799  0.375958  1
  N  N28  1  0.501269  0.501994  0.499878  1
  N  N29  1  0.000992  0.497865  0.000156  1
  N  N30  1  0.498753  0.498005  0.999900  1
  N  N31  1  0.999036  0.502192  0.500099  1
