# generated using pymatgen
data_Ta6Be3B3IrRu5
_symmetry_space_group_name_H-M   'P 1'
_cell_length_a   3.19723300
_cell_length_b   6.45902605
_cell_length_c   11.04572813
_cell_angle_alpha   90.01884273
_cell_angle_beta   90.00000000
_cell_angle_gamma   90.00000000
_symmetry_Int_Tables_number   1
_chemical_formula_structural   Ta6Be3B3IrRu5
_chemical_formula_sum   'Ta6 Be3 B3 Ir1 Ru5'
_cell_volume   228.10544324
_cell_formula_units_Z   1
loop_
 _symmetry_equiv_pos_site_id
 _symmetry_equiv_pos_as_xyz
  1  'x, y, z'
loop_
 _atom_site_type_symbol
 _atom_site_label
 _atom_site_symmetry_multiplicity
 _atom_site_fract_x
 _atom_site_fract_y
 _atom_site_fract_z
 _atom_site_occupancy
  Ta  Ta0  1  0.000000  0.223784  0.951735  1
  Ta  Ta1  1  0.000000  0.773123  0.040766  1
  Ta  Ta2  1  0.000000  0.222340  0.543272  1
  Ta  Ta3  1  0.000000  0.777932  0.457069  1
  Ta  Ta4  1  0.000000  0.143924  0.257564  1
  Ta  Ta5  1  0.000000  0.856209  0.749059  1
  Be  Be6  1  0.500000  0.053793  0.089147  1
  Be  Be7  1  0.000000  0.550395  0.249991  1
  Be  Be8  1  0.000000  0.450932  0.748006  1
  B  B9  1  0.500000  0.949108  0.911771  1
  B  B10  1  0.500000  0.047139  0.418160  1
  B  B11  1  0.500000  0.950788  0.583462  1
  Ir  Ir12  1  0.500000  0.423813  0.121173  1
  Ru  Ru13  1  0.500000  0.578341  0.877877  1
  Ru  Ru14  1  0.500000  0.419672  0.379650  1
  Ru  Ru15  1  0.500000  0.580521  0.620497  1
  Ru  Ru16  1  0.500000  0.804066  0.252819  1
  Ru  Ru17  1  0.500000  0.194117  0.747980  1
