# generated using pymatgen
data_Th5SiSn2Sb
_symmetry_space_group_name_H-M   'P 1'
_cell_length_a   9.54469827
_cell_length_b   9.54872484
_cell_length_c   6.53436500
_cell_angle_alpha   90.00000000
_cell_angle_beta   90.00000000
_cell_angle_gamma   120.01396302
_symmetry_Int_Tables_number   1
_chemical_formula_structural   Th5SiSn2Sb
_chemical_formula_sum   'Th10 Si2 Sn4 Sb2'
_cell_volume   515.68022929
_cell_formula_units_Z   2
loop_
 _symmetry_equiv_pos_site_id
 _symmetry_equiv_pos_as_xyz
  1  'x, y, z'
loop_
 _atom_site_type_symbol
 _atom_site_label
 _atom_site_symmetry_multiplicity
 _atom_site_fract_x
 _atom_site_fract_y
 _atom_site_fract_z
 _atom_site_occupancy
  Th  Th0  1  0.258041  0.000278  0.250000  1
  Th  Th1  1  0.258041  0.257764  0.750000  1
  Th  Th2  1  0.000335  0.742277  0.750000  1
  Th  Th3  1  0.000335  0.258057  0.250000  1
  Th  Th4  1  0.740563  0.740663  0.250000  1
  Th  Th5  1  0.740563  0.999900  0.750000  1
  Th  Th6  1  0.334166  0.667083  0.000000  1
  Th  Th7  1  0.666351  0.333175  0.500000  1
  Th  Th8  1  0.666351  0.333175  0.000000  1
  Th  Th9  1  0.334166  0.667083  0.500000  1
  Si  Si10  1  0.999835  0.999917  0.000000  1
  Si  Si11  1  0.999835  0.999917  0.500000  1
  Sn  Sn12  1  0.612304  0.999950  0.250000  1
  Sn  Sn13  1  0.612304  0.612354  0.750000  1
  Sn  Sn14  1  0.999177  0.389205  0.750000  1
  Sn  Sn15  1  0.999177  0.609972  0.250000  1
  Sb  Sb16  1  0.389230  0.389974  0.250000  1
  Sb  Sb17  1  0.389230  0.999255  0.750000  1
