# generated using pymatgen
data_Pr2NdEr5(CdIr)2
_symmetry_space_group_name_H-M   'P 1'
_cell_length_a   9.70830670
_cell_length_b   9.70830760
_cell_length_c   9.70849600
_cell_angle_alpha   59.99935124
_cell_angle_beta   59.99934816
_cell_angle_gamma   60.00129458
_symmetry_Int_Tables_number   1
_chemical_formula_structural   Pr2NdEr5(CdIr)2
_chemical_formula_sum   'Pr4 Nd2 Er10 Cd4 Ir4'
_cell_volume   647.02930942
_cell_formula_units_Z   2
loop_
 _symmetry_equiv_pos_site_id
 _symmetry_equiv_pos_as_xyz
  1  'x, y, z'
loop_
 _atom_site_type_symbol
 _atom_site_label
 _atom_site_symmetry_multiplicity
 _atom_site_fract_x
 _atom_site_fract_y
 _atom_site_fract_z
 _atom_site_occupancy
  Pr  Pr0  1  0.941003  0.558997  0.558997  1
  Pr  Pr1  1  0.558997  0.941003  0.941003  1
  Pr  Pr2  1  0.558997  0.941003  0.558997  1
  Pr  Pr3  1  0.941003  0.558997  0.941003  1
  Nd  Nd4  1  0.558354  0.558354  0.941646  1
  Nd  Nd5  1  0.941646  0.941646  0.558354  1
  Er  Er6  1  0.346905  0.346905  0.346615  1
  Er  Er7  1  0.346905  0.346905  0.959576  1
  Er  Er8  1  0.346615  0.959576  0.346905  1
  Er  Er9  1  0.959576  0.346615  0.346905  1
  Er  Er10  1  0.813134  0.186866  0.186866  1
  Er  Er11  1  0.186866  0.813134  0.813134  1
  Er  Er12  1  0.186866  0.813134  0.186866  1
  Er  Er13  1  0.813134  0.186866  0.813134  1
  Er  Er14  1  0.186732  0.186732  0.813268  1
  Er  Er15  1  0.813268  0.813268  0.186732  1
  Cd  Cd16  1  0.579065  0.579065  0.579601  1
  Cd  Cd17  1  0.579065  0.579065  0.262268  1
  Cd  Cd18  1  0.579601  0.262268  0.579065  1
  Cd  Cd19  1  0.262268  0.579601  0.579065  1
  Ir  Ir20  1  0.140962  0.140962  0.141627  1
  Ir  Ir21  1  0.140962  0.140962  0.576449  1
  Ir  Ir22  1  0.141627  0.576449  0.140962  1
  Ir  Ir23  1  0.576449  0.141627  0.140962  1
