# generated using pymatgen
data_ZrNbV3Os
_symmetry_space_group_name_H-M   'P 1'
_cell_length_a   5.14740872
_cell_length_b   5.14740902
_cell_length_c   5.15426051
_cell_angle_alpha   60.04395624
_cell_angle_beta   60.04394388
_cell_angle_gamma   60.00000966
_symmetry_Int_Tables_number   1
_chemical_formula_structural   ZrNbV3Os
_chemical_formula_sum   'Zr1 Nb1 V3 Os1'
_cell_volume   96.63109868
_cell_formula_units_Z   1
loop_
 _symmetry_equiv_pos_site_id
 _symmetry_equiv_pos_as_xyz
  1  'x, y, z'
loop_
 _atom_site_type_symbol
 _atom_site_label
 _atom_site_symmetry_multiplicity
 _atom_site_fract_x
 _atom_site_fract_y
 _atom_site_fract_z
 _atom_site_occupancy
  Zr  Zr0  1  0.250631  0.250631  0.248107  1
  Nb  Nb1  1  0.999610  0.999610  0.001171  1
  V  V2  1  0.625226  0.124440  0.625109  1
  V  V3  1  0.124440  0.625226  0.625109  1
  V  V4  1  0.625226  0.625226  0.625109  1
  Os  Os5  1  0.624868  0.624868  0.125398  1
