# generated using pymatgen
data_Ca12Ag3Rh
_symmetry_space_group_name_H-M   'P 1'
_cell_length_a   8.07104580
_cell_length_b   9.84291800
_cell_length_c   6.71754404
_cell_angle_alpha   90.00000000
_cell_angle_beta   90.61565583
_cell_angle_gamma   90.00000000
_symmetry_Int_Tables_number   1
_chemical_formula_structural   Ca12Ag3Rh
_chemical_formula_sum   'Ca12 Ag3 Rh1'
_cell_volume   533.62863859
_cell_formula_units_Z   1
loop_
 _symmetry_equiv_pos_site_id
 _symmetry_equiv_pos_as_xyz
  1  'x, y, z'
loop_
 _atom_site_type_symbol
 _atom_site_label
 _atom_site_symmetry_multiplicity
 _atom_site_fract_x
 _atom_site_fract_y
 _atom_site_fract_z
 _atom_site_occupancy
  Ca  Ca0  1  0.551959  0.250000  0.123182  1
  Ca  Ca1  1  0.824519  0.553081  0.151333  1
  Ca  Ca2  1  0.824519  0.946920  0.151333  1
  Ca  Ca3  1  0.326571  0.557479  0.348452  1
  Ca  Ca4  1  0.326571  0.942522  0.348452  1
  Ca  Ca5  1  0.025553  0.250000  0.348928  1
  Ca  Ca6  1  0.968938  0.750000  0.629129  1
  Ca  Ca7  1  0.687470  0.067505  0.666602  1
  Ca  Ca8  1  0.687470  0.432494  0.666602  1
  Ca  Ca9  1  0.157885  0.069838  0.847037  1
  Ca  Ca10  1  0.157885  0.430161  0.847037  1
  Ca  Ca11  1  0.465150  0.750000  0.867075  1
  Ag  Ag12  1  0.119793  0.750000  0.059011  1
  Ag  Ag13  1  0.623187  0.750000  0.441575  1
  Ag  Ag14  1  0.378333  0.250000  0.550290  1
  Rh  Rh15  1  0.874196  0.250000  0.953947  1
