# generated using pymatgen
data_CeDy7(ReB6)4
_symmetry_space_group_name_H-M   'P 1'
_cell_length_a   3.70186800
_cell_length_b   9.19226669
_cell_length_c   11.57800988
_cell_angle_alpha   90.04456809
_cell_angle_beta   90.00000000
_cell_angle_gamma   90.00000000
_symmetry_Int_Tables_number   1
_chemical_formula_structural   CeDy7(ReB6)4
_chemical_formula_sum   'Ce1 Dy7 Re4 B24'
_cell_volume   393.98286054
_cell_formula_units_Z   1
loop_
 _symmetry_equiv_pos_site_id
 _symmetry_equiv_pos_as_xyz
  1  'x, y, z'
loop_
 _atom_site_type_symbol
 _atom_site_label
 _atom_site_symmetry_multiplicity
 _atom_site_fract_x
 _atom_site_fract_y
 _atom_site_fract_z
 _atom_site_occupancy
  Ce  Ce0  1  0.000000  0.323013  0.413963  1
  Dy  Dy1  1  0.000000  0.677445  0.586672  1
  Dy  Dy2  1  0.000000  0.823239  0.085484  1
  Dy  Dy3  1  0.000000  0.176202  0.913979  1
  Dy  Dy4  1  0.000000  0.942174  0.369894  1
  Dy  Dy5  1  0.000000  0.056876  0.630505  1
  Dy  Dy6  1  0.000000  0.442881  0.129129  1
  Dy  Dy7  1  0.000000  0.557585  0.870229  1
  Re  Re8  1  0.000000  0.637631  0.320848  1
  Re  Re9  1  0.000000  0.362456  0.678765  1
  Re  Re10  1  0.000000  0.138199  0.179407  1
  Re  Re11  1  0.000000  0.861596  0.821019  1
  B  B12  1  0.500000  0.553559  0.432373  1
  B  B13  1  0.500000  0.446604  0.567776  1
  B  B14  1  0.500000  0.053050  0.066920  1
  B  B15  1  0.500000  0.947066  0.933005  1
  B  B16  1  0.500000  0.748859  0.418248  1
  B  B17  1  0.500000  0.251678  0.582662  1
  B  B18  1  0.500000  0.248300  0.081055  1
  B  B19  1  0.500000  0.751498  0.918371  1
  B  B20  1  0.500000  0.791322  0.265446  1
  B  B21  1  0.500000  0.208862  0.735161  1
  B  B22  1  0.500000  0.290688  0.233908  1
  B  B23  1  0.500000  0.708674  0.765484  1
  B  B24  1  0.500000  0.631095  0.185234  1
  B  B25  1  0.500000  0.369803  0.814478  1
  B  B26  1  0.500000  0.130464  0.313693  1
  B  B27  1  0.500000  0.869320  0.686011  1
  B  B28  1  0.500000  0.982175  0.211530  1
  B  B29  1  0.500000  0.017585  0.788408  1
  B  B30  1  0.500000  0.483446  0.287610  1
  B  B31  1  0.500000  0.518065  0.712559  1
  B  B32  1  0.500000  0.601016  0.028013  1
  B  B33  1  0.500000  0.399330  0.971454  1
  B  B34  1  0.500000  0.099880  0.472077  1
  B  B35  1  0.500000  0.898365  0.528628  1
