# generated using pymatgen
data_CePrLu2(ZnSn)4
_symmetry_space_group_name_H-M   'P 1'
_cell_length_a   4.53503500
_cell_length_b   4.53503517
_cell_length_c   16.03882300
_cell_angle_alpha   90.00000000
_cell_angle_beta   90.00000000
_cell_angle_gamma   119.99999148
_symmetry_Int_Tables_number   1
_chemical_formula_structural   CePrLu2(ZnSn)4
_chemical_formula_sum   'Ce1 Pr1 Lu2 Zn4 Sn4'
_cell_volume   285.66988903
_cell_formula_units_Z   1
loop_
 _symmetry_equiv_pos_site_id
 _symmetry_equiv_pos_as_xyz
  1  'x, y, z'
loop_
 _atom_site_type_symbol
 _atom_site_label
 _atom_site_symmetry_multiplicity
 _atom_site_fract_x
 _atom_site_fract_y
 _atom_site_fract_z
 _atom_site_occupancy
  Ce  Ce0  1  0.000000  0.000000  0.000000  1
  Pr  Pr1  1  0.000000  0.000000  0.500000  1
  Lu  Lu2  1  0.000000  0.000000  0.750579  1
  Lu  Lu3  1  0.000000  0.000000  0.249421  1
  Zn  Zn4  1  0.666667  0.333333  0.836587  1
  Zn  Zn5  1  0.666667  0.333333  0.666361  1
  Zn  Zn6  1  0.333333  0.666667  0.163413  1
  Zn  Zn7  1  0.333333  0.666667  0.333639  1
  Sn  Sn8  1  0.666667  0.333333  0.117485  1
  Sn  Sn9  1  0.666667  0.333333  0.379172  1
  Sn  Sn10  1  0.333333  0.666667  0.882515  1
  Sn  Sn11  1  0.333333  0.666667  0.620828  1
