# generated using pymatgen
data_La2B4Ir4Ru
_symmetry_space_group_name_H-M   'P 1'
_cell_length_a   7.61020093
_cell_length_b   6.39256547
_cell_length_c   5.72343000
_cell_angle_alpha   77.60467281
_cell_angle_beta   55.12674875
_cell_angle_gamma   47.26857580
_symmetry_Int_Tables_number   1
_chemical_formula_structural   La2B4Ir4Ru
_chemical_formula_sum   'La2 B4 Ir4 Ru1'
_cell_volume   160.70588999
_cell_formula_units_Z   1
loop_
 _symmetry_equiv_pos_site_id
 _symmetry_equiv_pos_as_xyz
  1  'x, y, z'
loop_
 _atom_site_type_symbol
 _atom_site_label
 _atom_site_symmetry_multiplicity
 _atom_site_fract_x
 _atom_site_fract_y
 _atom_site_fract_z
 _atom_site_occupancy
  La  La0  1  0.858374  0.858374  0.141626  1
  La  La1  1  0.141626  0.141626  0.858374  1
  B  B2  1  0.788423  0.472283  0.537049  1
  B  B3  1  0.202245  0.537049  0.472283  1
  B  B4  1  0.537049  0.202245  0.788423  1
  B  B5  1  0.472283  0.788423  0.202245  1
  Ir  Ir6  1  0.499588  0.499588  0.000412  1
  Ir  Ir7  1  0.500000  0.500000  0.500000  1
  Ir  Ir8  1  0.000412  0.000412  0.499588  1
  Ir  Ir9  1  0.250000  0.250000  0.250000  1
  Ru  Ru10  1  0.750000  0.750000  0.750000  1
