# generated using pymatgen
data_Lu3Zr5Ir4
_symmetry_space_group_name_H-M   'P 1'
_cell_length_a   4.56801000
_cell_length_b   6.91992039
_cell_length_c   8.20410224
_cell_angle_alpha   89.07791056
_cell_angle_beta   90.00000000
_cell_angle_gamma   90.00000000
_symmetry_Int_Tables_number   1
_chemical_formula_structural   Lu3Zr5Ir4
_chemical_formula_sum   'Lu3 Zr5 Ir4'
_cell_volume   259.30026723
_cell_formula_units_Z   1
loop_
 _symmetry_equiv_pos_site_id
 _symmetry_equiv_pos_as_xyz
  1  'x, y, z'
loop_
 _atom_site_type_symbol
 _atom_site_label
 _atom_site_symmetry_multiplicity
 _atom_site_fract_x
 _atom_site_fract_y
 _atom_site_fract_z
 _atom_site_occupancy
  Lu  Lu0  1  0.250000  0.483942  0.178171  1
  Lu  Lu1  1  0.750000  0.012545  0.675134  1
  Lu  Lu2  1  0.750000  0.512012  0.823085  1
  Zr  Zr3  1  0.250000  0.852283  0.923228  1
  Zr  Zr4  1  0.250000  0.353725  0.578291  1
  Zr  Zr5  1  0.750000  0.140889  0.081088  1
  Zr  Zr6  1  0.750000  0.652281  0.419504  1
  Zr  Zr7  1  0.250000  0.992209  0.329555  1
  Ir  Ir8  1  0.250000  0.237213  0.909717  1
  Ir  Ir9  1  0.250000  0.745078  0.585912  1
  Ir  Ir10  1  0.750000  0.758666  0.089842  1
  Ir  Ir11  1  0.750000  0.259158  0.406473  1
