# generated using pymatgen
data_DyHf3(Al3Ir)6
_symmetry_space_group_name_H-M   'P 1'
_cell_length_a   7.49237438
_cell_length_b   7.48427180
_cell_length_c   9.27942000
_cell_angle_alpha   90.00000000
_cell_angle_beta   90.00000000
_cell_angle_gamma   119.79613550
_symmetry_Int_Tables_number   1
_chemical_formula_structural   DyHf3(Al3Ir)6
_chemical_formula_sum   'Dy1 Hf3 Al18 Ir6'
_cell_volume   451.55326229
_cell_formula_units_Z   1
loop_
 _symmetry_equiv_pos_site_id
 _symmetry_equiv_pos_as_xyz
  1  'x, y, z'
loop_
 _atom_site_type_symbol
 _atom_site_label
 _atom_site_symmetry_multiplicity
 _atom_site_fract_x
 _atom_site_fract_y
 _atom_site_fract_z
 _atom_site_occupancy
  Dy  Dy0  1  0.329453  0.005669  0.250000  1
  Hf  Hf1  1  0.994132  0.671375  0.750000  1
  Hf  Hf2  1  0.005274  0.329305  0.250000  1
  Hf  Hf3  1  0.671783  0.994561  0.750000  1
  Al  Al4  1  0.123294  0.124489  0.750000  1
  Al  Al5  1  0.871784  0.875199  0.250000  1
  Al  Al6  1  0.997814  0.334643  0.577664  1
  Al  Al7  1  0.999640  0.662873  0.425599  1
  Al  Al8  1  0.999640  0.662873  0.074401  1
  Al  Al9  1  0.334861  0.998287  0.919236  1
  Al  Al10  1  0.997814  0.334643  0.922336  1
  Al  Al11  1  0.667867  0.001852  0.074459  1
  Al  Al12  1  0.667867  0.001852  0.425541  1
  Al  Al13  1  0.334861  0.998287  0.580764  1
  Al  Al14  1  0.331366  0.333669  0.055963  1
  Al  Al15  1  0.668147  0.668141  0.939407  1
  Al  Al16  1  0.668147  0.668141  0.560593  1
  Al  Al17  1  0.331366  0.333669  0.444037  1
  Al  Al18  1  0.338366  0.552113  0.750000  1
  Al  Al19  1  0.666273  0.452908  0.250000  1
  Al  Al20  1  0.553055  0.339474  0.750000  1
  Al  Al21  1  0.447633  0.656752  0.250000  1
  Ir  Ir22  1  0.673251  0.327932  0.501690  1
  Ir  Ir23  1  0.327926  0.673160  0.502087  1
  Ir  Ir24  1  0.327926  0.673160  0.997913  1
  Ir  Ir25  1  0.673251  0.327932  0.998310  1
  Ir  Ir26  1  0.998603  0.998520  0.502061  1
  Ir  Ir27  1  0.998603  0.998520  0.997939  1
