# generated using pymatgen
data_Be6Si6TcIr11
_symmetry_space_group_name_H-M   'P 1'
_cell_length_a   4.08301800
_cell_length_b   5.77934800
_cell_length_c   12.27020000
_cell_angle_alpha   89.99996092
_cell_angle_beta   90.00081791
_cell_angle_gamma   89.99997711
_symmetry_Int_Tables_number   1
_chemical_formula_structural   Be6Si6TcIr11
_chemical_formula_sum   'Be6 Si6 Tc1 Ir11'
_cell_volume   289.54214149
_cell_formula_units_Z   1
loop_
 _symmetry_equiv_pos_site_id
 _symmetry_equiv_pos_as_xyz
  1  'x, y, z'
loop_
 _atom_site_type_symbol
 _atom_site_label
 _atom_site_symmetry_multiplicity
 _atom_site_fract_x
 _atom_site_fract_y
 _atom_site_fract_z
 _atom_site_occupancy
  Be  Be0  1  0.000000  0.496642  0.000001  1
  Be  Be1  1  0.499667  0.003323  0.163377  1
  Be  Be2  1  0.999667  0.498815  0.331948  1
  Be  Be3  1  0.500001  0.000339  0.500000  1
  Be  Be4  1  0.000330  0.498820  0.668048  1
  Be  Be5  1  0.500334  0.003323  0.836624  1
  Si  Si6  1  0.000001  0.010495  0.000000  1
  Si  Si7  1  0.499800  0.493950  0.161778  1
  Si  Si8  1  0.999788  0.000470  0.332888  1
  Si  Si9  1  0.500001  0.500210  0.500000  1
  Si  Si10  1  0.000212  0.000471  0.667112  1
  Si  Si11  1  0.500200  0.493950  0.838223  1
  Tc  Tc12  1  0.500000  0.249790  0.000001  1
  Ir  Ir13  1  0.500001  0.751521  0.000001  1
  Ir  Ir14  1  0.999853  0.250257  0.171605  1
  Ir  Ir15  1  0.999847  0.750049  0.168672  1
  Ir  Ir16  1  0.499863  0.250114  0.336164  1
  Ir  Ir17  1  0.499849  0.749055  0.333437  1
  Ir  Ir18  1  0.000000  0.249174  0.500000  1
  Ir  Ir19  1  0.000001  0.749756  0.500000  1
  Ir  Ir20  1  0.500138  0.250114  0.663837  1
  Ir  Ir21  1  0.500152  0.749055  0.666564  1
  Ir  Ir22  1  0.000147  0.250258  0.828395  1
  Ir  Ir23  1  0.000154  0.750048  0.831329  1
