# generated using pymatgen
data_La2Ho4Ir17Rh
_symmetry_space_group_name_H-M   'P 1'
_cell_length_a   5.34444700
_cell_length_b   5.34444686
_cell_length_c   17.48182500
_cell_angle_alpha   90.00000000
_cell_angle_beta   90.00000000
_cell_angle_gamma   119.99999467
_symmetry_Int_Tables_number   1
_chemical_formula_structural   La2Ho4Ir17Rh
_chemical_formula_sum   'La2 Ho4 Ir17 Rh1'
_cell_volume   432.43711515
_cell_formula_units_Z   1
loop_
 _symmetry_equiv_pos_site_id
 _symmetry_equiv_pos_as_xyz
  1  'x, y, z'
loop_
 _atom_site_type_symbol
 _atom_site_label
 _atom_site_symmetry_multiplicity
 _atom_site_fract_x
 _atom_site_fract_y
 _atom_site_fract_z
 _atom_site_occupancy
  La  La0  1  0.333333  0.666667  0.750000  1
  La  La1  1  0.666667  0.333333  0.250000  1
  Ho  Ho2  1  0.333333  0.666667  0.540371  1
  Ho  Ho3  1  0.666667  0.333333  0.040561  1
  Ho  Ho4  1  0.666667  0.333333  0.459439  1
  Ho  Ho5  1  0.333333  0.666667  0.959629  1
  Ir  Ir6  1  0.167290  0.334580  0.124969  1
  Ir  Ir7  1  0.832223  0.664445  0.624701  1
  Ir  Ir8  1  0.665420  0.832710  0.124969  1
  Ir  Ir9  1  0.167290  0.832710  0.124969  1
  Ir  Ir10  1  0.832223  0.167777  0.624701  1
  Ir  Ir11  1  0.335555  0.167777  0.624701  1
  Ir  Ir12  1  0.832223  0.664445  0.875299  1
  Ir  Ir13  1  0.832223  0.167777  0.875299  1
  Ir  Ir14  1  0.335555  0.167777  0.875299  1
  Ir  Ir15  1  0.665420  0.832710  0.375031  1
  Ir  Ir16  1  0.167290  0.832710  0.375031  1
  Ir  Ir17  1  0.167290  0.334580  0.375031  1
  Ir  Ir18  1  0.000000  0.000000  0.250000  1
  Ir  Ir19  1  0.000000  0.000000  0.750000  1
  Ir  Ir20  1  0.333333  0.666667  0.250000  1
  Ir  Ir21  1  0.000000  0.000000  0.999767  1
  Ir  Ir22  1  0.000000  0.000000  0.500233  1
  Rh  Rh23  1  0.666667  0.333333  0.750000  1
