# generated using pymatgen
data_Y7Th(InPt)2
_symmetry_space_group_name_H-M   'P 1'
_cell_length_a   9.78773933
_cell_length_b   9.78773884
_cell_length_c   9.77133300
_cell_angle_alpha   60.05543491
_cell_angle_beta   60.05543655
_cell_angle_gamma   59.98496421
_symmetry_Int_Tables_number   1
_chemical_formula_structural   Y7Th(InPt)2
_chemical_formula_sum   'Y14 Th2 In4 Pt4'
_cell_volume   662.39572167
_cell_formula_units_Z   2
loop_
 _symmetry_equiv_pos_site_id
 _symmetry_equiv_pos_as_xyz
  1  'x, y, z'
loop_
 _atom_site_type_symbol
 _atom_site_label
 _atom_site_symmetry_multiplicity
 _atom_site_fract_x
 _atom_site_fract_y
 _atom_site_fract_z
 _atom_site_occupancy
  Y  Y0  1  0.352695  0.940289  0.353508  1
  Y  Y1  1  0.940289  0.352695  0.353508  1
  Y  Y2  1  0.810230  0.192532  0.189661  1
  Y  Y3  1  0.192532  0.810230  0.807576  1
  Y  Y4  1  0.192532  0.810230  0.189661  1
  Y  Y5  1  0.810230  0.192532  0.807576  1
  Y  Y6  1  0.190430  0.190430  0.809570  1
  Y  Y7  1  0.808868  0.808868  0.191132  1
  Y  Y8  1  0.937018  0.562264  0.564600  1
  Y  Y9  1  0.562264  0.937018  0.936119  1
  Y  Y10  1  0.562264  0.937018  0.564600  1
  Y  Y11  1  0.937018  0.562264  0.936119  1
  Y  Y12  1  0.562186  0.562186  0.937814  1
  Y  Y13  1  0.937411  0.937411  0.562589  1
  Th  Th14  1  0.348889  0.348889  0.353172  1
  Th  Th15  1  0.348889  0.348889  0.949050  1
  In  In16  1  0.586195  0.586195  0.582976  1
  In  In17  1  0.586195  0.586195  0.244635  1
  In  In18  1  0.586919  0.248175  0.582453  1
  In  In19  1  0.248175  0.586919  0.582453  1
  Pt  Pt20  1  0.142297  0.142297  0.144559  1
  Pt  Pt21  1  0.142297  0.142297  0.570846  1
  Pt  Pt22  1  0.143153  0.571020  0.142913  1
  Pt  Pt23  1  0.571020  0.143153  0.142913  1
