# generated using pymatgen
data_Sr20GaAu15
_symmetry_space_group_name_H-M   'P 1'
_cell_length_a   8.35934536
_cell_length_b   8.46349335
_cell_length_c   16.43643600
_cell_angle_alpha   90.00000000
_cell_angle_beta   90.00000000
_cell_angle_gamma   89.58798447
_symmetry_Int_Tables_number   1
_chemical_formula_structural   Sr20GaAu15
_chemical_formula_sum   'Sr20 Ga1 Au15'
_cell_volume   1162.83568120
_cell_formula_units_Z   1
loop_
 _symmetry_equiv_pos_site_id
 _symmetry_equiv_pos_as_xyz
  1  'x, y, z'
loop_
 _atom_site_type_symbol
 _atom_site_label
 _atom_site_symmetry_multiplicity
 _atom_site_fract_x
 _atom_site_fract_y
 _atom_site_fract_z
 _atom_site_occupancy
  Sr  Sr0  1  0.331856  0.833494  0.879178  1
  Sr  Sr1  1  0.832205  0.668200  0.620287  1
  Sr  Sr2  1  0.666742  0.168766  0.381286  1
  Sr  Sr3  1  0.164247  0.328258  0.117043  1
  Sr  Sr4  1  0.666742  0.168766  0.118714  1
  Sr  Sr5  1  0.164247  0.328258  0.382957  1
  Sr  Sr6  1  0.331856  0.833494  0.620822  1
  Sr  Sr7  1  0.832205  0.668200  0.879713  1
  Sr  Sr8  1  0.489201  0.320899  0.899217  1
  Sr  Sr9  1  0.987104  0.181424  0.600025  1
  Sr  Sr10  1  0.511238  0.679357  0.405242  1
  Sr  Sr11  1  0.011983  0.818616  0.095030  1
  Sr  Sr12  1  0.511238  0.679357  0.094758  1
  Sr  Sr13  1  0.011983  0.818616  0.404970  1
  Sr  Sr14  1  0.489201  0.320899  0.600783  1
  Sr  Sr15  1  0.987104  0.181424  0.899975  1
  Sr  Sr16  1  0.167548  0.492107  0.750000  1
  Sr  Sr17  1  0.667074  0.010413  0.750000  1
  Sr  Sr18  1  0.830074  0.511672  0.250000  1
  Sr  Sr19  1  0.334992  0.988617  0.250000  1
  Ga  Ga20  1  0.225780  0.619094  0.250000  1
  Au  Au21  1  0.335503  0.019744  0.047030  1
  Au  Au22  1  0.833802  0.475911  0.454736  1
  Au  Au23  1  0.666388  0.977437  0.547678  1
  Au  Au24  1  0.167661  0.526424  0.953568  1
  Au  Au25  1  0.666388  0.977437  0.952322  1
  Au  Au26  1  0.167661  0.526424  0.546432  1
  Au  Au27  1  0.335503  0.019744  0.452970  1
  Au  Au28  1  0.833802  0.475911  0.045264  1
  Au  Au29  1  0.536371  0.615117  0.750000  1
  Au  Au30  1  0.036258  0.886930  0.750000  1
  Au  Au31  1  0.454177  0.396170  0.250000  1
  Au  Au32  1  0.961092  0.109141  0.250000  1
  Au  Au33  1  0.286388  0.129088  0.750000  1
  Au  Au34  1  0.788297  0.371618  0.750000  1
  Au  Au35  1  0.716086  0.872971  0.250000  1
