# generated using pymatgen
data_La3SiAuSe7
_symmetry_space_group_name_H-M   'P 1'
_cell_length_a   10.88583300
_cell_length_b   10.88568524
_cell_length_c   6.17228600
_cell_angle_alpha   90.00000000
_cell_angle_beta   90.00000000
_cell_angle_gamma   119.99973633
_symmetry_Int_Tables_number   1
_chemical_formula_structural   La3SiAuSe7
_chemical_formula_sum   'La6 Si2 Au2 Se14'
_cell_volume   633.42509735
_cell_formula_units_Z   2
loop_
 _symmetry_equiv_pos_site_id
 _symmetry_equiv_pos_as_xyz
  1  'x, y, z'
loop_
 _atom_site_type_symbol
 _atom_site_label
 _atom_site_symmetry_multiplicity
 _atom_site_fract_x
 _atom_site_fract_y
 _atom_site_fract_z
 _atom_site_occupancy
  La  La0  1  0.122236  0.355155  0.252287  1
  La  La1  1  0.644854  0.767069  0.252282  1
  La  La2  1  0.232941  0.877773  0.252284  1
  La  La3  1  0.767058  0.122227  0.752285  1
  La  La4  1  0.355146  0.232930  0.752283  1
  La  La5  1  0.877764  0.644845  0.752288  1
  Si  Si6  1  0.666667  0.333334  0.162895  1
  Si  Si7  1  0.333332  0.666666  0.662896  1
  Au  Au8  1  0.999999  0.999998  0.282505  1
  Au  Au9  1  0.000001  0.000002  0.782506  1
  Se  Se10  1  0.888902  0.411818  0.014678  1
  Se  Se11  1  0.522906  0.111099  0.014679  1
  Se  Se12  1  0.588176  0.477083  0.014677  1
  Se  Se13  1  0.333336  0.666666  0.031619  1
  Se  Se14  1  0.909046  0.732331  0.266033  1
  Se  Se15  1  0.823289  0.090958  0.266031  1
  Se  Se16  1  0.267670  0.176707  0.266030  1
  Se  Se17  1  0.111099  0.588182  0.514677  1
  Se  Se18  1  0.411824  0.522917  0.514676  1
  Se  Se19  1  0.477094  0.888901  0.514680  1
  Se  Se20  1  0.666664  0.333334  0.531618  1
  Se  Se21  1  0.090954  0.267668  0.766032  1
  Se  Se22  1  0.732330  0.823293  0.766030  1
  Se  Se23  1  0.176711  0.909042  0.766031  1
