# generated using pymatgen
data_Yb3Tm(MnB4)4
_symmetry_space_group_name_H-M   'P 1'
_cell_length_a   3.35751000
_cell_length_b   5.88967902
_cell_length_c   11.39050206
_cell_angle_alpha   90.01083832
_cell_angle_beta   90.00000000
_cell_angle_gamma   90.00000000
_symmetry_Int_Tables_number   1
_chemical_formula_structural   Yb3Tm(MnB4)4
_chemical_formula_sum   'Yb3 Tm1 Mn4 B16'
_cell_volume   225.24325829
_cell_formula_units_Z   1
loop_
 _symmetry_equiv_pos_site_id
 _symmetry_equiv_pos_as_xyz
  1  'x, y, z'
loop_
 _atom_site_type_symbol
 _atom_site_label
 _atom_site_symmetry_multiplicity
 _atom_site_fract_x
 _atom_site_fract_y
 _atom_site_fract_z
 _atom_site_occupancy
  Yb  Yb0  1  0.500000  0.625570  0.848688  1
  Yb  Yb1  1  0.500000  0.125309  0.651266  1
  Yb  Yb2  1  0.500000  0.874944  0.349194  1
  Tm  Tm3  1  0.500000  0.374395  0.150934  1
  Mn  Mn4  1  0.500000  0.376566  0.418487  1
  Mn  Mn5  1  0.500000  0.623925  0.579963  1
  Mn  Mn6  1  0.500000  0.123780  0.921155  1
  Mn  Mn7  1  0.500000  0.877382  0.080880  1
  B  B8  1  0.000000  0.113200  0.047505  1
  B  B9  1  0.000000  0.886980  0.953601  1
  B  B10  1  0.000000  0.385805  0.545889  1
  B  B11  1  0.000000  0.612693  0.452315  1
  B  B12  1  0.000000  0.137773  0.466890  1
  B  B13  1  0.000000  0.862168  0.532152  1
  B  B14  1  0.000000  0.361937  0.968015  1
  B  B15  1  0.000000  0.638032  0.032781  1
  B  B16  1  0.000000  0.025384  0.191486  1
  B  B17  1  0.000000  0.976295  0.809632  1
  B  B18  1  0.000000  0.475168  0.690787  1
  B  B19  1  0.000000  0.524273  0.308330  1
  B  B20  1  0.000000  0.219973  0.316529  1
  B  B21  1  0.000000  0.779953  0.683090  1
  B  B22  1  0.000000  0.278672  0.817237  1
  B  B23  1  0.000000  0.719823  0.183195  1
