# generated using pymatgen
data_Cs8ZrSb4
_symmetry_space_group_name_H-M   'P 1'
_cell_length_a   12.58562901
_cell_length_b   12.58561658
_cell_length_c   12.58563300
_cell_angle_alpha   59.99995421
_cell_angle_beta   59.99998687
_cell_angle_gamma   59.99994393
_symmetry_Int_Tables_number   1
_chemical_formula_structural   Cs8ZrSb4
_chemical_formula_sum   'Cs16 Zr2 Sb8'
_cell_volume   1409.64290771
_cell_formula_units_Z   2
loop_
 _symmetry_equiv_pos_site_id
 _symmetry_equiv_pos_as_xyz
  1  'x, y, z'
loop_
 _atom_site_type_symbol
 _atom_site_label
 _atom_site_symmetry_multiplicity
 _atom_site_fract_x
 _atom_site_fract_y
 _atom_site_fract_z
 _atom_site_occupancy
  Cs  Cs0  1  0.625000  0.125000  0.625000  1
  Cs  Cs1  1  0.625000  0.625000  0.125000  1
  Cs  Cs2  1  0.125000  0.625000  0.625000  1
  Cs  Cs3  1  0.625000  0.625000  0.625000  1
  Cs  Cs4  1  0.024959  0.024959  0.475041  1
  Cs  Cs5  1  0.774960  0.225041  0.225040  1
  Cs  Cs6  1  0.225041  0.774959  0.774959  1
  Cs  Cs7  1  0.774960  0.774959  0.225041  1
  Cs  Cs8  1  0.774960  0.225041  0.774959  1
  Cs  Cs9  1  0.225041  0.774959  0.225041  1
  Cs  Cs10  1  0.475040  0.024959  0.475041  1
  Cs  Cs11  1  0.475040  0.024959  0.024960  1
  Cs  Cs12  1  0.024959  0.475041  0.475041  1
  Cs  Cs13  1  0.024959  0.475041  0.024959  1
  Cs  Cs14  1  0.225041  0.225041  0.774959  1
  Cs  Cs15  1  0.475040  0.475041  0.024959  1
  Zr  Zr16  1  0.750000  0.750000  0.750000  1
  Zr  Zr17  1  0.500000  0.500000  0.500000  1
  Sb  Sb18  1  0.405154  0.784539  0.405154  1
  Sb  Sb19  1  0.844846  0.844846  0.465462  1
  Sb  Sb20  1  0.465462  0.844846  0.844846  1
  Sb  Sb21  1  0.844846  0.844846  0.844846  1
  Sb  Sb22  1  0.784538  0.405154  0.405154  1
  Sb  Sb23  1  0.405154  0.405154  0.405154  1
  Sb  Sb24  1  0.405154  0.405154  0.784538  1
  Sb  Sb25  1  0.844846  0.465461  0.844846  1
