# generated using pymatgen
data_CsLa2CoH12Ru
_symmetry_space_group_name_H-M   'P 1'
_cell_length_a   5.24116900
_cell_length_b   5.24116832
_cell_length_c   9.50388200
_cell_angle_alpha   90.00000000
_cell_angle_beta   90.00000000
_cell_angle_gamma   119.99999800
_symmetry_Int_Tables_number   1
_chemical_formula_structural   CsLa2CoH12Ru
_chemical_formula_sum   'Cs1 La2 Co1 H12 Ru1'
_cell_volume   226.09343218
_cell_formula_units_Z   1
loop_
 _symmetry_equiv_pos_site_id
 _symmetry_equiv_pos_as_xyz
  1  'x, y, z'
loop_
 _atom_site_type_symbol
 _atom_site_label
 _atom_site_symmetry_multiplicity
 _atom_site_fract_x
 _atom_site_fract_y
 _atom_site_fract_z
 _atom_site_occupancy
  Cs  Cs0  1  0.000000  0.000000  0.008227  1
  La  La1  1  0.666667  0.333333  0.363709  1
  La  La2  1  0.333333  0.666667  0.624617  1
  Co  Co3  1  0.666667  0.333333  0.697572  1
  H  H4  1  0.174342  0.825658  0.404585  1
  H  H5  1  0.651316  0.825658  0.404585  1
  H  H6  1  0.174342  0.348684  0.404585  1
  H  H7  1  0.812038  0.187962  0.608655  1
  H  H8  1  0.375922  0.187962  0.608655  1
  H  H9  1  0.812038  0.624078  0.608655  1
  H  H10  1  0.537025  0.074048  0.799964  1
  H  H11  1  0.537025  0.462975  0.799964  1
  H  H12  1  0.925952  0.462975  0.799964  1
  H  H13  1  0.476969  0.953938  0.187644  1
  H  H14  1  0.476969  0.523031  0.187644  1
  H  H15  1  0.046062  0.523031  0.187644  1
  Ru  Ru16  1  0.333333  0.666667  0.303336  1
