# generated using pymatgen
data_Tb7TmC10
_symmetry_space_group_name_H-M   'P 1'
_cell_length_a   3.69606500
_cell_length_b   6.61947139
_cell_length_c   11.95638097
_cell_angle_alpha   89.86788470
_cell_angle_beta   90.00000000
_cell_angle_gamma   90.00000000
_symmetry_Int_Tables_number   1
_chemical_formula_structural   Tb7TmC10
_chemical_formula_sum   'Tb7 Tm1 C10'
_cell_volume   292.52399741
_cell_formula_units_Z   1
loop_
 _symmetry_equiv_pos_site_id
 _symmetry_equiv_pos_as_xyz
  1  'x, y, z'
loop_
 _atom_site_type_symbol
 _atom_site_label
 _atom_site_symmetry_multiplicity
 _atom_site_fract_x
 _atom_site_fract_y
 _atom_site_fract_z
 _atom_site_occupancy
  Tb  Tb0  1  0.000000  0.749880  0.457401  1
  Tb  Tb1  1  0.000000  0.749369  0.955236  1
  Tb  Tb2  1  0.000000  0.238254  0.041940  1
  Tb  Tb3  1  0.500000  0.109023  0.802001  1
  Tb  Tb4  1  0.500000  0.892975  0.196986  1
  Tb  Tb5  1  0.500000  0.604693  0.697573  1
  Tb  Tb6  1  0.500000  0.390446  0.304242  1
  Tm  Tm7  1  0.000000  0.265167  0.542059  1
  C  C8  1  0.500000  0.507575  0.501909  1
  C  C9  1  0.500000  0.988344  0.000352  1
  C  C10  1  0.000000  0.363209  0.732948  1
  C  C11  1  0.000000  0.643588  0.262613  1
  C  C12  1  0.000000  0.857726  0.759128  1
  C  C13  1  0.000000  0.133901  0.238253  1
  C  C14  1  0.000000  0.384992  0.843979  1
  C  C15  1  0.000000  0.574590  0.158392  1
  C  C16  1  0.000000  0.115224  0.349476  1
  C  C17  1  0.000000  0.931043  0.655513  1
