# generated using pymatgen
data_Dy7Y5GaCo5
_symmetry_space_group_name_H-M   'P 1'
_cell_length_a   8.26731847
_cell_length_b   8.27339777
_cell_length_c   8.26731968
_cell_angle_alpha   107.20236948
_cell_angle_beta   110.54211090
_cell_angle_gamma   110.66355632
_symmetry_Int_Tables_number   1
_chemical_formula_structural   Dy7Y5GaCo5
_chemical_formula_sum   'Dy7 Y5 Ga1 Co5'
_cell_volume   434.95279417
_cell_formula_units_Z   1
loop_
 _symmetry_equiv_pos_site_id
 _symmetry_equiv_pos_as_xyz
  1  'x, y, z'
loop_
 _atom_site_type_symbol
 _atom_site_label
 _atom_site_symmetry_multiplicity
 _atom_site_fract_x
 _atom_site_fract_y
 _atom_site_fract_z
 _atom_site_occupancy
  Dy  Dy0  1  0.304120  0.989083  0.684962  1
  Dy  Dy1  1  0.696089  0.381092  0.685005  1
  Dy  Dy2  1  0.695546  0.010630  0.315085  1
  Dy  Dy3  1  0.190287  0.209039  0.400334  1
  Dy  Dy4  1  0.809574  0.790756  0.600159  1
  Dy  Dy5  1  0.190597  0.790756  0.981181  1
  Dy  Dy6  1  0.808705  0.209039  0.018753  1
  Y  Y7  1  0.481676  0.293400  0.188182  1
  Y  Y8  1  0.105218  0.293400  0.811723  1
  Y  Y9  1  0.894206  0.706543  0.188068  1
  Y  Y10  1  0.518474  0.706543  0.812337  1
  Y  Y11  1  0.302440  0.617769  0.315329  1
  Ga  Ga12  1  0.000163  0.500113  0.499951  1
  Co  Co13  1  0.500663  0.612875  0.112212  1
  Co  Co14  1  0.499754  0.385587  0.885834  1
  Co  Co15  1  0.379726  0.001417  0.379114  1
  Co  Co16  1  0.622303  0.001417  0.621692  1
  Co  Co17  1  0.000458  0.000540  0.000081  1
