# generated using pymatgen
data_Sm3Y2Zr3(As3Pd4)4
_symmetry_space_group_name_H-M   'P 1'
_cell_length_a   13.57541883
_cell_length_b   13.57541856
_cell_length_c   4.12258300
_cell_angle_alpha   90.00000000
_cell_angle_beta   90.00000000
_cell_angle_gamma   119.94045015
_symmetry_Int_Tables_number   1
_chemical_formula_structural   Sm3Y2Zr3(As3Pd4)4
_chemical_formula_sum   'Sm3 Y2 Zr3 As12 Pd16'
_cell_volume   658.36509545
_cell_formula_units_Z   1
loop_
 _symmetry_equiv_pos_site_id
 _symmetry_equiv_pos_as_xyz
  1  'x, y, z'
loop_
 _atom_site_type_symbol
 _atom_site_label
 _atom_site_symmetry_multiplicity
 _atom_site_fract_x
 _atom_site_fract_y
 _atom_site_fract_z
 _atom_site_occupancy
  Sm  Sm0  1  0.189348  0.189348  0.500000  1
  Sm  Sm1  1  0.333428  0.666787  0.000000  1
  Sm  Sm2  1  0.666787  0.333428  0.000000  1
  Y  Y3  1  0.809732  0.000069  0.500000  1
  Y  Y4  1  0.000069  0.809732  0.500000  1
  Zr  Zr5  1  0.557421  0.557421  0.000000  1
  Zr  Zr6  1  0.442725  0.999692  0.000000  1
  Zr  Zr7  1  0.999692  0.442725  0.000000  1
  As  As8  1  0.825608  0.825608  0.000000  1
  As  As9  1  0.173398  0.998950  0.000000  1
  As  As10  1  0.998950  0.173398  0.000000  1
  As  As11  1  0.166598  0.482827  0.500000  1
  As  As12  1  0.517757  0.683900  0.500000  1
  As  As13  1  0.316281  0.833479  0.500000  1
  As  As14  1  0.683900  0.517757  0.500000  1
  As  As15  1  0.833479  0.316281  0.500000  1
  As  As16  1  0.482827  0.166598  0.500000  1
  As  As17  1  0.359372  0.359372  0.000000  1
  As  As18  1  0.641758  0.000561  0.000000  1
  As  As19  1  0.000561  0.641758  0.000000  1
  Pd  Pd20  1  0.722692  0.722692  0.500000  1
  Pd  Pd21  1  0.277801  0.000122  0.500000  1
  Pd  Pd22  1  0.000122  0.277801  0.500000  1
  Pd  Pd23  1  0.180533  0.372747  0.000000  1
  Pd  Pd24  1  0.628160  0.809806  0.000000  1
  Pd  Pd25  1  0.190790  0.818822  0.000000  1
  Pd  Pd26  1  0.809806  0.628160  0.000000  1
  Pd  Pd27  1  0.818822  0.190790  0.000000  1
  Pd  Pd28  1  0.372747  0.180533  0.000000  1
  Pd  Pd29  1  0.357664  0.484486  0.500000  1
  Pd  Pd30  1  0.515942  0.872672  0.500000  1
  Pd  Pd31  1  0.126508  0.642545  0.500000  1
  Pd  Pd32  1  0.872672  0.515942  0.500000  1
  Pd  Pd33  1  0.642545  0.126508  0.500000  1
  Pd  Pd34  1  0.484486  0.357664  0.500000  1
  Pd  Pd35  1  0.999019  0.999019  0.000000  1
