# generated using pymatgen
data_TbTm15(InRu)4
_symmetry_space_group_name_H-M   'P 1'
_cell_length_a   9.57209833
_cell_length_b   9.57213863
_cell_length_c   9.56430080
_cell_angle_alpha   59.58002914
_cell_angle_beta   59.57980544
_cell_angle_gamma   59.50089312
_symmetry_Int_Tables_number   1
_chemical_formula_structural   TbTm15(InRu)4
_chemical_formula_sum   'Tb1 Tm15 In4 Ru4'
_cell_volume   613.37119285
_cell_formula_units_Z   1
loop_
 _symmetry_equiv_pos_site_id
 _symmetry_equiv_pos_as_xyz
  1  'x, y, z'
loop_
 _atom_site_type_symbol
 _atom_site_label
 _atom_site_symmetry_multiplicity
 _atom_site_fract_x
 _atom_site_fract_y
 _atom_site_fract_z
 _atom_site_occupancy
  Tb  Tb0  1  0.058864  0.058865  0.441750  1
  Tm  Tm1  1  0.443276  0.059081  0.442622  1
  Tm  Tm2  1  0.058732  0.442553  0.057837  1
  Tm  Tm3  1  0.043465  0.651264  0.651971  1
  Tm  Tm4  1  0.442583  0.442586  0.059085  1
  Tm  Tm5  1  0.651264  0.043471  0.651965  1
  Tm  Tm6  1  0.191748  0.811046  0.191445  1
  Tm  Tm7  1  0.191753  0.191755  0.811216  1
  Tm  Tm8  1  0.808926  0.808928  0.191028  1
  Tm  Tm9  1  0.442549  0.058732  0.057835  1
  Tm  Tm10  1  0.811048  0.191748  0.191440  1
  Tm  Tm11  1  0.059076  0.443280  0.442627  1
  Tm  Tm12  1  0.808611  0.191383  0.809199  1
  Tm  Tm13  1  0.191383  0.808614  0.809200  1
  Tm  Tm14  1  0.651497  0.651489  0.043122  1
  Tm  Tm15  1  0.650286  0.650291  0.650534  1
  In  In16  1  0.417039  0.417039  0.417046  1
  In  In17  1  0.747774  0.418484  0.417184  1
  In  In18  1  0.418488  0.747761  0.417193  1
  In  In19  1  0.417203  0.417199  0.749317  1
  Ru  Ru20  1  0.857218  0.857221  0.419633  1
  Ru  Ru21  1  0.860086  0.860088  0.861257  1
  Ru  Ru22  1  0.419216  0.857913  0.857746  1
  Ru  Ru23  1  0.857916  0.419208  0.857747  1
