# generated using pymatgen
data_Nd4MgB4Rh9
_symmetry_space_group_name_H-M   'P 1'
_cell_length_a   5.57502500
_cell_length_b   5.57502527
_cell_length_c   21.06011200
_cell_angle_alpha   90.00000000
_cell_angle_beta   90.00000000
_cell_angle_gamma   119.99626942
_symmetry_Int_Tables_number   1
_chemical_formula_structural   Nd4MgB4Rh9
_chemical_formula_sum   'Nd8 Mg2 B8 Rh18'
_cell_volume   566.89325869
_cell_formula_units_Z   2
loop_
 _symmetry_equiv_pos_site_id
 _symmetry_equiv_pos_as_xyz
  1  'x, y, z'
loop_
 _atom_site_type_symbol
 _atom_site_label
 _atom_site_symmetry_multiplicity
 _atom_site_fract_x
 _atom_site_fract_y
 _atom_site_fract_z
 _atom_site_occupancy
  Nd  Nd0  1  0.666614  0.333386  0.526481  1
  Nd  Nd1  1  0.333386  0.666614  0.473519  1
  Nd  Nd2  1  0.333386  0.666614  0.026481  1
  Nd  Nd3  1  0.666614  0.333386  0.973519  1
  Nd  Nd4  1  0.666625  0.333375  0.675518  1
  Nd  Nd5  1  0.333375  0.666625  0.324482  1
  Nd  Nd6  1  0.333375  0.666625  0.175518  1
  Nd  Nd7  1  0.666625  0.333375  0.824482  1
  Mg  Mg8  1  0.000000  0.000000  0.500000  1
  Mg  Mg9  1  0.000000  0.000000  0.000000  1
  B  B10  1  0.999954  0.000046  0.674126  1
  B  B11  1  0.000046  0.999954  0.325874  1
  B  B12  1  0.000046  0.999954  0.174126  1
  B  B13  1  0.999954  0.000046  0.825874  1
  B  B14  1  0.666661  0.333339  0.324827  1
  B  B15  1  0.333339  0.666661  0.675173  1
  B  B16  1  0.333339  0.666661  0.824827  1
  B  B17  1  0.666661  0.333339  0.175173  1
  Rh  Rh18  1  0.166442  0.333015  0.750000  1
  Rh  Rh19  1  0.166470  0.833530  0.750000  1
  Rh  Rh20  1  0.666985  0.833558  0.750000  1
  Rh  Rh21  1  0.833558  0.666985  0.250000  1
  Rh  Rh22  1  0.833530  0.166470  0.250000  1
  Rh  Rh23  1  0.333015  0.166442  0.250000  1
  Rh  Rh24  1  0.167570  0.335183  0.607166  1
  Rh  Rh25  1  0.167549  0.832451  0.607182  1
  Rh  Rh26  1  0.664817  0.832430  0.607166  1
  Rh  Rh27  1  0.832430  0.664817  0.392834  1
  Rh  Rh28  1  0.832451  0.167549  0.392818  1
  Rh  Rh29  1  0.335183  0.167570  0.392834  1
  Rh  Rh30  1  0.832430  0.664817  0.107166  1
  Rh  Rh31  1  0.832451  0.167549  0.107182  1
  Rh  Rh32  1  0.335183  0.167570  0.107166  1
  Rh  Rh33  1  0.167570  0.335183  0.892834  1
  Rh  Rh34  1  0.167549  0.832451  0.892818  1
  Rh  Rh35  1  0.664817  0.832430  0.892834  1
