# generated using pymatgen
data_HfMg(TaRe8)3
_symmetry_space_group_name_H-M   'P 1'
_cell_length_a   8.42586697
_cell_length_b   8.42592849
_cell_length_c   8.42581334
_cell_angle_alpha   109.51946843
_cell_angle_beta   109.51800933
_cell_angle_gamma   109.51941931
_symmetry_Int_Tables_number   1
_chemical_formula_structural   HfMg(TaRe8)3
_chemical_formula_sum   'Hf1 Mg1 Ta3 Re24'
_cell_volume   459.67641308
_cell_formula_units_Z   1
loop_
 _symmetry_equiv_pos_site_id
 _symmetry_equiv_pos_as_xyz
  1  'x, y, z'
loop_
 _atom_site_type_symbol
 _atom_site_label
 _atom_site_symmetry_multiplicity
 _atom_site_fract_x
 _atom_site_fract_y
 _atom_site_fract_z
 _atom_site_occupancy
  Hf  Hf0  1  0.366287  0.366288  0.366285  1
  Mg  Mg1  1  0.999211  0.999217  0.999216  1
  Ta  Ta2  1  0.634754  0.000287  0.000288  1
  Ta  Ta3  1  0.000281  0.634746  0.000278  1
  Ta  Ta4  1  0.000285  0.000289  0.634747  1
  Re  Re5  1  0.398885  0.681394  0.000679  1
  Re  Re6  1  0.717305  0.319523  0.319519  1
  Re  Re7  1  0.398891  0.000679  0.681399  1
  Re  Re8  1  0.681396  0.398888  0.000686  1
  Re  Re9  1  0.000676  0.398888  0.681395  1
  Re  Re10  1  0.319526  0.717301  0.319522  1
  Re  Re11  1  0.319538  0.319527  0.717315  1
  Re  Re12  1  0.000675  0.681391  0.398882  1
  Re  Re13  1  0.681391  0.000675  0.398888  1
  Re  Re14  1  0.604720  0.604721  0.280641  1
  Re  Re15  1  0.280637  0.604721  0.604712  1
  Re  Re16  1  0.604718  0.280636  0.604723  1
  Re  Re17  1  0.375047  0.192729  0.998698  1
  Re  Re18  1  0.180143  0.805384  0.805383  1
  Re  Re19  1  0.375042  0.998700  0.192728  1
  Re  Re20  1  0.192727  0.375044  0.998695  1
  Re  Re21  1  0.998698  0.375047  0.192727  1
  Re  Re22  1  0.805382  0.180144  0.805388  1
  Re  Re23  1  0.805376  0.805380  0.180134  1
  Re  Re24  1  0.998704  0.192734  0.375048  1
  Re  Re25  1  0.192725  0.998697  0.375053  1
  Re  Re26  1  0.624546  0.624540  0.817881  1
  Re  Re27  1  0.817892  0.624547  0.624542  1
  Re  Re28  1  0.624543  0.817884  0.624551  1
