# generated using pymatgen
data_Dy7Sn23Ir5Os
_symmetry_space_group_name_H-M   'P 1'
_cell_length_a   9.87981807
_cell_length_b   9.87981764
_cell_length_c   10.11420984
_cell_angle_alpha   90.14526445
_cell_angle_beta   89.85473377
_cell_angle_gamma   120.01901182
_symmetry_Int_Tables_number   1
_chemical_formula_structural   Dy7Sn23Ir5Os
_chemical_formula_sum   'Dy7 Sn23 Ir5 Os1'
_cell_volume   854.82137746
_cell_formula_units_Z   1
loop_
 _symmetry_equiv_pos_site_id
 _symmetry_equiv_pos_as_xyz
  1  'x, y, z'
loop_
 _atom_site_type_symbol
 _atom_site_label
 _atom_site_symmetry_multiplicity
 _atom_site_fract_x
 _atom_site_fract_y
 _atom_site_fract_z
 _atom_site_occupancy
  Dy  Dy0  1  0.998136  0.001864  0.002486  1
  Dy  Dy1  1  0.481126  0.518874  0.306337  1
  Dy  Dy2  1  0.519099  0.480901  0.693701  1
  Dy  Dy3  1  0.481597  0.962483  0.306067  1
  Dy  Dy4  1  0.519667  0.039034  0.693668  1
  Dy  Dy5  1  0.037517  0.518403  0.306067  1
  Dy  Dy6  1  0.960966  0.480333  0.693668  1
  Sn  Sn7  1  0.352628  0.999925  0.999888  1
  Sn  Sn8  1  0.649368  0.001140  0.000399  1
  Sn  Sn9  1  0.998860  0.350632  0.000399  1
  Sn  Sn10  1  0.000075  0.647372  0.999888  1
  Sn  Sn11  1  0.647368  0.647280  0.999821  1
  Sn  Sn12  1  0.352720  0.352632  0.999821  1
  Sn  Sn13  1  0.333303  0.666697  0.826628  1
  Sn  Sn14  1  0.667727  0.332273  0.173876  1
  Sn  Sn15  1  0.000039  0.999961  0.501271  1
  Sn  Sn16  1  0.778160  0.221840  0.455953  1
  Sn  Sn17  1  0.222380  0.777620  0.543796  1
  Sn  Sn18  1  0.777563  0.555161  0.456304  1
  Sn  Sn19  1  0.222449  0.444662  0.543226  1
  Sn  Sn20  1  0.444839  0.222437  0.456304  1
  Sn  Sn21  1  0.555338  0.777551  0.543226  1
  Sn  Sn22  1  0.333309  0.666691  0.122001  1
  Sn  Sn23  1  0.666271  0.333729  0.877246  1
  Sn  Sn24  1  0.118485  0.881515  0.283966  1
  Sn  Sn25  1  0.881380  0.118620  0.715713  1
  Sn  Sn26  1  0.116779  0.235255  0.283308  1
  Sn  Sn27  1  0.882220  0.763791  0.715701  1
  Sn  Sn28  1  0.764745  0.883221  0.283308  1
  Sn  Sn29  1  0.236209  0.117780  0.715701  1
  Ir  Ir30  1  0.169021  0.830979  0.801601  1
  Ir  Ir31  1  0.830588  0.662805  0.198452  1
  Ir  Ir32  1  0.169172  0.337972  0.801542  1
  Ir  Ir33  1  0.337195  0.169412  0.198452  1
  Ir  Ir34  1  0.662028  0.830828  0.801542  1
  Os  Os35  1  0.831674  0.168326  0.198671  1
