# generated using pymatgen
data_Sb6RuAu
_symmetry_space_group_name_H-M   'P 1'
_cell_length_a   8.31768076
_cell_length_b   8.31768102
_cell_length_c   9.63471073
_cell_angle_alpha   54.24446365
_cell_angle_beta   54.24446225
_cell_angle_gamma   69.72530381
_symmetry_Int_Tables_number   1
_chemical_formula_structural   Sb6RuAu
_chemical_formula_sum   'Sb12 Ru2 Au2'
_cell_volume   438.96111851
_cell_formula_units_Z   2
loop_
 _symmetry_equiv_pos_site_id
 _symmetry_equiv_pos_as_xyz
  1  'x, y, z'
loop_
 _atom_site_type_symbol
 _atom_site_label
 _atom_site_symmetry_multiplicity
 _atom_site_fract_x
 _atom_site_fract_y
 _atom_site_fract_z
 _atom_site_occupancy
  Sb  Sb0  1  0.154975  0.154975  0.175785  1
  Sb  Sb1  1  0.845025  0.845025  0.824215  1
  Sb  Sb2  1  0.849863  0.849863  0.507696  1
  Sb  Sb3  1  0.150137  0.150137  0.492304  1
  Sb  Sb4  1  0.808660  0.501290  0.334272  1
  Sb  Sb5  1  0.191340  0.498710  0.665728  1
  Sb  Sb6  1  0.501290  0.808660  0.334272  1
  Sb  Sb7  1  0.498710  0.191340  0.665728  1
  Sb  Sb8  1  0.645138  0.332408  0.858969  1
  Sb  Sb9  1  0.354862  0.667592  0.141031  1
  Sb  Sb10  1  0.667592  0.354862  0.141031  1
  Sb  Sb11  1  0.332408  0.645138  0.858969  1
  Ru  Ru12  1  0.000000  0.500000  0.000000  1
  Ru  Ru13  1  0.500000  0.000000  0.000000  1
  Au  Au14  1  0.000000  0.500000  0.500000  1
  Au  Au15  1  0.500000  0.000000  0.500000  1
