# generated using pymatgen
data_Dy5Y2Lu9(In3Co)2
_symmetry_space_group_name_H-M   'P 1'
_cell_length_a   10.19502110
_cell_length_b   10.19213890
_cell_length_c   7.02560415
_cell_angle_alpha   90.00254548
_cell_angle_beta   90.00128862
_cell_angle_gamma   120.00853408
_symmetry_Int_Tables_number   1
_chemical_formula_structural   Dy5Y2Lu9(In3Co)2
_chemical_formula_sum   'Dy5 Y2 Lu9 In6 Co2'
_cell_volume   632.16495481
_cell_formula_units_Z   1
loop_
 _symmetry_equiv_pos_site_id
 _symmetry_equiv_pos_as_xyz
  1  'x, y, z'
loop_
 _atom_site_type_symbol
 _atom_site_label
 _atom_site_symmetry_multiplicity
 _atom_site_fract_x
 _atom_site_fract_y
 _atom_site_fract_z
 _atom_site_occupancy
  Dy  Dy0  1  0.465226  0.534785  0.483213  1
  Dy  Dy1  1  0.069568  0.534790  0.483198  1
  Dy  Dy2  1  0.465518  0.931047  0.482905  1
  Dy  Dy3  1  0.534806  0.464903  0.983070  1
  Dy  Dy4  1  0.930091  0.464896  0.983080  1
  Y  Y5  1  0.999967  0.999907  0.495155  1
  Y  Y6  1  0.999979  0.999969  0.994943  1
  Lu  Lu7  1  0.535504  0.071014  0.982150  1
  Lu  Lu8  1  0.819301  0.179373  0.276944  1
  Lu  Lu9  1  0.360068  0.179374  0.276906  1
  Lu  Lu10  1  0.820265  0.640533  0.277939  1
  Lu  Lu11  1  0.180754  0.820883  0.778650  1
  Lu  Lu12  1  0.640129  0.820892  0.778650  1
  Lu  Lu13  1  0.179656  0.359307  0.778011  1
  Lu  Lu14  1  0.333777  0.667547  0.088318  1
  Lu  Lu15  1  0.666253  0.332487  0.588767  1
  In  In16  1  0.163079  0.836805  0.232102  1
  In  In17  1  0.673717  0.836817  0.232174  1
  In  In18  1  0.163138  0.326274  0.232609  1
  In  In19  1  0.836080  0.162998  0.732762  1
  In  In20  1  0.326925  0.163018  0.732741  1
  In  In21  1  0.836933  0.673872  0.732076  1
  Co  Co22  1  0.333283  0.666557  0.709434  1
  Co  Co23  1  0.665984  0.331952  0.208755  1
