# generated using pymatgen
data_Tb16AgHg3Pt4
_symmetry_space_group_name_H-M   'P 1'
_cell_length_a   9.65897439
_cell_length_b   9.65897400
_cell_length_c   9.65897441
_cell_angle_alpha   60.23836200
_cell_angle_beta   60.23836280
_cell_angle_gamma   60.23837068
_symmetry_Int_Tables_number   1
_chemical_formula_structural   Tb16AgHg3Pt4
_chemical_formula_sum   'Tb16 Ag1 Hg3 Pt4'
_cell_volume   640.64176622
_cell_formula_units_Z   1
loop_
 _symmetry_equiv_pos_site_id
 _symmetry_equiv_pos_as_xyz
  1  'x, y, z'
loop_
 _atom_site_type_symbol
 _atom_site_label
 _atom_site_symmetry_multiplicity
 _atom_site_fract_x
 _atom_site_fract_y
 _atom_site_fract_z
 _atom_site_occupancy
  Tb  Tb0  1  0.352132  0.352132  0.352132  1
  Tb  Tb1  1  0.354863  0.354863  0.936593  1
  Tb  Tb2  1  0.354863  0.936593  0.354863  1
  Tb  Tb3  1  0.936593  0.354863  0.354863  1
  Tb  Tb4  1  0.810026  0.191536  0.191536  1
  Tb  Tb5  1  0.189978  0.810158  0.810158  1
  Tb  Tb6  1  0.191536  0.810026  0.191536  1
  Tb  Tb7  1  0.810158  0.189978  0.810158  1
  Tb  Tb8  1  0.191536  0.191536  0.810026  1
  Tb  Tb9  1  0.810158  0.810158  0.189978  1
  Tb  Tb10  1  0.935274  0.564010  0.564010  1
  Tb  Tb11  1  0.562559  0.936136  0.936136  1
  Tb  Tb12  1  0.564010  0.935274  0.564010  1
  Tb  Tb13  1  0.936136  0.562559  0.936136  1
  Tb  Tb14  1  0.564010  0.564010  0.935274  1
  Tb  Tb15  1  0.936136  0.936136  0.562559  1
  Ag  Ag16  1  0.584330  0.584330  0.584330  1
  Hg  Hg17  1  0.586645  0.586645  0.242463  1
  Hg  Hg18  1  0.586645  0.242463  0.586645  1
  Hg  Hg19  1  0.242463  0.586645  0.586645  1
  Pt  Pt20  1  0.144773  0.144773  0.144773  1
  Pt  Pt21  1  0.142908  0.142908  0.569361  1
  Pt  Pt22  1  0.142908  0.569361  0.142908  1
  Pt  Pt23  1  0.569361  0.142908  0.142908  1
