# generated using pymatgen
data_Nd4Y2Al24Os7Au
_symmetry_space_group_name_H-M   'P 1'
_cell_length_a   8.94678585
_cell_length_b   8.94678758
_cell_length_c   9.63116494
_cell_angle_alpha   89.90495567
_cell_angle_beta   90.09504251
_cell_angle_gamma   120.29209049
_symmetry_Int_Tables_number   1
_chemical_formula_structural   Nd4Y2Al24Os7Au
_chemical_formula_sum   'Nd4 Y2 Al24 Os7 Au1'
_cell_volume   665.66700162
_cell_formula_units_Z   1
loop_
 _symmetry_equiv_pos_site_id
 _symmetry_equiv_pos_as_xyz
  1  'x, y, z'
loop_
 _atom_site_type_symbol
 _atom_site_label
 _atom_site_symmetry_multiplicity
 _atom_site_fract_x
 _atom_site_fract_y
 _atom_site_fract_z
 _atom_site_occupancy
  Nd  Nd0  1  0.190239  0.382035  0.250008  1
  Nd  Nd1  1  0.809761  0.617965  0.749992  1
  Nd  Nd2  1  0.617965  0.809761  0.250008  1
  Nd  Nd3  1  0.382035  0.190239  0.749992  1
  Y  Y4  1  0.194680  0.805320  0.253958  1
  Y  Y5  1  0.805320  0.194680  0.746042  1
  Al  Al6  1  0.328211  0.671789  0.016665  1
  Al  Al7  1  0.671789  0.328211  0.983335  1
  Al  Al8  1  0.666389  0.333611  0.513899  1
  Al  Al9  1  0.333611  0.666389  0.486101  1
  Al  Al10  1  0.161106  0.326177  0.574912  1
  Al  Al11  1  0.838894  0.673823  0.425088  1
  Al  Al12  1  0.673823  0.838894  0.574912  1
  Al  Al13  1  0.850506  0.677491  0.079358  1
  Al  Al14  1  0.326177  0.161106  0.425088  1
  Al  Al15  1  0.149494  0.322509  0.920642  1
  Al  Al16  1  0.163178  0.836822  0.573347  1
  Al  Al17  1  0.322509  0.149494  0.079358  1
  Al  Al18  1  0.836822  0.163178  0.426653  1
  Al  Al19  1  0.677491  0.850506  0.920642  1
  Al  Al20  1  0.836693  0.163307  0.072837  1
  Al  Al21  1  0.163307  0.836693  0.927163  1
  Al  Al22  1  0.560432  0.120973  0.249172  1
  Al  Al23  1  0.439568  0.879027  0.750828  1
  Al  Al24  1  0.879027  0.439568  0.249172  1
  Al  Al25  1  0.120973  0.560432  0.750828  1
  Al  Al26  1  0.565241  0.434759  0.256201  1
  Al  Al27  1  0.434759  0.565241  0.743799  1
  Al  Al28  1  0.001983  0.998017  0.250448  1
  Al  Al29  1  0.998017  0.001983  0.749552  1
  Os  Os30  1  0.500000  0.000000  0.000000  1
  Os  Os31  1  0.000000  0.500000  0.000000  1
  Os  Os32  1  0.500000  0.000000  0.500000  1
  Os  Os33  1  0.000000  0.500000  0.500000  1
  Os  Os34  1  0.500000  0.500000  0.500000  1
  Os  Os35  1  0.000000  0.000000  0.000000  1
  Os  Os36  1  0.000000  0.000000  0.500000  1
  Au  Au37  1  0.500000  0.500000  0.000000  1
