# generated using pymatgen
data_Tb3Ho4Lu3(In2Pt)4
_symmetry_space_group_name_H-M   'P 1'
_cell_length_a   3.61811700
_cell_length_b   8.13441028
_cell_length_c   18.13592295
_cell_angle_alpha   89.87187080
_cell_angle_beta   90.00000000
_cell_angle_gamma   90.00000000
_symmetry_Int_Tables_number   1
_chemical_formula_structural   Tb3Ho4Lu3(In2Pt)4
_chemical_formula_sum   'Tb3 Ho4 Lu3 In8 Pt4'
_cell_volume   533.76151389
_cell_formula_units_Z   1
loop_
 _symmetry_equiv_pos_site_id
 _symmetry_equiv_pos_as_xyz
  1  'x, y, z'
loop_
 _atom_site_type_symbol
 _atom_site_label
 _atom_site_symmetry_multiplicity
 _atom_site_fract_x
 _atom_site_fract_y
 _atom_site_fract_z
 _atom_site_occupancy
  Tb  Tb0  1  0.000000  0.740856  0.282428  1
  Tb  Tb1  1  0.000000  0.999353  0.999249  1
  Tb  Tb2  1  0.000000  0.499816  0.500511  1
  Ho  Ho3  1  0.000000  0.617450  0.085067  1
  Ho  Ho4  1  0.000000  0.242635  0.219623  1
  Ho  Ho5  1  0.000000  0.759066  0.780897  1
  Ho  Ho6  1  0.000000  0.258743  0.717869  1
  Lu  Lu7  1  0.000000  0.116230  0.414131  1
  Lu  Lu8  1  0.000000  0.883281  0.586204  1
  Lu  Lu9  1  0.000000  0.383036  0.913040  1
  In  In10  1  0.500000  0.417765  0.351449  1
  In  In11  1  0.500000  0.581747  0.649819  1
  In  In12  1  0.500000  0.081088  0.849468  1
  In  In13  1  0.500000  0.922699  0.150357  1
  In  In14  1  0.500000  0.294937  0.064639  1
  In  In15  1  0.500000  0.702830  0.933664  1
  In  In16  1  0.500000  0.201502  0.563928  1
  In  In17  1  0.500000  0.797762  0.436737  1
  Pt  Pt18  1  0.500000  0.027130  0.305660  1
  Pt  Pt19  1  0.500000  0.974524  0.694678  1
  Pt  Pt20  1  0.500000  0.473496  0.804195  1
  Pt  Pt21  1  0.500000  0.524055  0.196388  1
