# generated using pymatgen
data_Ta2Be2PRu5
_symmetry_space_group_name_H-M   'P 1'
_cell_length_a   9.31458100
_cell_length_b   9.31458100
_cell_length_c   3.00881000
_cell_angle_alpha   90.00000000
_cell_angle_beta   90.00000000
_cell_angle_gamma   90.00000000
_symmetry_Int_Tables_number   1
_chemical_formula_structural   Ta2Be2PRu5
_chemical_formula_sum   'Ta4 Be4 P2 Ru10'
_cell_volume   261.04862572
_cell_formula_units_Z   2
loop_
 _symmetry_equiv_pos_site_id
 _symmetry_equiv_pos_as_xyz
  1  'x, y, z'
loop_
 _atom_site_type_symbol
 _atom_site_label
 _atom_site_symmetry_multiplicity
 _atom_site_fract_x
 _atom_site_fract_y
 _atom_site_fract_z
 _atom_site_occupancy
  Ta  Ta0  1  0.828053  0.671947  0.000000  1
  Ta  Ta1  1  0.171947  0.328053  0.000000  1
  Ta  Ta2  1  0.328053  0.828053  0.000000  1
  Ta  Ta3  1  0.671947  0.171947  0.000000  1
  Be  Be4  1  0.625796  0.874204  0.000000  1
  Be  Be5  1  0.374204  0.125796  0.000000  1
  Be  Be6  1  0.125796  0.625796  0.000000  1
  Be  Be7  1  0.874204  0.374204  0.000000  1
  P  P8  1  0.500000  0.500000  0.000000  1
  P  P9  1  0.000000  0.000000  0.000000  1
  Ru  Ru10  1  0.566018  0.700812  0.500000  1
  Ru  Ru11  1  0.433982  0.299188  0.500000  1
  Ru  Ru12  1  0.066018  0.799188  0.500000  1
  Ru  Ru13  1  0.933982  0.200812  0.500000  1
  Ru  Ru14  1  0.299188  0.566018  0.500000  1
  Ru  Ru15  1  0.700812  0.433982  0.500000  1
  Ru  Ru16  1  0.200812  0.066018  0.500000  1
  Ru  Ru17  1  0.799188  0.933982  0.500000  1
  Ru  Ru18  1  0.500000  0.000000  0.500000  1
  Ru  Ru19  1  0.000000  0.500000  0.500000  1
