# generated using pymatgen
data_Dy2Tm4TcIr
_symmetry_space_group_name_H-M   'P 1'
_cell_length_a   6.27896400
_cell_length_b   7.33311200
_cell_length_c   9.02880200
_cell_angle_alpha   90.00000000
_cell_angle_beta   90.00000000
_cell_angle_gamma   90.00000000
_symmetry_Int_Tables_number   1
_chemical_formula_structural   Dy2Tm4TcIr
_chemical_formula_sum   'Dy4 Tm8 Tc2 Ir2'
_cell_volume   415.72528556
_cell_formula_units_Z   2
loop_
 _symmetry_equiv_pos_site_id
 _symmetry_equiv_pos_as_xyz
  1  'x, y, z'
loop_
 _atom_site_type_symbol
 _atom_site_label
 _atom_site_symmetry_multiplicity
 _atom_site_fract_x
 _atom_site_fract_y
 _atom_site_fract_z
 _atom_site_occupancy
  Dy  Dy0  1  0.874866  0.538533  0.250000  1
  Dy  Dy1  1  0.625134  0.038533  0.250000  1
  Dy  Dy2  1  0.133002  0.460321  0.750000  1
  Dy  Dy3  1  0.366998  0.960321  0.750000  1
  Tm  Tm4  1  0.331998  0.676359  0.065526  1
  Tm  Tm5  1  0.168002  0.176359  0.434474  1
  Tm  Tm6  1  0.665857  0.323866  0.560799  1
  Tm  Tm7  1  0.834143  0.823866  0.939201  1
  Tm  Tm8  1  0.665857  0.323866  0.939201  1
  Tm  Tm9  1  0.834143  0.823866  0.560799  1
  Tm  Tm10  1  0.331998  0.676359  0.434474  1
  Tm  Tm11  1  0.168002  0.176359  0.065526  1
  Tc  Tc12  1  0.037046  0.885146  0.250000  1
  Tc  Tc13  1  0.462954  0.385146  0.250000  1
  Ir  Ir14  1  0.953544  0.115548  0.750000  1
  Ir  Ir15  1  0.546456  0.615548  0.750000  1
