# generated using pymatgen
data_Tm2Si5RuPt2
_symmetry_space_group_name_H-M   'P 1'
_cell_length_a   8.11653117
_cell_length_b   8.11653098
_cell_length_c   8.11653015
_cell_angle_alpha   137.61521181
_cell_angle_beta   104.00114269
_cell_angle_gamma   91.11300502
_symmetry_Int_Tables_number   1
_chemical_formula_structural   Tm2Si5RuPt2
_chemical_formula_sum   'Tm4 Si10 Ru2 Pt4'
_cell_volume   333.30556004
_cell_formula_units_Z   2
loop_
 _symmetry_equiv_pos_site_id
 _symmetry_equiv_pos_as_xyz
  1  'x, y, z'
loop_
 _atom_site_type_symbol
 _atom_site_label
 _atom_site_symmetry_multiplicity
 _atom_site_fract_x
 _atom_site_fract_y
 _atom_site_fract_z
 _atom_site_occupancy
  Tm  Tm0  1  0.862200  0.629519  0.232681  1
  Tm  Tm1  1  0.137800  0.370481  0.767319  1
  Tm  Tm2  1  0.396839  0.129519  0.267319  1
  Tm  Tm3  1  0.603161  0.870481  0.732681  1
  Si  Si4  1  0.500000  0.750000  0.250000  1
  Si  Si5  1  0.500000  0.250000  0.750000  1
  Si  Si6  1  0.222378  0.972378  0.750000  1
  Si  Si7  1  0.777622  0.527622  0.750000  1
  Si  Si8  1  0.777622  0.027622  0.250000  1
  Si  Si9  1  0.222378  0.472378  0.250000  1
  Si  Si10  1  0.048654  0.897027  0.151626  1
  Si  Si11  1  0.951346  0.102973  0.848374  1
  Si  Si12  1  0.745401  0.397027  0.348374  1
  Si  Si13  1  0.254599  0.602973  0.651626  1
  Ru  Ru14  1  0.000000  0.750000  0.750000  1
  Ru  Ru15  1  0.000000  0.250000  0.250000  1
  Pt  Pt16  1  0.245501  0.860220  0.385283  1
  Pt  Pt17  1  0.754499  0.139780  0.614717  1
  Pt  Pt18  1  0.474937  0.360220  0.114717  1
  Pt  Pt19  1  0.525063  0.639780  0.885283  1
