# generated using pymatgen
data_Gd2VWO7
_symmetry_space_group_name_H-M   'P 1'
_cell_length_a   7.36774423
_cell_length_b   7.30769063
_cell_length_c   7.35923935
_cell_angle_alpha   60.27719720
_cell_angle_beta   60.62726426
_cell_angle_gamma   60.21966951
_symmetry_Int_Tables_number   1
_chemical_formula_structural   Gd2VWO7
_chemical_formula_sum   'Gd4 V2 W2 O14'
_cell_volume   282.54337901
_cell_formula_units_Z   2
loop_
 _symmetry_equiv_pos_site_id
 _symmetry_equiv_pos_as_xyz
  1  'x, y, z'
loop_
 _atom_site_type_symbol
 _atom_site_label
 _atom_site_symmetry_multiplicity
 _atom_site_fract_x
 _atom_site_fract_y
 _atom_site_fract_z
 _atom_site_occupancy
  Gd  Gd0  1  0.000000  0.500000  0.500000  1
  Gd  Gd1  1  0.500000  0.000000  0.500000  1
  Gd  Gd2  1  0.500000  0.500000  0.500000  1
  Gd  Gd3  1  0.500000  0.500000  0.000000  1
  V  V4  1  0.000000  0.500000  0.000000  1
  V  V5  1  0.000000  0.000000  0.000000  1
  W  W6  1  0.500000  0.000000  0.000000  1
  W  W7  1  0.000000  0.000000  0.500000  1
  O  O8  1  0.375825  0.374073  0.375981  1
  O  O9  1  0.624175  0.625927  0.624019  1
  O  O10  1  0.086309  0.673469  0.657602  1
  O  O11  1  0.342404  0.917350  0.913698  1
  O  O12  1  0.669769  0.080144  0.669601  1
  O  O13  1  0.092047  0.074500  0.663786  1
  O  O14  1  0.663542  0.669648  0.092284  1
  O  O15  1  0.087063  0.662996  0.086867  1
  O  O16  1  0.657596  0.082650  0.086302  1
  O  O17  1  0.336458  0.330352  0.907716  1
  O  O18  1  0.907953  0.925500  0.336214  1
  O  O19  1  0.913691  0.326531  0.342398  1
  O  O20  1  0.912937  0.337004  0.913133  1
  O  O21  1  0.330231  0.919856  0.330399  1
