# generated using pymatgen
data_NdYMnIr3
_symmetry_space_group_name_H-M   'P 1'
_cell_length_a   5.24542483
_cell_length_b   5.24542509
_cell_length_c   5.24542467
_cell_angle_alpha   63.69046515
_cell_angle_beta   63.69046972
_cell_angle_gamma   63.69046748
_symmetry_Int_Tables_number   1
_chemical_formula_structural   NdYMnIr3
_chemical_formula_sum   'Nd1 Y1 Mn1 Ir3'
_cell_volume   110.36896027
_cell_formula_units_Z   1
loop_
 _symmetry_equiv_pos_site_id
 _symmetry_equiv_pos_as_xyz
  1  'x, y, z'
loop_
 _atom_site_type_symbol
 _atom_site_label
 _atom_site_symmetry_multiplicity
 _atom_site_fract_x
 _atom_site_fract_y
 _atom_site_fract_z
 _atom_site_occupancy
  Nd  Nd0  1  0.999646  0.999646  0.999646  1
  Y  Y1  1  0.251328  0.251328  0.251328  1
  Mn  Mn2  1  0.624820  0.624820  0.624820  1
  Ir  Ir3  1  0.624352  0.624352  0.125500  1
  Ir  Ir4  1  0.624352  0.125500  0.624352  1
  Ir  Ir5  1  0.125500  0.624352  0.624352  1
