# generated using pymatgen
data_Ta12Al7ZnN4
_symmetry_space_group_name_H-M   'P 1'
_cell_length_a   7.03804288
_cell_length_b   7.03804279
_cell_length_c   7.03804297
_cell_angle_alpha   89.99579001
_cell_angle_beta   90.00420789
_cell_angle_gamma   90.00420783
_symmetry_Int_Tables_number   1
_chemical_formula_structural   Ta12Al7ZnN4
_chemical_formula_sum   'Ta12 Al7 Zn1 N4'
_cell_volume   348.62274784
_cell_formula_units_Z   1
loop_
 _symmetry_equiv_pos_site_id
 _symmetry_equiv_pos_as_xyz
  1  'x, y, z'
loop_
 _atom_site_type_symbol
 _atom_site_label
 _atom_site_symmetry_multiplicity
 _atom_site_fract_x
 _atom_site_fract_y
 _atom_site_fract_z
 _atom_site_occupancy
  Ta  Ta0  1  0.793046  0.955902  0.374269  1
  Ta  Ta1  1  0.706390  0.045025  0.876394  1
  Ta  Ta2  1  0.204712  0.453361  0.122125  1
  Ta  Ta3  1  0.296426  0.543381  0.629542  1
  Ta  Ta4  1  0.954975  0.376394  0.793610  1
  Ta  Ta5  1  0.044098  0.874269  0.706954  1
  Ta  Ta6  1  0.456619  0.129542  0.203574  1
  Ta  Ta7  1  0.546639  0.622125  0.295288  1
  Ta  Ta8  1  0.377875  0.795288  0.953361  1
  Ta  Ta9  1  0.870458  0.703574  0.043381  1
  Ta  Ta10  1  0.125731  0.206954  0.455902  1
  Ta  Ta11  1  0.623606  0.293610  0.545025  1
  Al  Al12  1  0.320600  0.176572  0.821218  1
  Al  Al13  1  0.823428  0.321218  0.179400  1
  Al  Al14  1  0.678782  0.679400  0.676572  1
  Al  Al15  1  0.571188  0.428812  0.928812  1
  Al  Al16  1  0.423863  0.926988  0.566486  1
  Al  Al17  1  0.933514  0.576137  0.426988  1
  Al  Al18  1  0.073012  0.066486  0.076137  1
  Zn  Zn19  1  0.181575  0.818425  0.318425  1
  N  N20  1  0.874834  0.125166  0.625166  1
  N  N21  1  0.621689  0.875596  0.127465  1
  N  N22  1  0.124404  0.627465  0.878311  1
  N  N23  1  0.372535  0.378311  0.375596  1
