# generated using pymatgen
data_YHo15In4Pd3Rh
_symmetry_space_group_name_H-M   'P 1'
_cell_length_a   9.68578513
_cell_length_b   9.68578460
_cell_length_c   9.68042589
_cell_angle_alpha   59.95316269
_cell_angle_beta   59.95316632
_cell_angle_gamma   59.97334233
_symmetry_Int_Tables_number   1
_chemical_formula_structural   YHo15In4Pd3Rh
_chemical_formula_sum   'Y1 Ho15 In4 Pd3 Rh1'
_cell_volume   641.58447746
_cell_formula_units_Z   1
loop_
 _symmetry_equiv_pos_site_id
 _symmetry_equiv_pos_as_xyz
  1  'x, y, z'
loop_
 _atom_site_type_symbol
 _atom_site_label
 _atom_site_symmetry_multiplicity
 _atom_site_fract_x
 _atom_site_fract_y
 _atom_site_fract_z
 _atom_site_occupancy
  Y  Y0  1  0.186738  0.186738  0.814752  1
  Ho  Ho1  1  0.603025  0.603025  0.190730  1
  Ho  Ho2  1  0.440218  0.060217  0.439402  1
  Ho  Ho3  1  0.439271  0.439271  0.056878  1
  Ho  Ho4  1  0.811453  0.186614  0.814801  1
  Ho  Ho5  1  0.186995  0.812496  0.187705  1
  Ho  Ho6  1  0.439604  0.064540  0.056763  1
  Ho  Ho7  1  0.186614  0.811453  0.814801  1
  Ho  Ho8  1  0.064540  0.439604  0.056763  1
  Ho  Ho9  1  0.813068  0.813068  0.187033  1
  Ho  Ho10  1  0.195748  0.599557  0.605299  1
  Ho  Ho11  1  0.060217  0.440218  0.439402  1
  Ho  Ho12  1  0.060095  0.060095  0.439779  1
  Ho  Ho13  1  0.812496  0.186995  0.187705  1
  Ho  Ho14  1  0.599557  0.195748  0.605299  1
  Ho  Ho15  1  0.599279  0.599279  0.605232  1
  In  In16  1  0.833493  0.833493  0.833359  1
  In  In17  1  0.833040  0.833040  0.500918  1
  In  In18  1  0.500202  0.833278  0.833231  1
  In  In19  1  0.833278  0.500202  0.833231  1
  Pd  Pd20  1  0.394402  0.818628  0.392386  1
  Pd  Pd21  1  0.394557  0.394557  0.392433  1
  Pd  Pd22  1  0.818628  0.394402  0.392386  1
  Rh  Rh23  1  0.393486  0.393486  0.819715  1
