# generated using pymatgen
data_CeDyCCl
_symmetry_space_group_name_H-M   'P 1'
_cell_length_a   7.24440642
_cell_length_b   7.24440604
_cell_length_c   7.24440600
_cell_angle_alpha   29.12548547
_cell_angle_beta   29.12549087
_cell_angle_gamma   29.12548264
_symmetry_Int_Tables_number   1
_chemical_formula_structural   CeDyCCl
_chemical_formula_sum   'Ce1 Dy1 C1 Cl1'
_cell_volume   79.67928368
_cell_formula_units_Z   1
loop_
 _symmetry_equiv_pos_site_id
 _symmetry_equiv_pos_as_xyz
  1  'x, y, z'
loop_
 _atom_site_type_symbol
 _atom_site_label
 _atom_site_symmetry_multiplicity
 _atom_site_fract_x
 _atom_site_fract_y
 _atom_site_fract_z
 _atom_site_occupancy
  Ce  Ce0  1  0.770489  0.770489  0.770489  1
  Dy  Dy1  1  0.231187  0.231187  0.231187  1
  C  C2  1  0.503549  0.503549  0.503549  1
  Cl  Cl3  1  0.994775  0.994775  0.994775  1
