# generated using pymatgen
data_Lu4Ga4As2Ir7
_symmetry_space_group_name_H-M   'P 1'
_cell_length_a   7.17621686
_cell_length_b   7.17621690
_cell_length_c   7.19822800
_cell_angle_alpha   109.60730390
_cell_angle_beta   109.60729553
_cell_angle_gamma   109.07455637
_symmetry_Int_Tables_number   1
_chemical_formula_structural   Lu4Ga4As2Ir7
_chemical_formula_sum   'Lu4 Ga4 As2 Ir7'
_cell_volume   285.79259741
_cell_formula_units_Z   1
loop_
 _symmetry_equiv_pos_site_id
 _symmetry_equiv_pos_as_xyz
  1  'x, y, z'
loop_
 _atom_site_type_symbol
 _atom_site_label
 _atom_site_symmetry_multiplicity
 _atom_site_fract_x
 _atom_site_fract_y
 _atom_site_fract_z
 _atom_site_occupancy
  Lu  Lu0  1  0.002556  0.002556  0.524787  1
  Lu  Lu1  1  0.001848  0.501848  0.003695  1
  Lu  Lu2  1  0.501848  0.001848  0.003695  1
  Lu  Lu3  1  0.522231  0.522231  0.524787  1
  Ga  Ga4  1  0.694421  0.694421  0.014367  1
  Ga  Ga5  1  0.295707  0.008067  0.303774  1
  Ga  Ga6  1  0.008067  0.295707  0.303774  1
  Ga  Ga7  1  0.319946  0.319946  0.014367  1
  As  As8  1  0.673635  0.005186  0.678823  1
  As  As9  1  0.005186  0.673635  0.678823  1
  Ir  Ir10  1  0.746106  0.246106  0.492214  1
  Ir  Ir11  1  0.754708  0.496121  0.250831  1
  Ir  Ir12  1  0.496696  0.252331  0.749026  1
  Ir  Ir13  1  0.252331  0.496696  0.749026  1
  Ir  Ir14  1  0.246106  0.746106  0.492214  1
  Ir  Ir15  1  0.496121  0.754708  0.250831  1
  Ir  Ir16  1  0.982483  0.982483  0.964964  1
