# generated using pymatgen
data_TaNb4(CuSi)4
_symmetry_space_group_name_H-M   'P 1'
_cell_length_a   7.45933940
_cell_length_b   7.45933972
_cell_length_c   7.45933915
_cell_angle_alpha   93.37611540
_cell_angle_beta   93.37611059
_cell_angle_gamma   151.91128449
_symmetry_Int_Tables_number   1
_chemical_formula_structural   TaNb4(CuSi)4
_chemical_formula_sum   'Ta1 Nb4 Cu4 Si4'
_cell_volume   189.58016114
_cell_formula_units_Z   1
loop_
 _symmetry_equiv_pos_site_id
 _symmetry_equiv_pos_as_xyz
  1  'x, y, z'
loop_
 _atom_site_type_symbol
 _atom_site_label
 _atom_site_symmetry_multiplicity
 _atom_site_fract_x
 _atom_site_fract_y
 _atom_site_fract_z
 _atom_site_occupancy
  Ta  Ta0  1  0.500000  0.500000  0.000000  1
  Nb  Nb1  1  0.128910  0.804803  0.933713  1
  Nb  Nb2  1  0.195197  0.128910  0.324108  1
  Nb  Nb3  1  0.804803  0.871090  0.675892  1
  Nb  Nb4  1  0.871090  0.195197  0.066287  1
  Cu  Cu5  1  0.396328  0.918100  0.314428  1
  Cu  Cu6  1  0.603672  0.081900  0.685572  1
  Cu  Cu7  1  0.918100  0.603672  0.521773  1
  Cu  Cu8  1  0.081900  0.396328  0.478227  1
  Si  Si9  1  0.247636  0.559155  0.806791  1
  Si  Si10  1  0.440845  0.247636  0.688481  1
  Si  Si11  1  0.559155  0.752364  0.311519  1
  Si  Si12  1  0.752364  0.440845  0.193209  1
