# generated using pymatgen
data_Sm3SnBi2Rh3
_symmetry_space_group_name_H-M   'P 1'
_cell_length_a   7.69041871
_cell_length_b   7.61504972
_cell_length_c   4.05839600
_cell_angle_alpha   90.00000000
_cell_angle_beta   90.00000000
_cell_angle_gamma   119.67632827
_symmetry_Int_Tables_number   1
_chemical_formula_structural   Sm3SnBi2Rh3
_chemical_formula_sum   'Sm3 Sn1 Bi2 Rh3'
_cell_volume   206.49760872
_cell_formula_units_Z   1
loop_
 _symmetry_equiv_pos_site_id
 _symmetry_equiv_pos_as_xyz
  1  'x, y, z'
loop_
 _atom_site_type_symbol
 _atom_site_label
 _atom_site_symmetry_multiplicity
 _atom_site_fract_x
 _atom_site_fract_y
 _atom_site_fract_z
 _atom_site_occupancy
  Sm  Sm0  1  0.397744  0.406340  0.500000  1
  Sm  Sm1  1  0.602256  0.008595  0.500000  1
  Sm  Sm2  1  0.000000  0.587681  0.500000  1
  Sn  Sn3  1  0.000000  0.260637  0.000000  1
  Bi  Bi4  1  0.737727  0.740266  0.000000  1
  Bi  Bi5  1  0.262273  0.002539  0.000000  1
  Rh  Rh6  1  0.673750  0.329956  0.000000  1
  Rh  Rh7  1  0.326250  0.656207  0.000000  1
  Rh  Rh8  1  0.000000  0.007779  0.500000  1
