# generated using pymatgen
data_CsYbZrF7
_symmetry_space_group_name_H-M   'P 1'
_cell_length_a   6.68594133
_cell_length_b   6.68594127
_cell_length_c   8.65953900
_cell_angle_alpha   90.00000000
_cell_angle_beta   90.00000000
_cell_angle_gamma   117.69493440
_symmetry_Int_Tables_number   1
_chemical_formula_structural   CsYbZrF7
_chemical_formula_sum   'Cs2 Yb2 Zr2 F14'
_cell_volume   342.74919140
_cell_formula_units_Z   2
loop_
 _symmetry_equiv_pos_site_id
 _symmetry_equiv_pos_as_xyz
  1  'x, y, z'
loop_
 _atom_site_type_symbol
 _atom_site_label
 _atom_site_symmetry_multiplicity
 _atom_site_fract_x
 _atom_site_fract_y
 _atom_site_fract_z
 _atom_site_occupancy
  Cs  Cs0  1  0.000000  0.000000  0.000000  1
  Cs  Cs1  1  0.000000  0.000000  0.500000  1
  Yb  Yb2  1  0.308865  0.691135  0.750000  1
  Yb  Yb3  1  0.691135  0.308865  0.250000  1
  Zr  Zr4  1  0.692136  0.307864  0.750000  1
  Zr  Zr5  1  0.307864  0.692136  0.250000  1
  F  F6  1  0.509138  0.490862  0.750000  1
  F  F7  1  0.490862  0.509138  0.250000  1
  F  F8  1  0.699355  0.300645  0.988543  1
  F  F9  1  0.300645  0.699355  0.011457  1
  F  F10  1  0.300645  0.699355  0.488543  1
  F  F11  1  0.699355  0.300645  0.511457  1
  F  F12  1  0.665680  0.976433  0.750000  1
  F  F13  1  0.334320  0.023567  0.250000  1
  F  F14  1  0.023567  0.334320  0.750000  1
  F  F15  1  0.976433  0.665680  0.250000  1
  F  F16  1  0.348960  0.058212  0.750000  1
  F  F17  1  0.651040  0.941788  0.250000  1
  F  F18  1  0.941788  0.651040  0.750000  1
  F  F19  1  0.058212  0.348960  0.250000  1
