# generated using pymatgen
data_Tm2LuCdSn3Ir2
_symmetry_space_group_name_H-M   'P 1'
_cell_length_a   7.66377301
_cell_length_b   7.67584625
_cell_length_c   3.88081500
_cell_angle_alpha   90.00000000
_cell_angle_beta   90.00000000
_cell_angle_gamma   119.94224770
_symmetry_Int_Tables_number   1
_chemical_formula_structural   Tm2LuCdSn3Ir2
_chemical_formula_sum   'Tm2 Lu1 Cd1 Sn3 Ir2'
_cell_volume   197.82214927
_cell_formula_units_Z   1
loop_
 _symmetry_equiv_pos_site_id
 _symmetry_equiv_pos_as_xyz
  1  'x, y, z'
loop_
 _atom_site_type_symbol
 _atom_site_label
 _atom_site_symmetry_multiplicity
 _atom_site_fract_x
 _atom_site_fract_y
 _atom_site_fract_z
 _atom_site_occupancy
  Tm  Tm0  1  0.619167  0.590551  0.500000  1
  Tm  Tm1  1  0.409627  0.028389  0.500000  1
  Lu  Lu2  1  0.970197  0.379925  0.500000  1
  Cd  Cd3  1  0.332731  0.666171  0.000000  1
  Sn  Sn4  1  0.000596  0.743338  0.000000  1
  Sn  Sn5  1  0.256310  0.257192  0.000000  1
  Sn  Sn6  1  0.743071  0.999820  0.000000  1
  Ir  Ir7  1  0.668212  0.333872  0.000000  1
  Ir  Ir8  1  0.000088  0.000742  0.500000  1
