# generated using pymatgen
data_ErTh2In5
_symmetry_space_group_name_H-M   'P 1'
_cell_length_a   6.57800003
_cell_length_b   6.57799935
_cell_length_c   10.33458900
_cell_angle_alpha   90.00000000
_cell_angle_beta   90.00000000
_cell_angle_gamma   102.33863847
_symmetry_Int_Tables_number   1
_chemical_formula_structural   ErTh2In5
_chemical_formula_sum   'Er2 Th4 In10'
_cell_volume   436.84942487
_cell_formula_units_Z   2
loop_
 _symmetry_equiv_pos_site_id
 _symmetry_equiv_pos_as_xyz
  1  'x, y, z'
loop_
 _atom_site_type_symbol
 _atom_site_label
 _atom_site_symmetry_multiplicity
 _atom_site_fract_x
 _atom_site_fract_y
 _atom_site_fract_z
 _atom_site_occupancy
  Er  Er0  1  0.129055  0.129055  0.750000  1
  Er  Er1  1  0.870945  0.870945  0.250000  1
  Th  Th2  1  0.705688  0.294312  0.000000  1
  Th  Th3  1  0.705688  0.294312  0.500000  1
  Th  Th4  1  0.294312  0.705688  0.000000  1
  Th  Th5  1  0.294312  0.705688  0.500000  1
  In  In6  1  0.508967  0.508967  0.750000  1
  In  In7  1  0.491033  0.491033  0.250000  1
  In  In8  1  0.811798  0.811798  0.545900  1
  In  In9  1  0.188202  0.188202  0.454100  1
  In  In10  1  0.811798  0.811798  0.954100  1
  In  In11  1  0.188202  0.188202  0.045900  1
  In  In12  1  0.990695  0.565153  0.750000  1
  In  In13  1  0.434847  0.009305  0.250000  1
  In  In14  1  0.009305  0.434847  0.250000  1
  In  In15  1  0.565153  0.990695  0.750000  1
