# generated using pymatgen
data_Si3Ni4GeRh4
_symmetry_space_group_name_H-M   'P 1'
_cell_length_a   3.76656300
_cell_length_b   5.56183114
_cell_length_c   7.08831900
_cell_angle_alpha   90.01290791
_cell_angle_beta   90.00000000
_cell_angle_gamma   90.00000000
_symmetry_Int_Tables_number   1
_chemical_formula_structural   Si3Ni4GeRh4
_chemical_formula_sum   'Si3 Ni4 Ge1 Rh4'
_cell_volume   148.49310157
_cell_formula_units_Z   1
loop_
 _symmetry_equiv_pos_site_id
 _symmetry_equiv_pos_as_xyz
  1  'x, y, z'
loop_
 _atom_site_type_symbol
 _atom_site_label
 _atom_site_symmetry_multiplicity
 _atom_site_fract_x
 _atom_site_fract_y
 _atom_site_fract_z
 _atom_site_occupancy
  Si  Si0  1  0.000000  0.246050  0.120865  1
  Si  Si1  1  0.000000  0.743113  0.378145  1
  Si  Si2  1  0.500000  0.754573  0.878401  1
  Ni  Ni3  1  0.000000  0.647763  0.061734  1
  Ni  Ni4  1  0.000000  0.143976  0.433734  1
  Ni  Ni5  1  0.500000  0.355782  0.944569  1
  Ni  Ni6  1  0.500000  0.844264  0.558400  1
  Ge  Ge7  1  0.500000  0.253558  0.622019  1
  Rh  Rh8  1  0.000000  0.543974  0.686962  1
  Rh  Rh9  1  0.000000  0.032733  0.822714  1
  Rh  Rh10  1  0.500000  0.467882  0.310650  1
  Rh  Rh11  1  0.500000  0.966329  0.181808  1
