# generated using pymatgen
data_EuMnGe2Ir
_symmetry_space_group_name_H-M   'P 1'
_cell_length_a   6.18741231
_cell_length_b   6.18741299
_cell_length_c   6.18741304
_cell_angle_alpha   141.46980563
_cell_angle_beta   141.46981662
_cell_angle_gamma   55.62825246
_symmetry_Int_Tables_number   1
_chemical_formula_structural   EuMnGe2Ir
_chemical_formula_sum   'Eu1 Mn1 Ge2 Ir1'
_cell_volume   91.22977831
_cell_formula_units_Z   1
loop_
 _symmetry_equiv_pos_site_id
 _symmetry_equiv_pos_as_xyz
  1  'x, y, z'
loop_
 _atom_site_type_symbol
 _atom_site_label
 _atom_site_symmetry_multiplicity
 _atom_site_fract_x
 _atom_site_fract_y
 _atom_site_fract_z
 _atom_site_occupancy
  Eu  Eu0  1  0.000000  0.000000  0.000000  1
  Mn  Mn1  1  0.250000  0.750000  0.500000  1
  Ge  Ge2  1  0.620738  0.620738  0.000000  1
  Ge  Ge3  1  0.379262  0.379262  0.000000  1
  Ir  Ir4  1  0.750000  0.250000  0.500000  1
