# generated using pymatgen
data_Er4Ga17SiIr6
_symmetry_space_group_name_H-M   'P 1'
_cell_length_a   7.59613669
_cell_length_b   7.59613603
_cell_length_c   9.39858400
_cell_angle_alpha   90.00000000
_cell_angle_beta   90.00000000
_cell_angle_gamma   120.03240351
_symmetry_Int_Tables_number   1
_chemical_formula_structural   Er4Ga17SiIr6
_chemical_formula_sum   'Er4 Ga17 Si1 Ir6'
_cell_volume   469.50115582
_cell_formula_units_Z   1
loop_
 _symmetry_equiv_pos_site_id
 _symmetry_equiv_pos_as_xyz
  1  'x, y, z'
loop_
 _atom_site_type_symbol
 _atom_site_label
 _atom_site_symmetry_multiplicity
 _atom_site_fract_x
 _atom_site_fract_y
 _atom_site_fract_z
 _atom_site_occupancy
  Er  Er0  1  0.995691  0.673100  0.250000  1
  Er  Er1  1  0.002594  0.331754  0.750000  1
  Er  Er2  1  0.673100  0.995691  0.250000  1
  Er  Er3  1  0.331754  0.002594  0.750000  1
  Ga  Ga4  1  0.876867  0.876867  0.750000  1
  Ga  Ga5  1  0.997964  0.336926  0.083706  1
  Ga  Ga6  1  0.001224  0.666663  0.918544  1
  Ga  Ga7  1  0.001224  0.666663  0.581456  1
  Ga  Ga8  1  0.336926  0.997964  0.416294  1
  Ga  Ga9  1  0.997964  0.336926  0.416294  1
  Ga  Ga10  1  0.666663  0.001224  0.581456  1
  Ga  Ga11  1  0.666663  0.001224  0.918544  1
  Ga  Ga12  1  0.336926  0.997964  0.083706  1
  Ga  Ga13  1  0.330454  0.330454  0.566026  1
  Ga  Ga14  1  0.664931  0.664931  0.434987  1
  Ga  Ga15  1  0.664931  0.664931  0.065013  1
  Ga  Ga16  1  0.330454  0.330454  0.933974  1
  Ga  Ga17  1  0.337441  0.548523  0.250000  1
  Ga  Ga18  1  0.660205  0.453366  0.750000  1
  Ga  Ga19  1  0.548523  0.337441  0.250000  1
  Ga  Ga20  1  0.453366  0.660205  0.750000  1
  Si  Si21  1  0.126906  0.126906  0.250000  1
  Ir  Ir22  1  0.670768  0.326934  0.999809  1
  Ir  Ir23  1  0.326934  0.670768  0.999809  1
  Ir  Ir24  1  0.326934  0.670768  0.500191  1
  Ir  Ir25  1  0.670768  0.326934  0.500191  1
  Ir  Ir26  1  0.000914  0.000914  0.011245  1
  Ir  Ir27  1  0.000914  0.000914  0.488755  1
