# generated using pymatgen
data_Cd2PdRu3(PbO7)2
_symmetry_space_group_name_H-M   'P 1'
_cell_length_a   7.32905072
_cell_length_b   7.27752240
_cell_length_c   7.36111300
_cell_angle_alpha   59.61930421
_cell_angle_beta   59.85517628
_cell_angle_gamma   59.38367512
_symmetry_Int_Tables_number   1
_chemical_formula_structural   Cd2PdRu3(PbO7)2
_chemical_formula_sum   'Cd2 Pd1 Ru3 Pb2 O14'
_cell_volume   275.21489874
_cell_formula_units_Z   1
loop_
 _symmetry_equiv_pos_site_id
 _symmetry_equiv_pos_as_xyz
  1  'x, y, z'
loop_
 _atom_site_type_symbol
 _atom_site_label
 _atom_site_symmetry_multiplicity
 _atom_site_fract_x
 _atom_site_fract_y
 _atom_site_fract_z
 _atom_site_occupancy
  Cd  Cd0  1  0.125000  0.625000  0.125000  1
  Cd  Cd1  1  0.625000  0.125000  0.125000  1
  Pd  Pd2  1  0.625000  0.125000  0.625000  1
  Ru  Ru3  1  0.625000  0.625000  0.125000  1
  Ru  Ru4  1  0.125000  0.625000  0.625000  1
  Ru  Ru5  1  0.625000  0.625000  0.625000  1
  Pb  Pb6  1  0.125000  0.125000  0.625000  1
  Pb  Pb7  1  0.125000  0.125000  0.125000  1
  O  O8  1  0.691762  0.664539  0.321849  1
  O  O9  1  0.948718  0.549469  0.556097  1
  O  O10  1  0.544277  0.953250  0.963020  1
  O  O11  1  0.959271  0.951687  0.544521  1
  O  O12  1  0.948718  0.549469  0.945717  1
  O  O13  1  0.544277  0.953250  0.539454  1
  O  O14  1  0.301282  0.700531  0.304283  1
  O  O15  1  0.301282  0.700531  0.693903  1
  O  O16  1  0.705723  0.296750  0.286980  1
  O  O17  1  0.705723  0.296750  0.710546  1
  O  O18  1  0.558238  0.585461  0.928151  1
  O  O19  1  0.290729  0.298313  0.705479  1
  O  O20  1  0.259090  0.264367  0.238271  1
  O  O21  1  0.990910  0.985633  0.011729  1
