# generated using pymatgen
data_CeErP7Ru12
_symmetry_space_group_name_H-M   'P 1'
_cell_length_a   9.44536300
_cell_length_b   9.44536249
_cell_length_c   3.94618500
_cell_angle_alpha   90.00000000
_cell_angle_beta   90.00000000
_cell_angle_gamma   119.99999830
_symmetry_Int_Tables_number   1
_chemical_formula_structural   CeErP7Ru12
_chemical_formula_sum   'Ce1 Er1 P7 Ru12'
_cell_volume   304.89153252
_cell_formula_units_Z   1
loop_
 _symmetry_equiv_pos_site_id
 _symmetry_equiv_pos_as_xyz
  1  'x, y, z'
loop_
 _atom_site_type_symbol
 _atom_site_label
 _atom_site_symmetry_multiplicity
 _atom_site_fract_x
 _atom_site_fract_y
 _atom_site_fract_z
 _atom_site_occupancy
  Ce  Ce0  1  0.333333  0.666667  0.000000  1
  Er  Er1  1  0.666667  0.333333  0.500000  1
  P  P2  1  0.604135  0.717262  0.500000  1
  P  P3  1  0.000000  0.000000  0.000000  1
  P  P4  1  0.282738  0.886873  0.500000  1
  P  P5  1  0.113127  0.395865  0.500000  1
  P  P6  1  0.886077  0.573322  0.000000  1
  P  P7  1  0.426678  0.312754  0.000000  1
  P  P8  1  0.687246  0.113923  0.000000  1
  Ru  Ru9  1  0.556037  0.948482  0.500000  1
  Ru  Ru10  1  0.392446  0.443963  0.500000  1
  Ru  Ru11  1  0.913239  0.120285  0.500000  1
  Ru  Ru12  1  0.207045  0.086761  0.500000  1
  Ru  Ru13  1  0.879715  0.792955  0.500000  1
  Ru  Ru14  1  0.727318  0.891322  0.000000  1
  Ru  Ru15  1  0.108678  0.835995  0.000000  1
  Ru  Ru16  1  0.164005  0.272682  0.000000  1
  Ru  Ru17  1  0.424544  0.069034  0.000000  1
  Ru  Ru18  1  0.930966  0.355510  0.000000  1
  Ru  Ru19  1  0.644490  0.575456  0.000000  1
  Ru  Ru20  1  0.051518  0.607554  0.500000  1
