# generated using pymatgen
data_HoEr2Sc7(Si5Ir2)4
_symmetry_space_group_name_H-M   'P 1'
_cell_length_a   12.45327405
_cell_length_b   12.45349782
_cell_length_c   4.13663500
_cell_angle_alpha   90.00000000
_cell_angle_beta   90.00000000
_cell_angle_gamma   89.93928343
_symmetry_Int_Tables_number   1
_chemical_formula_structural   HoEr2Sc7(Si5Ir2)4
_chemical_formula_sum   'Ho1 Er2 Sc7 Si20 Ir8'
_cell_volume   641.53721256
_cell_formula_units_Z   1
loop_
 _symmetry_equiv_pos_site_id
 _symmetry_equiv_pos_as_xyz
  1  'x, y, z'
loop_
 _atom_site_type_symbol
 _atom_site_label
 _atom_site_symmetry_multiplicity
 _atom_site_fract_x
 _atom_site_fract_y
 _atom_site_fract_z
 _atom_site_occupancy
  Ho  Ho0  1  0.384145  0.116049  0.500000  1
  Er  Er1  1  0.115961  0.615981  0.500000  1
  Er  Er2  1  0.616159  0.884096  0.500000  1
  Sc  Sc3  1  0.500425  0.499986  0.000000  1
  Sc  Sc4  1  0.999940  0.000433  0.000000  1
  Sc  Sc5  1  0.674290  0.174258  0.500000  1
  Sc  Sc6  1  0.326375  0.826331  0.500000  1
  Sc  Sc7  1  0.172753  0.326406  0.500000  1
  Sc  Sc8  1  0.826369  0.672785  0.500000  1
  Sc  Sc9  1  0.883524  0.383522  0.500000  1
  Si  Si10  1  0.567553  0.067472  0.000000  1
  Si  Si11  1  0.432869  0.932781  0.000000  1
  Si  Si12  1  0.065961  0.432569  0.000000  1
  Si  Si13  1  0.932567  0.565963  0.000000  1
  Si  Si14  1  0.666502  0.698695  0.000000  1
  Si  Si15  1  0.333686  0.300803  0.000000  1
  Si  Si16  1  0.165998  0.800726  0.000000  1
  Si  Si17  1  0.834348  0.200471  0.000000  1
  Si  Si18  1  0.300750  0.666012  0.000000  1
  Si  Si19  1  0.700491  0.334361  0.000000  1
  Si  Si20  1  0.198618  0.166504  0.000000  1
  Si  Si21  1  0.800721  0.833686  0.000000  1
  Si  Si22  1  0.652183  0.505663  0.500000  1
  Si  Si23  1  0.349134  0.492310  0.500000  1
  Si  Si24  1  0.150568  0.992887  0.500000  1
  Si  Si25  1  0.849362  0.007436  0.500000  1
  Si  Si26  1  0.492886  0.650609  0.500000  1
  Si  Si27  1  0.507433  0.349400  0.500000  1
  Si  Si28  1  0.005649  0.152186  0.500000  1
  Si  Si29  1  0.992299  0.849134  0.500000  1
  Ir  Ir30  1  0.746339  0.518590  0.000000  1
  Ir  Ir31  1  0.254367  0.480459  0.000000  1
  Ir  Ir32  1  0.244561  0.980574  0.000000  1
  Ir  Ir33  1  0.755469  0.019840  0.000000  1
  Ir  Ir34  1  0.480737  0.744696  0.000000  1
  Ir  Ir35  1  0.520004  0.255595  0.000000  1
  Ir  Ir36  1  0.018570  0.246349  0.000000  1
  Ir  Ir37  1  0.980431  0.754383  0.000000  1
