# generated using pymatgen
data_YEr3Ga20Pt11
_symmetry_space_group_name_H-M   'P 1'
_cell_length_a   4.19864263
_cell_length_b   10.88740593
_cell_length_c   13.80377700
_cell_angle_alpha   82.04797485
_cell_angle_beta   81.17400888
_cell_angle_gamma   78.75392929
_symmetry_Int_Tables_number   1
_chemical_formula_structural   YEr3Ga20Pt11
_chemical_formula_sum   'Y1 Er3 Ga20 Pt11'
_cell_volume   607.71965215
_cell_formula_units_Z   1
loop_
 _symmetry_equiv_pos_site_id
 _symmetry_equiv_pos_as_xyz
  1  'x, y, z'
loop_
 _atom_site_type_symbol
 _atom_site_label
 _atom_site_symmetry_multiplicity
 _atom_site_fract_x
 _atom_site_fract_y
 _atom_site_fract_z
 _atom_site_occupancy
  Y  Y0  1  0.225856  0.370742  0.177056  1
  Er  Er1  1  0.123662  0.087004  0.665472  1
  Er  Er2  1  0.876333  0.913019  0.334536  1
  Er  Er3  1  0.773831  0.629152  0.822941  1
  Ga  Ga4  1  0.010054  0.068801  0.910910  1
  Ga  Ga5  1  0.990061  0.930920  0.089102  1
  Ga  Ga6  1  0.064458  0.676694  0.194505  1
  Ga  Ga7  1  0.935482  0.323372  0.805625  1
  Ga  Ga8  1  0.102465  0.341667  0.454131  1
  Ga  Ga9  1  0.897504  0.658336  0.545982  1
  Ga  Ga10  1  0.200054  0.604997  0.992638  1
  Ga  Ga11  1  0.800086  0.395221  0.007091  1
  Ga  Ga12  1  0.258346  0.780668  0.700658  1
  Ga  Ga13  1  0.741832  0.218752  0.299566  1
  Ga  Ga14  1  0.303039  0.900297  0.494800  1
  Ga  Ga15  1  0.697009  0.099620  0.505276  1
  Ga  Ga16  1  0.385094  0.525762  0.700651  1
  Ga  Ga17  1  0.614357  0.474820  0.299686  1
  Ga  Ga18  1  0.397251  0.204324  0.000513  1
  Ga  Ga19  1  0.602840  0.795838  0.999178  1
  Ga  Ga20  1  0.544679  0.281731  0.629529  1
  Ga  Ga21  1  0.455226  0.718324  0.370556  1
  Ga  Ga22  1  0.639112  0.931806  0.792165  1
  Ga  Ga23  1  0.361089  0.067859  0.207920  1
  Pt  Pt24  1  0.499938  0.500028  0.500167  1
  Pt  Pt25  1  0.028979  0.576970  0.370173  1
  Pt  Pt26  1  0.970865  0.423110  0.630049  1
  Pt  Pt27  1  0.143004  0.830956  0.887120  1
  Pt  Pt28  1  0.858133  0.167515  0.112380  1
  Pt  Pt29  1  0.241708  0.126825  0.391558  1
  Pt  Pt30  1  0.758339  0.873140  0.608532  1
  Pt  Pt31  1  0.345374  0.420834  0.890241  1
  Pt  Pt32  1  0.654088  0.580800  0.109169  1
  Pt  Pt33  1  0.507224  0.167058  0.816857  1
  Pt  Pt34  1  0.492625  0.833038  0.183273  1
