# generated using pymatgen
data_Y2Lu3(Sc5Bi4)3
_symmetry_space_group_name_H-M   'P 1'
_cell_length_a   7.87600835
_cell_length_b   9.07813700
_cell_length_c   11.56928302
_cell_angle_alpha   90.00000000
_cell_angle_beta   90.02036388
_cell_angle_gamma   90.00000000
_symmetry_Int_Tables_number   1
_chemical_formula_structural   Y2Lu3(Sc5Bi4)3
_chemical_formula_sum   'Y2 Lu3 Sc15 Bi12'
_cell_volume   827.19770025
_cell_formula_units_Z   1
loop_
 _symmetry_equiv_pos_site_id
 _symmetry_equiv_pos_as_xyz
  1  'x, y, z'
loop_
 _atom_site_type_symbol
 _atom_site_label
 _atom_site_symmetry_multiplicity
 _atom_site_fract_x
 _atom_site_fract_y
 _atom_site_fract_z
 _atom_site_occupancy
  Y  Y0  1  0.816391  0.750000  0.219236  1
  Y  Y1  1  0.317436  0.750000  0.280949  1
  Lu  Lu2  1  0.850524  0.250000  0.219103  1
  Lu  Lu3  1  0.186958  0.250000  0.780525  1
  Lu  Lu4  1  0.684894  0.250000  0.717279  1
  Sc  Sc5  1  0.017941  0.250000  0.512416  1
  Sc  Sc6  1  0.981399  0.750000  0.491704  1
  Sc  Sc7  1  0.480607  0.750000  0.008482  1
  Sc  Sc8  1  0.517643  0.250000  0.987369  1
  Sc  Sc9  1  0.350150  0.250000  0.279508  1
  Sc  Sc10  1  0.649797  0.750000  0.721091  1
  Sc  Sc11  1  0.149494  0.750000  0.779152  1
  Sc  Sc12  1  0.192941  0.067505  0.060284  1
  Sc  Sc13  1  0.806102  0.932706  0.937847  1
  Sc  Sc14  1  0.306842  0.932998  0.563139  1
  Sc  Sc15  1  0.806102  0.567294  0.937847  1
  Sc  Sc16  1  0.692284  0.066257  0.440945  1
  Sc  Sc17  1  0.192941  0.432495  0.060284  1
  Sc  Sc18  1  0.692284  0.433743  0.440945  1
  Sc  Sc19  1  0.306842  0.567002  0.563139  1
  Bi  Bi20  1  0.401879  0.250000  0.534937  1
  Bi  Bi21  1  0.597665  0.750000  0.467767  1
  Bi  Bi22  1  0.097454  0.750000  0.032617  1
  Bi  Bi23  1  0.902722  0.250000  0.959456  1
  Bi  Bi24  1  0.067416  0.007436  0.331666  1
  Bi  Bi25  1  0.935277  0.992183  0.673002  1
  Bi  Bi26  1  0.435379  0.992216  0.827101  1
  Bi  Bi27  1  0.935277  0.507817  0.673002  1
  Bi  Bi28  1  0.562282  0.008323  0.170221  1
  Bi  Bi29  1  0.067416  0.492564  0.331666  1
  Bi  Bi30  1  0.562282  0.491677  0.170221  1
  Bi  Bi31  1  0.435379  0.507784  0.827101  1
