# generated using pymatgen
data_Dy5Y3(AlIr)2
_symmetry_space_group_name_H-M   'P 1'
_cell_length_a   9.56036442
_cell_length_b   9.56036397
_cell_length_c   9.56036400
_cell_angle_alpha   59.99999298
_cell_angle_beta   59.99999453
_cell_angle_gamma   59.99999680
_symmetry_Int_Tables_number   1
_chemical_formula_structural   Dy5Y3(AlIr)2
_chemical_formula_sum   'Dy10 Y6 Al4 Ir4'
_cell_volume   617.88585329
_cell_formula_units_Z   2
loop_
 _symmetry_equiv_pos_site_id
 _symmetry_equiv_pos_as_xyz
  1  'x, y, z'
loop_
 _atom_site_type_symbol
 _atom_site_label
 _atom_site_symmetry_multiplicity
 _atom_site_fract_x
 _atom_site_fract_y
 _atom_site_fract_z
 _atom_site_occupancy
  Dy  Dy0  1  0.351882  0.351882  0.351882  1
  Dy  Dy1  1  0.351882  0.351882  0.944352  1
  Dy  Dy2  1  0.351882  0.944352  0.351882  1
  Dy  Dy3  1  0.944352  0.351882  0.351882  1
  Dy  Dy4  1  0.806255  0.193745  0.193745  1
  Dy  Dy5  1  0.193745  0.806255  0.806255  1
  Dy  Dy6  1  0.193745  0.806255  0.193745  1
  Dy  Dy7  1  0.806255  0.193745  0.806255  1
  Dy  Dy8  1  0.193745  0.193745  0.806255  1
  Dy  Dy9  1  0.806255  0.806255  0.193745  1
  Y  Y10  1  0.938775  0.561225  0.561225  1
  Y  Y11  1  0.561225  0.938775  0.938775  1
  Y  Y12  1  0.561225  0.938775  0.561225  1
  Y  Y13  1  0.938775  0.561225  0.938775  1
  Y  Y14  1  0.561225  0.561225  0.938775  1
  Y  Y15  1  0.938775  0.938775  0.561225  1
  Al  Al16  1  0.577842  0.577842  0.577842  1
  Al  Al17  1  0.577842  0.577842  0.266473  1
  Al  Al18  1  0.577842  0.266473  0.577842  1
  Al  Al19  1  0.266473  0.577842  0.577842  1
  Ir  Ir20  1  0.142022  0.142022  0.142022  1
  Ir  Ir21  1  0.142022  0.142022  0.573933  1
  Ir  Ir22  1  0.142022  0.573933  0.142022  1
  Ir  Ir23  1  0.573933  0.142022  0.142022  1
