# generated using pymatgen
data_Ac2InPd2
_symmetry_space_group_name_H-M   'P 1'
_cell_length_a   8.18515600
_cell_length_b   8.18515600
_cell_length_c   4.12491700
_cell_angle_alpha   90.00000000
_cell_angle_beta   90.00000000
_cell_angle_gamma   90.00000000
_symmetry_Int_Tables_number   1
_chemical_formula_structural   Ac2InPd2
_chemical_formula_sum   'Ac4 In2 Pd4'
_cell_volume   276.35615159
_cell_formula_units_Z   2
loop_
 _symmetry_equiv_pos_site_id
 _symmetry_equiv_pos_as_xyz
  1  'x, y, z'
loop_
 _atom_site_type_symbol
 _atom_site_label
 _atom_site_symmetry_multiplicity
 _atom_site_fract_x
 _atom_site_fract_y
 _atom_site_fract_z
 _atom_site_occupancy
  Ac  Ac0  1  0.324804  0.824804  0.500000  1
  Ac  Ac1  1  0.824804  0.675196  0.500000  1
  Ac  Ac2  1  0.175196  0.324804  0.500000  1
  Ac  Ac3  1  0.675196  0.175196  0.500000  1
  In  In4  1  0.000000  0.000000  0.000000  1
  In  In5  1  0.500000  0.500000  0.000000  1
  Pd  Pd6  1  0.375057  0.124943  0.000000  1
  Pd  Pd7  1  0.875057  0.375057  0.000000  1
  Pd  Pd8  1  0.124943  0.624943  0.000000  1
  Pd  Pd9  1  0.624943  0.875057  0.000000  1
