# generated using pymatgen
data_Ce12Al6CuOs3Ru2
_symmetry_space_group_name_H-M   'P 1'
_cell_length_a   7.82757936
_cell_length_b   7.86531446
_cell_length_c   9.78731812
_cell_angle_alpha   91.22766836
_cell_angle_beta   89.38324696
_cell_angle_gamma   120.15960111
_symmetry_Int_Tables_number   1
_chemical_formula_structural   Ce12Al6CuOs3Ru2
_chemical_formula_sum   'Ce12 Al6 Cu1 Os3 Ru2'
_cell_volume   520.87978425
_cell_formula_units_Z   1
loop_
 _symmetry_equiv_pos_site_id
 _symmetry_equiv_pos_as_xyz
  1  'x, y, z'
loop_
 _atom_site_type_symbol
 _atom_site_label
 _atom_site_symmetry_multiplicity
 _atom_site_fract_x
 _atom_site_fract_y
 _atom_site_fract_z
 _atom_site_occupancy
  Ce  Ce0  1  0.000000  0.603162  0.503749  1
  Ce  Ce1  1  0.595215  0.003011  0.503234  1
  Ce  Ce2  1  0.404785  0.407797  0.503234  1
  Ce  Ce3  1  0.000000  0.392808  0.016706  1
  Ce  Ce4  1  0.417275  0.003477  0.005532  1
  Ce  Ce5  1  0.582725  0.586203  0.005532  1
  Ce  Ce6  1  0.000000  0.723962  0.167858  1
  Ce  Ce7  1  0.737771  0.998409  0.175097  1
  Ce  Ce8  1  0.262229  0.260638  0.175097  1
  Ce  Ce9  1  0.000000  0.259093  0.675557  1
  Ce  Ce10  1  0.273342  0.005674  0.663993  1
  Ce  Ce11  1  0.726658  0.732333  0.663993  1
  Al  Al12  1  0.666334  0.332773  0.277121  1
  Al  Al13  1  0.333666  0.666440  0.277121  1
  Al  Al14  1  0.329681  0.665708  0.777026  1
  Al  Al15  1  0.670319  0.336026  0.777026  1
  Al  Al16  1  0.000000  0.999771  0.418617  1
  Al  Al17  1  0.000000  0.999786  0.915842  1
  Cu  Cu18  1  0.000000  0.671111  0.837153  1
  Os  Os19  1  0.000000  0.338701  0.341401  1
  Os  Os20  1  0.335891  0.001712  0.334359  1
  Os  Os21  1  0.664109  0.665821  0.334359  1
  Ru  Ru22  1  0.657080  0.001333  0.839822  1
  Ru  Ru23  1  0.342920  0.344252  0.839822  1
