# generated using pymatgen
data_Na6Li4ZrSnP6
_symmetry_space_group_name_H-M   'P 1'
_cell_length_a   9.52016908
_cell_length_b   9.52016925
_cell_length_c   13.77592000
_cell_angle_alpha   90.00000000
_cell_angle_beta   90.00000000
_cell_angle_gamma   142.99018627
_symmetry_Int_Tables_number   1
_chemical_formula_structural   Na6Li4ZrSnP6
_chemical_formula_sum   'Na12 Li8 Zr2 Sn2 P12'
_cell_volume   751.57385723
_cell_formula_units_Z   2
loop_
 _symmetry_equiv_pos_site_id
 _symmetry_equiv_pos_as_xyz
  1  'x, y, z'
loop_
 _atom_site_type_symbol
 _atom_site_label
 _atom_site_symmetry_multiplicity
 _atom_site_fract_x
 _atom_site_fract_y
 _atom_site_fract_z
 _atom_site_occupancy
  Na  Na0  1  0.096319  0.437767  0.680499  1
  Na  Na1  1  0.728845  0.730895  0.682410  1
  Na  Na2  1  0.230895  0.228845  0.817590  1
  Na  Na3  1  0.771155  0.769105  0.182410  1
  Na  Na4  1  0.937767  0.596319  0.819501  1
  Na  Na5  1  0.562233  0.903681  0.319501  1
  Na  Na6  1  0.403681  0.062233  0.180499  1
  Na  Na7  1  0.052143  0.395615  0.178956  1
  Na  Na8  1  0.895615  0.552143  0.321044  1
  Na  Na9  1  0.447857  0.104385  0.678956  1
  Na  Na10  1  0.604385  0.947858  0.821044  1
  Na  Na11  1  0.269105  0.271155  0.317590  1
  Li  Li12  1  0.916660  0.083340  0.000000  1
  Li  Li13  1  0.583340  0.416660  0.500000  1
  Li  Li14  1  0.083959  0.916041  0.000000  1
  Li  Li15  1  0.416041  0.583959  0.500000  1
  Li  Li16  1  0.755879  0.244121  0.000000  1
  Li  Li17  1  0.744121  0.255879  0.500000  1
  Li  Li18  1  0.243753  0.756247  0.000000  1
  Li  Li19  1  0.256247  0.743753  0.500000  1
  Zr  Zr20  1  0.086133  0.913867  0.500000  1
  Zr  Zr21  1  0.413867  0.586133  0.000000  1
  Sn  Sn22  1  0.909206  0.090794  0.500000  1
  Sn  Sn23  1  0.590794  0.409206  0.000000  1
  P  P24  1  0.909837  0.580962  0.110145  1
  P  P25  1  0.419038  0.090163  0.889855  1
  P  P26  1  0.590163  0.919038  0.610145  1
  P  P27  1  0.928042  0.598736  0.606927  1
  P  P28  1  0.098736  0.428042  0.893073  1
  P  P29  1  0.571958  0.901264  0.106927  1
  P  P30  1  0.401264  0.071958  0.393073  1
  P  P31  1  0.241630  0.239976  0.604059  1
  P  P32  1  0.739976  0.741630  0.895941  1
  P  P33  1  0.258370  0.260024  0.104059  1
  P  P34  1  0.080962  0.409837  0.389855  1
  P  P35  1  0.760024  0.758370  0.395941  1
