# generated using pymatgen
data_Hf17ScNb2(Re3P)2
_symmetry_space_group_name_H-M   'P 1'
_cell_length_a   8.65691203
_cell_length_b   8.65568278
_cell_length_c   8.56731100
_cell_angle_alpha   90.00000000
_cell_angle_beta   90.00000000
_cell_angle_gamma   119.99489652
_symmetry_Int_Tables_number   1
_chemical_formula_structural   Hf17ScNb2(Re3P)2
_chemical_formula_sum   'Hf17 Sc1 Nb2 Re6 P2'
_cell_volume   555.98340891
_cell_formula_units_Z   1
loop_
 _symmetry_equiv_pos_site_id
 _symmetry_equiv_pos_as_xyz
  1  'x, y, z'
loop_
 _atom_site_type_symbol
 _atom_site_label
 _atom_site_symmetry_multiplicity
 _atom_site_fract_x
 _atom_site_fract_y
 _atom_site_fract_z
 _atom_site_occupancy
  Hf  Hf0  1  0.802570  0.605092  0.548786  1
  Hf  Hf1  1  0.802322  0.196935  0.549274  1
  Hf  Hf2  1  0.394333  0.196786  0.549412  1
  Hf  Hf3  1  0.197732  0.395503  0.451263  1
  Hf  Hf4  1  0.197492  0.802921  0.450577  1
  Hf  Hf5  1  0.605705  0.803078  0.450447  1
  Hf  Hf6  1  0.197732  0.395503  0.048737  1
  Hf  Hf7  1  0.197492  0.802921  0.049423  1
  Hf  Hf8  1  0.605705  0.803078  0.049553  1
  Hf  Hf9  1  0.802570  0.605092  0.951214  1
  Hf  Hf10  1  0.802322  0.196935  0.950726  1
  Hf  Hf11  1  0.394333  0.196786  0.950588  1
  Hf  Hf12  1  0.460855  0.539181  0.750000  1
  Hf  Hf13  1  0.078163  0.539044  0.750000  1
  Hf  Hf14  1  0.539949  0.079989  0.250000  1
  Hf  Hf15  1  0.539390  0.460258  0.250000  1
  Hf  Hf16  1  0.921037  0.460396  0.250000  1
  Sc  Sc17  1  0.459062  0.918004  0.750000  1
  Nb  Nb18  1  0.999959  0.999917  0.501213  1
  Nb  Nb19  1  0.999959  0.999917  0.998787  1
  Re  Re20  1  0.112570  0.225282  0.750000  1
  Re  Re21  1  0.112126  0.886616  0.750000  1
  Re  Re22  1  0.774491  0.886674  0.750000  1
  Re  Re23  1  0.888057  0.775963  0.250000  1
  Re  Re24  1  0.888102  0.112961  0.250000  1
  Re  Re25  1  0.224860  0.112889  0.250000  1
  P  P26  1  0.667519  0.335358  0.750000  1
  P  P27  1  0.333596  0.666923  0.250000  1
