# generated using pymatgen
data_Li3(ThZn7)2
_symmetry_space_group_name_H-M   'P 1'
_cell_length_a   6.83995117
_cell_length_b   6.83995060
_cell_length_c   6.83995117
_cell_angle_alpha   82.51916503
_cell_angle_beta   82.51916762
_cell_angle_gamma   82.51917376
_symmetry_Int_Tables_number   1
_chemical_formula_structural   Li3(ThZn7)2
_chemical_formula_sum   'Li3 Th2 Zn14'
_cell_volume   312.48805501
_cell_formula_units_Z   1
loop_
 _symmetry_equiv_pos_site_id
 _symmetry_equiv_pos_as_xyz
  1  'x, y, z'
loop_
 _atom_site_type_symbol
 _atom_site_label
 _atom_site_symmetry_multiplicity
 _atom_site_fract_x
 _atom_site_fract_y
 _atom_site_fract_z
 _atom_site_occupancy
  Li  Li0  1  0.000000  0.499999  0.000000  1
  Li  Li1  1  0.000000  0.000000  0.500000  1
  Li  Li2  1  0.499999  0.000000  0.000000  1
  Th  Th3  1  0.657606  0.657606  0.657606  1
  Th  Th4  1  0.342393  0.342393  0.342393  1
  Zn  Zn5  1  0.348378  0.848907  0.348380  1
  Zn  Zn6  1  0.290841  0.709158  0.000001  1
  Zn  Zn7  1  0.348379  0.348379  0.848908  1
  Zn  Zn8  1  0.151093  0.651622  0.651620  1
  Zn  Zn9  1  0.848907  0.348378  0.348380  1
  Zn  Zn10  1  0.651621  0.651621  0.151092  1
  Zn  Zn11  1  0.651622  0.151093  0.651620  1
  Zn  Zn12  1  0.897572  0.897572  0.897572  1
  Zn  Zn13  1  0.102428  0.102428  0.102428  1
  Zn  Zn14  1  0.290840  0.000000  0.709160  1
  Zn  Zn15  1  0.000000  0.709159  0.290841  1
  Zn  Zn16  1  0.709159  0.000000  0.290841  1
  Zn  Zn17  1  0.709158  0.290841  0.000001  1
  Zn  Zn18  1  0.000000  0.290840  0.709160  1
