# generated using pymatgen
data_Tb3Er3MgCo17P12
_symmetry_space_group_name_H-M   'P 1'
_cell_length_a   3.72065400
_cell_length_b   10.58631814
_cell_length_c   12.25574416
_cell_angle_alpha   89.98144818
_cell_angle_beta   90.00000000
_cell_angle_gamma   90.00000000
_symmetry_Int_Tables_number   1
_chemical_formula_structural   Tb3Er3MgCo17P12
_chemical_formula_sum   'Tb3 Er3 Mg1 Co17 P12'
_cell_volume   482.72955572
_cell_formula_units_Z   1
loop_
 _symmetry_equiv_pos_site_id
 _symmetry_equiv_pos_as_xyz
  1  'x, y, z'
loop_
 _atom_site_type_symbol
 _atom_site_label
 _atom_site_symmetry_multiplicity
 _atom_site_fract_x
 _atom_site_fract_y
 _atom_site_fract_z
 _atom_site_occupancy
  Tb  Tb0  1  0.750000  0.250078  0.474916  1
  Tb  Tb1  1  0.250000  0.749978  0.521883  1
  Tb  Tb2  1  0.750000  0.067679  0.205185  1
  Er  Er3  1  0.250000  0.928224  0.793091  1
  Er  Er4  1  0.250000  0.571768  0.792677  1
  Er  Er5  1  0.750000  0.432644  0.205040  1
  Mg  Mg6  1  0.250000  0.249890  0.846631  1
  Co  Co7  1  0.750000  0.749876  0.161207  1
  Co  Co8  1  0.250000  0.251047  0.294573  1
  Co  Co9  1  0.750000  0.749794  0.705144  1
  Co  Co10  1  0.750000  0.250676  0.013186  1
  Co  Co11  1  0.250000  0.749467  0.987517  1
  Co  Co12  1  0.250000  0.421411  0.006652  1
  Co  Co13  1  0.250000  0.079031  0.006352  1
  Co  Co14  1  0.750000  0.586745  0.998134  1
  Co  Co15  1  0.750000  0.912816  0.997681  1
  Co  Co16  1  0.250000  0.454738  0.567232  1
  Co  Co17  1  0.250000  0.045390  0.568058  1
  Co  Co18  1  0.750000  0.547517  0.429257  1
  Co  Co19  1  0.750000  0.952381  0.430302  1
  Co  Co20  1  0.250000  0.869514  0.291456  1
  Co  Co21  1  0.250000  0.629489  0.290656  1
  Co  Co22  1  0.750000  0.126673  0.707683  1
  Co  Co23  1  0.750000  0.373331  0.707245  1
  P  P24  1  0.250000  0.251048  0.115721  1
  P  P25  1  0.750000  0.749709  0.883683  1
  P  P26  1  0.250000  0.250053  0.646846  1
  P  P27  1  0.750000  0.750022  0.344293  1
  P  P28  1  0.250000  0.440953  0.382029  1
  P  P29  1  0.250000  0.059050  0.383416  1
  P  P30  1  0.750000  0.560347  0.614830  1
  P  P31  1  0.750000  0.939434  0.615454  1
  P  P32  1  0.250000  0.899930  0.109492  1
  P  P33  1  0.250000  0.599094  0.109937  1
  P  P34  1  0.750000  0.086575  0.896502  1
  P  P35  1  0.750000  0.413624  0.896040  1
