# generated using pymatgen
data_Tm3Lu17(SiSb3)3
_symmetry_space_group_name_H-M   'P 1'
_cell_length_a   7.86065304
_cell_length_b   8.95689700
_cell_length_c   11.63852719
_cell_angle_alpha   90.00000000
_cell_angle_beta   89.93935142
_cell_angle_gamma   90.00000000
_symmetry_Int_Tables_number   1
_chemical_formula_structural   Tm3Lu17(SiSb3)3
_chemical_formula_sum   'Tm3 Lu17 Si3 Sb9'
_cell_volume   819.43401836
_cell_formula_units_Z   1
loop_
 _symmetry_equiv_pos_site_id
 _symmetry_equiv_pos_as_xyz
  1  'x, y, z'
loop_
 _atom_site_type_symbol
 _atom_site_label
 _atom_site_symmetry_multiplicity
 _atom_site_fract_x
 _atom_site_fract_y
 _atom_site_fract_z
 _atom_site_occupancy
  Tm  Tm0  1  0.835599  0.250000  0.786138  1
  Tm  Tm1  1  0.141637  0.250000  0.207414  1
  Tm  Tm2  1  0.343576  0.250000  0.714068  1
  Lu  Lu3  1  0.815610  0.946037  0.063744  1
  Lu  Lu4  1  0.310656  0.044083  0.431340  1
  Lu  Lu5  1  0.180625  0.446915  0.938766  1
  Lu  Lu6  1  0.687064  0.565577  0.565710  1
  Lu  Lu7  1  0.180625  0.053085  0.938766  1
  Lu  Lu8  1  0.687064  0.934423  0.565710  1
  Lu  Lu9  1  0.815610  0.553963  0.063744  1
  Lu  Lu10  1  0.310656  0.455917  0.431340  1
  Lu  Lu11  1  0.535839  0.250000  0.996378  1
  Lu  Lu12  1  0.040938  0.750000  0.502018  1
  Lu  Lu13  1  0.461097  0.750000  0.001631  1
  Lu  Lu14  1  0.974878  0.250000  0.497340  1
  Lu  Lu15  1  0.165746  0.750000  0.213561  1
  Lu  Lu16  1  0.677566  0.250000  0.271823  1
  Lu  Lu17  1  0.334734  0.750000  0.716079  1
  Lu  Lu18  1  0.640812  0.750000  0.293489  1
  Lu  Lu19  1  0.858196  0.750000  0.794943  1
  Si  Si20  1  0.908797  0.250000  0.024758  1
  Si  Si21  1  0.416475  0.750000  0.480605  1
  Si  Si22  1  0.087734  0.750000  0.978068  1
  Sb  Sb23  1  0.932365  0.988020  0.326460  1
  Sb  Sb24  1  0.433053  0.010763  0.173029  1
  Sb  Sb25  1  0.066620  0.491860  0.674261  1
  Sb  Sb26  1  0.566897  0.510291  0.825910  1
  Sb  Sb27  1  0.066620  0.008140  0.674261  1
  Sb  Sb28  1  0.566897  0.989709  0.825910  1
  Sb  Sb29  1  0.932365  0.511980  0.326460  1
  Sb  Sb30  1  0.433053  0.489237  0.173029  1
  Sb  Sb31  1  0.590594  0.250000  0.523244  1
