# generated using pymatgen
data_Dy8Tm12Si15Rh
_symmetry_space_group_name_H-M   'P 1'
_cell_length_a   7.28198855
_cell_length_b   7.68405094
_cell_length_c   14.43789800
_cell_angle_alpha   90.00000000
_cell_angle_beta   90.00000000
_cell_angle_gamma   90.07064972
_symmetry_Int_Tables_number   1
_chemical_formula_structural   Dy8Tm12Si15Rh
_chemical_formula_sum   'Dy8 Tm12 Si15 Rh1'
_cell_volume   807.87443733
_cell_formula_units_Z   1
loop_
 _symmetry_equiv_pos_site_id
 _symmetry_equiv_pos_as_xyz
  1  'x, y, z'
loop_
 _atom_site_type_symbol
 _atom_site_label
 _atom_site_symmetry_multiplicity
 _atom_site_fract_x
 _atom_site_fract_y
 _atom_site_fract_z
 _atom_site_occupancy
  Dy  Dy0  1  0.015531  0.182821  0.096381  1
  Dy  Dy1  1  0.986900  0.822240  0.905592  1
  Dy  Dy2  1  0.486057  0.679580  0.905020  1
  Dy  Dy3  1  0.986900  0.822240  0.594408  1
  Dy  Dy4  1  0.515140  0.319668  0.096421  1
  Dy  Dy5  1  0.015531  0.182821  0.403619  1
  Dy  Dy6  1  0.515140  0.319668  0.403579  1
  Dy  Dy7  1  0.486057  0.679580  0.594980  1
  Tm  Tm8  1  0.158893  0.515400  0.750000  1
  Tm  Tm9  1  0.838078  0.488634  0.250000  1
  Tm  Tm10  1  0.339713  0.013187  0.250000  1
  Tm  Tm11  1  0.669372  0.989856  0.750000  1
  Tm  Tm12  1  0.316210  0.173444  0.626632  1
  Tm  Tm13  1  0.673963  0.823906  0.375130  1
  Tm  Tm14  1  0.172968  0.679819  0.375823  1
  Tm  Tm15  1  0.673963  0.823906  0.124870  1
  Tm  Tm16  1  0.834166  0.318411  0.625594  1
  Tm  Tm17  1  0.316210  0.173444  0.873368  1
  Tm  Tm18  1  0.834166  0.318411  0.874406  1
  Tm  Tm19  1  0.172968  0.679819  0.124177  1
  Si  Si20  1  0.969723  0.893648  0.250000  1
  Si  Si21  1  0.468947  0.607936  0.250000  1
  Si  Si22  1  0.530618  0.395068  0.750000  1
  Si  Si23  1  0.283156  0.866384  0.750000  1
  Si  Si24  1  0.718632  0.131393  0.250000  1
  Si  Si25  1  0.218753  0.370915  0.250000  1
  Si  Si26  1  0.772676  0.624920  0.750000  1
  Si  Si27  1  0.159493  0.470836  0.537539  1
  Si  Si28  1  0.842604  0.532774  0.462051  1
  Si  Si29  1  0.344940  0.969616  0.461240  1
  Si  Si30  1  0.842604  0.532774  0.037949  1
  Si  Si31  1  0.654554  0.031817  0.538151  1
  Si  Si32  1  0.159493  0.470836  0.962461  1
  Si  Si33  1  0.654554  0.031817  0.961849  1
  Si  Si34  1  0.344940  0.969616  0.038760  1
  Rh  Rh35  1  0.026387  0.092789  0.750000  1
