# generated using pymatgen
data_Tb3DyBi3Sb3Rh7
_symmetry_space_group_name_H-M   'P 1'
_cell_length_a   7.75638312
_cell_length_b   7.71373452
_cell_length_c   7.71373259
_cell_angle_alpha   109.35895046
_cell_angle_beta   109.58326663
_cell_angle_gamma   109.58326172
_symmetry_Int_Tables_number   1
_chemical_formula_structural   Tb3DyBi3Sb3Rh7
_chemical_formula_sum   'Tb3 Dy1 Bi3 Sb3 Rh7'
_cell_volume   354.78414391
_cell_formula_units_Z   1
loop_
 _symmetry_equiv_pos_site_id
 _symmetry_equiv_pos_as_xyz
  1  'x, y, z'
loop_
 _atom_site_type_symbol
 _atom_site_label
 _atom_site_symmetry_multiplicity
 _atom_site_fract_x
 _atom_site_fract_y
 _atom_site_fract_z
 _atom_site_occupancy
  Tb  Tb0  1  0.004323  0.514158  0.000000  1
  Tb  Tb1  1  0.004323  0.000000  0.514158  1
  Tb  Tb2  1  0.490165  0.485842  0.485842  1
  Dy  Dy3  1  0.464754  0.000000  0.000000  1
  Bi  Bi4  1  0.987751  0.297461  0.297461  1
  Bi  Bi5  1  0.690289  0.000000  0.702539  1
  Bi  Bi6  1  0.690289  0.702539  0.000000  1
  Sb  Sb7  1  0.989197  0.664961  0.664961  1
  Sb  Sb8  1  0.324236  0.000000  0.335039  1
  Sb  Sb9  1  0.324236  0.335039  0.000000  1
  Rh  Rh10  1  0.065803  0.000000  0.000000  1
  Rh  Rh11  1  0.496149  0.752882  0.253250  1
  Rh  Rh12  1  0.743267  0.500368  0.247118  1
  Rh  Rh13  1  0.242900  0.746750  0.499632  1
  Rh  Rh14  1  0.242900  0.499632  0.746750  1
  Rh  Rh15  1  0.496149  0.253250  0.752882  1
  Rh  Rh16  1  0.743267  0.247118  0.500368  1
