# generated using pymatgen
data_Gd16Tm4Si15Hg
_symmetry_space_group_name_H-M   'P 1'
_cell_length_a   7.42479044
_cell_length_b   7.69738043
_cell_length_c   14.65720900
_cell_angle_alpha   89.97635186
_cell_angle_beta   89.39681125
_cell_angle_gamma   90.13913124
_symmetry_Int_Tables_number   1
_chemical_formula_structural   Gd16Tm4Si15Hg
_chemical_formula_sum   'Gd16 Tm4 Si15 Hg1'
_cell_volume   837.63158213
_cell_formula_units_Z   1
loop_
 _symmetry_equiv_pos_site_id
 _symmetry_equiv_pos_as_xyz
  1  'x, y, z'
loop_
 _atom_site_type_symbol
 _atom_site_label
 _atom_site_symmetry_multiplicity
 _atom_site_fract_x
 _atom_site_fract_y
 _atom_site_fract_z
 _atom_site_occupancy
  Gd  Gd0  1  0.979810  0.823102  0.100562  1
  Gd  Gd1  1  0.474511  0.682833  0.403226  1
  Gd  Gd2  1  0.514149  0.313620  0.898974  1
  Gd  Gd3  1  0.027234  0.182193  0.596007  1
  Gd  Gd4  1  0.025650  0.175461  0.901237  1
  Gd  Gd5  1  0.525379  0.318273  0.596137  1
  Gd  Gd6  1  0.477044  0.682166  0.100177  1
  Gd  Gd7  1  0.973454  0.817132  0.402757  1
  Gd  Gd8  1  0.673499  0.830292  0.872858  1
  Gd  Gd9  1  0.185278  0.678436  0.621134  1
  Gd  Gd10  1  0.822034  0.320244  0.126910  1
  Gd  Gd11  1  0.315716  0.177437  0.377880  1
  Gd  Gd12  1  0.321199  0.177284  0.124616  1
  Gd  Gd13  1  0.816874  0.321922  0.377534  1
  Gd  Gd14  1  0.184578  0.674575  0.877682  1
  Gd  Gd15  1  0.685283  0.822955  0.621926  1
  Tm  Tm16  1  0.648047  0.988122  0.250475  1
  Tm  Tm17  1  0.149312  0.513137  0.250127  1
  Tm  Tm18  1  0.850458  0.488528  0.746597  1
  Tm  Tm19  1  0.351221  0.012465  0.747841  1
  Si  Si20  1  0.767379  0.629841  0.252111  1
  Si  Si21  1  0.266971  0.871680  0.251836  1
  Si  Si22  1  0.734532  0.129425  0.747797  1
  Si  Si23  1  0.230520  0.370887  0.747366  1
  Si  Si24  1  0.020177  0.098494  0.252306  1
  Si  Si25  1  0.521376  0.400091  0.251809  1
  Si  Si26  1  0.479527  0.599648  0.747603  1
  Si  Si27  1  0.980415  0.896422  0.748666  1
  Si  Si28  1  0.357973  0.973114  0.541077  1
  Si  Si29  1  0.649319  0.029209  0.041005  1
  Si  Si30  1  0.144166  0.472251  0.459082  1
  Si  Si31  1  0.159824  0.470891  0.044179  1
  Si  Si32  1  0.643840  0.027472  0.458586  1
  Si  Si33  1  0.351369  0.969473  0.961625  1
  Si  Si34  1  0.856883  0.528343  0.539982  1
  Hg  Hg35  1  0.834999  0.532577  0.960320  1
