# generated using pymatgen
data_Ce3As2Cl
_symmetry_space_group_name_H-M   'P 1'
_cell_length_a   7.24524855
_cell_length_b   7.24524784
_cell_length_c   7.24524887
_cell_angle_alpha   146.16698947
_cell_angle_beta   131.76541226
_cell_angle_gamma   60.21503440
_symmetry_Int_Tables_number   1
_chemical_formula_structural   Ce3As2Cl
_chemical_formula_sum   'Ce3 As2 Cl1'
_cell_volume   156.47447476
_cell_formula_units_Z   1
loop_
 _symmetry_equiv_pos_site_id
 _symmetry_equiv_pos_as_xyz
  1  'x, y, z'
loop_
 _atom_site_type_symbol
 _atom_site_label
 _atom_site_symmetry_multiplicity
 _atom_site_fract_x
 _atom_site_fract_y
 _atom_site_fract_z
 _atom_site_occupancy
  Ce  Ce0  1  0.000000  0.000000  0.000000  1
  Ce  Ce1  1  0.669926  0.669926  0.000000  1
  Ce  Ce2  1  0.330074  0.330074  0.000000  1
  As  As3  1  0.166303  0.666303  0.500000  1
  As  As4  1  0.833697  0.333697  0.500000  1
  Cl  Cl5  1  0.500000  0.000000  0.500000  1
