# generated using pymatgen
data_SrSn6(IrRu)2
_symmetry_space_group_name_H-M   'P 1'
_cell_length_a   7.01239167
_cell_length_b   7.01239133
_cell_length_c   7.01316823
_cell_angle_alpha   119.88393324
_cell_angle_beta   119.88393141
_cell_angle_gamma   90.19482695
_symmetry_Int_Tables_number   1
_chemical_formula_structural   SrSn6(IrRu)2
_chemical_formula_sum   'Sr1 Sn6 Ir2 Ru2'
_cell_volume   244.29465447
_cell_formula_units_Z   1
loop_
 _symmetry_equiv_pos_site_id
 _symmetry_equiv_pos_as_xyz
  1  'x, y, z'
loop_
 _atom_site_type_symbol
 _atom_site_label
 _atom_site_symmetry_multiplicity
 _atom_site_fract_x
 _atom_site_fract_y
 _atom_site_fract_z
 _atom_site_occupancy
  Sr  Sr0  1  0.001332  0.001332  0.000000  1
  Sn  Sn1  1  0.469576  0.121123  0.000000  1
  Sn  Sn2  1  0.121123  0.469576  0.000000  1
  Sn  Sn3  1  0.884622  0.884622  0.359383  1
  Sn  Sn4  1  0.525240  0.525240  0.640617  1
  Sn  Sn5  1  0.994930  0.494930  0.500000  1
  Sn  Sn6  1  0.494930  0.994930  0.500000  1
  Ir  Ir7  1  0.411480  0.753287  0.000000  1
  Ir  Ir8  1  0.753287  0.411480  0.000000  1
  Ru  Ru9  1  0.255487  0.255487  0.667495  1
  Ru  Ru10  1  0.587993  0.587993  0.332505  1
