# generated using pymatgen
data_Pr15Cd2Rh5
_symmetry_space_group_name_H-M   'P 1'
_cell_length_a   15.96205569
_cell_length_b   15.96205595
_cell_length_c   15.96205600
_cell_angle_alpha   37.22495858
_cell_angle_beta   37.22495734
_cell_angle_gamma   37.22495612
_symmetry_Int_Tables_number   1
_chemical_formula_structural   Pr15Cd2Rh5
_chemical_formula_sum   'Pr30 Cd4 Rh10'
_cell_volume   1334.10834240
_cell_formula_units_Z   2
loop_
 _symmetry_equiv_pos_site_id
 _symmetry_equiv_pos_as_xyz
  1  'x, y, z'
loop_
 _atom_site_type_symbol
 _atom_site_label
 _atom_site_symmetry_multiplicity
 _atom_site_fract_x
 _atom_site_fract_y
 _atom_site_fract_z
 _atom_site_occupancy
  Pr  Pr0  1  0.319649  0.941907  0.319649  1
  Pr  Pr1  1  0.319649  0.319649  0.941907  1
  Pr  Pr2  1  0.941907  0.319649  0.319649  1
  Pr  Pr3  1  0.173458  0.779131  0.173458  1
  Pr  Pr4  1  0.173458  0.173458  0.779131  1
  Pr  Pr5  1  0.779131  0.173458  0.173458  1
  Pr  Pr6  1  0.323799  0.706129  0.323799  1
  Pr  Pr7  1  0.323799  0.323799  0.706129  1
  Pr  Pr8  1  0.706129  0.323799  0.323799  1
  Pr  Pr9  1  0.478008  0.848219  0.478008  1
  Pr  Pr10  1  0.478008  0.478008  0.848219  1
  Pr  Pr11  1  0.848219  0.478008  0.478008  1
  Pr  Pr12  1  0.797007  0.420298  0.797007  1
  Pr  Pr13  1  0.797007  0.797007  0.420298  1
  Pr  Pr14  1  0.420298  0.797007  0.797007  1
  Pr  Pr15  1  0.616175  0.995342  0.616175  1
  Pr  Pr16  1  0.616175  0.616175  0.995342  1
  Pr  Pr17  1  0.995342  0.616175  0.616175  1
  Pr  Pr18  1  0.759114  0.135075  0.759114  1
  Pr  Pr19  1  0.759114  0.759114  0.135075  1
  Pr  Pr20  1  0.135075  0.759114  0.759114  1
  Pr  Pr21  1  0.082679  0.705630  0.082679  1
  Pr  Pr22  1  0.082679  0.082679  0.705630  1
  Pr  Pr23  1  0.705630  0.082679  0.082679  1
  Pr  Pr24  1  0.940543  0.558374  0.940543  1
  Pr  Pr25  1  0.940543  0.940543  0.558374  1
  Pr  Pr26  1  0.558374  0.940543  0.940543  1
  Pr  Pr27  1  0.112053  0.112053  0.112053  1
  Pr  Pr28  1  0.265258  0.265258  0.265258  1
  Pr  Pr29  1  0.521222  0.521222  0.521222  1
  Cd  Cd30  1  0.441099  0.120364  0.441099  1
  Cd  Cd31  1  0.441099  0.441099  0.120364  1
  Cd  Cd32  1  0.120364  0.441099  0.441099  1
  Cd  Cd33  1  0.392878  0.392878  0.392878  1
  Rh  Rh34  1  0.632391  0.197086  0.632391  1
  Rh  Rh35  1  0.632391  0.632391  0.197086  1
  Rh  Rh36  1  0.197086  0.632391  0.632391  1
  Rh  Rh37  1  0.932067  0.371408  0.932067  1
  Rh  Rh38  1  0.932067  0.932067  0.371408  1
  Rh  Rh39  1  0.371408  0.932067  0.932067  1
  Rh  Rh40  1  0.088536  0.517066  0.088536  1
  Rh  Rh41  1  0.088536  0.088536  0.517066  1
  Rh  Rh42  1  0.517066  0.088536  0.088536  1
  Rh  Rh43  1  0.999896  0.999896  0.999896  1
