# generated using pymatgen
data_SmAl2Au5
_symmetry_space_group_name_H-M   'P 1'
_cell_length_a   7.36359900
_cell_length_b   8.68562000
_cell_length_c   9.79174500
_cell_angle_alpha   90.00000000
_cell_angle_beta   90.00000000
_cell_angle_gamma   90.00000000
_symmetry_Int_Tables_number   1
_chemical_formula_structural   SmAl2Au5
_chemical_formula_sum   'Sm4 Al8 Au20'
_cell_volume   626.25477439
_cell_formula_units_Z   4
loop_
 _symmetry_equiv_pos_site_id
 _symmetry_equiv_pos_as_xyz
  1  'x, y, z'
loop_
 _atom_site_type_symbol
 _atom_site_label
 _atom_site_symmetry_multiplicity
 _atom_site_fract_x
 _atom_site_fract_y
 _atom_site_fract_z
 _atom_site_occupancy
  Sm  Sm0  1  0.250000  0.252593  0.126347  1
  Sm  Sm1  1  0.250000  0.752593  0.373653  1
  Sm  Sm2  1  0.750000  0.747407  0.873653  1
  Sm  Sm3  1  0.750000  0.247407  0.626347  1
  Al  Al4  1  0.250000  0.044156  0.610505  1
  Al  Al5  1  0.250000  0.544156  0.889495  1
  Al  Al6  1  0.750000  0.955844  0.389495  1
  Al  Al7  1  0.750000  0.455844  0.110505  1
  Al  Al8  1  0.250000  0.355686  0.483142  1
  Al  Al9  1  0.250000  0.855686  0.016858  1
  Al  Al10  1  0.750000  0.644314  0.516858  1
  Al  Al11  1  0.750000  0.144314  0.983142  1
  Au  Au12  1  0.058776  0.106819  0.392523  1
  Au  Au13  1  0.441224  0.606819  0.107477  1
  Au  Au14  1  0.558776  0.893181  0.607477  1
  Au  Au15  1  0.941224  0.393181  0.892523  1
  Au  Au16  1  0.941224  0.893181  0.607477  1
  Au  Au17  1  0.558776  0.393181  0.892523  1
  Au  Au18  1  0.441224  0.106819  0.392523  1
  Au  Au19  1  0.058776  0.606819  0.107477  1
  Au  Au20  1  0.032414  0.053757  0.862825  1
  Au  Au21  1  0.467586  0.553757  0.637175  1
  Au  Au22  1  0.532414  0.946243  0.137175  1
  Au  Au23  1  0.967586  0.446243  0.362825  1
  Au  Au24  1  0.967586  0.946243  0.137175  1
  Au  Au25  1  0.532414  0.446243  0.362825  1
  Au  Au26  1  0.467586  0.053757  0.862825  1
  Au  Au27  1  0.032414  0.553757  0.637175  1
  Au  Au28  1  0.250000  0.292458  0.738636  1
  Au  Au29  1  0.250000  0.792458  0.761364  1
  Au  Au30  1  0.750000  0.707542  0.261364  1
  Au  Au31  1  0.750000  0.207542  0.238636  1
