# generated using pymatgen
data_ZrTiCl6
_symmetry_space_group_name_H-M   'P 1'
_cell_length_a   6.94564900
_cell_length_b   6.94564920
_cell_length_c   5.94693800
_cell_angle_alpha   90.00000000
_cell_angle_beta   90.00000000
_cell_angle_gamma   119.99999428
_symmetry_Int_Tables_number   1
_chemical_formula_structural   ZrTiCl6
_chemical_formula_sum   'Zr1 Ti1 Cl6'
_cell_volume   248.45614628
_cell_formula_units_Z   1
loop_
 _symmetry_equiv_pos_site_id
 _symmetry_equiv_pos_as_xyz
  1  'x, y, z'
loop_
 _atom_site_type_symbol
 _atom_site_label
 _atom_site_symmetry_multiplicity
 _atom_site_fract_x
 _atom_site_fract_y
 _atom_site_fract_z
 _atom_site_occupancy
  Zr  Zr0  1  0.000000  0.000000  0.000000  1
  Ti  Ti1  1  0.000000  0.000000  0.500000  1
  Cl  Cl2  1  0.711588  0.000000  0.740682  1
  Cl  Cl3  1  0.000000  0.288412  0.259318  1
  Cl  Cl4  1  0.288412  0.000000  0.259318  1
  Cl  Cl5  1  0.000000  0.711588  0.740682  1
  Cl  Cl6  1  0.711588  0.711588  0.259318  1
  Cl  Cl7  1  0.288412  0.288412  0.740682  1
