# generated using pymatgen
data_Ho4Tm12CdIn3Ir4
_symmetry_space_group_name_H-M   'P 1'
_cell_length_a   9.56593177
_cell_length_b   9.55765853
_cell_length_c   9.55765825
_cell_angle_alpha   60.01762947
_cell_angle_beta   60.01650409
_cell_angle_gamma   60.01650413
_symmetry_Int_Tables_number   1
_chemical_formula_structural   Ho4Tm12CdIn3Ir4
_chemical_formula_sum   'Ho4 Tm12 Cd1 In3 Ir4'
_cell_volume   618.13230475
_cell_formula_units_Z   1
loop_
 _symmetry_equiv_pos_site_id
 _symmetry_equiv_pos_as_xyz
  1  'x, y, z'
loop_
 _atom_site_type_symbol
 _atom_site_label
 _atom_site_symmetry_multiplicity
 _atom_site_fract_x
 _atom_site_fract_y
 _atom_site_fract_z
 _atom_site_occupancy
  Ho  Ho0  1  0.814585  0.187077  0.811927  1
  Ho  Ho1  1  0.192026  0.810086  0.187974  1
  Ho  Ho2  1  0.814585  0.811927  0.187077  1
  Ho  Ho3  1  0.192026  0.187974  0.810086  1
  Tm  Tm4  1  0.599515  0.596163  0.596163  1
  Tm  Tm5  1  0.599764  0.601523  0.203417  1
  Tm  Tm6  1  0.599764  0.203417  0.601523  1
  Tm  Tm7  1  0.201976  0.599888  0.599888  1
  Tm  Tm8  1  0.058038  0.440554  0.440554  1
  Tm  Tm9  1  0.437221  0.060440  0.060440  1
  Tm  Tm10  1  0.440389  0.059163  0.439921  1
  Tm  Tm11  1  0.057562  0.439956  0.057866  1
  Tm  Tm12  1  0.440389  0.439921  0.059163  1
  Tm  Tm13  1  0.057562  0.057866  0.439956  1
  Tm  Tm14  1  0.192405  0.810343  0.810343  1
  Tm  Tm15  1  0.808980  0.191637  0.191637  1
  Cd  Cd16  1  0.503297  0.831530  0.831530  1
  In  In17  1  0.831323  0.833296  0.833296  1
  In  In18  1  0.830201  0.833375  0.502686  1
  In  In19  1  0.830201  0.502686  0.833375  1
  Ir  Ir20  1  0.392326  0.391246  0.391246  1
  Ir  Ir21  1  0.389236  0.392518  0.827438  1
  Ir  Ir22  1  0.389236  0.827438  0.392518  1
  Ir  Ir23  1  0.827396  0.389976  0.389976  1
