# generated using pymatgen
data_La5PdRhO12
_symmetry_space_group_name_H-M   'P 1'
_cell_length_a   7.20619139
_cell_length_b   7.20619139
_cell_length_c   7.73513500
_cell_angle_alpha   74.44889430
_cell_angle_beta   74.44889432
_cell_angle_gamma   50.41308505
_symmetry_Int_Tables_number   1
_chemical_formula_structural   La5PdRhO12
_chemical_formula_sum   'La5 Pd1 Rh1 O12'
_cell_volume   295.65572700
_cell_formula_units_Z   1
loop_
 _symmetry_equiv_pos_site_id
 _symmetry_equiv_pos_as_xyz
  1  'x, y, z'
loop_
 _atom_site_type_symbol
 _atom_site_label
 _atom_site_symmetry_multiplicity
 _atom_site_fract_x
 _atom_site_fract_y
 _atom_site_fract_z
 _atom_site_occupancy
  La  La0  1  0.311895  0.300432  0.356152  1
  La  La1  1  0.699568  0.688105  0.643848  1
  La  La2  1  0.695010  0.691102  0.164443  1
  La  La3  1  0.308898  0.304990  0.835557  1
  La  La4  1  0.001653  0.998347  0.500000  1
  Pd  Pd5  1  0.750100  0.249900  0.000000  1
  Rh  Rh6  1  0.241458  0.758542  0.000000  1
  O  O7  1  0.096242  0.598668  0.575497  1
  O  O8  1  0.999062  0.999785  0.170669  1
  O  O9  1  0.401332  0.903758  0.424503  1
  O  O10  1  0.496065  0.504750  0.172705  1
  O  O11  1  0.102878  0.584042  0.078535  1
  O  O12  1  0.908530  0.401053  0.421623  1
  O  O13  1  0.000215  0.000938  0.829331  1
  O  O14  1  0.598947  0.091469  0.578377  1
  O  O15  1  0.495250  0.503935  0.827295  1
  O  O16  1  0.573817  0.096880  0.080784  1
  O  O17  1  0.415958  0.897122  0.921465  1
  O  O18  1  0.903120  0.426183  0.919216  1
