# generated using pymatgen
data_Dy3Ho9Os3Rh
_symmetry_space_group_name_H-M   'P 1'
_cell_length_a   6.34587700
_cell_length_b   7.33627963
_cell_length_c   9.04294200
_cell_angle_alpha   90.00000000
_cell_angle_beta   90.00000000
_cell_angle_gamma   90.22342419
_symmetry_Int_Tables_number   1
_chemical_formula_structural   Dy3Ho9Os3Rh
_chemical_formula_sum   'Dy3 Ho9 Os3 Rh1'
_cell_volume   420.99212311
_cell_formula_units_Z   1
loop_
 _symmetry_equiv_pos_site_id
 _symmetry_equiv_pos_as_xyz
  1  'x, y, z'
loop_
 _atom_site_type_symbol
 _atom_site_label
 _atom_site_symmetry_multiplicity
 _atom_site_fract_x
 _atom_site_fract_y
 _atom_site_fract_z
 _atom_site_occupancy
  Dy  Dy0  1  0.869557  0.538390  0.250000  1
  Dy  Dy1  1  0.630048  0.040216  0.250000  1
  Dy  Dy2  1  0.129912  0.461468  0.750000  1
  Ho  Ho3  1  0.334095  0.673438  0.061666  1
  Ho  Ho4  1  0.169410  0.177619  0.438120  1
  Ho  Ho5  1  0.669176  0.324225  0.563502  1
  Ho  Ho6  1  0.827527  0.823788  0.933518  1
  Ho  Ho7  1  0.669176  0.324225  0.936498  1
  Ho  Ho8  1  0.827527  0.823788  0.566482  1
  Ho  Ho9  1  0.334095  0.673438  0.438334  1
  Ho  Ho10  1  0.169410  0.177619  0.061880  1
  Ho  Ho11  1  0.368834  0.961447  0.750000  1
  Os  Os12  1  0.459473  0.383658  0.250000  1
  Os  Os13  1  0.961426  0.115340  0.750000  1
  Os  Os14  1  0.538891  0.616890  0.750000  1
  Rh  Rh15  1  0.041444  0.884453  0.250000  1
