# generated using pymatgen
data_Mg3Pa(ZnPt)4
_symmetry_space_group_name_H-M   'P 1'
_cell_length_a   3.95372400
_cell_length_b   6.66274506
_cell_length_c   8.17483280
_cell_angle_alpha   92.43670696
_cell_angle_beta   90.00000000
_cell_angle_gamma   90.00000000
_symmetry_Int_Tables_number   1
_chemical_formula_structural   Mg3Pa(ZnPt)4
_chemical_formula_sum   'Mg3 Pa1 Zn4 Pt4'
_cell_volume   215.15208315
_cell_formula_units_Z   1
loop_
 _symmetry_equiv_pos_site_id
 _symmetry_equiv_pos_as_xyz
  1  'x, y, z'
loop_
 _atom_site_type_symbol
 _atom_site_label
 _atom_site_symmetry_multiplicity
 _atom_site_fract_x
 _atom_site_fract_y
 _atom_site_fract_z
 _atom_site_occupancy
  Mg  Mg0  1  0.250000  0.551637  0.156925  1
  Mg  Mg1  1  0.750000  0.452688  0.828511  1
  Mg  Mg2  1  0.750000  0.947221  0.680969  1
  Pa  Pa3  1  0.250000  0.044060  0.326527  1
  Zn  Zn4  1  0.250000  0.633850  0.559090  1
  Zn  Zn5  1  0.750000  0.380600  0.458396  1
  Zn  Zn6  1  0.750000  0.857889  0.049110  1
  Zn  Zn7  1  0.250000  0.132893  0.939547  1
  Pt  Pt8  1  0.250000  0.747564  0.863148  1
  Pt  Pt9  1  0.750000  0.256707  0.145762  1
  Pt  Pt10  1  0.750000  0.745507  0.354074  1
  Pt  Pt11  1  0.250000  0.249382  0.637941  1
