# generated using pymatgen
data_Ho5Lu11(AlNi)4
_symmetry_space_group_name_H-M   'P 1'
_cell_length_a   9.28544966
_cell_length_b   9.29021133
_cell_length_c   9.29373279
_cell_angle_alpha   60.02471837
_cell_angle_beta   60.01049610
_cell_angle_gamma   60.00577136
_symmetry_Int_Tables_number   1
_chemical_formula_structural   Ho5Lu11(AlNi)4
_chemical_formula_sum   'Ho5 Lu11 Al4 Ni4'
_cell_volume   567.07197081
_cell_formula_units_Z   1
loop_
 _symmetry_equiv_pos_site_id
 _symmetry_equiv_pos_as_xyz
  1  'x, y, z'
loop_
 _atom_site_type_symbol
 _atom_site_label
 _atom_site_symmetry_multiplicity
 _atom_site_fract_x
 _atom_site_fract_y
 _atom_site_fract_z
 _atom_site_occupancy
  Ho  Ho0  1  0.563291  0.936573  0.936566  1
  Ho  Ho1  1  0.564444  0.935856  0.562929  1
  Ho  Ho2  1  0.936740  0.562926  0.935759  1
  Ho  Ho3  1  0.564441  0.562780  0.935914  1
  Ho  Ho4  1  0.936672  0.935696  0.563028  1
  Lu  Lu5  1  0.349742  0.350019  0.350071  1
  Lu  Lu6  1  0.350079  0.350338  0.949468  1
  Lu  Lu7  1  0.349885  0.949912  0.350363  1
  Lu  Lu8  1  0.950628  0.349647  0.349710  1
  Lu  Lu9  1  0.810514  0.189529  0.189539  1
  Lu  Lu10  1  0.189327  0.810564  0.810711  1
  Lu  Lu11  1  0.188640  0.810170  0.190632  1
  Lu  Lu12  1  0.810260  0.190694  0.810456  1
  Lu  Lu13  1  0.188616  0.190673  0.810317  1
  Lu  Lu14  1  0.810317  0.810364  0.190667  1
  Lu  Lu15  1  0.938537  0.561317  0.561429  1
  Al  Al16  1  0.577844  0.577596  0.577496  1
  Al  Al17  1  0.577201  0.577511  0.268199  1
  Al  Al18  1  0.577211  0.268202  0.577466  1
  Al  Al19  1  0.267010  0.577616  0.577534  1
  Ni  Ni20  1  0.142526  0.141895  0.141948  1
  Ni  Ni21  1  0.141157  0.143700  0.573760  1
  Ni  Ni22  1  0.141856  0.572888  0.143075  1
  Ni  Ni23  1  0.573063  0.143535  0.142959  1
