# generated using pymatgen
data_TbEr3(Rh2O7)2
_symmetry_space_group_name_H-M   'P 1'
_cell_length_a   7.20959781
_cell_length_b   7.20959707
_cell_length_c   7.22041523
_cell_angle_alpha   60.04954675
_cell_angle_beta   60.04954995
_cell_angle_gamma   59.99999517
_symmetry_Int_Tables_number   1
_chemical_formula_structural   TbEr3(Rh2O7)2
_chemical_formula_sum   'Tb1 Er3 Rh4 O14'
_cell_volume   265.57918808
_cell_formula_units_Z   1
loop_
 _symmetry_equiv_pos_site_id
 _symmetry_equiv_pos_as_xyz
  1  'x, y, z'
loop_
 _atom_site_type_symbol
 _atom_site_label
 _atom_site_symmetry_multiplicity
 _atom_site_fract_x
 _atom_site_fract_y
 _atom_site_fract_z
 _atom_site_occupancy
  Tb  Tb0  1  0.125000  0.125000  0.625000  1
  Er  Er1  1  0.125000  0.125000  0.125000  1
  Er  Er2  1  0.125000  0.625000  0.125000  1
  Er  Er3  1  0.625000  0.125000  0.125000  1
  Rh  Rh4  1  0.625000  0.625000  0.625000  1
  Rh  Rh5  1  0.625000  0.625000  0.125000  1
  Rh  Rh6  1  0.125000  0.625000  0.625000  1
  Rh  Rh7  1  0.625000  0.125000  0.625000  1
  O  O8  1  0.251295  0.251295  0.246113  1
  O  O9  1  0.287272  0.712823  0.287082  1
  O  O10  1  0.962991  0.962991  0.534181  1
  O  O11  1  0.539838  0.962991  0.534181  1
  O  O12  1  0.712823  0.712823  0.287082  1
  O  O13  1  0.962991  0.539838  0.534181  1
  O  O14  1  0.710162  0.287009  0.715819  1
  O  O15  1  0.287009  0.287009  0.715819  1
  O  O16  1  0.712823  0.287272  0.287082  1
  O  O17  1  0.287009  0.710162  0.715819  1
  O  O18  1  0.962728  0.537177  0.962918  1
  O  O19  1  0.537177  0.537177  0.962918  1
  O  O20  1  0.998705  0.998705  0.003887  1
  O  O21  1  0.537177  0.962728  0.962918  1
